MODEL 1
REMARK VINA RESULT:     -10.8      0.000      0.000
REMARK SMILES O=C(OCCOCCOCCOC(=O)[C@H](C[NH+]1CCCC1)c1ccc(Br)cc1)c1ccc(-c2c3nc(c(-c4c(F)c(F)c(F)c(F)c4F)c4ccc([nH]4)c(-c4c(F)c(F)c(F)c(F)c4F)c4nc(c(-c5c(F)c(F)c(F)c(F)c5F)c5ccc2[nH]5)C=C4)C=C3)cc1
REMARK SMILES IDX 7 1 6 2 5 3 4 4 3 5 2 6 1 7 29 8 30 9 91 10 31 11 90 12
REMARK SMILES IDX 32 13 33 14 34 15 84 16 35 17 89 18 83 19 85 20 36 21 88 22
REMARK SMILES IDX 82 23 81 24 37 26 69 27 49 28 68 29 50 30 53 31 67 32 86 33
REMARK SMILES IDX 51 34 52 35 66 37 87 38 54 39 38 40 39 41 47 42 40 43 41 44
REMARK SMILES IDX 45 45 48 46 42 47 43 48 46 49 44 50 70 51 71 52 79 53 72 54
REMARK SMILES IDX 73 55 77 56 80 57 74 58 75 59 78 60 76 61 55 62 56 63 64 64
REMARK SMILES IDX 57 65 58 66 62 67 65 68 59 69 60 70 63 71 61 72 8 73 9 74
REMARK SMILES IDX 10 75 11 76 12 77 13 78 14 79 15 80 22 81 23 82 28 83 24 84
REMARK SMILES IDX 27 85 25 86 26 87 16 88 17 89 18 90 21 91 19 93 20 94
REMARK H PARENT 85 25 53 36 17 92
REMARK Flexibility Score: inf
ROOT
ATOM      1  C   UNL A   1      40.900  20.752  27.108  1.00  0.00     0.188 C 
ENDROOT
BRANCH   1   2
ATOM      2  O   UNL A   1      41.361  19.566  26.465  1.00  0.00    -0.376 OA
BRANCH   2   3
ATOM      3  C   UNL A   1      42.281  18.736  27.168  1.00  0.00     0.202 C 
BRANCH   3   4
ATOM      4  C   UNL A   1      43.195  17.847  26.315  1.00  0.00     0.261 C 
BRANCH   4   5
ATOM      5  O   UNL A   1      43.481  18.388  25.022  1.00  0.00    -0.460 OA
BRANCH   5   6
ATOM      6  C   UNL A   1      44.529  19.185  24.700  1.00  0.00     0.338 C 
ATOM      7  O   UNL A   1      45.608  18.651  24.445  1.00  0.00    -0.246 OA
BRANCH   6   8
ATOM      8  C   UNL A   1      44.499  20.688  24.831  1.00  0.00     0.060 A 
ATOM      9  C   UNL A   1      44.540  21.630  23.793  1.00  0.00     0.016 A 
ATOM     10  C   UNL A   1      44.340  21.185  26.132  1.00  0.00     0.016 A 
ATOM     11  C   UNL A   1      44.390  23.002  24.009  1.00  0.00     0.010 A 
ATOM     12  C   UNL A   1      44.198  22.555  26.365  1.00  0.00     0.010 A 
ATOM     13  C   UNL A   1      44.236  23.476  25.299  1.00  0.00    -0.014 A 
BRANCH  13  14
ATOM     14  C   UNL A   1      44.390  24.914  25.608  1.00  0.00     0.031 A 
ATOM     15  C   UNL A   1      45.798  25.420  25.582  1.00  0.00     0.074 A 
ATOM     16  C   UNL A   1      43.367  25.719  25.952  1.00  0.00     0.049 A 
ATOM     17  N   UNL A   1      46.312  26.502  26.092  1.00  0.00    -0.248 NA
ATOM     18  C   UNL A   1      46.772  24.537  24.912  1.00  0.00     0.031 C 
ATOM     19  C   UNL A   1      41.945  25.392  25.884  1.00  0.00     0.029 A 
ATOM     20  N   UNL A   1      43.388  26.969  26.520  1.00  0.00    -0.354 N 
ATOM     21  C   UNL A   1      47.666  26.418  25.810  1.00  0.00     0.074 A 
ATOM     22  C   UNL A   1      47.912  25.123  25.222  1.00  0.00     0.031 C 
ATOM     23  C   UNL A   1      41.241  26.341  26.526  1.00  0.00     0.029 A 
ATOM     24  C   UNL A   1      42.166  27.355  27.019  1.00  0.00     0.049 A 
ATOM     25  H   UNL A   1      44.195  27.532  26.564  1.00  0.00     0.167 HD
ATOM     26  C   UNL A   1      48.610  27.372  25.956  1.00  0.00     0.037 A 
ATOM     27  C   UNL A   1      41.850  28.398  27.812  1.00  0.00     0.037 A 
ATOM     28  C   UNL A   1      48.325  28.661  26.513  1.00  0.00     0.049 A 
ATOM     29  C   UNL A   1      42.932  29.401  28.115  1.00  0.00     0.074 A 
ATOM     30  C   UNL A   1      49.167  29.737  26.694  1.00  0.00     0.029 A 
ATOM     31  N   UNL A   1      47.072  29.036  26.985  1.00  0.00    -0.354 N 
ATOM     32  N   UNL A   1      44.208  29.353  27.812  1.00  0.00    -0.248 NA
ATOM     33  C   UNL A   1      42.525  30.631  28.805  1.00  0.00     0.031 C 
ATOM     34  C   UNL A   1      48.432  30.751  27.320  1.00  0.00     0.029 A 
ATOM     35  C   UNL A   1      47.119  30.326  27.473  1.00  0.00     0.049 A 
ATOM     36  H   UNL A   1      46.269  28.466  26.973  1.00  0.00     0.167 HD
ATOM     37  C   UNL A   1      44.739  30.578  28.190  1.00  0.00     0.074 A 
ATOM     38  C   UNL A   1      43.653  31.331  28.786  1.00  0.00     0.031 C 
ATOM     39  C   UNL A   1      45.999  31.052  28.024  1.00  0.00     0.037 A 
BRANCH  26  40
ATOM     40  C   UNL A   1      49.992  27.013  25.496  1.00  0.00     0.064 A 
ATOM     41  C   UNL A   1      50.405  27.234  24.169  1.00  0.00     0.173 A 
ATOM     42  C   UNL A   1      50.865  26.322  26.346  1.00  0.00     0.173 A 
ATOM     43  F   UNL A   1      49.594  27.866  23.306  1.00  0.00    -0.203 F 
ATOM     44  C   UNL A   1      51.597  26.701  23.691  1.00  0.00     0.198 A 
ATOM     45  C   UNL A   1      52.079  25.827  25.874  1.00  0.00     0.198 A 
ATOM     46  F   UNL A   1      50.522  26.082  27.620  1.00  0.00    -0.203 F 
ATOM     47  F   UNL A   1      51.907  26.816  22.392  1.00  0.00    -0.200 F 
ATOM     48  C   UNL A   1      52.433  25.995  24.543  1.00  0.00     0.200 A 
ATOM     49  F   UNL A   1      52.889  25.150  26.699  1.00  0.00    -0.200 F 
ATOM     50  F   UNL A   1      53.565  25.454  24.075  1.00  0.00    -0.200 F 
ENDBRANCH  26  40
BRANCH  27  51
ATOM     51  C   UNL A   1      40.461  28.570  28.314  1.00  0.00     0.064 A 
ATOM     52  C   UNL A   1      40.096  28.134  29.594  1.00  0.00     0.173 A 
ATOM     53  C   UNL A   1      39.470  29.177  27.527  1.00  0.00     0.173 A 
ATOM     54  F   UNL A   1      41.003  27.535  30.379  1.00  0.00    -0.203 F 
ATOM     55  C   UNL A   1      38.790  28.279  30.062  1.00  0.00     0.198 A 
ATOM     56  C   UNL A   1      38.166  29.334  28.000  1.00  0.00     0.198 A 
ATOM     57  F   UNL A   1      39.766  29.618  26.295  1.00  0.00    -0.203 F 
ATOM     58  F   UNL A   1      38.463  27.822  31.278  1.00  0.00    -0.200 F 
ATOM     59  C   UNL A   1      37.826  28.880  29.267  1.00  0.00     0.200 A 
ATOM     60  F   UNL A   1      37.239  29.919  27.230  1.00  0.00    -0.200 F 
ATOM     61  F   UNL A   1      36.571  29.015  29.717  1.00  0.00    -0.200 F 
ENDBRANCH  27  51
BRANCH  39  62
ATOM     62  C   UNL A   1      46.255  32.480  28.394  1.00  0.00     0.064 A 
ATOM     63  C   UNL A   1      46.049  33.529  27.491  1.00  0.00     0.173 A 
ATOM     64  C   UNL A   1      46.602  32.800  29.717  1.00  0.00     0.173 A 
ATOM     65  F   UNL A   1      45.732  33.270  26.214  1.00  0.00    -0.203 F 
ATOM     66  C   UNL A   1      46.182  34.853  27.899  1.00  0.00     0.198 A 
ATOM     67  C   UNL A   1      46.701  34.123  30.129  1.00  0.00     0.198 A 
ATOM     68  F   UNL A   1      46.804  31.826  30.617  1.00  0.00    -0.203 F 
ATOM     69  F   UNL A   1      46.005  35.844  27.016  1.00  0.00    -0.200 F 
ATOM     70  C   UNL A   1      46.492  35.148  29.220  1.00  0.00     0.200 A 
ATOM     71  F   UNL A   1      46.978  34.405  31.409  1.00  0.00    -0.200 F 
ATOM     72  F   UNL A   1      46.586  36.424  29.618  1.00  0.00    -0.200 F 
ENDBRANCH  39  62
ENDBRANCH  13  14
ENDBRANCH   6   8
ENDBRANCH   5   6
ENDBRANCH   4   5
ENDBRANCH   3   4
ENDBRANCH   2   3
ENDBRANCH   1   2
BRANCH   1  73
ATOM     73  C   UNL A   1      40.262  21.819  26.219  1.00  0.00     0.188 C 
BRANCH  73  74
ATOM     74  O   UNL A   1      39.704  22.873  26.974  1.00  0.00    -0.376 OA
BRANCH  74  75
ATOM     75  C   UNL A   1      38.648  23.617  26.391  1.00  0.00     0.202 C 
BRANCH  75  76
ATOM     76  C   UNL A   1      37.638  22.959  25.433  1.00  0.00     0.261 C 
BRANCH  76  77
ATOM     77  O   UNL A   1      36.488  23.696  24.975  1.00  0.00    -0.463 OA
BRANCH  77  78
ATOM     78  C   UNL A   1      35.865  23.329  23.824  1.00  0.00     0.319 C 
ATOM     79  O   UNL A   1      36.444  23.178  22.752  1.00  0.00    -0.251 OA
BRANCH  78  80
ATOM     80  C   UNL A   1      34.346  23.191  24.063  1.00  0.00     0.184 C 
BRANCH  80  81
ATOM     81  C   UNL A   1      33.973  21.713  24.166  1.00  0.00    -0.028 A 
ATOM     82  C   UNL A   1      34.880  20.819  24.769  1.00  0.00     0.006 A 
ATOM     83  C   UNL A   1      32.756  21.196  23.699  1.00  0.00     0.006 A 
ATOM     84  C   UNL A   1      34.532  19.489  25.000  1.00  0.00     0.016 A 
ATOM     85  C   UNL A   1      32.416  19.858  23.904  1.00  0.00     0.016 A 
ATOM     86  C   UNL A   1      33.292  19.019  24.583  1.00  0.00     0.017 A 
ATOM     87  Br  UNL A   1      32.781  17.242  24.965  1.00  0.00    -0.051 Br
ENDBRANCH  80  81
BRANCH  80  88
ATOM     88  C   UNL A   1      33.959  24.112  25.261  1.00  0.00     0.282 C 
BRANCH  88  89
ATOM     89  N   UNL A   1      33.044  25.264  25.035  1.00  0.00    -0.334 N 
ATOM     90  C   UNL A   1      32.091  25.533  26.114  1.00  0.00     0.262 C 
ATOM     91  C   UNL A   1      32.178  25.035  23.860  1.00  0.00     0.262 C 
ATOM     92  H   UNL A   1      33.695  26.043  24.937  1.00  0.00     0.348 HD
ATOM     93  C   UNL A   1      30.999  24.517  25.892  1.00  0.00     0.067 C 
ATOM     94  C   UNL A   1      30.938  24.331  24.389  1.00  0.00     0.067 C 
ENDBRANCH  88  89
ENDBRANCH  80  88
ENDBRANCH  78  80
ENDBRANCH  77  78
ENDBRANCH  76  77
ENDBRANCH  75  76
ENDBRANCH  74  75
ENDBRANCH  73  74
ENDBRANCH   1  73
TORSDOF 20
ENDMDL
MODEL 2
REMARK VINA RESULT:     -10.7      4.166      9.122
REMARK SMILES O=C(OCCOCCOCCOC(=O)[C@H](C[NH+]1CCCC1)c1ccc(Br)cc1)c1ccc(-c2c3nc(c(-c4c(F)c(F)c(F)c(F)c4F)c4ccc([nH]4)c(-c4c(F)c(F)c(F)c(F)c4F)c4nc(c(-c5c(F)c(F)c(F)c(F)c5F)c5ccc2[nH]5)C=C4)C=C3)cc1
REMARK SMILES IDX 7 1 6 2 5 3 4 4 3 5 2 6 1 7 29 8 30 9 91 10 31 11 90 12
REMARK SMILES IDX 32 13 33 14 34 15 84 16 35 17 89 18 83 19 85 20 36 21 88 22
REMARK SMILES IDX 82 23 81 24 37 26 69 27 49 28 68 29 50 30 53 31 67 32 86 33
REMARK SMILES IDX 51 34 52 35 66 37 87 38 54 39 38 40 39 41 47 42 40 43 41 44
REMARK SMILES IDX 45 45 48 46 42 47 43 48 46 49 44 50 70 51 71 52 79 53 72 54
REMARK SMILES IDX 73 55 77 56 80 57 74 58 75 59 78 60 76 61 55 62 56 63 64 64
REMARK SMILES IDX 57 65 58 66 62 67 65 68 59 69 60 70 63 71 61 72 8 73 9 74
REMARK SMILES IDX 10 75 11 76 12 77 13 78 14 79 15 80 22 81 23 82 28 83 24 84
REMARK SMILES IDX 27 85 25 86 26 87 16 88 17 89 18 90 21 91 19 93 20 94
REMARK H PARENT 85 25 53 36 17 92
REMARK Flexibility Score: inf
ROOT
ATOM      1  C   UNL A   1      32.327  25.908  26.094  1.00  0.00     0.188 C 
ENDROOT
BRANCH   1   2
ATOM      2  O   UNL A   1      32.581  27.157  25.455  1.00  0.00    -0.376 OA
BRANCH   2   3
ATOM      3  C   UNL A   1      33.567  28.014  26.024  1.00  0.00     0.202 C 
BRANCH   3   4
ATOM      4  C   UNL A   1      33.121  28.887  27.204  1.00  0.00     0.261 C 
BRANCH   4   5
ATOM      5  O   UNL A   1      33.603  30.232  27.138  1.00  0.00    -0.460 OA
BRANCH   5   6
ATOM      6  C   UNL A   1      34.422  30.835  28.036  1.00  0.00     0.338 C 
ATOM      7  O   UNL A   1      34.139  31.973  28.407  1.00  0.00    -0.246 OA
BRANCH   6   8
ATOM      8  C   UNL A   1      35.758  30.268  28.450  1.00  0.00     0.060 A 
ATOM      9  C   UNL A   1      36.091  29.702  29.689  1.00  0.00     0.016 A 
ATOM     10  C   UNL A   1      36.746  30.244  27.456  1.00  0.00     0.016 A 
ATOM     11  C   UNL A   1      37.326  29.098  29.939  1.00  0.00     0.010 A 
ATOM     12  C   UNL A   1      37.989  29.652  27.693  1.00  0.00     0.010 A 
ATOM     13  C   UNL A   1      38.291  29.085  28.947  1.00  0.00    -0.014 A 
BRANCH  13  14
ATOM     14  C   UNL A   1      39.698  28.750  29.255  1.00  0.00     0.031 A 
ATOM     15  C   UNL A   1      40.513  29.880  29.801  1.00  0.00     0.074 A 
ATOM     16  C   UNL A   1      40.250  27.545  29.015  1.00  0.00     0.049 A 
ATOM     17  N   UNL A   1      41.804  30.024  29.878  1.00  0.00    -0.248 NA
ATOM     18  C   UNL A   1      39.738  31.036  30.292  1.00  0.00     0.031 C 
ATOM     19  C   UNL A   1      39.543  26.330  28.619  1.00  0.00     0.029 A 
ATOM     20  N   UNL A   1      41.572  27.177  28.989  1.00  0.00    -0.354 N 
ATOM     21  C   UNL A   1      41.988  31.288  30.415  1.00  0.00     0.074 A 
ATOM     22  C   UNL A   1      40.694  31.919  30.505  1.00  0.00     0.031 C 
ATOM     23  C   UNL A   1      40.437  25.400  28.241  1.00  0.00     0.029 A 
ATOM     24  C   UNL A   1      41.779  25.950  28.403  1.00  0.00     0.049 A 
ATOM     25  H   UNL A   1      42.298  27.734  29.353  1.00  0.00     0.167 HD
ATOM     26  C   UNL A   1      43.132  31.844  30.869  1.00  0.00     0.037 A 
ATOM     27  C   UNL A   1      42.928  25.362  28.017  1.00  0.00     0.037 A 
ATOM     28  C   UNL A   1      44.396  31.176  30.795  1.00  0.00     0.049 A 
ATOM     29  C   UNL A   1      44.221  26.044  28.382  1.00  0.00     0.074 A 
ATOM     30  C   UNL A   1      45.631  31.597  31.240  1.00  0.00     0.029 A 
ATOM     31  N   UNL A   1      44.573  29.921  30.223  1.00  0.00    -0.354 N 
ATOM     32  N   UNL A   1      44.404  27.220  28.934  1.00  0.00    -0.248 NA
ATOM     33  C   UNL A   1      45.460  25.295  28.139  1.00  0.00     0.031 C 
ATOM     34  C   UNL A   1      46.566  30.614  30.895  1.00  0.00     0.029 A 
ATOM     35  C   UNL A   1      45.902  29.556  30.289  1.00  0.00     0.049 A 
ATOM     36  H   UNL A   1      43.856  29.373  29.829  1.00  0.00     0.167 HD
ATOM     37  C   UNL A   1      45.765  27.318  29.187  1.00  0.00     0.074 A 
ATOM     38  C   UNL A   1      46.365  26.096  28.687  1.00  0.00     0.031 C 
ATOM     39  C   UNL A   1      46.450  28.308  29.811  1.00  0.00     0.037 A 
BRANCH  26  40
ATOM     40  C   UNL A   1      43.010  33.215  31.467  1.00  0.00     0.064 A 
ATOM     41  C   UNL A   1      43.209  34.373  30.694  1.00  0.00     0.173 A 
ATOM     42  C   UNL A   1      42.828  33.373  32.846  1.00  0.00     0.173 A 
ATOM     43  F   UNL A   1      43.418  34.276  29.371  1.00  0.00    -0.203 F 
ATOM     44  C   UNL A   1      43.316  35.625  31.291  1.00  0.00     0.198 A 
ATOM     45  C   UNL A   1      42.892  34.633  33.435  1.00  0.00     0.198 A 
ATOM     46  F   UNL A   1      42.635  32.303  33.632  1.00  0.00    -0.203 F 
ATOM     47  F   UNL A   1      43.633  36.695  30.549  1.00  0.00    -0.200 F 
ATOM     48  C   UNL A   1      43.160  35.754  32.663  1.00  0.00     0.200 A 
ATOM     49  F   UNL A   1      42.735  34.760  34.760  1.00  0.00    -0.200 F 
ATOM     50  F   UNL A   1      43.296  36.954  33.242  1.00  0.00    -0.200 F 
ENDBRANCH  26  40
BRANCH  27  51
ATOM     51  C   UNL A   1      42.906  24.055  27.309  1.00  0.00     0.064 A 
ATOM     52  C   UNL A   1      42.599  22.869  27.989  1.00  0.00     0.173 A 
ATOM     53  C   UNL A   1      43.187  23.962  25.937  1.00  0.00     0.173 A 
ATOM     54  F   UNL A   1      42.337  22.903  29.303  1.00  0.00    -0.203 F 
ATOM     55  C   UNL A   1      42.594  21.639  27.331  1.00  0.00     0.198 A 
ATOM     56  C   UNL A   1      43.169  22.733  25.276  1.00  0.00     0.198 A 
ATOM     57  F   UNL A   1      43.482  25.068  25.235  1.00  0.00    -0.203 F 
ATOM     58  F   UNL A   1      42.330  20.518  28.016  1.00  0.00    -0.200 F 
ATOM     59  C   UNL A   1      42.877  21.571  25.976  1.00  0.00     0.200 A 
ATOM     60  F   UNL A   1      43.439  22.672  23.965  1.00  0.00    -0.200 F 
ATOM     61  F   UNL A   1      42.875  20.388  25.346  1.00  0.00    -0.200 F 
ENDBRANCH  27  51
BRANCH  39  62
ATOM     62  C   UNL A   1      47.904  28.077  30.084  1.00  0.00     0.064 A 
ATOM     63  C   UNL A   1      48.344  27.348  31.195  1.00  0.00     0.173 A 
ATOM     64  C   UNL A   1      48.859  28.501  29.146  1.00  0.00     0.173 A 
ATOM     65  F   UNL A   1      47.468  26.936  32.123  1.00  0.00    -0.203 F 
ATOM     66  C   UNL A   1      49.693  27.049  31.358  1.00  0.00     0.198 A 
ATOM     67  C   UNL A   1      50.201  28.173  29.296  1.00  0.00     0.198 A 
ATOM     68  F   UNL A   1      48.482  29.199  28.064  1.00  0.00    -0.203 F 
ATOM     69  F   UNL A   1      50.100  26.370  32.438  1.00  0.00    -0.200 F 
ATOM     70  C   UNL A   1      50.617  27.448  30.402  1.00  0.00     0.200 A 
ATOM     71  F   UNL A   1      51.087  28.540  28.360  1.00  0.00    -0.200 F 
ATOM     72  F   UNL A   1      51.911  27.130  30.544  1.00  0.00    -0.200 F 
ENDBRANCH  39  62
ENDBRANCH  13  14
ENDBRANCH   6   8
ENDBRANCH   5   6
ENDBRANCH   4   5
ENDBRANCH   3   4
ENDBRANCH   2   3
ENDBRANCH   1   2
BRANCH   1  73
ATOM     73  C   UNL A   1      31.147  25.090  25.571  1.00  0.00     0.188 C 
BRANCH  73  74
ATOM     74  O   UNL A   1      30.421  24.480  26.617  1.00  0.00    -0.376 OA
BRANCH  74  75
ATOM     75  C   UNL A   1      30.410  23.064  26.676  1.00  0.00     0.202 C 
BRANCH  75  76
ATOM     76  C   UNL A   1      31.671  22.238  26.363  1.00  0.00     0.261 C 
BRANCH  76  77
ATOM     77  O   UNL A   1      31.619  21.175  25.393  1.00  0.00    -0.463 OA
BRANCH  77  78
ATOM     78  C   UNL A   1      32.478  21.179  24.341  1.00  0.00     0.319 C 
ATOM     79  O   UNL A   1      32.413  21.975  23.408  1.00  0.00    -0.251 OA
BRANCH  78  80
ATOM     80  C   UNL A   1      33.487  20.018  24.475  1.00  0.00     0.184 C 
BRANCH  80  81
ATOM     81  C   UNL A   1      34.831  20.558  24.965  1.00  0.00    -0.028 A 
ATOM     82  C   UNL A   1      35.998  19.805  24.730  1.00  0.00     0.006 A 
ATOM     83  C   UNL A   1      34.965  21.783  25.634  1.00  0.00     0.006 A 
ATOM     84  C   UNL A   1      37.257  20.314  25.044  1.00  0.00     0.016 A 
ATOM     85  C   UNL A   1      36.222  22.283  25.976  1.00  0.00     0.016 A 
ATOM     86  C   UNL A   1      37.364  21.561  25.650  1.00  0.00     0.017 A 
ATOM     87  Br  UNL A   1      39.068  22.293  26.004  1.00  0.00    -0.051 Br
ENDBRANCH  80  81
BRANCH  80  88
ATOM     88  C   UNL A   1      32.819  18.890  25.319  1.00  0.00     0.282 C 
BRANCH  88  89
ATOM     89  N   UNL A   1      32.290  17.679  24.636  1.00  0.00    -0.334 N 
ATOM     90  C   UNL A   1      32.506  16.413  25.341  1.00  0.00     0.262 C 
ATOM     91  C   UNL A   1      32.956  17.465  23.335  1.00  0.00     0.262 C 
ATOM     92  H   UNL A   1      31.292  17.882  24.574  1.00  0.00     0.348 HD
ATOM     93  C   UNL A   1      33.939  16.065  25.026  1.00  0.00     0.067 C 
ATOM     94  C   UNL A   1      34.173  16.601  23.628  1.00  0.00     0.067 C 
ENDBRANCH  88  89
ENDBRANCH  80  88
ENDBRANCH  78  80
ENDBRANCH  77  78
ENDBRANCH  76  77
ENDBRANCH  75  76
ENDBRANCH  74  75
ENDBRANCH  73  74
ENDBRANCH   1  73
TORSDOF 20
ENDMDL
MODEL 3
REMARK VINA RESULT:     -10.6      5.355      9.225
REMARK SMILES O=C(OCCOCCOCCOC(=O)[C@H](C[NH+]1CCCC1)c1ccc(Br)cc1)c1ccc(-c2c3nc(c(-c4c(F)c(F)c(F)c(F)c4F)c4ccc([nH]4)c(-c4c(F)c(F)c(F)c(F)c4F)c4nc(c(-c5c(F)c(F)c(F)c(F)c5F)c5ccc2[nH]5)C=C4)C=C3)cc1
REMARK SMILES IDX 7 1 6 2 5 3 4 4 3 5 2 6 1 7 29 8 30 9 91 10 31 11 90 12
REMARK SMILES IDX 32 13 33 14 34 15 84 16 35 17 89 18 83 19 85 20 36 21 88 22
REMARK SMILES IDX 82 23 81 24 37 26 69 27 49 28 68 29 50 30 53 31 67 32 86 33
REMARK SMILES IDX 51 34 52 35 66 37 87 38 54 39 38 40 39 41 47 42 40 43 41 44
REMARK SMILES IDX 45 45 48 46 42 47 43 48 46 49 44 50 70 51 71 52 79 53 72 54
REMARK SMILES IDX 73 55 77 56 80 57 74 58 75 59 78 60 76 61 55 62 56 63 64 64
REMARK SMILES IDX 57 65 58 66 62 67 65 68 59 69 60 70 63 71 61 72 8 73 9 74
REMARK SMILES IDX 10 75 11 76 12 77 13 78 14 79 15 80 22 81 23 82 28 83 24 84
REMARK SMILES IDX 27 85 25 86 26 87 16 88 17 89 18 90 21 91 19 93 20 94
REMARK H PARENT 85 25 53 36 17 92
REMARK Flexibility Score: inf
ROOT
ATOM      1  C   UNL A   1      31.119  26.395  26.015  1.00  0.00     0.188 C 
ENDROOT
BRANCH   1   2
ATOM      2  O   UNL A   1      30.997  27.511  25.136  1.00  0.00    -0.376 OA
BRANCH   2   3
ATOM      3  C   UNL A   1      32.035  28.486  25.141  1.00  0.00     0.202 C 
BRANCH   3   4
ATOM      4  C   UNL A   1      32.216  29.290  26.435  1.00  0.00     0.261 C 
BRANCH   4   5
ATOM      5  O   UNL A   1      32.906  30.530  26.250  1.00  0.00    -0.460 OA
BRANCH   5   6
ATOM      6  C   UNL A   1      33.477  31.283  27.223  1.00  0.00     0.338 C 
ATOM      7  O   UNL A   1      32.999  32.392  27.454  1.00  0.00    -0.246 OA
BRANCH   6   8
ATOM      8  C   UNL A   1      34.778  30.920  27.895  1.00  0.00     0.060 A 
ATOM      9  C   UNL A   1      35.180  29.650  28.333  1.00  0.00     0.016 A 
ATOM     10  C   UNL A   1      35.708  31.961  28.027  1.00  0.00     0.016 A 
ATOM     11  C   UNL A   1      36.456  29.393  28.842  1.00  0.00     0.010 A 
ATOM     12  C   UNL A   1      36.984  31.721  28.543  1.00  0.00     0.010 A 
ATOM     13  C   UNL A   1      37.361  30.432  28.968  1.00  0.00    -0.014 A 
BRANCH  13  14
ATOM     14  C   UNL A   1      38.589  30.281  29.779  1.00  0.00     0.031 A 
ATOM     15  C   UNL A   1      39.562  29.265  29.272  1.00  0.00     0.074 A 
ATOM     16  C   UNL A   1      38.814  30.949  30.927  1.00  0.00     0.049 A 
ATOM     17  N   UNL A   1      40.549  28.670  29.878  1.00  0.00    -0.248 NA
ATOM     18  C   UNL A   1      39.349  28.829  27.878  1.00  0.00     0.031 C 
ATOM     19  C   UNL A   1      38.021  32.055  31.456  1.00  0.00     0.029 A 
ATOM     20  N   UNL A   1      39.749  30.718  31.906  1.00  0.00    -0.354 N 
ATOM     21  C   UNL A   1      41.061  27.788  28.939  1.00  0.00     0.074 A 
ATOM     22  C   UNL A   1      40.192  27.820  27.787  1.00  0.00     0.031 C 
ATOM     23  C   UNL A   1      38.400  32.306  32.722  1.00  0.00     0.029 A 
ATOM     24  C   UNL A   1      39.485  31.396  33.073  1.00  0.00     0.049 A 
ATOM     25  H   UNL A   1      40.528  30.130  31.784  1.00  0.00     0.167 HD
ATOM     26  C   UNL A   1      42.205  27.073  29.002  1.00  0.00     0.037 A 
ATOM     27  C   UNL A   1      40.044  31.263  34.291  1.00  0.00     0.037 A 
ATOM     28  C   UNL A   1      43.063  27.091  30.149  1.00  0.00     0.049 A 
ATOM     29  C   UNL A   1      41.235  30.349  34.420  1.00  0.00     0.074 A 
ATOM     30  C   UNL A   1      44.266  26.447  30.346  1.00  0.00     0.029 A 
ATOM     31  N   UNL A   1      42.787  27.809  31.308  1.00  0.00    -0.354 N 
ATOM     32  N   UNL A   1      41.756  29.545  33.523  1.00  0.00    -0.248 NA
ATOM     33  C   UNL A   1      41.957  30.372  35.698  1.00  0.00     0.031 C 
ATOM     34  C   UNL A   1      44.696  26.739  31.646  1.00  0.00     0.029 A 
ATOM     35  C   UNL A   1      43.791  27.612  32.234  1.00  0.00     0.049 A 
ATOM     36  H   UNL A   1      41.993  28.374  31.447  1.00  0.00     0.167 HD
ATOM     37  C   UNL A   1      42.915  29.036  34.091  1.00  0.00     0.074 A 
ATOM     38  C   UNL A   1      42.995  29.589  35.429  1.00  0.00     0.031 C 
ATOM     39  C   UNL A   1      43.848  28.217  33.544  1.00  0.00     0.037 A 
BRANCH  26  40
ATOM     40  C   UNL A   1      42.539  26.250  27.793  1.00  0.00     0.064 A 
ATOM     41  C   UNL A   1      42.214  24.883  27.723  1.00  0.00     0.173 A 
ATOM     42  C   UNL A   1      43.307  26.794  26.756  1.00  0.00     0.173 A 
ATOM     43  F   UNL A   1      41.505  24.305  28.706  1.00  0.00    -0.203 F 
ATOM     44  C   UNL A   1      42.718  24.077  26.708  1.00  0.00     0.198 A 
ATOM     45  C   UNL A   1      43.773  25.992  25.717  1.00  0.00     0.198 A 
ATOM     46  F   UNL A   1      43.647  28.091  26.772  1.00  0.00    -0.203 F 
ATOM     47  F   UNL A   1      42.500  22.755  26.734  1.00  0.00    -0.200 F 
ATOM     48  C   UNL A   1      43.500  24.632  25.706  1.00  0.00     0.200 A 
ATOM     49  F   UNL A   1      44.523  26.528  24.745  1.00  0.00    -0.200 F 
ATOM     50  F   UNL A   1      44.012  23.850  24.746  1.00  0.00    -0.200 F 
ENDBRANCH  26  40
BRANCH  27  51
ATOM     51  C   UNL A   1      39.531  32.044  35.447  1.00  0.00     0.064 A 
ATOM     52  C   UNL A   1      39.960  33.357  35.681  1.00  0.00     0.173 A 
ATOM     53  C   UNL A   1      38.597  31.498  36.342  1.00  0.00     0.173 A 
ATOM     54  F   UNL A   1      40.862  33.919  34.863  1.00  0.00    -0.203 F 
ATOM     55  C   UNL A   1      39.492  34.087  36.774  1.00  0.00     0.198 A 
ATOM     56  C   UNL A   1      38.119  32.233  37.427  1.00  0.00     0.198 A 
ATOM     57  F   UNL A   1      38.147  30.246  36.162  1.00  0.00    -0.203 F 
ATOM     58  F   UNL A   1      39.948  35.329  36.989  1.00  0.00    -0.200 F 
ATOM     59  C   UNL A   1      38.572  33.527  37.645  1.00  0.00     0.200 A 
ATOM     60  F   UNL A   1      37.226  31.689  38.266  1.00  0.00    -0.200 F 
ATOM     61  F   UNL A   1      38.127  34.228  38.697  1.00  0.00    -0.200 F 
ENDBRANCH  27  51
BRANCH  39  62
ATOM     62  C   UNL A   1      45.086  27.948  34.343  1.00  0.00     0.064 A 
ATOM     63  C   UNL A   1      45.182  26.858  35.216  1.00  0.00     0.173 A 
ATOM     64  C   UNL A   1      46.229  28.736  34.134  1.00  0.00     0.173 A 
ATOM     65  F   UNL A   1      44.111  26.087  35.457  1.00  0.00    -0.203 F 
ATOM     66  C   UNL A   1      46.383  26.566  35.855  1.00  0.00     0.198 A 
ATOM     67  C   UNL A   1      47.434  28.421  34.747  1.00  0.00     0.198 A 
ATOM     68  F   UNL A   1      46.182  29.787  33.301  1.00  0.00    -0.203 F 
ATOM     69  F   UNL A   1      46.452  25.534  36.706  1.00  0.00    -0.200 F 
ATOM     70  C   UNL A   1      47.511  27.338  35.608  1.00  0.00     0.200 A 
ATOM     71  F   UNL A   1      48.526  29.155  34.490  1.00  0.00    -0.200 F 
ATOM     72  F   UNL A   1      48.675  27.034  36.199  1.00  0.00    -0.200 F 
ENDBRANCH  39  62
ENDBRANCH  13  14
ENDBRANCH   6   8
ENDBRANCH   5   6
ENDBRANCH   4   5
ENDBRANCH   3   4
ENDBRANCH   2   3
ENDBRANCH   1   2
BRANCH   1  73
ATOM     73  C   UNL A   1      30.286  25.157  25.683  1.00  0.00     0.188 C 
BRANCH  73  74
ATOM     74  O   UNL A   1      29.942  24.425  26.840  1.00  0.00    -0.376 OA
BRANCH  74  75
ATOM     75  C   UNL A   1      30.405  23.089  26.938  1.00  0.00     0.202 C 
BRANCH  75  76
ATOM     76  C   UNL A   1      30.699  22.248  25.683  1.00  0.00     0.261 C 
BRANCH  76  77
ATOM     77  O   UNL A   1      31.990  21.630  25.511  1.00  0.00    -0.463 OA
BRANCH  77  78
ATOM     78  C   UNL A   1      32.612  21.692  24.304  1.00  0.00     0.319 C 
ATOM     79  O   UNL A   1      32.193  22.345  23.352  1.00  0.00    -0.251 OA
BRANCH  78  80
ATOM     80  C   UNL A   1      33.863  20.789  24.304  1.00  0.00     0.184 C 
BRANCH  80  81
ATOM     81  C   UNL A   1      35.083  21.599  24.745  1.00  0.00    -0.028 A 
ATOM     82  C   UNL A   1      34.931  22.974  25.010  1.00  0.00     0.006 A 
ATOM     83  C   UNL A   1      36.356  21.035  24.913  1.00  0.00     0.006 A 
ATOM     84  C   UNL A   1      35.981  23.725  25.536  1.00  0.00     0.016 A 
ATOM     85  C   UNL A   1      37.417  21.791  25.412  1.00  0.00     0.016 A 
ATOM     86  C   UNL A   1      37.216  23.124  25.752  1.00  0.00     0.017 A 
ATOM     87  Br  UNL A   1      38.620  24.112  26.539  1.00  0.00    -0.051 Br
ENDBRANCH  80  81
BRANCH  80  88
ATOM     88  C   UNL A   1      33.530  19.500  25.117  1.00  0.00     0.282 C 
BRANCH  88  89
ATOM     89  N   UNL A   1      32.495  18.559  24.608  1.00  0.00    -0.334 N 
ATOM     90  C   UNL A   1      32.437  17.261  25.283  1.00  0.00     0.262 C 
ATOM     91  C   UNL A   1      32.747  18.201  23.197  1.00  0.00     0.262 C 
ATOM     92  H   UNL A   1      31.632  19.079  24.766  1.00  0.00     0.348 HD
ATOM     93  C   UNL A   1      33.569  16.480  24.663  1.00  0.00     0.067 C 
ATOM     94  C   UNL A   1      33.647  16.975  23.233  1.00  0.00     0.067 C 
ENDBRANCH  88  89
ENDBRANCH  80  88
ENDBRANCH  78  80
ENDBRANCH  77  78
ENDBRANCH  76  77
ENDBRANCH  75  76
ENDBRANCH  74  75
ENDBRANCH  73  74
ENDBRANCH   1  73
TORSDOF 20
ENDMDL
