MODEL 1
REMARK VINA RESULT:      -9.5      0.000      0.000
REMARK SMILES C=CC[N@H+](CC(=O)OCCOCCOCCOC(=O)c1ccc(-c2c3nc(c(-c4c(F)c(F)c(F)c(F)c4F)c4ccc([nH]4)c(-c4c(F)c(F)c(F)c(F)c4F)c4nc(c(-c5c(F)c(F)c(F)c(F)c5F)c5ccc2[nH]5)C=C4)C=C3)cc1)Cc1ccnc(C#N)c1
REMARK SMILES IDX 12 1 11 2 10 3 9 4 8 5 6 6 7 7 5 8 4 9 3 11 2 12 1 13 83 14
REMARK SMILES IDX 84 15 85 16 91 17 86 18 88 19 87 20 89 21 90 22 13 23 14 24
REMARK SMILES IDX 15 25 16 26 17 27 18 28 19 29 20 30 21 31 82 32 22 33 81 34
REMARK SMILES IDX 23 35 24 36 25 37 75 38 26 39 80 40 74 41 76 42 27 43 79 44
REMARK SMILES IDX 73 45 72 46 28 48 60 49 40 50 59 51 41 52 44 53 58 54 77 55
REMARK SMILES IDX 42 56 43 57 57 59 78 60 45 61 29 62 30 63 38 64 31 65 32 66
REMARK SMILES IDX 36 67 39 68 33 69 34 70 37 71 35 72 61 73 62 74 70 75 63 76
REMARK SMILES IDX 64 77 68 78 71 79 65 80 66 81 69 82 67 83 46 84 47 85 55 86
REMARK SMILES IDX 48 87 49 88 53 89 56 90 50 91 51 92 54 93 52 94
REMARK H PARENT 4 10 76 47 44 58
REMARK Flexibility Score: inf
ROOT
ATOM      1  C   UNL A   1      42.698  19.278  26.179  1.00  0.00     0.188 C 
ENDROOT
BRANCH   1   2
ATOM      2  O   UNL A   1      41.317  19.569  26.073  1.00  0.00    -0.376 OA
BRANCH   2   3
ATOM      3  C   UNL A   1      40.864  20.786  26.644  1.00  0.00     0.202 C 
BRANCH   3   4
ATOM      4  C   UNL A   1      39.752  21.524  25.890  1.00  0.00     0.261 C 
BRANCH   4   5
ATOM      5  O   UNL A   1      38.804  22.193  26.746  1.00  0.00    -0.459 OA
BRANCH   5   6
ATOM      6  C   UNL A   1      38.178  23.264  26.183  1.00  0.00     0.361 C 
ATOM      7  O   UNL A   1      38.396  24.433  26.494  1.00  0.00    -0.245 OA
BRANCH   6   8
ATOM      8  C   UNL A   1      37.228  22.940  25.033  1.00  0.00     0.387 C 
BRANCH   8   9
ATOM      9  N   UNL A   1      35.812  22.705  25.360  1.00  0.00    -0.319 N 
ATOM     10  H   UNL A   1      35.295  22.683  24.481  1.00  0.00     0.349 HD
BRANCH   9  11
ATOM     11  C   UNL A   1      35.487  21.350  25.800  1.00  0.00     0.291 C 
BRANCH  11  12
ATOM     12  C   UNL A   1      34.463  20.583  25.001  1.00  0.00     0.025 C 
ATOM     13  C   UNL A   1      33.145  20.543  25.248  1.00  0.00     0.010 C 
ENDBRANCH  11  12
ENDBRANCH   9  11
BRANCH   9  14
ATOM     14  C   UNL A   1      35.199  23.852  26.042  1.00  0.00     0.299 C 
BRANCH  14  15
ATOM     15  C   UNL A   1      33.859  24.025  25.367  1.00  0.00     0.011 A 
ATOM     16  C   UNL A   1      32.828  24.563  26.132  1.00  0.00     0.030 A 
ATOM     17  C   UNL A   1      33.832  24.115  23.969  1.00  0.00     0.049 A 
ATOM     18  C   UNL A   1      31.946  25.361  25.471  1.00  0.00     0.113 A 
ATOM     19  C   UNL A   1      32.964  25.018  23.408  1.00  0.00     0.140 A 
ATOM     20  N   UNL A   1      32.022  25.635  24.147  1.00  0.00    -0.246 NA
BRANCH  19  21
ATOM     21  C   UNL A   1      33.183  25.514  22.082  1.00  0.00     0.119 C 
ATOM     22  N   UNL A   1      33.280  25.957  20.998  1.00  0.00    -0.191 NA
ENDBRANCH  19  21
ENDBRANCH  14  15
ENDBRANCH   9  14
ENDBRANCH   8   9
ENDBRANCH   6   8
ENDBRANCH   5   6
ENDBRANCH   4   5
ENDBRANCH   3   4
ENDBRANCH   2   3
ENDBRANCH   1   2
BRANCH   1  23
ATOM     23  C   UNL A   1      43.648  19.557  24.998  1.00  0.00     0.188 C 
BRANCH  23  24
ATOM     24  O   UNL A   1      45.002  19.885  25.236  1.00  0.00    -0.376 OA
BRANCH  24  25
ATOM     25  C   UNL A   1      45.297  21.251  25.556  1.00  0.00     0.202 C 
BRANCH  25  26
ATOM     26  C   UNL A   1      45.535  22.329  24.455  1.00  0.00     0.261 C 
BRANCH  26  27
ATOM     27  O   UNL A   1      44.961  23.638  24.735  1.00  0.00    -0.460 OA
BRANCH  27  28
ATOM     28  C   UNL A   1      43.589  23.667  24.819  1.00  0.00     0.338 C 
ATOM     29  O   UNL A   1      42.813  22.914  24.252  1.00  0.00    -0.246 OA
BRANCH  28  30
ATOM     30  C   UNL A   1      43.137  24.644  25.865  1.00  0.00     0.060 A 
ATOM     31  C   UNL A   1      42.193  24.239  26.829  1.00  0.00     0.016 A 
ATOM     32  C   UNL A   1      43.698  25.915  25.977  1.00  0.00     0.016 A 
ATOM     33  C   UNL A   1      41.939  25.024  27.968  1.00  0.00     0.010 A 
ATOM     34  C   UNL A   1      43.362  26.745  27.065  1.00  0.00     0.010 A 
ATOM     35  C   UNL A   1      42.506  26.300  28.091  1.00  0.00    -0.014 A 
BRANCH  35  36
ATOM     36  C   UNL A   1      41.989  27.250  29.125  1.00  0.00     0.031 A 
ATOM     37  C   UNL A   1      42.690  27.264  30.459  1.00  0.00     0.074 A 
ATOM     38  C   UNL A   1      40.936  28.077  28.941  1.00  0.00     0.049 A 
ATOM     39  N   UNL A   1      42.440  27.968  31.535  1.00  0.00    -0.248 NA
ATOM     40  C   UNL A   1      43.838  26.353  30.590  1.00  0.00     0.031 C 
ATOM     41  C   UNL A   1      40.171  28.232  27.708  1.00  0.00     0.029 A 
ATOM     42  N   UNL A   1      40.323  28.947  29.821  1.00  0.00    -0.354 N 
ATOM     43  C   UNL A   1      43.407  27.597  32.459  1.00  0.00     0.074 A 
ATOM     44  C   UNL A   1      44.233  26.591  31.829  1.00  0.00     0.031 C 
ATOM     45  C   UNL A   1      39.180  29.124  27.915  1.00  0.00     0.029 A 
ATOM     46  C   UNL A   1      39.220  29.590  29.303  1.00  0.00     0.049 A 
ATOM     47  H   UNL A   1      40.646  29.095  30.740  1.00  0.00     0.167 HD
ATOM     48  C   UNL A   1      43.601  28.042  33.722  1.00  0.00     0.037 A 
ATOM     49  C   UNL A   1      38.340  30.437  29.883  1.00  0.00     0.037 A 
ATOM     50  C   UNL A   1      42.758  28.987  34.399  1.00  0.00     0.049 A 
ATOM     51  C   UNL A   1      38.509  30.832  31.337  1.00  0.00     0.074 A 
ATOM     52  C   UNL A   1      42.871  29.470  35.692  1.00  0.00     0.029 A 
ATOM     53  N   UNL A   1      41.628  29.573  33.852  1.00  0.00    -0.354 N 
ATOM     54  N   UNL A   1      39.454  30.506  32.187  1.00  0.00    -0.248 NA
ATOM     55  C   UNL A   1      37.483  31.723  31.910  1.00  0.00     0.031 C 
ATOM     56  C   UNL A   1      41.775  30.299  35.948  1.00  0.00     0.029 A 
ATOM     57  C   UNL A   1      41.021  30.393  34.791  1.00  0.00     0.049 A 
ATOM     58  H   UNL A   1      41.306  29.430  32.933  1.00  0.00     0.167 HD
ATOM     59  C   UNL A   1      39.160  31.182  33.368  1.00  0.00     0.074 A 
ATOM     60  C   UNL A   1      37.959  31.947  33.127  1.00  0.00     0.031 C 
ATOM     61  C   UNL A   1      39.831  31.169  34.548  1.00  0.00     0.037 A 
BRANCH  48  62
ATOM     62  C   UNL A   1      44.761  27.454  34.472  1.00  0.00     0.064 A 
ATOM     63  C   UNL A   1      44.610  26.322  35.287  1.00  0.00     0.173 A 
ATOM     64  C   UNL A   1      46.034  28.035  34.379  1.00  0.00     0.173 A 
ATOM     65  F   UNL A   1      43.405  25.747  35.427  1.00  0.00    -0.203 F 
ATOM     66  C   UNL A   1      45.685  25.812  36.006  1.00  0.00     0.198 A 
ATOM     67  C   UNL A   1      47.114  27.503  35.073  1.00  0.00     0.198 A 
ATOM     68  F   UNL A   1      46.227  29.123  33.617  1.00  0.00    -0.203 F 
ATOM     69  F   UNL A   1      45.506  24.768  36.827  1.00  0.00    -0.200 F 
ATOM     70  C   UNL A   1      46.938  26.398  35.894  1.00  0.00     0.200 A 
ATOM     71  F   UNL A   1      48.325  28.063  34.957  1.00  0.00    -0.200 F 
ATOM     72  F   UNL A   1      47.973  25.905  36.586  1.00  0.00    -0.200 F 
ENDBRANCH  48  62
BRANCH  49  73
ATOM     73  C   UNL A   1      37.181  30.982  29.114  1.00  0.00     0.064 A 
ATOM     74  C   UNL A   1      37.121  32.337  28.749  1.00  0.00     0.173 A 
ATOM     75  C   UNL A   1      36.066  30.185  28.813  1.00  0.00     0.173 A 
ATOM     76  F   UNL A   1      38.139  33.155  29.052  1.00  0.00    -0.203 F 
ATOM     77  C   UNL A   1      35.988  32.876  28.140  1.00  0.00     0.198 A 
ATOM     78  C   UNL A   1      34.946  30.718  28.173  1.00  0.00     0.198 A 
ATOM     79  F   UNL A   1      36.056  28.888  29.154  1.00  0.00    -0.203 F 
ATOM     80  F   UNL A   1      35.934  34.187  27.869  1.00  0.00    -0.200 F 
ATOM     81  C   UNL A   1      34.903  32.065  27.847  1.00  0.00     0.200 A 
ATOM     82  F   UNL A   1      33.900  29.929  27.891  1.00  0.00    -0.200 F 
ATOM     83  F   UNL A   1      33.811  32.584  27.270  1.00  0.00    -0.200 F 
ENDBRANCH  49  73
BRANCH  61  84
ATOM     84  C   UNL A   1      39.328  32.055  35.659  1.00  0.00     0.064 A 
ATOM     85  C   UNL A   1      39.711  33.399  35.777  1.00  0.00     0.173 A 
ATOM     86  C   UNL A   1      38.417  31.554  36.604  1.00  0.00     0.173 A 
ATOM     87  F   UNL A   1      40.583  33.932  34.908  1.00  0.00    -0.203 F 
ATOM     88  C   UNL A   1      39.233  34.194  36.817  1.00  0.00     0.198 A 
ATOM     89  C   UNL A   1      37.913  32.361  37.621  1.00  0.00     0.198 A 
ATOM     90  F   UNL A   1      38.003  30.279  36.536  1.00  0.00    -0.203 F 
ATOM     91  F   UNL A   1      39.662  35.459  36.943  1.00  0.00    -0.200 F 
ATOM     92  C   UNL A   1      38.330  33.677  37.734  1.00  0.00     0.200 A 
ATOM     93  F   UNL A   1      37.025  31.864  38.492  1.00  0.00    -0.200 F 
ATOM     94  F   UNL A   1      37.869  34.445  38.732  1.00  0.00    -0.200 F 
ENDBRANCH  61  84
ENDBRANCH  35  36
ENDBRANCH  28  30
ENDBRANCH  27  28
ENDBRANCH  26  27
ENDBRANCH  25  26
ENDBRANCH  24  25
ENDBRANCH  23  24
ENDBRANCH   1  23
TORSDOF 23
ENDMDL
MODEL 2
REMARK VINA RESULT:      -9.4      4.099      9.076
REMARK SMILES C=CC[N@H+](CC(=O)OCCOCCOCCOC(=O)c1ccc(-c2c3nc(c(-c4c(F)c(F)c(F)c(F)c4F)c4ccc([nH]4)c(-c4c(F)c(F)c(F)c(F)c4F)c4nc(c(-c5c(F)c(F)c(F)c(F)c5F)c5ccc2[nH]5)C=C4)C=C3)cc1)Cc1ccnc(C#N)c1
REMARK SMILES IDX 12 1 11 2 10 3 9 4 8 5 6 6 7 7 5 8 4 9 3 11 2 12 1 13 83 14
REMARK SMILES IDX 84 15 85 16 91 17 86 18 88 19 87 20 89 21 90 22 13 23 14 24
REMARK SMILES IDX 15 25 16 26 17 27 18 28 19 29 20 30 21 31 82 32 22 33 81 34
REMARK SMILES IDX 23 35 24 36 25 37 75 38 26 39 80 40 74 41 76 42 27 43 79 44
REMARK SMILES IDX 73 45 72 46 28 48 60 49 40 50 59 51 41 52 44 53 58 54 77 55
REMARK SMILES IDX 42 56 43 57 57 59 78 60 45 61 29 62 30 63 38 64 31 65 32 66
REMARK SMILES IDX 36 67 39 68 33 69 34 70 37 71 35 72 61 73 62 74 70 75 63 76
REMARK SMILES IDX 64 77 68 78 71 79 65 80 66 81 69 82 67 83 46 84 47 85 55 86
REMARK SMILES IDX 48 87 49 88 53 89 56 90 50 91 51 92 54 93 52 94
REMARK H PARENT 4 10 76 47 44 58
REMARK Flexibility Score: inf
ROOT
ATOM      1  C   UNL A   1      32.409  29.362  24.920  1.00  0.00     0.188 C 
ENDROOT
BRANCH   1   2
ATOM      2  O   UNL A   1      31.354  28.761  24.193  1.00  0.00    -0.376 OA
BRANCH   2   3
ATOM      3  C   UNL A   1      31.638  28.329  22.872  1.00  0.00     0.202 C 
BRANCH   3   4
ATOM      4  C   UNL A   1      31.039  26.984  22.449  1.00  0.00     0.261 C 
BRANCH   4   5
ATOM      5  O   UNL A   1      30.045  26.470  23.359  1.00  0.00    -0.459 OA
BRANCH   5   6
ATOM      6  C   UNL A   1      30.294  25.218  23.835  1.00  0.00     0.361 C 
ATOM      7  O   UNL A   1      30.391  24.217  23.128  1.00  0.00    -0.245 OA
BRANCH   6   8
ATOM      8  C   UNL A   1      30.558  25.127  25.336  1.00  0.00     0.387 C 
BRANCH   8   9
ATOM      9  N   UNL A   1      31.879  24.641  25.770  1.00  0.00    -0.319 N 
ATOM     10  H   UNL A   1      32.244  24.044  25.028  1.00  0.00     0.349 HD
BRANCH   9  11
ATOM     11  C   UNL A   1      32.949  25.636  25.751  1.00  0.00     0.291 C 
BRANCH  11  12
ATOM     12  C   UNL A   1      33.863  25.655  24.550  1.00  0.00     0.025 C 
ATOM     13  C   UNL A   1      33.992  24.671  23.648  1.00  0.00     0.010 C 
ENDBRANCH  11  12
ENDBRANCH   9  11
BRANCH   9  14
ATOM     14  C   UNL A   1      31.787  23.702  26.896  1.00  0.00     0.299 C 
BRANCH  14  15
ATOM     15  C   UNL A   1      32.413  22.428  26.380  1.00  0.00     0.011 A 
ATOM     16  C   UNL A   1      31.814  21.830  25.275  1.00  0.00     0.030 A 
ATOM     17  C   UNL A   1      33.760  22.187  26.680  1.00  0.00     0.049 A 
ATOM     18  C   UNL A   1      32.654  21.209  24.402  1.00  0.00     0.113 A 
ATOM     19  C   UNL A   1      34.541  21.637  25.693  1.00  0.00     0.140 A 
ATOM     20  N   UNL A   1      33.997  21.144  24.564  1.00  0.00    -0.246 NA
BRANCH  19  21
ATOM     21  C   UNL A   1      35.965  21.785  25.722  1.00  0.00     0.119 C 
ATOM     22  N   UNL A   1      37.139  21.816  25.750  1.00  0.00    -0.191 NA
ENDBRANCH  19  21
ENDBRANCH  14  15
ENDBRANCH   9  14
ENDBRANCH   8   9
ENDBRANCH   6   8
ENDBRANCH   5   6
ENDBRANCH   4   5
ENDBRANCH   3   4
ENDBRANCH   2   3
ENDBRANCH   1   2
BRANCH   1  23
ATOM     23  C   UNL A   1      32.249  29.667  26.423  1.00  0.00     0.188 C 
BRANCH  23  24
ATOM     24  O   UNL A   1      31.781  30.931  26.846  1.00  0.00    -0.376 OA
BRANCH  24  25
ATOM     25  C   UNL A   1      32.736  31.814  27.451  1.00  0.00     0.202 C 
BRANCH  25  26
ATOM     26  C   UNL A   1      32.712  33.354  27.209  1.00  0.00     0.261 C 
BRANCH  26  27
ATOM     27  O   UNL A   1      32.462  34.164  28.392  1.00  0.00    -0.460 OA
BRANCH  27  28
ATOM     28  C   UNL A   1      33.511  34.962  28.785  1.00  0.00     0.338 C 
ATOM     29  O   UNL A   1      33.504  36.181  28.858  1.00  0.00    -0.246 OA
BRANCH  28  30
ATOM     30  C   UNL A   1      34.647  34.134  29.308  1.00  0.00     0.060 A 
ATOM     31  C   UNL A   1      34.403  33.181  30.317  1.00  0.00     0.016 A 
ATOM     32  C   UNL A   1      35.925  34.205  28.756  1.00  0.00     0.016 A 
ATOM     33  C   UNL A   1      35.369  32.215  30.650  1.00  0.00     0.010 A 
ATOM     34  C   UNL A   1      36.926  33.301  29.167  1.00  0.00     0.010 A 
ATOM     35  C   UNL A   1      36.654  32.276  30.093  1.00  0.00    -0.014 A 
BRANCH  35  36
ATOM     36  C   UNL A   1      37.762  31.459  30.681  1.00  0.00     0.031 A 
ATOM     37  C   UNL A   1      38.128  31.728  32.118  1.00  0.00     0.074 A 
ATOM     38  C   UNL A   1      38.454  30.516  30.005  1.00  0.00     0.049 A 
ATOM     39  N   UNL A   1      39.056  31.186  32.866  1.00  0.00    -0.248 NA
ATOM     40  C   UNL A   1      37.327  32.755  32.803  1.00  0.00     0.031 C 
ATOM     41  C   UNL A   1      38.209  30.091  28.630  1.00  0.00     0.029 A 
ATOM     42  N   UNL A   1      39.528  29.743  30.402  1.00  0.00    -0.354 N 
ATOM     43  C   UNL A   1      38.936  31.793  34.109  1.00  0.00     0.074 A 
ATOM     44  C   UNL A   1      37.866  32.759  34.010  1.00  0.00     0.031 C 
ATOM     45  C   UNL A   1      39.116  29.153  28.292  1.00  0.00     0.029 A 
ATOM     46  C   UNL A   1      40.027  28.922  29.416  1.00  0.00     0.049 A 
ATOM     47  H   UNL A   1      39.904  29.777  31.312  1.00  0.00     0.167 HD
ATOM     48  C   UNL A   1      39.649  31.577  35.240  1.00  0.00     0.037 A 
ATOM     49  C   UNL A   1      41.099  28.098  29.414  1.00  0.00     0.037 A 
ATOM     50  C   UNL A   1      40.761  30.676  35.352  1.00  0.00     0.049 A 
ATOM     51  C   UNL A   1      41.956  27.960  30.658  1.00  0.00     0.074 A 
ATOM     52  C   UNL A   1      41.555  30.421  36.457  1.00  0.00     0.029 A 
ATOM     53  N   UNL A   1      41.260  29.903  34.315  1.00  0.00    -0.354 N 
ATOM     54  N   UNL A   1      41.805  28.508  31.840  1.00  0.00    -0.248 NA
ATOM     55  C   UNL A   1      43.133  27.078  30.563  1.00  0.00     0.031 C 
ATOM     56  C   UNL A   1      42.572  29.542  36.073  1.00  0.00     0.029 A 
ATOM     57  C   UNL A   1      42.367  29.190  34.750  1.00  0.00     0.049 A 
ATOM     58  H   UNL A   1      40.884  29.865  33.407  1.00  0.00     0.167 HD
ATOM     59  C   UNL A   1      42.835  28.007  32.632  1.00  0.00     0.074 A 
ATOM     60  C   UNL A   1      43.597  27.099  31.804  1.00  0.00     0.031 C 
ATOM     61  C   UNL A   1      43.120  28.273  33.932  1.00  0.00     0.037 A 
BRANCH  48  62
ATOM     62  C   UNL A   1      39.263  32.387  36.443  1.00  0.00     0.064 A 
ATOM     63  C   UNL A   1      39.887  33.610  36.735  1.00  0.00     0.173 A 
ATOM     64  C   UNL A   1      38.263  31.931  37.314  1.00  0.00     0.173 A 
ATOM     65  F   UNL A   1      40.867  34.074  35.945  1.00  0.00    -0.203 F 
ATOM     66  C   UNL A   1      39.545  34.330  37.875  1.00  0.00     0.198 A 
ATOM     67  C   UNL A   1      37.901  32.671  38.435  1.00  0.00     0.198 A 
ATOM     68  F   UNL A   1      37.641  30.766  37.080  1.00  0.00    -0.203 F 
ATOM     69  F   UNL A   1      40.197  35.463  38.170  1.00  0.00    -0.200 F 
ATOM     70  C   UNL A   1      38.549  33.864  38.720  1.00  0.00     0.200 A 
ATOM     71  F   UNL A   1      36.932  32.225  39.245  1.00  0.00    -0.200 F 
ATOM     72  F   UNL A   1      38.220  34.560  39.817  1.00  0.00    -0.200 F 
ENDBRANCH  48  62
BRANCH  49  73
ATOM     73  C   UNL A   1      41.471  27.327  28.190  1.00  0.00     0.064 A 
ATOM     74  C   UNL A   1      42.282  27.892  27.191  1.00  0.00     0.173 A 
ATOM     75  C   UNL A   1      40.949  26.048  27.945  1.00  0.00     0.173 A 
ATOM     76  F   UNL A   1      42.772  29.130  27.351  1.00  0.00    -0.203 F 
ATOM     77  C   UNL A   1      42.532  27.224  25.993  1.00  0.00     0.198 A 
ATOM     78  C   UNL A   1      41.226  25.365  26.760  1.00  0.00     0.198 A 
ATOM     79  F   UNL A   1      40.153  25.464  28.853  1.00  0.00    -0.203 F 
ATOM     80  F   UNL A   1      43.250  27.820  25.031  1.00  0.00    -0.200 F 
ATOM     81  C   UNL A   1      42.008  25.957  25.781  1.00  0.00     0.200 A 
ATOM     82  F   UNL A   1      40.720  24.141  26.561  1.00  0.00    -0.200 F 
ATOM     83  F   UNL A   1      42.241  25.318  24.627  1.00  0.00    -0.200 F 
ENDBRANCH  49  73
BRANCH  61  84
ATOM     84  C   UNL A   1      44.266  27.534  34.572  1.00  0.00     0.064 A 
ATOM     85  C   UNL A   1      45.556  28.078  34.655  1.00  0.00     0.173 A 
ATOM     86  C   UNL A   1      44.057  26.268  35.146  1.00  0.00     0.173 A 
ATOM     87  F   UNL A   1      45.817  29.280  34.120  1.00  0.00    -0.203 F 
ATOM     88  C   UNL A   1      46.599  27.369  35.249  1.00  0.00     0.198 A 
ATOM     89  C   UNL A   1      45.093  25.578  35.773  1.00  0.00     0.198 A 
ATOM     90  F   UNL A   1      42.842  25.701  35.111  1.00  0.00    -0.203 F 
ATOM     91  F   UNL A   1      47.836  27.886  35.261  1.00  0.00    -0.200 F 
ATOM     92  C   UNL A   1      46.365  26.124  35.813  1.00  0.00     0.200 A 
ATOM     93  F   UNL A   1      44.858  24.385  36.334  1.00  0.00    -0.200 F 
ATOM     94  F   UNL A   1      47.369  25.446  36.388  1.00  0.00    -0.200 F 
ENDBRANCH  61  84
ENDBRANCH  35  36
ENDBRANCH  28  30
ENDBRANCH  27  28
ENDBRANCH  26  27
ENDBRANCH  25  26
ENDBRANCH  24  25
ENDBRANCH  23  24
ENDBRANCH   1  23
TORSDOF 23
ENDMDL
MODEL 3
REMARK VINA RESULT:      -9.3      3.843      9.246
REMARK SMILES C=CC[N@H+](CC(=O)OCCOCCOCCOC(=O)c1ccc(-c2c3nc(c(-c4c(F)c(F)c(F)c(F)c4F)c4ccc([nH]4)c(-c4c(F)c(F)c(F)c(F)c4F)c4nc(c(-c5c(F)c(F)c(F)c(F)c5F)c5ccc2[nH]5)C=C4)C=C3)cc1)Cc1ccnc(C#N)c1
REMARK SMILES IDX 12 1 11 2 10 3 9 4 8 5 6 6 7 7 5 8 4 9 3 11 2 12 1 13 83 14
REMARK SMILES IDX 84 15 85 16 91 17 86 18 88 19 87 20 89 21 90 22 13 23 14 24
REMARK SMILES IDX 15 25 16 26 17 27 18 28 19 29 20 30 21 31 82 32 22 33 81 34
REMARK SMILES IDX 23 35 24 36 25 37 75 38 26 39 80 40 74 41 76 42 27 43 79 44
REMARK SMILES IDX 73 45 72 46 28 48 60 49 40 50 59 51 41 52 44 53 58 54 77 55
REMARK SMILES IDX 42 56 43 57 57 59 78 60 45 61 29 62 30 63 38 64 31 65 32 66
REMARK SMILES IDX 36 67 39 68 33 69 34 70 37 71 35 72 61 73 62 74 70 75 63 76
REMARK SMILES IDX 64 77 68 78 71 79 65 80 66 81 69 82 67 83 46 84 47 85 55 86
REMARK SMILES IDX 48 87 49 88 53 89 56 90 50 91 51 92 54 93 52 94
REMARK H PARENT 4 10 76 47 44 58
REMARK Flexibility Score: inf
ROOT
ATOM      1  C   UNL A   1      32.780  28.674  25.884  1.00  0.00     0.188 C 
ENDROOT
BRANCH   1   2
ATOM      2  O   UNL A   1      32.349  27.380  25.504  1.00  0.00    -0.376 OA
BRANCH   2   3
ATOM      3  C   UNL A   1      31.048  27.265  24.949  1.00  0.00     0.202 C 
BRANCH   3   4
ATOM      4  C   UNL A   1      30.605  25.858  24.533  1.00  0.00     0.261 C 
BRANCH   4   5
ATOM      5  O   UNL A   1      31.104  24.807  25.387  1.00  0.00    -0.459 OA
BRANCH   5   6
ATOM      6  C   UNL A   1      31.799  23.827  24.744  1.00  0.00     0.361 C 
ATOM      7  O   UNL A   1      31.618  23.509  23.571  1.00  0.00    -0.245 OA
BRANCH   6   8
ATOM      8  C   UNL A   1      32.927  23.186  25.549  1.00  0.00     0.387 C 
BRANCH   8   9
ATOM      9  N   UNL A   1      33.570  21.986  24.989  1.00  0.00    -0.319 N 
ATOM     10  H   UNL A   1      32.989  21.660  24.217  1.00  0.00     0.349 HD
BRANCH   9  11
ATOM     11  C   UNL A   1      34.787  22.230  24.217  1.00  0.00     0.291 C 
BRANCH  11  12
ATOM     12  C   UNL A   1      35.641  23.408  24.615  1.00  0.00     0.025 C 
ATOM     13  C   UNL A   1      36.462  23.458  25.674  1.00  0.00     0.010 C 
ENDBRANCH  11  12
ENDBRANCH   9  11
BRANCH   9  14
ATOM     14  C   UNL A   1      33.518  20.843  25.910  1.00  0.00     0.299 C 
BRANCH  14  15
ATOM     15  C   UNL A   1      32.746  19.784  25.159  1.00  0.00     0.011 A 
ATOM     16  C   UNL A   1      32.393  20.070  23.844  1.00  0.00     0.030 A 
ATOM     17  C   UNL A   1      32.850  18.457  25.598  1.00  0.00     0.049 A 
ATOM     18  C   UNL A   1      32.389  19.016  22.982  1.00  0.00     0.113 A 
ATOM     19  C   UNL A   1      32.927  17.477  24.640  1.00  0.00     0.140 A 
ATOM     20  N   UNL A   1      32.694  17.746  23.342  1.00  0.00    -0.246 NA
BRANCH  19  21
ATOM     21  C   UNL A   1      33.490  16.197  24.950  1.00  0.00     0.119 C 
ATOM     22  N   UNL A   1      34.022  15.190  25.242  1.00  0.00    -0.191 NA
ENDBRANCH  19  21
ENDBRANCH  14  15
ENDBRANCH   9  14
ENDBRANCH   8   9
ENDBRANCH   6   8
ENDBRANCH   5   6
ENDBRANCH   4   5
ENDBRANCH   3   4
ENDBRANCH   2   3
ENDBRANCH   1   2
BRANCH   1  23
ATOM     23  C   UNL A   1      31.993  29.483  26.934  1.00  0.00     0.188 C 
BRANCH  23  24
ATOM     24  O   UNL A   1      31.736  30.857  26.727  1.00  0.00    -0.376 OA
BRANCH  24  25
ATOM     25  C   UNL A   1      32.700  31.787  27.239  1.00  0.00     0.202 C 
BRANCH  25  26
ATOM     26  C   UNL A   1      32.516  33.330  27.104  1.00  0.00     0.261 C 
BRANCH  26  27
ATOM     27  O   UNL A   1      32.406  34.052  28.364  1.00  0.00    -0.460 OA
BRANCH  27  28
ATOM     28  C   UNL A   1      33.480  34.854  28.672  1.00  0.00     0.338 C 
ATOM     29  O   UNL A   1      33.490  36.074  28.695  1.00  0.00    -0.246 OA
BRANCH  28  30
ATOM     30  C   UNL A   1      34.633  34.033  29.173  1.00  0.00     0.060 A 
ATOM     31  C   UNL A   1      34.399  33.018  30.122  1.00  0.00     0.016 A 
ATOM     32  C   UNL A   1      35.918  34.175  28.655  1.00  0.00     0.016 A 
ATOM     33  C   UNL A   1      35.389  32.065  30.422  1.00  0.00     0.010 A 
ATOM     34  C   UNL A   1      36.940  33.282  29.037  1.00  0.00     0.010 A 
ATOM     35  C   UNL A   1      36.683  32.198  29.898  1.00  0.00    -0.014 A 
BRANCH  35  36
ATOM     36  C   UNL A   1      37.804  31.384  30.464  1.00  0.00     0.031 A 
ATOM     37  C   UNL A   1      38.205  31.662  31.891  1.00  0.00     0.074 A 
ATOM     38  C   UNL A   1      38.480  30.437  29.778  1.00  0.00     0.049 A 
ATOM     39  N   UNL A   1      39.150  31.124  32.620  1.00  0.00    -0.248 NA
ATOM     40  C   UNL A   1      37.421  32.693  32.588  1.00  0.00     0.031 C 
ATOM     41  C   UNL A   1      38.201  30.004  28.411  1.00  0.00     0.029 A 
ATOM     42  N   UNL A   1      39.563  29.667  30.154  1.00  0.00    -0.354 N 
ATOM     43  C   UNL A   1      39.060  31.738  33.862  1.00  0.00     0.074 A 
ATOM     44  C   UNL A   1      37.988  32.704  33.782  1.00  0.00     0.031 C 
ATOM     45  C   UNL A   1      39.101  29.063  28.057  1.00  0.00     0.029 A 
ATOM     46  C   UNL A   1      40.038  28.840  29.160  1.00  0.00     0.049 A 
ATOM     47  H   UNL A   1      39.960  29.705  31.054  1.00  0.00     0.167 HD
ATOM     48  C   UNL A   1      39.800  31.530  34.976  1.00  0.00     0.037 A 
ATOM     49  C   UNL A   1      41.110  28.015  29.138  1.00  0.00     0.037 A 
ATOM     50  C   UNL A   1      40.915  30.629  35.066  1.00  0.00     0.049 A 
ATOM     51  C   UNL A   1      41.996  27.885  30.361  1.00  0.00     0.074 A 
ATOM     52  C   UNL A   1      41.735  30.380  36.154  1.00  0.00     0.029 A 
ATOM     53  N   UNL A   1      41.389  29.850  34.023  1.00  0.00    -0.354 N 
ATOM     54  N   UNL A   1      41.874  28.440  31.544  1.00  0.00    -0.248 NA
ATOM     55  C   UNL A   1      43.171  27.002  30.244  1.00  0.00     0.031 C 
ATOM     56  C   UNL A   1      42.742  29.499  35.751  1.00  0.00     0.029 A 
ATOM     57  C   UNL A   1      42.506  29.139  34.435  1.00  0.00     0.049 A 
ATOM     58  H   UNL A   1      40.991  29.806  33.124  1.00  0.00     0.167 HD
ATOM     59  C   UNL A   1      42.922  27.943  32.314  1.00  0.00     0.074 A 
ATOM     60  C   UNL A   1      43.664  27.031  31.474  1.00  0.00     0.031 C 
ATOM     61  C   UNL A   1      43.238  28.217  33.605  1.00  0.00     0.037 A 
BRANCH  48  62
ATOM     62  C   UNL A   1      39.443  32.347  36.183  1.00  0.00     0.064 A 
ATOM     63  C   UNL A   1      40.091  33.558  36.467  1.00  0.00     0.173 A 
ATOM     64  C   UNL A   1      38.446  31.908  37.067  1.00  0.00     0.173 A 
ATOM     65  F   UNL A   1      41.069  34.005  35.663  1.00  0.00    -0.203 F 
ATOM     66  C   UNL A   1      39.776  34.285  37.610  1.00  0.00     0.198 A 
ATOM     67  C   UNL A   1      38.111  32.655  38.191  1.00  0.00     0.198 A 
ATOM     68  F   UNL A   1      37.801  30.754  36.841  1.00  0.00    -0.203 F 
ATOM     69  F   UNL A   1      40.451  35.407  37.896  1.00  0.00    -0.200 F 
ATOM     70  C   UNL A   1      38.782  33.837  38.468  1.00  0.00     0.200 A 
ATOM     71  F   UNL A   1      37.144  32.226  39.014  1.00  0.00    -0.200 F 
ATOM     72  F   UNL A   1      38.479  34.538  39.568  1.00  0.00    -0.200 F 
ENDBRANCH  48  62
BRANCH  49  73
ATOM     73  C   UNL A   1      41.453  27.237  27.910  1.00  0.00     0.064 A 
ATOM     74  C   UNL A   1      41.007  25.916  27.736  1.00  0.00     0.173 A 
ATOM     75  C   UNL A   1      42.309  27.760  26.929  1.00  0.00     0.173 A 
ATOM     76  F   UNL A   1      40.223  25.349  28.665  1.00  0.00    -0.203 F 
ATOM     77  C   UNL A   1      41.424  25.145  26.652  1.00  0.00     0.198 A 
ATOM     78  C   UNL A   1      42.699  26.999  25.826  1.00  0.00     0.198 A 
ATOM     79  F   UNL A   1      42.782  29.009  27.049  1.00  0.00    -0.203 F 
ATOM     80  F   UNL A   1      41.039  23.865  26.553  1.00  0.00    -0.200 F 
ATOM     81  C   UNL A   1      42.266  25.689  25.694  1.00  0.00     0.200 A 
ATOM     82  F   UNL A   1      43.511  27.530  24.902  1.00  0.00    -0.200 F 
ATOM     83  F   UNL A   1      42.674  24.946  24.656  1.00  0.00    -0.200 F 
ENDBRANCH  49  73
BRANCH  61  84
ATOM     84  C   UNL A   1      44.399  27.481  34.222  1.00  0.00     0.064 A 
ATOM     85  C   UNL A   1      44.255  26.220  34.819  1.00  0.00     0.173 A 
ATOM     86  C   UNL A   1      45.689  28.037  34.183  1.00  0.00     0.173 A 
ATOM     87  F   UNL A   1      43.046  25.642  34.892  1.00  0.00    -0.203 F 
ATOM     88  C   UNL A   1      45.346  25.564  35.387  1.00  0.00     0.198 A 
ATOM     89  C   UNL A   1      46.784  27.362  34.719  1.00  0.00     0.198 A 
ATOM     90  F   UNL A   1      45.893  29.235  33.614  1.00  0.00    -0.203 F 
ATOM     91  F   UNL A   1      45.170  24.387  36.005  1.00  0.00    -0.200 F 
ATOM     92  C   UNL A   1      46.609  26.132  35.330  1.00  0.00     0.200 A 
ATOM     93  F   UNL A   1      48.007  27.905  34.643  1.00  0.00    -0.200 F 
ATOM     94  F   UNL A   1      47.658  25.497  35.874  1.00  0.00    -0.200 F 
ENDBRANCH  61  84
ENDBRANCH  35  36
ENDBRANCH  28  30
ENDBRANCH  27  28
ENDBRANCH  26  27
ENDBRANCH  25  26
ENDBRANCH  24  25
ENDBRANCH  23  24
ENDBRANCH   1  23
TORSDOF 23
ENDMDL
