MODEL 1
REMARK VINA RESULT:     -10.4      0.000      0.000
REMARK SMILES CN(C)S(=O)(=O)c1cccc(-c2cc(Cl)cc(C(=O)OCCOCCOCCOC(=O)c3ccc(-c4c5nc(c(-c6c(F)c(F)c(F)c(F)c6F)c6ccc([nH]6)c(-c6c(F)c(F)c(F)c(F)c6F)c6nc(c(-c7c(F)c(F)c(F)c(F)c7F)c7ccc4[nH]7)C=C6)C=C5)cc3)c2)c1
REMARK SMILES IDX 24 1 23 2 22 3 21 4 20 5 18 6 19 7 17 8 12 9 13 10 95 11
REMARK SMILES IDX 14 12 15 13 16 14 11 15 7 16 8 17 96 18 9 19 10 20 4 21 5 22
REMARK SMILES IDX 6 23 2 24 1 25 3 26 25 27 26 28 27 29 28 30 29 31 30 32
REMARK SMILES IDX 31 33 32 34 33 35 94 36 34 37 93 38 35 39 36 40 37 41 87 42
REMARK SMILES IDX 38 43 92 44 86 45 88 46 39 47 91 48 85 49 84 50 40 52 72 53
REMARK SMILES IDX 52 54 71 55 53 56 56 57 70 58 89 59 54 60 55 61 69 63 90 64
REMARK SMILES IDX 57 65 41 66 42 67 50 68 43 69 44 70 48 71 51 72 45 73 46 74
REMARK SMILES IDX 49 75 47 76 73 77 74 78 82 79 75 80 76 81 80 82 83 83 77 84
REMARK SMILES IDX 78 85 81 86 79 87 58 88 59 89 67 90 60 91 61 92 65 93 68 94
REMARK SMILES IDX 62 95 63 96 66 97 64 98
REMARK H PARENT 88 51 56 62
REMARK Flexibility Score: inf
ROOT
ATOM      1  C   UNL A   1      33.062  20.397  25.699  1.00  0.00     0.188 C 
ENDROOT
BRANCH   1   2
ATOM      2  O   UNL A   1      32.218  21.530  25.871  1.00  0.00    -0.376 OA
BRANCH   2   3
ATOM      3  C   UNL A   1      32.261  22.595  24.927  1.00  0.00     0.202 C 
BRANCH   3   4
ATOM      4  C   UNL A   1      33.083  23.844  25.264  1.00  0.00     0.261 C 
BRANCH   4   5
ATOM      5  O   UNL A   1      32.397  25.075  24.987  1.00  0.00    -0.460 OA
BRANCH   5   6
ATOM      6  C   UNL A   1      31.854  25.703  26.058  1.00  0.00     0.338 C 
ATOM      7  O   UNL A   1      31.406  25.190  27.068  1.00  0.00    -0.246 OA
BRANCH   6   8
ATOM      8  C   UNL A   1      32.065  27.161  25.929  1.00  0.00     0.062 A 
ATOM      9  C   UNL A   1      33.232  29.225  26.536  1.00  0.00    -0.016 A 
ATOM     10  C   UNL A   1      32.341  29.925  25.704  1.00  0.00     0.029 A 
ATOM     11  C   UNL A   1      33.056  27.830  26.657  1.00  0.00     0.024 A 
ATOM     12  C   UNL A   1      31.338  29.254  25.000  1.00  0.00     0.042 A 
ATOM     13  Cl  UNL A   1      30.238  30.144  24.020  1.00  0.00    -0.084 Cl
ATOM     14  C   UNL A   1      31.208  27.874  25.089  1.00  0.00     0.036 A 
BRANCH   9  15
ATOM     15  C   UNL A   1      34.338  29.905  27.243  1.00  0.00    -0.017 A 
ATOM     16  C   UNL A   1      35.263  31.939  28.229  1.00  0.00     0.083 A 
ATOM     17  C   UNL A   1      36.454  31.286  28.535  1.00  0.00     0.022 A 
ATOM     18  C   UNL A   1      34.215  31.256  27.603  1.00  0.00     0.030 A 
ATOM     19  C   UNL A   1      36.587  29.937  28.213  1.00  0.00     0.002 A 
ATOM     20  C   UNL A   1      35.543  29.256  27.568  1.00  0.00     0.009 A 
BRANCH  16  21
ATOM     21  S   UNL A   1      35.100  33.681  28.521  1.00  0.00     0.242 S 
ATOM     22  O   UNL A   1      34.548  34.288  27.324  1.00  0.00    -0.207 OA
ATOM     23  O   UNL A   1      36.352  34.145  29.075  1.00  0.00    -0.207 OA
BRANCH  21  24
ATOM     24  N   UNL A   1      33.903  33.789  29.738  1.00  0.00    -0.204 NA
ATOM     25  C   UNL A   1      34.398  33.268  31.038  1.00  0.00     0.124 C 
ATOM     26  C   UNL A   1      33.286  35.126  29.906  1.00  0.00     0.124 C 
ENDBRANCH  21  24
ENDBRANCH  16  21
ENDBRANCH   9  15
ENDBRANCH   6   8
ENDBRANCH   5   6
ENDBRANCH   4   5
ENDBRANCH   3   4
ENDBRANCH   2   3
ENDBRANCH   1   2
BRANCH   1  27
ATOM     27  C   UNL A   1      33.953  20.280  24.445  1.00  0.00     0.188 C 
BRANCH  27  28
ATOM     28  O   UNL A   1      35.258  20.772  24.614  1.00  0.00    -0.376 OA
BRANCH  28  29
ATOM     29  C   UNL A   1      35.664  21.339  25.845  1.00  0.00     0.202 C 
BRANCH  29  30
ATOM     30  C   UNL A   1      36.579  22.570  25.985  1.00  0.00     0.261 C 
BRANCH  30  31
ATOM     31  O   UNL A   1      37.843  22.554  25.319  1.00  0.00    -0.460 OA
BRANCH  31  32
ATOM     32  C   UNL A   1      38.885  22.037  26.008  1.00  0.00     0.338 C 
ATOM     33  O   UNL A   1      39.272  20.884  26.016  1.00  0.00    -0.246 OA
BRANCH  32  34
ATOM     34  C   UNL A   1      39.606  23.156  26.649  1.00  0.00     0.060 A 
ATOM     35  C   UNL A   1      39.377  24.457  26.188  1.00  0.00     0.016 A 
ATOM     36  C   UNL A   1      40.512  22.916  27.685  1.00  0.00     0.016 A 
ATOM     37  C   UNL A   1      40.078  25.526  26.748  1.00  0.00     0.010 A 
ATOM     38  C   UNL A   1      41.227  23.985  28.231  1.00  0.00     0.010 A 
ATOM     39  C   UNL A   1      41.034  25.291  27.747  1.00  0.00    -0.014 A 
BRANCH  39  40
ATOM     40  C   UNL A   1      41.945  26.381  28.173  1.00  0.00     0.031 A 
ATOM     41  C   UNL A   1      41.430  27.419  29.129  1.00  0.00     0.074 A 
ATOM     42  C   UNL A   1      43.210  26.447  27.721  1.00  0.00     0.049 A 
ATOM     43  N   UNL A   1      42.025  28.486  29.601  1.00  0.00    -0.248 NA
ATOM     44  C   UNL A   1      40.056  27.227  29.620  1.00  0.00     0.031 C 
ATOM     45  C   UNL A   1      43.836  25.486  26.818  1.00  0.00     0.029 A 
ATOM     46  N   UNL A   1      44.189  27.379  27.957  1.00  0.00    -0.354 N 
ATOM     47  C   UNL A   1      41.099  29.091  30.440  1.00  0.00     0.074 A 
ATOM     48  C   UNL A   1      39.893  28.293  30.391  1.00  0.00     0.031 C 
ATOM     49  C   UNL A   1      45.094  25.885  26.562  1.00  0.00     0.029 A 
ATOM     50  C   UNL A   1      45.349  27.145  27.260  1.00  0.00     0.049 A 
ATOM     51  H   UNL A   1      44.071  28.143  28.567  1.00  0.00     0.167 HD
ATOM     52  C   UNL A   1      41.244  30.210  31.190  1.00  0.00     0.037 A 
ATOM     53  C   UNL A   1      46.477  27.879  27.181  1.00  0.00     0.037 A 
ATOM     54  C   UNL A   1      42.439  31.009  31.234  1.00  0.00     0.049 A 
ATOM     55  C   UNL A   1      46.585  29.162  27.966  1.00  0.00     0.074 A 
ATOM     56  C   UNL A   1      42.689  32.149  31.977  1.00  0.00     0.029 A 
ATOM     57  N   UNL A   1      43.583  30.756  30.493  1.00  0.00    -0.354 N 
ATOM     58  N   UNL A   1      45.720  29.712  28.783  1.00  0.00    -0.248 NA
ATOM     59  C   UNL A   1      47.834  29.926  27.819  1.00  0.00     0.031 C 
ATOM     60  C   UNL A   1      43.966  32.615  31.648  1.00  0.00     0.029 A 
ATOM     61  C   UNL A   1      44.532  31.735  30.741  1.00  0.00     0.049 A 
ATOM     62  H   UNL A   1      43.704  29.994  29.881  1.00  0.00     0.167 HD
ATOM     63  C   UNL A   1      46.327  30.864  29.267  1.00  0.00     0.074 A 
ATOM     64  C   UNL A   1      47.640  30.930  28.663  1.00  0.00     0.031 C 
ATOM     65  C   UNL A   1      45.840  31.783  30.139  1.00  0.00     0.037 A 
BRANCH  52  66
ATOM     66  C   UNL A   1      40.065  30.649  32.008  1.00  0.00     0.064 A 
ATOM     67  C   UNL A   1      39.886  30.219  33.331  1.00  0.00     0.173 A 
ATOM     68  C   UNL A   1      39.119  31.535  31.471  1.00  0.00     0.173 A 
ATOM     69  F   UNL A   1      40.755  29.359  33.885  1.00  0.00    -0.203 F 
ATOM     70  C   UNL A   1      38.790  30.641  34.079  1.00  0.00     0.198 A 
ATOM     71  C   UNL A   1      38.040  31.977  32.230  1.00  0.00     0.198 A 
ATOM     72  F   UNL A   1      39.246  31.978  30.211  1.00  0.00    -0.203 F 
ATOM     73  F   UNL A   1      38.615  30.183  35.326  1.00  0.00    -0.200 F 
ATOM     74  C   UNL A   1      37.872  31.525  33.531  1.00  0.00     0.200 A 
ATOM     75  F   UNL A   1      37.159  32.839  31.704  1.00  0.00    -0.200 F 
ATOM     76  F   UNL A   1      36.822  31.935  34.254  1.00  0.00    -0.200 F 
ENDBRANCH  52  66
BRANCH  53  77
ATOM     77  C   UNL A   1      47.597  27.429  26.313  1.00  0.00     0.064 A 
ATOM     78  C   UNL A   1      48.673  26.703  26.840  1.00  0.00     0.173 A 
ATOM     79  C   UNL A   1      47.627  27.743  24.946  1.00  0.00     0.173 A 
ATOM     80  F   UNL A   1      48.704  26.407  28.148  1.00  0.00    -0.203 F 
ATOM     81  C   UNL A   1      49.746  26.322  26.037  1.00  0.00     0.198 A 
ATOM     82  C   UNL A   1      48.689  27.338  24.138  1.00  0.00     0.198 A 
ATOM     83  F   UNL A   1      46.626  28.444  24.395  1.00  0.00    -0.203 F 
ATOM     84  F   UNL A   1      50.787  25.674  26.577  1.00  0.00    -0.200 F 
ATOM     85  C   UNL A   1      49.750  26.635  24.686  1.00  0.00     0.200 A 
ATOM     86  F   UNL A   1      48.685  27.637  22.832  1.00  0.00    -0.200 F 
ATOM     87  F   UNL A   1      50.784  26.271  23.915  1.00  0.00    -0.200 F 
ENDBRANCH  53  77
BRANCH  65  88
ATOM     88  C   UNL A   1      46.744  32.920  30.522  1.00  0.00     0.064 A 
ATOM     89  C   UNL A   1      46.781  34.114  29.788  1.00  0.00     0.173 A 
ATOM     90  C   UNL A   1      47.548  32.829  31.668  1.00  0.00     0.173 A 
ATOM     91  F   UNL A   1      46.040  34.246  28.677  1.00  0.00    -0.203 F 
ATOM     92  C   UNL A   1      47.607  35.166  30.173  1.00  0.00     0.198 A 
ATOM     93  C   UNL A   1      48.351  33.893  32.068  1.00  0.00     0.198 A 
ATOM     94  F   UNL A   1      47.545  31.712  32.411  1.00  0.00    -0.203 F 
ATOM     95  F   UNL A   1      47.659  36.281  29.432  1.00  0.00    -0.200 F 
ATOM     96  C   UNL A   1      48.385  35.059  31.317  1.00  0.00     0.200 A 
ATOM     97  F   UNL A   1      49.091  33.793  33.181  1.00  0.00    -0.200 F 
ATOM     98  F   UNL A   1      49.174  36.075  31.691  1.00  0.00    -0.200 F 
ENDBRANCH  65  88
ENDBRANCH  39  40
ENDBRANCH  32  34
ENDBRANCH  31  32
ENDBRANCH  30  31
ENDBRANCH  29  30
ENDBRANCH  28  29
ENDBRANCH  27  28
ENDBRANCH   1  27
TORSDOF 20
ENDMDL
MODEL 2
REMARK VINA RESULT:     -10.1      4.756      9.736
REMARK SMILES CN(C)S(=O)(=O)c1cccc(-c2cc(Cl)cc(C(=O)OCCOCCOCCOC(=O)c3ccc(-c4c5nc(c(-c6c(F)c(F)c(F)c(F)c6F)c6ccc([nH]6)c(-c6c(F)c(F)c(F)c(F)c6F)c6nc(c(-c7c(F)c(F)c(F)c(F)c7F)c7ccc4[nH]7)C=C6)C=C5)cc3)c2)c1
REMARK SMILES IDX 24 1 23 2 22 3 21 4 20 5 18 6 19 7 17 8 12 9 13 10 95 11
REMARK SMILES IDX 14 12 15 13 16 14 11 15 7 16 8 17 96 18 9 19 10 20 4 21 5 22
REMARK SMILES IDX 6 23 2 24 1 25 3 26 25 27 26 28 27 29 28 30 29 31 30 32
REMARK SMILES IDX 31 33 32 34 33 35 94 36 34 37 93 38 35 39 36 40 37 41 87 42
REMARK SMILES IDX 38 43 92 44 86 45 88 46 39 47 91 48 85 49 84 50 40 52 72 53
REMARK SMILES IDX 52 54 71 55 53 56 56 57 70 58 89 59 54 60 55 61 69 63 90 64
REMARK SMILES IDX 57 65 41 66 42 67 50 68 43 69 44 70 48 71 51 72 45 73 46 74
REMARK SMILES IDX 49 75 47 76 73 77 74 78 82 79 75 80 76 81 80 82 83 83 77 84
REMARK SMILES IDX 78 85 81 86 79 87 58 88 59 89 67 90 60 91 61 92 65 93 68 94
REMARK SMILES IDX 62 95 63 96 66 97 64 98
REMARK H PARENT 88 51 56 62
REMARK Flexibility Score: inf
ROOT
ATOM      1  C   UNL A   1      39.683  34.296  30.054  1.00  0.00     0.188 C 
ENDROOT
BRANCH   1   2
ATOM      2  O   UNL A   1      40.991  34.499  29.531  1.00  0.00    -0.376 OA
BRANCH   2   3
ATOM      3  C   UNL A   1      41.249  35.612  28.680  1.00  0.00     0.202 C 
BRANCH   3   4
ATOM      4  C   UNL A   1      42.312  35.469  27.585  1.00  0.00     0.261 C 
BRANCH   4   5
ATOM      5  O   UNL A   1      43.655  35.423  28.092  1.00  0.00    -0.460 OA
BRANCH   5   6
ATOM      6  C   UNL A   1      44.607  35.036  27.209  1.00  0.00     0.338 C 
ATOM      7  O   UNL A   1      45.042  35.669  26.263  1.00  0.00    -0.246 OA
BRANCH   6   8
ATOM      8  C   UNL A   1      45.220  33.773  27.673  1.00  0.00     0.062 A 
ATOM      9  C   UNL A   1      45.415  31.333  27.620  1.00  0.00    -0.016 A 
ATOM     10  C   UNL A   1      46.353  31.427  28.664  1.00  0.00     0.029 A 
ATOM     11  C   UNL A   1      44.834  32.531  27.154  1.00  0.00     0.024 A 
ATOM     12  C   UNL A   1      46.716  32.668  29.194  1.00  0.00     0.042 A 
ATOM     13  Cl  UNL A   1      47.837  32.746  30.497  1.00  0.00    -0.084 Cl
ATOM     14  C   UNL A   1      46.173  33.843  28.691  1.00  0.00     0.036 A 
BRANCH   9  15
ATOM     15  C   UNL A   1      45.061  30.038  27.003  1.00  0.00    -0.017 A 
ATOM     16  C   UNL A   1      45.726  28.082  25.701  1.00  0.00     0.083 A 
ATOM     17  C   UNL A   1      44.428  27.579  25.734  1.00  0.00     0.022 A 
ATOM     18  C   UNL A   1      46.042  29.287  26.336  1.00  0.00     0.030 A 
ATOM     19  C   UNL A   1      43.444  28.294  26.416  1.00  0.00     0.002 A 
ATOM     20  C   UNL A   1      43.756  29.513  27.037  1.00  0.00     0.009 A 
BRANCH  16  21
ATOM     21  S   UNL A   1      46.975  27.259  24.749  1.00  0.00     0.242 S 
ATOM     22  O   UNL A   1      47.353  28.131  23.652  1.00  0.00    -0.207 OA
ATOM     23  O   UNL A   1      46.511  25.913  24.496  1.00  0.00    -0.207 OA
BRANCH  21  24
ATOM     24  N   UNL A   1      48.316  27.172  25.808  1.00  0.00    -0.204 NA
ATOM     25  C   UNL A   1      48.508  25.797  26.335  1.00  0.00     0.124 C 
ATOM     26  C   UNL A   1      49.586  27.713  25.270  1.00  0.00     0.124 C 
ENDBRANCH  21  24
ENDBRANCH  16  21
ENDBRANCH   9  15
ENDBRANCH   6   8
ENDBRANCH   5   6
ENDBRANCH   4   5
ENDBRANCH   3   4
ENDBRANCH   2   3
ENDBRANCH   1   2
BRANCH   1  27
ATOM     27  C   UNL A   1      38.449  34.481  29.145  1.00  0.00     0.188 C 
BRANCH  27  28
ATOM     28  O   UNL A   1      37.567  33.388  29.136  1.00  0.00    -0.376 OA
BRANCH  28  29
ATOM     29  C   UNL A   1      36.294  33.479  29.746  1.00  0.00     0.202 C 
BRANCH  29  30
ATOM     30  C   UNL A   1      34.990  32.921  29.145  1.00  0.00     0.261 C 
BRANCH  30  31
ATOM     31  O   UNL A   1      35.070  32.179  27.927  1.00  0.00    -0.460 OA
BRANCH  31  32
ATOM     32  C   UNL A   1      34.843  30.849  28.011  1.00  0.00     0.338 C 
ATOM     33  O   UNL A   1      33.799  30.258  27.809  1.00  0.00    -0.246 OA
BRANCH  32  34
ATOM     34  C   UNL A   1      36.140  30.180  28.241  1.00  0.00     0.060 A 
ATOM     35  C   UNL A   1      36.385  29.596  29.489  1.00  0.00     0.016 A 
ATOM     36  C   UNL A   1      37.110  30.145  27.236  1.00  0.00     0.016 A 
ATOM     37  C   UNL A   1      37.618  28.997  29.746  1.00  0.00     0.010 A 
ATOM     38  C   UNL A   1      38.351  29.561  27.502  1.00  0.00     0.010 A 
ATOM     39  C   UNL A   1      38.621  29.008  28.767  1.00  0.00    -0.014 A 
BRANCH  39  40
ATOM     40  C   UNL A   1      40.001  28.590  29.112  1.00  0.00     0.031 A 
ATOM     41  C   UNL A   1      40.848  29.513  29.942  1.00  0.00     0.074 A 
ATOM     42  C   UNL A   1      40.494  27.409  28.700  1.00  0.00     0.049 A 
ATOM     43  N   UNL A   1      42.094  29.384  30.324  1.00  0.00    -0.248 NA
ATOM     44  C   UNL A   1      40.202  30.752  30.402  1.00  0.00     0.031 C 
ATOM     45  C   UNL A   1      39.764  26.414  27.919  1.00  0.00     0.029 A 
ATOM     46  N   UNL A   1      41.739  26.857  28.874  1.00  0.00    -0.354 N 
ATOM     47  C   UNL A   1      42.379  30.522  31.066  1.00  0.00     0.074 A 
ATOM     48  C   UNL A   1      41.189  31.346  31.056  1.00  0.00     0.031 C 
ATOM     49  C   UNL A   1      40.579  25.375  27.668  1.00  0.00     0.029 A 
ATOM     50  C   UNL A   1      41.895  25.646  28.245  1.00  0.00     0.049 A 
ATOM     51  H   UNL A   1      42.451  27.287  29.400  1.00  0.00     0.167 HD
ATOM     52  C   UNL A   1      43.528  30.848  31.705  1.00  0.00     0.037 A 
ATOM     53  C   UNL A   1      42.986  24.862  28.131  1.00  0.00     0.037 A 
ATOM     54  C   UNL A   1      44.714  30.033  31.709  1.00  0.00     0.049 A 
ATOM     55  C   UNL A   1      44.276  25.284  28.787  1.00  0.00     0.074 A 
ATOM     56  C   UNL A   1      45.921  30.269  32.342  1.00  0.00     0.029 A 
ATOM     57  N   UNL A   1      44.844  28.827  31.036  1.00  0.00    -0.354 N 
ATOM     58  N   UNL A   1      44.530  26.345  29.514  1.00  0.00    -0.248 NA
ATOM     59  C   UNL A   1      45.434  24.394  28.606  1.00  0.00     0.031 C 
ATOM     60  C   UNL A   1      46.799  29.231  32.011  1.00  0.00     0.029 A 
ATOM     61  C   UNL A   1      46.121  28.321  31.217  1.00  0.00     0.049 A 
ATOM     62  H   UNL A   1      44.134  28.395  30.508  1.00  0.00     0.167 HD
ATOM     63  C   UNL A   1      45.860  26.236  29.900  1.00  0.00     0.074 A 
ATOM     64  C   UNL A   1      46.359  24.999  29.337  1.00  0.00     0.031 C 
ATOM     65  C   UNL A   1      46.601  27.083  30.658  1.00  0.00     0.037 A 
BRANCH  52  66
ATOM     66  C   UNL A   1      43.565  32.159  32.433  1.00  0.00     0.064 A 
ATOM     67  C   UNL A   1      43.470  32.227  33.831  1.00  0.00     0.173 A 
ATOM     68  C   UNL A   1      43.726  33.360  31.727  1.00  0.00     0.173 A 
ATOM     69  F   UNL A   1      43.299  31.107  34.551  1.00  0.00    -0.203 F 
ATOM     70  C   UNL A   1      43.512  33.451  34.493  1.00  0.00     0.198 A 
ATOM     71  C   UNL A   1      43.795  34.579  32.393  1.00  0.00     0.198 A 
ATOM     72  F   UNL A   1      43.824  33.349  30.388  1.00  0.00    -0.203 F 
ATOM     73  F   UNL A   1      43.375  33.496  35.825  1.00  0.00    -0.200 F 
ATOM     74  C   UNL A   1      43.682  34.625  33.775  1.00  0.00     0.200 A 
ATOM     75  F   UNL A   1      43.970  35.712  31.699  1.00  0.00    -0.200 F 
ATOM     76  F   UNL A   1      43.728  35.801  34.413  1.00  0.00    -0.200 F 
ENDBRANCH  52  66
BRANCH  53  77
ATOM     77  C   UNL A   1      42.914  23.598  27.351  1.00  0.00     0.064 A 
ATOM     78  C   UNL A   1      42.476  22.407  27.944  1.00  0.00     0.173 A 
ATOM     79  C   UNL A   1      43.311  23.551  26.007  1.00  0.00     0.173 A 
ATOM     80  F   UNL A   1      42.115  22.396  29.236  1.00  0.00    -0.203 F 
ATOM     81  C   UNL A   1      42.453  21.212  27.228  1.00  0.00     0.198 A 
ATOM     82  C   UNL A   1      43.263  22.361  25.283  1.00  0.00     0.198 A 
ATOM     83  F   UNL A   1      43.747  24.662  25.395  1.00  0.00    -0.203 F 
ATOM     84  F   UNL A   1      42.079  20.077  27.834  1.00  0.00    -0.200 F 
ATOM     85  C   UNL A   1      42.841  21.191  25.897  1.00  0.00     0.200 A 
ATOM     86  F   UNL A   1      43.633  22.346  23.996  1.00  0.00    -0.200 F 
ATOM     87  F   UNL A   1      42.823  20.041  25.209  1.00  0.00    -0.200 F 
ENDBRANCH  53  77
BRANCH  65  88
ATOM     88  C   UNL A   1      48.019  26.686  30.956  1.00  0.00     0.064 A 
ATOM     89  C   UNL A   1      48.346  25.889  32.062  1.00  0.00     0.173 A 
ATOM     90  C   UNL A   1      49.057  27.071  30.094  1.00  0.00     0.173 A 
ATOM     91  F   UNL A   1      47.391  25.506  32.923  1.00  0.00    -0.203 F 
ATOM     92  C   UNL A   1      49.663  25.512  32.308  1.00  0.00     0.198 A 
ATOM     93  C   UNL A   1      50.370  26.668  30.327  1.00  0.00     0.198 A 
ATOM     94  F   UNL A   1      48.799  27.827  29.017  1.00  0.00    -0.203 F 
ATOM     95  F   UNL A   1      49.959  24.786  33.396  1.00  0.00    -0.200 F 
ATOM     96  C   UNL A   1      50.672  25.894  31.437  1.00  0.00     0.200 A 
ATOM     97  F   UNL A   1      51.341  27.026  29.475  1.00  0.00    -0.200 F 
ATOM     98  F   UNL A   1      51.939  25.523  31.671  1.00  0.00    -0.200 F 
ENDBRANCH  65  88
ENDBRANCH  39  40
ENDBRANCH  32  34
ENDBRANCH  31  32
ENDBRANCH  30  31
ENDBRANCH  29  30
ENDBRANCH  28  29
ENDBRANCH  27  28
ENDBRANCH   1  27
TORSDOF 20
ENDMDL
MODEL 3
REMARK VINA RESULT:      -9.7      5.310      9.121
REMARK SMILES CN(C)S(=O)(=O)c1cccc(-c2cc(Cl)cc(C(=O)OCCOCCOCCOC(=O)c3ccc(-c4c5nc(c(-c6c(F)c(F)c(F)c(F)c6F)c6ccc([nH]6)c(-c6c(F)c(F)c(F)c(F)c6F)c6nc(c(-c7c(F)c(F)c(F)c(F)c7F)c7ccc4[nH]7)C=C6)C=C5)cc3)c2)c1
REMARK SMILES IDX 24 1 23 2 22 3 21 4 20 5 18 6 19 7 17 8 12 9 13 10 95 11
REMARK SMILES IDX 14 12 15 13 16 14 11 15 7 16 8 17 96 18 9 19 10 20 4 21 5 22
REMARK SMILES IDX 6 23 2 24 1 25 3 26 25 27 26 28 27 29 28 30 29 31 30 32
REMARK SMILES IDX 31 33 32 34 33 35 94 36 34 37 93 38 35 39 36 40 37 41 87 42
REMARK SMILES IDX 38 43 92 44 86 45 88 46 39 47 91 48 85 49 84 50 40 52 72 53
REMARK SMILES IDX 52 54 71 55 53 56 56 57 70 58 89 59 54 60 55 61 69 63 90 64
REMARK SMILES IDX 57 65 41 66 42 67 50 68 43 69 44 70 48 71 51 72 45 73 46 74
REMARK SMILES IDX 49 75 47 76 73 77 74 78 82 79 75 80 76 81 80 82 83 83 77 84
REMARK SMILES IDX 78 85 81 86 79 87 58 88 59 89 67 90 60 91 61 92 65 93 68 94
REMARK SMILES IDX 62 95 63 96 66 97 64 98
REMARK H PARENT 88 51 56 62
REMARK Flexibility Score: inf
ROOT
ATOM      1  C   UNL A   1      49.460  25.195  27.332  1.00  0.00     0.188 C 
ENDROOT
BRANCH   1   2
ATOM      2  O   UNL A   1      48.253  24.526  26.982  1.00  0.00    -0.376 OA
BRANCH   2   3
ATOM      3  C   UNL A   1      47.111  24.637  27.825  1.00  0.00     0.202 C 
BRANCH   3   4
ATOM      4  C   UNL A   1      45.772  24.081  27.327  1.00  0.00     0.261 C 
BRANCH   4   5
ATOM      5  O   UNL A   1      44.638  24.860  27.739  1.00  0.00    -0.460 OA
BRANCH   5   6
ATOM      6  C   UNL A   1      43.731  24.218  28.515  1.00  0.00     0.338 C 
ATOM      7  O   UNL A   1      43.937  23.305  29.294  1.00  0.00    -0.246 OA
BRANCH   6   8
ATOM      8  C   UNL A   1      42.435  24.928  28.441  1.00  0.00     0.062 A 
ATOM      9  C   UNL A   1      40.965  26.783  29.062  1.00  0.00    -0.016 A 
ATOM     10  C   UNL A   1      39.938  26.160  28.330  1.00  0.00     0.029 A 
ATOM     11  C   UNL A   1      42.212  26.127  29.128  1.00  0.00     0.024 A 
ATOM     12  C   UNL A   1      40.161  24.950  27.668  1.00  0.00     0.042 A 
ATOM     13  Cl  UNL A   1      38.873  24.193  26.814  1.00  0.00    -0.084 Cl
ATOM     14  C   UNL A   1      41.408  24.341  27.700  1.00  0.00     0.036 A 
BRANCH   9  15
ATOM     15  C   UNL A   1      40.770  28.092  29.721  1.00  0.00    -0.017 A 
ATOM     16  C   UNL A   1      39.800  29.404  31.537  1.00  0.00     0.083 A 
ATOM     17  C   UNL A   1      40.299  30.585  30.993  1.00  0.00     0.022 A 
ATOM     18  C   UNL A   1      40.041  28.174  30.918  1.00  0.00     0.030 A 
ATOM     19  C   UNL A   1      41.050  30.523  29.820  1.00  0.00     0.002 A 
ATOM     20  C   UNL A   1      41.277  29.292  29.188  1.00  0.00     0.009 A 
BRANCH  16  21
ATOM     21  S   UNL A   1      38.746  29.456  32.963  1.00  0.00     0.242 S 
ATOM     22  O   UNL A   1      39.581  29.661  34.132  1.00  0.00    -0.207 OA
ATOM     23  O   UNL A   1      37.852  28.323  32.882  1.00  0.00    -0.207 OA
BRANCH  21  24
ATOM     24  N   UNL A   1      37.824  30.882  32.748  1.00  0.00    -0.204 NA
ATOM     25  C   UNL A   1      36.642  30.642  31.882  1.00  0.00     0.124 C 
ATOM     26  C   UNL A   1      37.432  31.579  33.995  1.00  0.00     0.124 C 
ENDBRANCH  21  24
ENDBRANCH  16  21
ENDBRANCH   9  15
ENDBRANCH   6   8
ENDBRANCH   5   6
ENDBRANCH   4   5
ENDBRANCH   3   4
ENDBRANCH   2   3
ENDBRANCH   1   2
BRANCH   1  27
ATOM     27  C   UNL A   1      50.266  25.950  26.254  1.00  0.00     0.188 C 
BRANCH  27  28
ATOM     28  O   UNL A   1      49.723  25.865  24.960  1.00  0.00    -0.376 OA
BRANCH  28  29
ATOM     29  C   UNL A   1      49.654  27.007  24.128  1.00  0.00     0.202 C 
BRANCH  29  30
ATOM     30  C   UNL A   1      48.483  27.335  23.184  1.00  0.00     0.261 C 
BRANCH  30  31
ATOM     31  O   UNL A   1      47.250  27.770  23.761  1.00  0.00    -0.460 OA
BRANCH  31  32
ATOM     32  C   UNL A   1      46.579  26.867  24.510  1.00  0.00     0.338 C 
ATOM     33  O   UNL A   1      46.440  25.678  24.293  1.00  0.00    -0.246 OA
BRANCH  32  34
ATOM     34  C   UNL A   1      46.157  27.534  25.758  1.00  0.00     0.060 A 
ATOM     35  C   UNL A   1      44.790  27.722  25.993  1.00  0.00     0.016 A 
ATOM     36  C   UNL A   1      47.107  27.982  26.680  1.00  0.00     0.016 A 
ATOM     37  C   UNL A   1      44.369  28.388  27.144  1.00  0.00     0.010 A 
ATOM     38  C   UNL A   1      46.682  28.666  27.822  1.00  0.00     0.010 A 
ATOM     39  C   UNL A   1      45.314  28.896  28.047  1.00  0.00    -0.014 A 
BRANCH  39  40
ATOM     40  C   UNL A   1      44.885  29.805  29.138  1.00  0.00     0.031 A 
ATOM     41  C   UNL A   1      44.561  29.215  30.481  1.00  0.00     0.074 A 
ATOM     42  C   UNL A   1      44.789  31.131  28.941  1.00  0.00     0.049 A 
ATOM     43  N   UNL A   1      44.121  29.803  31.565  1.00  0.00    -0.248 NA
ATOM     44  C   UNL A   1      44.759  27.764  30.620  1.00  0.00     0.031 C 
ATOM     45  C   UNL A   1      45.105  31.827  27.696  1.00  0.00     0.029 A 
ATOM     46  N   UNL A   1      44.380  32.128  29.792  1.00  0.00    -0.354 N 
ATOM     47  C   UNL A   1      43.988  28.796  32.511  1.00  0.00     0.074 A 
ATOM     48  C   UNL A   1      44.364  27.555  31.868  1.00  0.00     0.031 C 
ATOM     49  C   UNL A   1      44.866  33.140  27.859  1.00  0.00     0.029 A 
ATOM     50  C   UNL A   1      44.351  33.370  29.209  1.00  0.00     0.049 A 
ATOM     51  H   UNL A   1      44.131  31.967  30.731  1.00  0.00     0.167 HD
ATOM     52  C   UNL A   1      43.595  28.897  33.804  1.00  0.00     0.037 A 
ATOM     53  C   UNL A   1      43.933  34.552  29.705  1.00  0.00     0.037 A 
ATOM     54  C   UNL A   1      43.213  30.129  34.442  1.00  0.00     0.049 A 
ATOM     55  C   UNL A   1      43.427  34.626  31.123  1.00  0.00     0.074 A 
ATOM     56  C   UNL A   1      42.818  30.336  35.751  1.00  0.00     0.029 A 
ATOM     57  N   UNL A   1      43.169  31.363  33.810  1.00  0.00    -0.354 N 
ATOM     58  N   UNL A   1      43.336  33.677  32.023  1.00  0.00    -0.248 NA
ATOM     59  C   UNL A   1      42.967  35.941  31.596  1.00  0.00     0.031 C 
ATOM     60  C   UNL A   1      42.486  31.687  35.899  1.00  0.00     0.029 A 
ATOM     61  C   UNL A   1      42.726  32.331  34.697  1.00  0.00     0.049 A 
ATOM     62  H   UNL A   1      43.416  31.527  32.872  1.00  0.00     0.167 HD
ATOM     63  C   UNL A   1      42.839  34.282  33.170  1.00  0.00     0.074 A 
ATOM     64  C   UNL A   1      42.659  35.684  32.859  1.00  0.00     0.031 C 
ATOM     65  C   UNL A   1      42.561  33.726  34.376  1.00  0.00     0.037 A 
BRANCH  52  66
ATOM     66  C   UNL A   1      43.534  27.632  34.607  1.00  0.00     0.064 A 
ATOM     67  C   UNL A   1      44.619  27.201  35.384  1.00  0.00     0.173 A 
ATOM     68  C   UNL A   1      42.365  26.857  34.624  1.00  0.00     0.173 A 
ATOM     69  F   UNL A   1      45.766  27.900  35.390  1.00  0.00    -0.203 F 
ATOM     70  C   UNL A   1      44.545  26.028  36.130  1.00  0.00     0.198 A 
ATOM     71  C   UNL A   1      42.284  25.699  35.391  1.00  0.00     0.198 A 
ATOM     72  F   UNL A   1      41.299  27.227  33.899  1.00  0.00    -0.203 F 
ATOM     73  F   UNL A   1      45.609  25.611  36.830  1.00  0.00    -0.200 F 
ATOM     74  C   UNL A   1      43.376  25.281  36.139  1.00  0.00     0.200 A 
ATOM     75  F   UNL A   1      41.150  24.985  35.407  1.00  0.00    -0.200 F 
ATOM     76  F   UNL A   1      43.303  24.156  36.861  1.00  0.00    -0.200 F 
ENDBRANCH  52  66
BRANCH  53  77
ATOM     77  C   UNL A   1      43.962  35.769  28.850  1.00  0.00     0.064 A 
ATOM     78  C   UNL A   1      45.084  36.607  28.823  1.00  0.00     0.173 A 
ATOM     79  C   UNL A   1      42.857  36.132  28.067  1.00  0.00     0.173 A 
ATOM     80  F   UNL A   1      46.153  36.318  29.580  1.00  0.00    -0.203 F 
ATOM     81  C   UNL A   1      45.094  37.772  28.059  1.00  0.00     0.198 A 
ATOM     82  C   UNL A   1      42.877  37.284  27.282  1.00  0.00     0.198 A 
ATOM     83  F   UNL A   1      41.754  35.367  28.064  1.00  0.00    -0.203 F 
ATOM     84  F   UNL A   1      46.160  38.583  28.092  1.00  0.00    -0.200 F 
ATOM     85  C   UNL A   1      43.993  38.106  27.285  1.00  0.00     0.200 A 
ATOM     86  F   UNL A   1      41.814  37.599  26.531  1.00  0.00    -0.200 F 
ATOM     87  F   UNL A   1      44.001  39.229  26.554  1.00  0.00    -0.200 F 
ENDBRANCH  53  77
BRANCH  65  88
ATOM     88  C   UNL A   1      42.068  34.638  35.463  1.00  0.00     0.064 A 
ATOM     89  C   UNL A   1      42.952  35.353  36.284  1.00  0.00     0.173 A 
ATOM     90  C   UNL A   1      40.692  34.835  35.652  1.00  0.00     0.173 A 
ATOM     91  F   UNL A   1      44.277  35.190  36.152  1.00  0.00    -0.203 F 
ATOM     92  C   UNL A   1      42.475  36.213  37.270  1.00  0.00     0.198 A 
ATOM     93  C   UNL A   1      40.218  35.717  36.619  1.00  0.00     0.198 A 
ATOM     94  F   UNL A   1      39.803  34.182  34.888  1.00  0.00    -0.203 F 
ATOM     95  F   UNL A   1      43.338  36.852  38.073  1.00  0.00    -0.200 F 
ATOM     96  C   UNL A   1      41.111  36.401  37.432  1.00  0.00     0.200 A 
ATOM     97  F   UNL A   1      38.900  35.909  36.764  1.00  0.00    -0.200 F 
ATOM     98  F   UNL A   1      40.654  37.235  38.376  1.00  0.00    -0.200 F 
ENDBRANCH  65  88
ENDBRANCH  39  40
ENDBRANCH  32  34
ENDBRANCH  31  32
ENDBRANCH  30  31
ENDBRANCH  29  30
ENDBRANCH  28  29
ENDBRANCH  27  28
ENDBRANCH   1  27
TORSDOF 20
ENDMDL
