MODEL 1
REMARK VINA RESULT:     -11.5      0.000      0.000
REMARK SMILES C[C@@H]1CCc2sc(NC(=O)/C=C/C(=O)OCCOCCOCCOC(=O)c3ccc(-c4c5nc(c(-c6c(F)c(F)c(F)c(F)c6F)c6ccc([nH]6)c(-c6c(F)c(F)c(F)c(F)c6F)c6nc(c(-c7c(F)c(F)c(F)c(F)c7F)c7ccc4[nH]7)C=C6)C=C5)cc3)c(C#N)c2C1
REMARK SMILES IDX 19 1 18 2 17 3 16 4 15 5 13 6 14 7 12 8 11 9 9 10 8 11 10 13
REMARK SMILES IDX 7 14 1 15 2 16 3 17 94 18 4 19 93 20 5 21 90 22 6 23 91 24
REMARK SMILES IDX 92 25 20 26 21 27 22 28 23 29 24 30 25 31 26 32 27 33 28 34
REMARK SMILES IDX 89 35 29 36 88 37 30 38 31 39 32 40 82 41 33 42 87 43 81 44
REMARK SMILES IDX 83 45 34 46 86 47 80 48 79 49 35 51 67 52 47 53 66 54 48 55
REMARK SMILES IDX 51 56 65 57 84 58 49 59 50 60 64 62 85 63 52 64 36 65 37 66
REMARK SMILES IDX 45 67 38 68 39 69 43 70 46 71 40 72 41 73 44 74 42 75 68 76
REMARK SMILES IDX 69 77 77 78 70 79 71 80 75 81 78 82 72 83 73 84 76 85 74 86
REMARK SMILES IDX 53 87 54 88 62 89 55 90 56 91 60 92 63 93 57 94 58 95 61 96
REMARK SMILES IDX 59 97
REMARK H PARENT 8 12 83 50 51 61
REMARK Flexibility Score: inf
ROOT
ATOM      1  C   UNL A   1      39.382  22.040  26.221  1.00  0.00     0.188 C 
ENDROOT
BRANCH   1   2
ATOM      2  O   UNL A   1      38.455  21.552  25.279  1.00  0.00    -0.376 OA
BRANCH   2   3
ATOM      3  C   UNL A   1      37.109  22.005  25.244  1.00  0.00     0.202 C 
BRANCH   3   4
ATOM      4  C   UNL A   1      35.881  21.164  25.659  1.00  0.00     0.261 C 
BRANCH   4   5
ATOM      5  O   UNL A   1      35.059  20.751  24.567  1.00  0.00    -0.460 OA
BRANCH   5   6
ATOM      6  C   UNL A   1      33.726  20.897  24.727  1.00  0.00     0.331 C 
ATOM      7  O   UNL A   1      33.048  20.481  25.647  1.00  0.00    -0.247 OA
BRANCH   6   8
ATOM      8  C   UNL A   1      33.253  21.894  23.754  1.00  0.00     0.099 C 
ATOM      9  C   UNL A   1      33.983  22.843  23.180  1.00  0.00     0.079 C 
BRANCH   9  10
ATOM     10  C   UNL A   1      33.465  23.776  22.156  1.00  0.00     0.249 C 
ATOM     11  N   UNL A   1      33.005  25.041  22.349  1.00  0.00    -0.313 N 
ATOM     12  H   UNL A   1      32.712  25.443  21.499  1.00  0.00     0.171 HD
ATOM     13  O   UNL A   1      33.443  23.349  20.996  1.00  0.00    -0.270 OA
BRANCH  11  14
ATOM     14  C   UNL A   1      32.834  25.923  23.394  1.00  0.00     0.114 A 
ATOM     15  C   UNL A   1      31.534  28.269  27.819  1.00  0.00     0.008 C 
ATOM     16  C   UNL A   1      32.591  29.042  27.032  1.00  0.00    -0.009 C 
ATOM     17  C   UNL A   1      31.987  29.993  25.969  1.00  0.00     0.009 C 
ATOM     18  C   UNL A   1      33.586  28.062  26.389  1.00  0.00     0.041 C 
ATOM     19  C   UNL A   1      31.333  29.284  24.770  1.00  0.00     0.047 C 
ATOM     20  C   UNL A   1      33.025  27.423  25.151  1.00  0.00    -0.014 A 
ATOM     21  C   UNL A   1      32.127  28.089  24.346  1.00  0.00     0.011 A 
ATOM     22  C   UNL A   1      33.050  26.044  24.754  1.00  0.00     0.090 A 
ATOM     23  S   UNL A   1      31.951  27.311  22.847  1.00  0.00    -0.121 S 
BRANCH  22  24
ATOM     24  C   UNL A   1      33.197  25.002  25.718  1.00  0.00     0.103 C 
ATOM     25  N   UNL A   1      33.426  24.207  26.537  1.00  0.00    -0.192 NA
ENDBRANCH  22  24
ENDBRANCH  11  14
ENDBRANCH   9  10
ENDBRANCH   6   8
ENDBRANCH   5   6
ENDBRANCH   4   5
ENDBRANCH   3   4
ENDBRANCH   2   3
ENDBRANCH   1   2
BRANCH   1  26
ATOM     26  C   UNL A   1      40.455  21.122  26.858  1.00  0.00     0.188 C 
BRANCH  26  27
ATOM     27  O   UNL A   1      40.882  19.890  26.315  1.00  0.00    -0.376 OA
BRANCH  27  28
ATOM     28  C   UNL A   1      42.120  19.275  26.624  1.00  0.00     0.202 C 
BRANCH  28  29
ATOM     29  C   UNL A   1      43.296  19.255  25.656  1.00  0.00     0.261 C 
BRANCH  29  30
ATOM     30  O   UNL A   1      43.438  20.419  24.874  1.00  0.00    -0.460 OA
BRANCH  30  31
ATOM     31  C   UNL A   1      44.682  20.575  24.376  1.00  0.00     0.338 C 
ATOM     32  O   UNL A   1      45.461  19.706  24.021  1.00  0.00    -0.246 OA
BRANCH  31  33
ATOM     33  C   UNL A   1      45.013  21.998  24.420  1.00  0.00     0.060 A 
ATOM     34  C   UNL A   1      46.083  22.352  25.241  1.00  0.00     0.016 A 
ATOM     35  C   UNL A   1      43.969  22.876  24.121  1.00  0.00     0.016 A 
ATOM     36  C   UNL A   1      45.908  23.441  26.062  1.00  0.00     0.010 A 
ATOM     37  C   UNL A   1      43.789  23.944  24.952  1.00  0.00     0.010 A 
ATOM     38  C   UNL A   1      44.692  24.135  25.996  1.00  0.00    -0.014 A 
BRANCH  38  39
ATOM     39  C   UNL A   1      44.470  25.280  26.856  1.00  0.00     0.031 A 
ATOM     40  C   UNL A   1      45.543  26.262  26.574  1.00  0.00     0.074 A 
ATOM     41  C   UNL A   1      43.381  25.415  27.648  1.00  0.00     0.049 A 
ATOM     42  N   UNL A   1      46.604  26.459  27.287  1.00  0.00    -0.248 NA
ATOM     43  C   UNL A   1      45.648  26.828  25.214  1.00  0.00     0.031 C 
ATOM     44  C   UNL A   1      42.238  24.501  27.774  1.00  0.00     0.029 A 
ATOM     45  N   UNL A   1      43.013  26.463  28.459  1.00  0.00    -0.354 N 
ATOM     46  C   UNL A   1      47.304  27.448  26.601  1.00  0.00     0.074 A 
ATOM     47  C   UNL A   1      46.875  27.354  25.241  1.00  0.00     0.031 C 
ATOM     48  C   UNL A   1      41.210  25.130  28.393  1.00  0.00     0.029 A 
ATOM     49  C   UNL A   1      41.649  26.441  28.822  1.00  0.00     0.049 A 
ATOM     50  H   UNL A   1      43.640  27.161  28.756  1.00  0.00     0.167 HD
ATOM     51  C   UNL A   1      47.705  28.548  27.299  1.00  0.00     0.037 A 
ATOM     52  C   UNL A   1      40.962  27.473  29.394  1.00  0.00     0.037 A 
ATOM     53  C   UNL A   1      47.721  28.227  28.711  1.00  0.00     0.049 A 
ATOM     54  C   UNL A   1      41.981  28.354  30.009  1.00  0.00     0.074 A 
ATOM     55  C   UNL A   1      48.431  27.395  29.552  1.00  0.00     0.029 A 
ATOM     56  N   UNL A   1      46.507  28.452  29.302  1.00  0.00    -0.354 N 
ATOM     57  N   UNL A   1      42.703  27.996  31.035  1.00  0.00    -0.248 NA
ATOM     58  C   UNL A   1      42.526  29.429  29.193  1.00  0.00     0.031 C 
ATOM     59  C   UNL A   1      47.541  27.053  30.618  1.00  0.00     0.029 A 
ATOM     60  C   UNL A   1      46.351  27.759  30.460  1.00  0.00     0.049 A 
ATOM     61  H   UNL A   1      45.822  29.052  28.928  1.00  0.00     0.167 HD
ATOM     62  C   UNL A   1      43.973  28.447  30.721  1.00  0.00     0.074 A 
ATOM     63  C   UNL A   1      43.777  29.435  29.658  1.00  0.00     0.031 C 
ATOM     64  C   UNL A   1      45.066  27.726  31.114  1.00  0.00     0.037 A 
BRANCH  51  65
ATOM     65  C   UNL A   1      47.402  29.987  26.850  1.00  0.00     0.064 A 
ATOM     66  C   UNL A   1      48.431  30.943  26.990  1.00  0.00     0.173 A 
ATOM     67  C   UNL A   1      46.117  30.538  26.623  1.00  0.00     0.173 A 
ATOM     68  F   UNL A   1      49.696  30.553  27.208  1.00  0.00    -0.203 F 
ATOM     69  C   UNL A   1      48.176  32.319  27.007  1.00  0.00     0.198 A 
ATOM     70  C   UNL A   1      45.871  31.910  26.612  1.00  0.00     0.198 A 
ATOM     71  F   UNL A   1      45.012  29.805  26.482  1.00  0.00    -0.203 F 
ATOM     72  F   UNL A   1      49.172  33.177  27.263  1.00  0.00    -0.200 F 
ATOM     73  C   UNL A   1      46.893  32.802  26.834  1.00  0.00     0.200 A 
ATOM     74  F   UNL A   1      44.613  32.348  26.462  1.00  0.00    -0.200 F 
ATOM     75  F   UNL A   1      46.633  34.112  26.913  1.00  0.00    -0.200 F 
ENDBRANCH  51  65
BRANCH  52  76
ATOM     76  C   UNL A   1      39.563  27.945  29.190  1.00  0.00     0.064 A 
ATOM     77  C   UNL A   1      38.659  28.092  30.266  1.00  0.00     0.173 A 
ATOM     78  C   UNL A   1      39.187  28.571  27.987  1.00  0.00     0.173 A 
ATOM     79  F   UNL A   1      38.952  27.576  31.468  1.00  0.00    -0.203 F 
ATOM     80  C   UNL A   1      37.480  28.844  30.150  1.00  0.00     0.198 A 
ATOM     81  C   UNL A   1      38.013  29.322  27.874  1.00  0.00     0.198 A 
ATOM     82  F   UNL A   1      40.005  28.555  26.927  1.00  0.00    -0.203 F 
ATOM     83  F   UNL A   1      36.683  29.014  31.215  1.00  0.00    -0.200 F 
ATOM     84  C   UNL A   1      37.166  29.470  28.957  1.00  0.00     0.200 A 
ATOM     85  F   UNL A   1      37.744  29.961  26.727  1.00  0.00    -0.200 F 
ATOM     86  F   UNL A   1      36.079  30.250  28.862  1.00  0.00    -0.200 F 
ENDBRANCH  52  76
BRANCH  64  87
ATOM     87  C   UNL A   1      44.893  26.762  32.244  1.00  0.00     0.064 A 
ATOM     88  C   UNL A   1      44.570  25.402  32.107  1.00  0.00     0.173 A 
ATOM     89  C   UNL A   1      45.172  27.238  33.532  1.00  0.00     0.173 A 
ATOM     90  F   UNL A   1      44.376  24.860  30.896  1.00  0.00    -0.203 F 
ATOM     91  C   UNL A   1      44.491  24.570  33.224  1.00  0.00     0.198 A 
ATOM     92  C   UNL A   1      45.130  26.399  34.637  1.00  0.00     0.198 A 
ATOM     93  F   UNL A   1      45.532  28.518  33.709  1.00  0.00    -0.203 F 
ATOM     94  F   UNL A   1      44.168  23.276  33.080  1.00  0.00    -0.200 F 
ATOM     95  C   UNL A   1      44.777  25.069  34.486  1.00  0.00     0.200 A 
ATOM     96  F   UNL A   1      45.457  26.879  35.844  1.00  0.00    -0.200 F 
ATOM     97  F   UNL A   1      44.733  24.265  35.557  1.00  0.00    -0.200 F 
ENDBRANCH  64  87
ENDBRANCH  38  39
ENDBRANCH  31  33
ENDBRANCH  30  31
ENDBRANCH  29  30
ENDBRANCH  28  29
ENDBRANCH  27  28
ENDBRANCH  26  27
ENDBRANCH   1  26
TORSDOF 20
ENDMDL
MODEL 2
REMARK VINA RESULT:     -11.1      4.766     10.043
REMARK SMILES C[C@@H]1CCc2sc(NC(=O)/C=C/C(=O)OCCOCCOCCOC(=O)c3ccc(-c4c5nc(c(-c6c(F)c(F)c(F)c(F)c6F)c6ccc([nH]6)c(-c6c(F)c(F)c(F)c(F)c6F)c6nc(c(-c7c(F)c(F)c(F)c(F)c7F)c7ccc4[nH]7)C=C6)C=C5)cc3)c(C#N)c2C1
REMARK SMILES IDX 19 1 18 2 17 3 16 4 15 5 13 6 14 7 12 8 11 9 9 10 8 11 10 13
REMARK SMILES IDX 7 14 1 15 2 16 3 17 94 18 4 19 93 20 5 21 90 22 6 23 91 24
REMARK SMILES IDX 92 25 20 26 21 27 22 28 23 29 24 30 25 31 26 32 27 33 28 34
REMARK SMILES IDX 89 35 29 36 88 37 30 38 31 39 32 40 82 41 33 42 87 43 81 44
REMARK SMILES IDX 83 45 34 46 86 47 80 48 79 49 35 51 67 52 47 53 66 54 48 55
REMARK SMILES IDX 51 56 65 57 84 58 49 59 50 60 64 62 85 63 52 64 36 65 37 66
REMARK SMILES IDX 45 67 38 68 39 69 43 70 46 71 40 72 41 73 44 74 42 75 68 76
REMARK SMILES IDX 69 77 77 78 70 79 71 80 75 81 78 82 72 83 73 84 76 85 74 86
REMARK SMILES IDX 53 87 54 88 62 89 55 90 56 91 60 92 63 93 57 94 58 95 61 96
REMARK SMILES IDX 59 97
REMARK H PARENT 8 12 83 50 51 61
REMARK Flexibility Score: inf
ROOT
ATOM      1  C   UNL A   1      34.243  30.857  27.837  1.00  0.00     0.188 C 
ENDROOT
BRANCH   1   2
ATOM      2  O   UNL A   1      34.068  29.828  26.892  1.00  0.00    -0.376 OA
BRANCH   2   3
ATOM      3  C   UNL A   1      33.387  28.622  27.209  1.00  0.00     0.202 C 
BRANCH   3   4
ATOM      4  C   UNL A   1      31.919  28.311  26.840  1.00  0.00     0.261 C 
BRANCH   4   5
ATOM      5  O   UNL A   1      31.709  28.046  25.453  1.00  0.00    -0.460 OA
BRANCH   5   6
ATOM      6  C   UNL A   1      30.693  27.210  25.146  1.00  0.00     0.331 C 
ATOM      7  O   UNL A   1      29.995  27.239  24.150  1.00  0.00    -0.247 OA
BRANCH   6   8
ATOM      8  C   UNL A   1      30.741  26.069  26.073  1.00  0.00     0.099 C 
ATOM      9  C   UNL A   1      30.382  24.820  25.804  1.00  0.00     0.079 C 
BRANCH   9  10
ATOM     10  C   UNL A   1      30.517  23.699  26.759  1.00  0.00     0.249 C 
ATOM     11  N   UNL A   1      31.581  22.866  26.911  1.00  0.00    -0.313 N 
ATOM     12  H   UNL A   1      31.410  22.200  27.614  1.00  0.00     0.171 HD
ATOM     13  O   UNL A   1      29.545  23.494  27.496  1.00  0.00    -0.270 OA
BRANCH  11  14
ATOM     14  C   UNL A   1      32.834  22.691  26.362  1.00  0.00     0.114 A 
ATOM     15  C   UNL A   1      37.033  22.695  23.338  1.00  0.00     0.008 C 
ATOM     16  C   UNL A   1      37.329  22.205  24.756  1.00  0.00    -0.009 C 
ATOM     17  C   UNL A   1      37.064  20.690  24.945  1.00  0.00     0.009 C 
ATOM     18  C   UNL A   1      36.527  23.033  25.774  1.00  0.00     0.041 C 
ATOM     19  C   UNL A   1      35.580  20.287  24.907  1.00  0.00     0.047 C 
ATOM     20  C   UNL A   1      35.091  22.601  25.844  1.00  0.00    -0.014 A 
ATOM     21  C   UNL A   1      34.725  21.294  25.609  1.00  0.00     0.011 A 
ATOM     22  C   UNL A   1      33.904  23.407  25.858  1.00  0.00     0.090 A 
ATOM     23  S   UNL A   1      33.132  21.001  26.118  1.00  0.00    -0.121 S 
BRANCH  22  24
ATOM     24  C   UNL A   1      33.904  24.728  25.320  1.00  0.00     0.103 C 
ATOM     25  N   UNL A   1      34.013  25.776  24.825  1.00  0.00    -0.192 NA
ENDBRANCH  22  24
ENDBRANCH  11  14
ENDBRANCH   9  10
ENDBRANCH   6   8
ENDBRANCH   5   6
ENDBRANCH   4   5
ENDBRANCH   3   4
ENDBRANCH   2   3
ENDBRANCH   1   2
BRANCH   1  26
ATOM     26  C   UNL A   1      33.743  32.300  27.573  1.00  0.00     0.188 C 
BRANCH  26  27
ATOM     27  O   UNL A   1      33.962  33.396  28.437  1.00  0.00    -0.376 OA
BRANCH  27  28
ATOM     28  C   UNL A   1      33.005  34.408  28.691  1.00  0.00     0.202 C 
BRANCH  28  29
ATOM     29  C   UNL A   1      33.180  35.456  29.783  1.00  0.00     0.261 C 
BRANCH  29  30
ATOM     30  O   UNL A   1      34.172  35.154  30.737  1.00  0.00    -0.460 OA
BRANCH  30  31
ATOM     31  C   UNL A   1      33.664  34.828  31.944  1.00  0.00     0.338 C 
ATOM     32  O   UNL A   1      32.576  35.126  32.404  1.00  0.00    -0.246 OA
BRANCH  31  33
ATOM     33  C   UNL A   1      34.699  34.116  32.692  1.00  0.00     0.060 A 
ATOM     34  C   UNL A   1      35.855  34.840  32.978  1.00  0.00     0.016 A 
ATOM     35  C   UNL A   1      34.691  32.725  32.570  1.00  0.00     0.016 A 
ATOM     36  C   UNL A   1      37.058  34.211  32.760  1.00  0.00     0.010 A 
ATOM     37  C   UNL A   1      35.886  32.109  32.334  1.00  0.00     0.010 A 
ATOM     38  C   UNL A   1      37.042  32.886  32.301  1.00  0.00    -0.014 A 
BRANCH  38  39
ATOM     39  C   UNL A   1      38.291  32.198  32.048  1.00  0.00     0.031 A 
ATOM     40  C   UNL A   1      38.969  32.013  33.353  1.00  0.00     0.074 A 
ATOM     41  C   UNL A   1      38.644  31.718  30.833  1.00  0.00     0.049 A 
ATOM     42  N   UNL A   1      39.940  32.731  33.817  1.00  0.00    -0.248 NA
ATOM     43  C   UNL A   1      38.298  31.208  34.395  1.00  0.00     0.031 C 
ATOM     44  C   UNL A   1      37.867  31.760  29.587  1.00  0.00     0.029 A 
ATOM     45  N   UNL A   1      39.756  30.998  30.465  1.00  0.00    -0.354 N 
ATOM     46  C   UNL A   1      40.203  32.188  35.072  1.00  0.00     0.074 A 
ATOM     47  C   UNL A   1      38.991  31.553  35.483  1.00  0.00     0.031 C 
ATOM     48  C   UNL A   1      38.394  30.895  28.686  1.00  0.00     0.029 A 
ATOM     49  C   UNL A   1      39.611  30.331  29.230  1.00  0.00     0.049 A 
ATOM     50  H   UNL A   1      40.574  30.953  31.011  1.00  0.00     0.167 HD
ATOM     51  C   UNL A   1      41.490  31.845  35.362  1.00  0.00     0.037 A 
ATOM     52  C   UNL A   1      40.437  29.355  28.752  1.00  0.00     0.037 A 
ATOM     53  C   UNL A   1      42.378  32.559  34.469  1.00  0.00     0.049 A 
ATOM     54  C   UNL A   1      41.720  29.511  29.476  1.00  0.00     0.074 A 
ATOM     55  C   UNL A   1      42.745  33.869  34.240  1.00  0.00     0.029 A 
ATOM     56  N   UNL A   1      42.594  31.874  33.304  1.00  0.00    -0.354 N 
ATOM     57  N   UNL A   1      42.505  30.541  29.316  1.00  0.00    -0.248 NA
ATOM     58  C   UNL A   1      41.889  28.770  30.718  1.00  0.00     0.031 C 
ATOM     59  C   UNL A   1      43.088  33.950  32.853  1.00  0.00     0.029 A 
ATOM     60  C   UNL A   1      43.022  32.676  32.294  1.00  0.00     0.049 A 
ATOM     61  H   UNL A   1      42.454  30.904  33.208  1.00  0.00     0.167 HD
ATOM     62  C   UNL A   1      42.909  30.853  30.602  1.00  0.00     0.074 A 
ATOM     63  C   UNL A   1      42.618  29.658  31.398  1.00  0.00     0.031 C 
ATOM     64  C   UNL A   1      43.114  32.159  30.951  1.00  0.00     0.037 A 
BRANCH  51  65
ATOM     65  C   UNL A   1      41.895  30.458  35.888  1.00  0.00     0.064 A 
ATOM     66  C   UNL A   1      42.916  30.403  36.861  1.00  0.00     0.173 A 
ATOM     67  C   UNL A   1      41.600  29.215  35.276  1.00  0.00     0.173 A 
ATOM     68  F   UNL A   1      43.290  31.512  37.517  1.00  0.00    -0.203 F 
ATOM     69  C   UNL A   1      43.642  29.234  37.118  1.00  0.00     0.198 A 
ATOM     70  C   UNL A   1      42.307  28.046  35.555  1.00  0.00     0.198 A 
ATOM     71  F   UNL A   1      40.682  29.059  34.321  1.00  0.00    -0.203 F 
ATOM     72  F   UNL A   1      44.679  29.268  37.965  1.00  0.00    -0.200 F 
ATOM     73  C   UNL A   1      43.347  28.059  36.453  1.00  0.00     0.200 A 
ATOM     74  F   UNL A   1      42.012  26.926  34.879  1.00  0.00    -0.200 F 
ATOM     75  F   UNL A   1      44.079  26.956  36.647  1.00  0.00    -0.200 F 
ENDBRANCH  51  65
BRANCH  52  76
ATOM     76  C   UNL A   1      40.138  28.114  27.981  1.00  0.00     0.064 A 
ATOM     77  C   UNL A   1      40.808  27.804  26.776  1.00  0.00     0.173 A 
ATOM     78  C   UNL A   1      39.430  27.055  28.576  1.00  0.00     0.173 A 
ATOM     79  F   UNL A   1      41.552  28.733  26.158  1.00  0.00    -0.203 F 
ATOM     80  C   UNL A   1      40.795  26.512  26.229  1.00  0.00     0.198 A 
ATOM     81  C   UNL A   1      39.421  25.767  28.032  1.00  0.00     0.198 A 
ATOM     82  F   UNL A   1      38.822  27.223  29.758  1.00  0.00    -0.203 F 
ATOM     83  F   UNL A   1      41.498  26.243  25.120  1.00  0.00    -0.200 F 
ATOM     84  C   UNL A   1      40.112  25.491  26.867  1.00  0.00     0.200 A 
ATOM     85  F   UNL A   1      38.794  24.778  28.684  1.00  0.00    -0.200 F 
ATOM     86  F   UNL A   1      40.157  24.239  26.389  1.00  0.00    -0.200 F 
ENDBRANCH  52  76
BRANCH  64  87
ATOM     87  C   UNL A   1      43.359  33.142  29.850  1.00  0.00     0.064 A 
ATOM     88  C   UNL A   1      44.545  33.245  29.105  1.00  0.00     0.173 A 
ATOM     89  C   UNL A   1      42.282  33.956  29.477  1.00  0.00     0.173 A 
ATOM     90  F   UNL A   1      45.585  32.436  29.352  1.00  0.00    -0.203 F 
ATOM     91  C   UNL A   1      44.652  34.157  28.055  1.00  0.00     0.198 A 
ATOM     92  C   UNL A   1      42.379  34.837  28.408  1.00  0.00     0.198 A 
ATOM     93  F   UNL A   1      41.113  33.861  30.128  1.00  0.00    -0.203 F 
ATOM     94  F   UNL A   1      45.795  34.255  27.360  1.00  0.00    -0.200 F 
ATOM     95  C   UNL A   1      43.566  34.948  27.706  1.00  0.00     0.200 A 
ATOM     96  F   UNL A   1      41.310  35.558  28.046  1.00  0.00    -0.200 F 
ATOM     97  F   UNL A   1      43.657  35.803  26.678  1.00  0.00    -0.200 F 
ENDBRANCH  64  87
ENDBRANCH  38  39
ENDBRANCH  31  33
ENDBRANCH  30  31
ENDBRANCH  29  30
ENDBRANCH  28  29
ENDBRANCH  27  28
ENDBRANCH  26  27
ENDBRANCH   1  26
TORSDOF 20
ENDMDL
MODEL 3
REMARK VINA RESULT:     -11.0      4.071      8.979
REMARK SMILES C[C@@H]1CCc2sc(NC(=O)/C=C/C(=O)OCCOCCOCCOC(=O)c3ccc(-c4c5nc(c(-c6c(F)c(F)c(F)c(F)c6F)c6ccc([nH]6)c(-c6c(F)c(F)c(F)c(F)c6F)c6nc(c(-c7c(F)c(F)c(F)c(F)c7F)c7ccc4[nH]7)C=C6)C=C5)cc3)c(C#N)c2C1
REMARK SMILES IDX 19 1 18 2 17 3 16 4 15 5 13 6 14 7 12 8 11 9 9 10 8 11 10 13
REMARK SMILES IDX 7 14 1 15 2 16 3 17 94 18 4 19 93 20 5 21 90 22 6 23 91 24
REMARK SMILES IDX 92 25 20 26 21 27 22 28 23 29 24 30 25 31 26 32 27 33 28 34
REMARK SMILES IDX 89 35 29 36 88 37 30 38 31 39 32 40 82 41 33 42 87 43 81 44
REMARK SMILES IDX 83 45 34 46 86 47 80 48 79 49 35 51 67 52 47 53 66 54 48 55
REMARK SMILES IDX 51 56 65 57 84 58 49 59 50 60 64 62 85 63 52 64 36 65 37 66
REMARK SMILES IDX 45 67 38 68 39 69 43 70 46 71 40 72 41 73 44 74 42 75 68 76
REMARK SMILES IDX 69 77 77 78 70 79 71 80 75 81 78 82 72 83 73 84 76 85 74 86
REMARK SMILES IDX 53 87 54 88 62 89 55 90 56 91 60 92 63 93 57 94 58 95 61 96
REMARK SMILES IDX 59 97
REMARK H PARENT 8 12 83 50 51 61
REMARK Flexibility Score: inf
ROOT
ATOM      1  C   UNL A   1      33.946  26.576  26.118  1.00  0.00     0.188 C 
ENDROOT
BRANCH   1   2
ATOM      2  O   UNL A   1      34.427  25.814  25.036  1.00  0.00    -0.376 OA
BRANCH   2   3
ATOM      3  C   UNL A   1      34.893  24.482  25.202  1.00  0.00     0.202 C 
BRANCH   3   4
ATOM      4  C   UNL A   1      36.290  24.094  25.736  1.00  0.00     0.261 C 
BRANCH   4   5
ATOM      5  O   UNL A   1      37.128  23.456  24.772  1.00  0.00    -0.460 OA
BRANCH   5   6
ATOM      6  C   UNL A   1      37.402  22.150  24.981  1.00  0.00     0.331 C 
ATOM      7  O   UNL A   1      38.311  21.688  25.645  1.00  0.00    -0.247 OA
BRANCH   6   8
ATOM      8  C   UNL A   1      36.251  21.360  24.516  1.00  0.00     0.099 C 
ATOM      9  C   UNL A   1      35.369  20.728  25.280  1.00  0.00     0.079 C 
BRANCH   9  10
ATOM     10  C   UNL A   1      34.191  20.004  24.753  1.00  0.00     0.249 C 
ATOM     11  N   UNL A   1      32.997  20.533  24.376  1.00  0.00    -0.313 N 
ATOM     12  H   UNL A   1      32.381  19.830  24.068  1.00  0.00     0.171 HD
ATOM     13  O   UNL A   1      34.308  18.776  24.655  1.00  0.00    -0.270 OA
BRANCH  11  14
ATOM     14  C   UNL A   1      32.403  21.775  24.299  1.00  0.00     0.114 A 
ATOM     15  C   UNL A   1      31.334  26.794  23.639  1.00  0.00     0.008 C 
ATOM     16  C   UNL A   1      30.077  25.946  23.839  1.00  0.00    -0.009 C 
ATOM     17  C   UNL A   1      29.718  25.730  25.330  1.00  0.00     0.009 C 
ATOM     18  C   UNL A   1      30.233  24.600  23.111  1.00  0.00     0.041 C 
ATOM     19  C   UNL A   1      30.691  24.820  26.100  1.00  0.00     0.047 C 
ATOM     20  C   UNL A   1      31.093  23.641  23.881  1.00  0.00    -0.014 A 
ATOM     21  C   UNL A   1      31.137  23.666  25.258  1.00  0.00     0.011 A 
ATOM     22  C   UNL A   1      32.162  22.806  23.411  1.00  0.00     0.090 A 
ATOM     23  S   UNL A   1      31.869  22.264  25.875  1.00  0.00    -0.121 S 
BRANCH  22  24
ATOM     24  C   UNL A   1      32.877  23.127  22.219  1.00  0.00     0.103 C 
ATOM     25  N   UNL A   1      33.523  23.475  21.315  1.00  0.00    -0.192 NA
ENDBRANCH  22  24
ENDBRANCH  11  14
ENDBRANCH   9  10
ENDBRANCH   6   8
ENDBRANCH   5   6
ENDBRANCH   4   5
ENDBRANCH   3   4
ENDBRANCH   2   3
ENDBRANCH   1   2
BRANCH   1  26
ATOM     26  C   UNL A   1      33.771  28.112  26.019  1.00  0.00     0.188 C 
BRANCH  26  27
ATOM     27  O   UNL A   1      32.554  28.797  26.229  1.00  0.00    -0.376 OA
BRANCH  27  28
ATOM     28  C   UNL A   1      32.322  30.139  25.840  1.00  0.00     0.202 C 
BRANCH  28  29
ATOM     29  C   UNL A   1      31.997  31.244  26.837  1.00  0.00     0.261 C 
BRANCH  29  30
ATOM     30  O   UNL A   1      33.114  31.789  27.500  1.00  0.00    -0.460 OA
BRANCH  30  31
ATOM     31  C   UNL A   1      32.942  33.079  27.855  1.00  0.00     0.338 C 
ATOM     32  O   UNL A   1      32.046  33.835  27.520  1.00  0.00    -0.246 OA
BRANCH  31  33
ATOM     33  C   UNL A   1      34.096  33.487  28.655  1.00  0.00     0.060 A 
ATOM     34  C   UNL A   1      35.129  34.117  27.962  1.00  0.00     0.016 A 
ATOM     35  C   UNL A   1      34.308  32.764  29.831  1.00  0.00     0.016 A 
ATOM     36  C   UNL A   1      36.411  33.702  28.236  1.00  0.00     0.010 A 
ATOM     37  C   UNL A   1      35.579  32.338  30.086  1.00  0.00     0.010 A 
ATOM     38  C   UNL A   1      36.595  32.706  29.205  1.00  0.00    -0.014 A 
BRANCH  38  39
ATOM     39  C   UNL A   1      37.931  32.236  29.509  1.00  0.00     0.031 A 
ATOM     40  C   UNL A   1      37.984  30.796  29.166  1.00  0.00     0.074 A 
ATOM     41  C   UNL A   1      38.936  33.054  29.900  1.00  0.00     0.049 A 
ATOM     42  N   UNL A   1      37.900  29.809  29.999  1.00  0.00    -0.248 NA
ATOM     43  C   UNL A   1      37.750  30.389  27.765  1.00  0.00     0.031 C 
ATOM     44  C   UNL A   1      38.900  34.514  30.060  1.00  0.00     0.029 A 
ATOM     45  N   UNL A   1      40.254  32.760  30.157  1.00  0.00    -0.354 N 
ATOM     46  C   UNL A   1      37.970  28.673  29.199  1.00  0.00     0.074 A 
ATOM     47  C   UNL A   1      37.523  29.080  27.904  1.00  0.00     0.031 C 
ATOM     48  C   UNL A   1      40.163  35.001  30.133  1.00  0.00     0.029 A 
ATOM     49  C   UNL A   1      41.095  33.893  30.152  1.00  0.00     0.049 A 
ATOM     50  H   UNL A   1      40.580  31.846  30.327  1.00  0.00     0.167 HD
ATOM     51  C   UNL A   1      38.885  27.716  29.526  1.00  0.00     0.037 A 
ATOM     52  C   UNL A   1      42.460  33.871  30.121  1.00  0.00     0.037 A 
ATOM     53  C   UNL A   1      39.260  27.883  30.915  1.00  0.00     0.049 A 
ATOM     54  C   UNL A   1      42.860  32.530  30.608  1.00  0.00     0.074 A 
ATOM     55  C   UNL A   1      38.652  27.771  32.149  1.00  0.00     0.029 A 
ATOM     56  N   UNL A   1      40.307  28.753  31.063  1.00  0.00    -0.354 N 
ATOM     57  N   UNL A   1      42.677  32.139  31.839  1.00  0.00    -0.248 NA
ATOM     58  C   UNL A   1      43.017  31.472  29.621  1.00  0.00     0.031 C 
ATOM     59  C   UNL A   1      39.323  28.696  33.009  1.00  0.00     0.029 A 
ATOM     60  C   UNL A   1      40.384  29.274  32.316  1.00  0.00     0.049 A 
ATOM     61  H   UNL A   1      40.936  28.976  30.339  1.00  0.00     0.167 HD
ATOM     62  C   UNL A   1      42.223  30.838  31.709  1.00  0.00     0.074 A 
ATOM     63  C   UNL A   1      42.585  30.439  30.347  1.00  0.00     0.031 C 
ATOM     64  C   UNL A   1      41.304  30.349  32.595  1.00  0.00     0.037 A 
BRANCH  51  65
ATOM     65  C   UNL A   1      39.905  27.148  28.527  1.00  0.00     0.064 A 
ATOM     66  C   UNL A   1      40.033  25.744  28.454  1.00  0.00     0.173 A 
ATOM     67  C   UNL A   1      40.961  27.865  27.913  1.00  0.00     0.173 A 
ATOM     68  F   UNL A   1      39.100  24.948  28.997  1.00  0.00    -0.203 F 
ATOM     69  C   UNL A   1      41.164  25.123  27.911  1.00  0.00     0.198 A 
ATOM     70  C   UNL A   1      42.072  27.242  27.347  1.00  0.00     0.198 A 
ATOM     71  F   UNL A   1      41.036  29.196  27.889  1.00  0.00    -0.203 F 
ATOM     72  F   UNL A   1      41.287  23.791  27.975  1.00  0.00    -0.200 F 
ATOM     73  C   UNL A   1      42.191  25.874  27.371  1.00  0.00     0.200 A 
ATOM     74  F   UNL A   1      43.063  27.997  26.849  1.00  0.00    -0.200 F 
ATOM     75  F   UNL A   1      43.302  25.289  26.909  1.00  0.00    -0.200 F 
ENDBRANCH  51  65
BRANCH  52  76
ATOM     76  C   UNL A   1      43.435  34.754  29.418  1.00  0.00     0.064 A 
ATOM     77  C   UNL A   1      43.753  34.578  28.053  1.00  0.00     0.173 A 
ATOM     78  C   UNL A   1      43.822  35.982  29.982  1.00  0.00     0.173 A 
ATOM     79  F   UNL A   1      43.380  33.461  27.411  1.00  0.00    -0.203 F 
ATOM     80  C   UNL A   1      44.385  35.580  27.301  1.00  0.00     0.198 A 
ATOM     81  C   UNL A   1      44.449  36.981  29.231  1.00  0.00     0.198 A 
ATOM     82  F   UNL A   1      43.504  36.280  31.248  1.00  0.00    -0.203 F 
ATOM     83  F   UNL A   1      44.609  35.398  25.992  1.00  0.00    -0.200 F 
ATOM     84  C   UNL A   1      44.719  36.787  27.889  1.00  0.00     0.200 A 
ATOM     85  F   UNL A   1      44.726  38.163  29.801  1.00  0.00    -0.200 F 
ATOM     86  F   UNL A   1      45.255  37.775  27.158  1.00  0.00    -0.200 F 
ENDBRANCH  52  76
BRANCH  64  87
ATOM     87  C   UNL A   1      41.177  31.037  33.917  1.00  0.00     0.064 A 
ATOM     88  C   UNL A   1      40.277  32.076  34.206  1.00  0.00     0.173 A 
ATOM     89  C   UNL A   1      41.953  30.536  34.970  1.00  0.00     0.173 A 
ATOM     90  F   UNL A   1      39.442  32.545  33.267  1.00  0.00    -0.203 F 
ATOM     91  C   UNL A   1      40.193  32.612  35.491  1.00  0.00     0.198 A 
ATOM     92  C   UNL A   1      41.841  31.045  36.257  1.00  0.00     0.198 A 
ATOM     93  F   UNL A   1      42.793  29.512  34.754  1.00  0.00    -0.203 F 
ATOM     94  F   UNL A   1      39.339  33.613  35.750  1.00  0.00    -0.200 F 
ATOM     95  C   UNL A   1      40.972  32.092  36.515  1.00  0.00     0.200 A 
ATOM     96  F   UNL A   1      42.559  30.503  37.248  1.00  0.00    -0.200 F 
ATOM     97  F   UNL A   1      40.871  32.584  37.757  1.00  0.00    -0.200 F 
ENDBRANCH  64  87
ENDBRANCH  38  39
ENDBRANCH  31  33
ENDBRANCH  30  31
ENDBRANCH  29  30
ENDBRANCH  28  29
ENDBRANCH  27  28
ENDBRANCH  26  27
ENDBRANCH   1  26
TORSDOF 20
ENDMDL
