MODEL 1
REMARK VINA RESULT:     -11.8      0.000      0.000
REMARK SMILES C/C(=N\Nc1nc(-c2ccc(Cl)cc2)cs1)c1nnn(-c2ccc(C(=O)OCCOCCOCCOC(=O)c3ccc(-c4c5nc(c(-c6c(F)c(F)c(F)c(F)c6F)c6ccc([nH]6)c(-c6c(F)c(F)c(F)c(F)c6F)c6nc(c(-c7c(F)c(F)c(F)c(F)c7F)c7ccc4[nH]7)C=C6)C=C5)cc3)cc2)c1C
REMARK SMILES IDX 30 1 29 2 28 3 27 4 25 5 26 6 24 7 21 8 22 9 103 10 23 11
REMARK SMILES IDX 102 12 20 13 17 14 18 15 104 16 19 17 105 18 2 19 1 20 3 21
REMARK SMILES IDX 4 22 5 24 6 25 16 26 7 27 15 28 8 29 9 30 14 31 10 32 13 33
REMARK SMILES IDX 11 34 12 35 31 36 32 37 33 38 34 39 35 40 36 41 37 42 38 43
REMARK SMILES IDX 39 44 40 45 101 46 41 47 100 48 42 49 43 50 44 51 94 52
REMARK SMILES IDX 45 53 99 54 93 55 95 56 46 57 98 58 92 59 91 60 47 62 79 63
REMARK SMILES IDX 59 64 78 65 60 66 63 67 77 68 96 69 61 70 62 71 76 73 97 74
REMARK SMILES IDX 64 75 48 76 49 77 57 78 50 79 51 80 55 81 58 82 52 83 53 84
REMARK SMILES IDX 56 85 54 86 80 87 81 88 89 89 82 90 83 91 87 92 90 93 84 94
REMARK SMILES IDX 85 95 88 96 86 97 65 98 66 99 74 100 67 101 68 102 72 103
REMARK SMILES IDX 75 104 69 105 70 106 73 107 71 108
REMARK H PARENT 4 23 95 61 63 72
REMARK Flexibility Score: inf
ROOT
ATOM      1  O   UNL A   1      37.349  23.634  25.128  1.00  0.00    -0.376 OA
ENDROOT
BRANCH   1   2
ATOM      2  C   UNL A   1      36.930  22.658  24.189  1.00  0.00     0.202 C 
BRANCH   2   3
ATOM      3  C   UNL A   1      35.622  21.839  24.247  1.00  0.00     0.261 C 
BRANCH   3   4
ATOM      4  O   UNL A   1      34.395  22.563  24.288  1.00  0.00    -0.460 OA
BRANCH   4   5
ATOM      5  C   UNL A   1      34.179  23.411  23.244  1.00  0.00     0.338 C 
ATOM      6  O   UNL A   1      34.023  23.117  22.087  1.00  0.00    -0.246 OA
BRANCH   5   7
ATOM      7  C   UNL A   1      33.982  24.783  23.775  1.00  0.00     0.060 A 
ATOM      8  C   UNL A   1      33.423  27.264  24.874  1.00  0.00     0.067 A 
ATOM      9  C   UNL A   1      33.823  26.227  25.722  1.00  0.00     0.029 A 
ATOM     10  C   UNL A   1      33.446  27.109  23.481  1.00  0.00     0.029 A 
ATOM     11  C   UNL A   1      34.080  24.974  25.164  1.00  0.00     0.018 A 
ATOM     12  C   UNL A   1      33.725  25.864  22.928  1.00  0.00     0.018 A 
BRANCH   8  13
ATOM     13  N   UNL A   1      32.709  28.350  25.428  1.00  0.00    -0.217 N 
ATOM     14  C   UNL A   1      32.340  30.297  26.336  1.00  0.00     0.132 A 
ATOM     15  N   UNL A   1      31.319  30.019  25.470  1.00  0.00    -0.128 NA
ATOM     16  C   UNL A   1      33.236  29.241  26.346  1.00  0.00     0.071 A 
ATOM     17  N   UNL A   1      31.599  28.870  24.862  1.00  0.00    -0.061 NA
ATOM     18  C   UNL A   1      34.589  29.133  26.958  1.00  0.00     0.069 C 
BRANCH  14  19
ATOM     19  C   UNL A   1      32.576  31.586  26.967  1.00  0.00     0.087 C 
ATOM     20  C   UNL A   1      31.516  32.626  26.680  1.00  0.00     0.071 C 
ATOM     21  N   UNL A   1      33.705  31.718  27.607  1.00  0.00    -0.176 NA
BRANCH  21  22
ATOM     22  N   UNL A   1      34.164  32.920  28.093  1.00  0.00    -0.252 N 
ATOM     23  H   UNL A   1      33.766  33.713  27.667  1.00  0.00     0.193 HD
BRANCH  22  24
ATOM     24  C   UNL A   1      35.074  33.195  29.062  1.00  0.00     0.203 A 
ATOM     25  N   UNL A   1      36.332  33.513  28.870  1.00  0.00    -0.219 NA
ATOM     26  S   UNL A   1      34.647  33.030  30.731  1.00  0.00    -0.103 S 
ATOM     27  C   UNL A   1      37.063  33.316  30.022  1.00  0.00     0.084 A 
ATOM     28  C   UNL A   1      36.317  33.040  31.148  1.00  0.00     0.097 A 
BRANCH  27  29
ATOM     29  C   UNL A   1      38.512  33.313  29.948  1.00  0.00     0.001 A 
ATOM     30  C   UNL A   1      39.209  32.143  30.270  1.00  0.00     0.012 A 
ATOM     31  C   UNL A   1      39.224  34.495  29.703  1.00  0.00     0.012 A 
ATOM     32  C   UNL A   1      40.605  32.144  30.330  1.00  0.00     0.021 A 
ATOM     33  C   UNL A   1      40.622  34.499  29.774  1.00  0.00     0.021 A 
ATOM     34  C   UNL A   1      41.304  33.324  30.085  1.00  0.00     0.041 A 
ATOM     35  Cl  UNL A   1      43.022  33.335  30.189  1.00  0.00    -0.084 Cl
ENDBRANCH  27  29
ENDBRANCH  22  24
ENDBRANCH  21  22
ENDBRANCH  14  19
ENDBRANCH   8  13
ENDBRANCH   5   7
ENDBRANCH   4   5
ENDBRANCH   3   4
ENDBRANCH   2   3
ENDBRANCH   1   2
BRANCH   1  36
ATOM     36  C   UNL A   1      38.265  23.320  26.148  1.00  0.00     0.188 C 
BRANCH  36  37
ATOM     37  C   UNL A   1      38.938  21.930  26.124  1.00  0.00     0.188 C 
BRANCH  37  38
ATOM     38  O   UNL A   1      40.231  21.695  26.652  1.00  0.00    -0.376 OA
BRANCH  38  39
ATOM     39  C   UNL A   1      40.818  20.406  26.752  1.00  0.00     0.202 C 
BRANCH  39  40
ATOM     40  C   UNL A   1      42.304  20.120  26.552  1.00  0.00     0.261 C 
BRANCH  40  41
ATOM     41  O   UNL A   1      42.737  20.212  25.215  1.00  0.00    -0.460 OA
BRANCH  41  42
ATOM     42  C   UNL A   1      44.077  20.237  25.092  1.00  0.00     0.338 C 
ATOM     43  O   UNL A   1      44.846  19.291  25.132  1.00  0.00    -0.246 OA
BRANCH  42  44
ATOM     44  C   UNL A   1      44.511  21.630  24.972  1.00  0.00     0.060 A 
ATOM     45  C   UNL A   1      45.585  21.988  25.787  1.00  0.00     0.016 A 
ATOM     46  C   UNL A   1      43.611  22.565  24.443  1.00  0.00     0.016 A 
ATOM     47  C   UNL A   1      45.552  23.232  26.355  1.00  0.00     0.010 A 
ATOM     48  C   UNL A   1      43.565  23.801  25.029  1.00  0.00     0.010 A 
ATOM     49  C   UNL A   1      44.463  24.058  26.060  1.00  0.00    -0.014 A 
BRANCH  49  50
ATOM     50  C   UNL A   1      44.283  25.222  26.890  1.00  0.00     0.031 A 
ATOM     51  C   UNL A   1      45.345  26.224  26.711  1.00  0.00     0.074 A 
ATOM     52  C   UNL A   1      43.206  25.360  27.682  1.00  0.00     0.049 A 
ATOM     53  N   UNL A   1      46.213  26.622  27.579  1.00  0.00    -0.248 NA
ATOM     54  C   UNL A   1      45.562  26.728  25.347  1.00  0.00     0.031 C 
ATOM     55  C   UNL A   1      41.983  24.552  27.708  1.00  0.00     0.029 A 
ATOM     56  N   UNL A   1      42.944  26.344  28.579  1.00  0.00    -0.354 N 
ATOM     57  C   UNL A   1      46.975  27.574  26.915  1.00  0.00     0.074 A 
ATOM     58  C   UNL A   1      46.658  27.463  25.516  1.00  0.00     0.031 C 
ATOM     59  C   UNL A   1      41.032  25.215  28.407  1.00  0.00     0.029 A 
ATOM     60  C   UNL A   1      41.618  26.420  28.970  1.00  0.00     0.049 A 
ATOM     61  H   UNL A   1      43.638  26.952  28.923  1.00  0.00     0.167 HD
ATOM     62  C   UNL A   1      47.590  28.569  27.602  1.00  0.00     0.037 A 
ATOM     63  C   UNL A   1      41.047  27.463  29.621  1.00  0.00     0.037 A 
ATOM     64  C   UNL A   1      47.792  28.212  28.983  1.00  0.00     0.049 A 
ATOM     65  C   UNL A   1      42.143  28.264  30.232  1.00  0.00     0.074 A 
ATOM     66  C   UNL A   1      48.463  27.190  29.626  1.00  0.00     0.029 A 
ATOM     67  N   UNL A   1      46.953  28.752  29.927  1.00  0.00    -0.354 N 
ATOM     68  N   UNL A   1      42.881  27.854  31.225  1.00  0.00    -0.248 NA
ATOM     69  C   UNL A   1      42.713  29.346  29.439  1.00  0.00     0.031 C 
ATOM     70  C   UNL A   1      47.662  26.869  30.763  1.00  0.00     0.029 A 
ATOM     71  C   UNL A   1      46.571  27.738  30.768  1.00  0.00     0.049 A 
ATOM     72  H   UNL A   1      46.677  29.695  29.989  1.00  0.00     0.167 HD
ATOM     73  C   UNL A   1      44.157  28.317  30.936  1.00  0.00     0.074 A 
ATOM     74  C   UNL A   1      43.975  29.306  29.879  1.00  0.00     0.031 C 
ATOM     75  C   UNL A   1      45.265  27.650  31.376  1.00  0.00     0.037 A 
BRANCH  62  76
ATOM     76  C   UNL A   1      47.631  29.989  27.103  1.00  0.00     0.064 A 
ATOM     77  C   UNL A   1      48.846  30.694  27.159  1.00  0.00     0.173 A 
ATOM     78  C   UNL A   1      46.481  30.773  26.852  1.00  0.00     0.173 A 
ATOM     79  F   UNL A   1      49.995  30.053  27.416  1.00  0.00    -0.203 F 
ATOM     80  C   UNL A   1      48.892  32.086  27.052  1.00  0.00     0.198 A 
ATOM     81  C   UNL A   1      46.539  32.154  26.685  1.00  0.00     0.198 A 
ATOM     82  F   UNL A   1      45.243  30.265  26.875  1.00  0.00    -0.203 F 
ATOM     83  F   UNL A   1      50.052  32.727  27.245  1.00  0.00    -0.200 F 
ATOM     84  C   UNL A   1      47.738  32.815  26.819  1.00  0.00     0.200 A 
ATOM     85  F   UNL A   1      45.405  32.839  26.480  1.00  0.00    -0.200 F 
ATOM     86  F   UNL A   1      47.772  34.152  26.780  1.00  0.00    -0.200 F 
ENDBRANCH  62  76
BRANCH  63  87
ATOM     87  C   UNL A   1      39.672  27.988  29.457  1.00  0.00     0.064 A 
ATOM     88  C   UNL A   1      38.796  28.076  30.549  1.00  0.00     0.173 A 
ATOM     89  C   UNL A   1      39.277  28.660  28.282  1.00  0.00     0.173 A 
ATOM     90  F   UNL A   1      39.119  27.508  31.720  1.00  0.00    -0.203 F 
ATOM     91  C   UNL A   1      37.605  28.808  30.477  1.00  0.00     0.198 A 
ATOM     92  C   UNL A   1      38.084  29.379  28.207  1.00  0.00     0.198 A 
ATOM     93  F   UNL A   1      40.083  28.715  27.212  1.00  0.00    -0.203 F 
ATOM     94  F   UNL A   1      36.823  28.920  31.560  1.00  0.00    -0.200 F 
ATOM     95  C   UNL A   1      37.254  29.464  29.308  1.00  0.00     0.200 A 
ATOM     96  F   UNL A   1      37.776  30.040  27.081  1.00  0.00    -0.200 F 
ATOM     97  F   UNL A   1      36.142  30.210  29.255  1.00  0.00    -0.200 F 
ENDBRANCH  63  87
BRANCH  75  98
ATOM     98  C   UNL A   1      45.058  26.563  32.394  1.00  0.00     0.064 A 
ATOM     99  C   UNL A   1      44.982  26.796  33.779  1.00  0.00     0.173 A 
ATOM    100  C   UNL A   1      44.796  25.263  31.944  1.00  0.00     0.173 A 
ATOM    101  F   UNL A   1      45.115  28.030  34.279  1.00  0.00    -0.203 F 
ATOM    102  C   UNL A   1      44.711  25.760  34.673  1.00  0.00     0.198 A 
ATOM    103  C   UNL A   1      44.488  24.239  32.836  1.00  0.00     0.198 A 
ATOM    104  F   UNL A   1      44.795  24.994  30.629  1.00  0.00    -0.203 F 
ATOM    105  F   UNL A   1      44.663  26.006  35.991  1.00  0.00    -0.200 F 
ATOM    106  C   UNL A   1      44.457  24.485  34.199  1.00  0.00     0.200 A 
ATOM    107  F   UNL A   1      44.194  23.017  32.371  1.00  0.00    -0.200 F 
ATOM    108  F   UNL A   1      44.159  23.497  35.055  1.00  0.00    -0.200 F 
ENDBRANCH  75  98
ENDBRANCH  49  50
ENDBRANCH  42  44
ENDBRANCH  41  42
ENDBRANCH  40  41
ENDBRANCH  39  40
ENDBRANCH  38  39
ENDBRANCH  37  38
ENDBRANCH  36  37
ENDBRANCH   1  36
TORSDOF 22
ENDMDL
MODEL 2
REMARK VINA RESULT:     -11.1      1.389      2.144
REMARK SMILES C/C(=N\Nc1nc(-c2ccc(Cl)cc2)cs1)c1nnn(-c2ccc(C(=O)OCCOCCOCCOC(=O)c3ccc(-c4c5nc(c(-c6c(F)c(F)c(F)c(F)c6F)c6ccc([nH]6)c(-c6c(F)c(F)c(F)c(F)c6F)c6nc(c(-c7c(F)c(F)c(F)c(F)c7F)c7ccc4[nH]7)C=C6)C=C5)cc3)cc2)c1C
REMARK SMILES IDX 30 1 29 2 28 3 27 4 25 5 26 6 24 7 21 8 22 9 103 10 23 11
REMARK SMILES IDX 102 12 20 13 17 14 18 15 104 16 19 17 105 18 2 19 1 20 3 21
REMARK SMILES IDX 4 22 5 24 6 25 16 26 7 27 15 28 8 29 9 30 14 31 10 32 13 33
REMARK SMILES IDX 11 34 12 35 31 36 32 37 33 38 34 39 35 40 36 41 37 42 38 43
REMARK SMILES IDX 39 44 40 45 101 46 41 47 100 48 42 49 43 50 44 51 94 52
REMARK SMILES IDX 45 53 99 54 93 55 95 56 46 57 98 58 92 59 91 60 47 62 79 63
REMARK SMILES IDX 59 64 78 65 60 66 63 67 77 68 96 69 61 70 62 71 76 73 97 74
REMARK SMILES IDX 64 75 48 76 49 77 57 78 50 79 51 80 55 81 58 82 52 83 53 84
REMARK SMILES IDX 56 85 54 86 80 87 81 88 89 89 82 90 83 91 87 92 90 93 84 94
REMARK SMILES IDX 85 95 88 96 86 97 65 98 66 99 74 100 67 101 68 102 72 103
REMARK SMILES IDX 75 104 69 105 70 106 73 107 71 108
REMARK H PARENT 4 23 95 61 63 72
REMARK Flexibility Score: inf
ROOT
ATOM      1  O   UNL A   1      37.388  23.335  25.094  1.00  0.00    -0.376 OA
ENDROOT
BRANCH   1   2
ATOM      2  C   UNL A   1      36.788  22.528  24.094  1.00  0.00     0.202 C 
BRANCH   2   3
ATOM      3  C   UNL A   1      35.439  21.785  24.209  1.00  0.00     0.261 C 
BRANCH   3   4
ATOM      4  O   UNL A   1      34.258  22.578  24.300  1.00  0.00    -0.460 OA
BRANCH   4   5
ATOM      5  C   UNL A   1      34.099  23.508  23.317  1.00  0.00     0.338 C 
ATOM      6  O   UNL A   1      33.955  23.306  22.139  1.00  0.00    -0.246 OA
BRANCH   5   7
ATOM      7  C   UNL A   1      33.948  24.845  23.944  1.00  0.00     0.060 A 
ATOM      8  C   UNL A   1      33.459  27.267  25.197  1.00  0.00     0.067 A 
ATOM      9  C   UNL A   1      33.707  26.139  25.985  1.00  0.00     0.029 A 
ATOM     10  C   UNL A   1      33.602  27.221  23.803  1.00  0.00     0.029 A 
ATOM     11  C   UNL A   1      33.928  24.918  25.347  1.00  0.00     0.018 A 
ATOM     12  C   UNL A   1      33.846  26.005  23.173  1.00  0.00     0.018 A 
BRANCH   8  13
ATOM     13  N   UNL A   1      32.773  28.357  25.776  1.00  0.00    -0.217 N 
ATOM     14  C   UNL A   1      32.419  30.359  26.563  1.00  0.00     0.132 A 
ATOM     15  N   UNL A   1      31.284  29.932  25.930  1.00  0.00    -0.128 NA
ATOM     16  C   UNL A   1      33.383  29.368  26.498  1.00  0.00     0.071 A 
ATOM     17  N   UNL A   1      31.541  28.747  25.384  1.00  0.00    -0.061 NA
ATOM     18  C   UNL A   1      34.829  29.406  26.853  1.00  0.00     0.069 C 
BRANCH  14  19
ATOM     19  C   UNL A   1      32.662  31.718  27.023  1.00  0.00     0.087 C 
ATOM     20  C   UNL A   1      31.590  32.710  26.633  1.00  0.00     0.071 C 
ATOM     21  N   UNL A   1      33.804  31.931  27.614  1.00  0.00    -0.176 NA
BRANCH  21  22
ATOM     22  N   UNL A   1      34.267  33.186  27.937  1.00  0.00    -0.252 N 
ATOM     23  H   UNL A   1      34.490  33.752  27.162  1.00  0.00     0.193 HD
BRANCH  22  24
ATOM     24  C   UNL A   1      34.468  33.775  29.143  1.00  0.00     0.203 A 
ATOM     25  N   UNL A   1      35.438  33.501  29.982  1.00  0.00    -0.219 NA
ATOM     26  S   UNL A   1      33.326  34.923  29.753  1.00  0.00    -0.103 S 
ATOM     27  C   UNL A   1      35.125  33.947  31.248  1.00  0.00     0.084 A 
ATOM     28  C   UNL A   1      34.001  34.742  31.326  1.00  0.00     0.097 A 
BRANCH  27  29
ATOM     29  C   UNL A   1      35.911  33.484  32.376  1.00  0.00     0.001 A 
ATOM     30  C   UNL A   1      36.442  32.190  32.351  1.00  0.00     0.012 A 
ATOM     31  C   UNL A   1      36.023  34.254  33.542  1.00  0.00     0.012 A 
ATOM     32  C   UNL A   1      37.096  31.672  33.472  1.00  0.00     0.021 A 
ATOM     33  C   UNL A   1      36.668  33.731  34.668  1.00  0.00     0.021 A 
ATOM     34  C   UNL A   1      37.203  32.444  34.626  1.00  0.00     0.041 A 
ATOM     35  Cl  UNL A   1      37.980  31.796  36.018  1.00  0.00    -0.084 Cl
ENDBRANCH  27  29
ENDBRANCH  22  24
ENDBRANCH  21  22
ENDBRANCH  14  19
ENDBRANCH   8  13
ENDBRANCH   5   7
ENDBRANCH   4   5
ENDBRANCH   3   4
ENDBRANCH   2   3
ENDBRANCH   1   2
BRANCH   1  36
ATOM     36  C   UNL A   1      38.144  22.765  26.135  1.00  0.00     0.188 C 
BRANCH  36  37
ATOM     37  C   UNL A   1      39.229  21.730  25.768  1.00  0.00     0.188 C 
BRANCH  37  38
ATOM     38  O   UNL A   1      40.406  21.549  26.535  1.00  0.00    -0.376 OA
BRANCH  38  39
ATOM     39  C   UNL A   1      40.984  20.281  26.802  1.00  0.00     0.202 C 
BRANCH  39  40
ATOM     40  C   UNL A   1      42.369  19.848  26.328  1.00  0.00     0.261 C 
BRANCH  40  41
ATOM     41  O   UNL A   1      42.815  20.508  25.166  1.00  0.00    -0.460 OA
BRANCH  41  42
ATOM     42  C   UNL A   1      44.155  20.504  25.035  1.00  0.00     0.338 C 
ATOM     43  O   UNL A   1      44.894  19.536  24.975  1.00  0.00    -0.246 OA
BRANCH  42  44
ATOM     44  C   UNL A   1      44.632  21.889  25.049  1.00  0.00     0.060 A 
ATOM     45  C   UNL A   1      45.657  22.152  25.957  1.00  0.00     0.016 A 
ATOM     46  C   UNL A   1      43.793  22.887  24.535  1.00  0.00     0.016 A 
ATOM     47  C   UNL A   1      45.617  23.351  26.615  1.00  0.00     0.010 A 
ATOM     48  C   UNL A   1      43.739  24.077  25.209  1.00  0.00     0.010 A 
ATOM     49  C   UNL A   1      44.572  24.230  26.313  1.00  0.00    -0.014 A 
BRANCH  49  50
ATOM     50  C   UNL A   1      44.367  25.333  27.215  1.00  0.00     0.031 A 
ATOM     51  C   UNL A   1      45.473  26.302  27.199  1.00  0.00     0.074 A 
ATOM     52  C   UNL A   1      43.234  25.456  27.929  1.00  0.00     0.049 A 
ATOM     53  N   UNL A   1      46.282  26.597  28.160  1.00  0.00    -0.248 NA
ATOM     54  C   UNL A   1      45.817  26.899  25.900  1.00  0.00     0.031 C 
ATOM     55  C   UNL A   1      41.986  24.698  27.797  1.00  0.00     0.029 A 
ATOM     56  N   UNL A   1      42.935  26.379  28.878  1.00  0.00    -0.354 N 
ATOM     57  C   UNL A   1      47.128  27.565  27.634  1.00  0.00     0.074 A 
ATOM     58  C   UNL A   1      46.921  27.573  26.211  1.00  0.00     0.031 C 
ATOM     59  C   UNL A   1      41.005  25.345  28.470  1.00  0.00     0.029 A 
ATOM     60  C   UNL A   1      41.586  26.479  29.170  1.00  0.00     0.049 A 
ATOM     61  H   UNL A   1      43.621  26.930  29.321  1.00  0.00     0.167 HD
ATOM     62  C   UNL A   1      47.720  28.479  28.443  1.00  0.00     0.037 A 
ATOM     63  C   UNL A   1      41.001  27.492  29.854  1.00  0.00     0.037 A 
ATOM     64  C   UNL A   1      47.797  28.010  29.803  1.00  0.00     0.049 A 
ATOM     65  C   UNL A   1      42.071  28.199  30.609  1.00  0.00     0.074 A 
ATOM     66  C   UNL A   1      48.379  26.916  30.414  1.00  0.00     0.029 A 
ATOM     67  N   UNL A   1      46.904  28.512  30.719  1.00  0.00    -0.354 N 
ATOM     68  N   UNL A   1      42.712  27.685  31.621  1.00  0.00    -0.248 NA
ATOM     69  C   UNL A   1      42.741  29.314  29.951  1.00  0.00     0.031 C 
ATOM     70  C   UNL A   1      47.478  26.544  31.456  1.00  0.00     0.029 A 
ATOM     71  C   UNL A   1      46.421  27.454  31.445  1.00  0.00     0.049 A 
ATOM     72  H   UNL A   1      46.657  29.458  30.833  1.00  0.00     0.167 HD
ATOM     73  C   UNL A   1      44.023  28.117  31.470  1.00  0.00     0.074 A 
ATOM     74  C   UNL A   1      43.961  29.190  30.483  1.00  0.00     0.031 C 
ATOM     75  C   UNL A   1      45.067  27.373  31.941  1.00  0.00     0.037 A 
BRANCH  62  76
ATOM     76  C   UNL A   1      47.850  29.930  28.061  1.00  0.00     0.064 A 
ATOM     77  C   UNL A   1      46.691  30.651  27.726  1.00  0.00     0.173 A 
ATOM     78  C   UNL A   1      49.075  30.553  27.726  1.00  0.00     0.173 A 
ATOM     79  F   UNL A   1      45.475  30.142  27.976  1.00  0.00    -0.203 F 
ATOM     80  C   UNL A   1      46.754  31.865  27.038  1.00  0.00     0.198 A 
ATOM     81  C   UNL A   1      49.135  31.792  27.095  1.00  0.00     0.198 A 
ATOM     82  F   UNL A   1      50.258  29.949  27.884  1.00  0.00    -0.203 F 
ATOM     83  F   UNL A   1      45.624  32.450  26.621  1.00  0.00    -0.200 F 
ATOM     84  C   UNL A   1      47.976  32.432  26.719  1.00  0.00     0.200 A 
ATOM     85  F   UNL A   1      50.330  32.311  26.779  1.00  0.00    -0.200 F 
ATOM     86  F   UNL A   1      48.038  33.561  26.004  1.00  0.00    -0.200 F 
ENDBRANCH  62  76
BRANCH  63  87
ATOM     87  C   UNL A   1      39.663  28.085  29.626  1.00  0.00     0.064 A 
ATOM     88  C   UNL A   1      38.711  28.143  30.655  1.00  0.00     0.173 A 
ATOM     89  C   UNL A   1      39.382  28.844  28.470  1.00  0.00     0.173 A 
ATOM     90  F   UNL A   1      38.925  27.491  31.808  1.00  0.00    -0.203 F 
ATOM     91  C   UNL A   1      37.558  28.927  30.545  1.00  0.00     0.198 A 
ATOM     92  C   UNL A   1      38.225  29.615  28.357  1.00  0.00     0.198 A 
ATOM     93  F   UNL A   1      40.267  28.929  27.468  1.00  0.00    -0.203 F 
ATOM     94  F   UNL A   1      36.702  29.007  31.573  1.00  0.00    -0.200 F 
ATOM     95  C   UNL A   1      37.320  29.667  29.398  1.00  0.00     0.200 A 
ATOM     96  F   UNL A   1      38.028  30.356  27.256  1.00  0.00    -0.200 F 
ATOM     97  F   UNL A   1      36.244  30.462  29.313  1.00  0.00    -0.200 F 
ENDBRANCH  63  87
BRANCH  75  98
ATOM     98  C   UNL A   1      44.742  26.222  32.851  1.00  0.00     0.064 A 
ATOM     99  C   UNL A   1      44.443  24.926  32.394  1.00  0.00     0.173 A 
ATOM    100  C   UNL A   1      44.866  26.404  34.234  1.00  0.00     0.173 A 
ATOM    101  F   UNL A   1      44.412  24.647  31.085  1.00  0.00    -0.203 F 
ATOM    102  C   UNL A   1      44.225  23.877  33.286  1.00  0.00     0.198 A 
ATOM    103  C   UNL A   1      44.685  25.346  35.121  1.00  0.00     0.198 A 
ATOM    104  F   UNL A   1      45.209  27.605  34.726  1.00  0.00    -0.203 F 
ATOM    105  F   UNL A   1      43.922  22.654  32.824  1.00  0.00    -0.200 F 
ATOM    106  C   UNL A   1      44.353  24.087  34.648  1.00  0.00     0.200 A 
ATOM    107  F   UNL A   1      44.859  25.541  36.435  1.00  0.00    -0.200 F 
ATOM    108  F   UNL A   1      44.182  23.070  35.504  1.00  0.00    -0.200 F 
ENDBRANCH  75  98
ENDBRANCH  49  50
ENDBRANCH  42  44
ENDBRANCH  41  42
ENDBRANCH  40  41
ENDBRANCH  39  40
ENDBRANCH  38  39
ENDBRANCH  37  38
ENDBRANCH  36  37
ENDBRANCH   1  36
TORSDOF 22
ENDMDL
MODEL 3
REMARK VINA RESULT:     -10.1      3.990      8.918
REMARK SMILES C/C(=N\Nc1nc(-c2ccc(Cl)cc2)cs1)c1nnn(-c2ccc(C(=O)OCCOCCOCCOC(=O)c3ccc(-c4c5nc(c(-c6c(F)c(F)c(F)c(F)c6F)c6ccc([nH]6)c(-c6c(F)c(F)c(F)c(F)c6F)c6nc(c(-c7c(F)c(F)c(F)c(F)c7F)c7ccc4[nH]7)C=C6)C=C5)cc3)cc2)c1C
REMARK SMILES IDX 30 1 29 2 28 3 27 4 25 5 26 6 24 7 21 8 22 9 103 10 23 11
REMARK SMILES IDX 102 12 20 13 17 14 18 15 104 16 19 17 105 18 2 19 1 20 3 21
REMARK SMILES IDX 4 22 5 24 6 25 16 26 7 27 15 28 8 29 9 30 14 31 10 32 13 33
REMARK SMILES IDX 11 34 12 35 31 36 32 37 33 38 34 39 35 40 36 41 37 42 38 43
REMARK SMILES IDX 39 44 40 45 101 46 41 47 100 48 42 49 43 50 44 51 94 52
REMARK SMILES IDX 45 53 99 54 93 55 95 56 46 57 98 58 92 59 91 60 47 62 79 63
REMARK SMILES IDX 59 64 78 65 60 66 63 67 77 68 96 69 61 70 62 71 76 73 97 74
REMARK SMILES IDX 64 75 48 76 49 77 57 78 50 79 51 80 55 81 58 82 52 83 53 84
REMARK SMILES IDX 56 85 54 86 80 87 81 88 89 89 82 90 83 91 87 92 90 93 84 94
REMARK SMILES IDX 85 95 88 96 86 97 65 98 66 99 74 100 67 101 68 102 72 103
REMARK SMILES IDX 75 104 69 105 70 106 73 107 71 108
REMARK H PARENT 4 23 95 61 63 72
REMARK Flexibility Score: inf
ROOT
ATOM      1  O   UNL A   1      41.102  28.143  35.012  1.00  0.00    -0.376 OA
ENDROOT
BRANCH   1   2
ATOM      2  C   UNL A   1      41.817  28.437  33.824  1.00  0.00     0.202 C 
BRANCH   2   3
ATOM      3  C   UNL A   1      41.339  28.167  32.381  1.00  0.00     0.261 C 
BRANCH   3   4
ATOM      4  O   UNL A   1      40.111  28.764  31.974  1.00  0.00    -0.460 OA
BRANCH   4   5
ATOM      5  C   UNL A   1      39.654  28.386  30.748  1.00  0.00     0.338 C 
ATOM      6  O   UNL A   1      39.914  27.372  30.153  1.00  0.00    -0.246 OA
BRANCH   5   7
ATOM      7  C   UNL A   1      38.616  29.351  30.305  1.00  0.00     0.060 A 
ATOM      8  C   UNL A   1      36.567  30.971  29.382  1.00  0.00     0.067 A 
ATOM      9  C   UNL A   1      36.293  30.054  30.401  1.00  0.00     0.029 A 
ATOM     10  C   UNL A   1      37.878  31.183  28.933  1.00  0.00     0.029 A 
ATOM     11  C   UNL A   1      37.324  29.225  30.845  1.00  0.00     0.018 A 
ATOM     12  C   UNL A   1      38.907  30.370  29.395  1.00  0.00     0.018 A 
BRANCH   8  13
ATOM     13  N   UNL A   1      35.492  31.452  28.602  1.00  0.00    -0.217 N 
ATOM     14  C   UNL A   1      33.670  31.431  27.406  1.00  0.00     0.132 A 
ATOM     15  N   UNL A   1      33.684  32.572  28.159  1.00  0.00    -0.128 NA
ATOM     16  C   UNL A   1      34.820  30.702  27.652  1.00  0.00     0.071 A 
ATOM     17  N   UNL A   1      34.757  32.532  28.944  1.00  0.00    -0.061 NA
ATOM     18  C   UNL A   1      35.189  29.318  27.244  1.00  0.00     0.069 C 
BRANCH  14  19
ATOM     19  C   UNL A   1      32.528  30.941  26.649  1.00  0.00     0.087 C 
ATOM     20  C   UNL A   1      31.326  31.857  26.668  1.00  0.00     0.071 C 
ATOM     21  N   UNL A   1      32.642  29.745  26.142  1.00  0.00    -0.176 NA
BRANCH  21  22
ATOM     22  N   UNL A   1      31.595  29.063  25.566  1.00  0.00    -0.252 N 
ATOM     23  H   UNL A   1      30.756  29.574  25.508  1.00  0.00     0.193 HD
BRANCH  22  24
ATOM     24  C   UNL A   1      31.526  27.804  25.064  1.00  0.00     0.203 A 
ATOM     25  N   UNL A   1      32.378  26.834  25.296  1.00  0.00    -0.219 NA
ATOM     26  S   UNL A   1      30.294  27.388  23.922  1.00  0.00    -0.103 S 
ATOM     27  C   UNL A   1      32.266  25.851  24.335  1.00  0.00     0.084 A 
ATOM     28  C   UNL A   1      31.187  25.982  23.488  1.00  0.00     0.097 A 
BRANCH  27  29
ATOM     29  C   UNL A   1      33.308  24.847  24.226  1.00  0.00     0.001 A 
ATOM     30  C   UNL A   1      34.189  24.659  25.297  1.00  0.00     0.012 A 
ATOM     31  C   UNL A   1      33.535  24.171  23.019  1.00  0.00     0.012 A 
ATOM     32  C   UNL A   1      35.276  23.791  25.175  1.00  0.00     0.021 A 
ATOM     33  C   UNL A   1      34.631  23.310  22.893  1.00  0.00     0.021 A 
ATOM     34  C   UNL A   1      35.494  23.123  23.973  1.00  0.00     0.041 A 
ATOM     35  Cl  UNL A   1      36.851  22.078  23.810  1.00  0.00    -0.084 Cl
ENDBRANCH  27  29
ENDBRANCH  22  24
ENDBRANCH  21  22
ENDBRANCH  14  19
ENDBRANCH   8  13
ENDBRANCH   5   7
ENDBRANCH   4   5
ENDBRANCH   3   4
ENDBRANCH   2   3
ENDBRANCH   1   2
BRANCH   1  36
ATOM     36  C   UNL A   1      41.758  28.043  36.253  1.00  0.00     0.188 C 
BRANCH  36  37
ATOM     37  C   UNL A   1      42.493  26.727  36.588  1.00  0.00     0.188 C 
BRANCH  37  38
ATOM     38  O   UNL A   1      43.035  26.456  37.867  1.00  0.00    -0.376 OA
BRANCH  38  39
ATOM     39  C   UNL A   1      44.406  26.169  38.097  1.00  0.00     0.202 C 
BRANCH  39  40
ATOM     40  C   UNL A   1      45.528  26.476  37.108  1.00  0.00     0.261 C 
BRANCH  40  41
ATOM     41  O   UNL A   1      46.017  25.349  36.419  1.00  0.00    -0.460 OA
BRANCH  41  42
ATOM     42  C   UNL A   1      47.085  25.621  35.646  1.00  0.00     0.338 C 
ATOM     43  O   UNL A   1      48.056  26.302  35.931  1.00  0.00    -0.246 OA
BRANCH  42  44
ATOM     44  C   UNL A   1      46.874  25.021  34.327  1.00  0.00     0.060 A 
ATOM     45  C   UNL A   1      47.808  25.384  33.356  1.00  0.00     0.016 A 
ATOM     46  C   UNL A   1      45.598  24.532  34.014  1.00  0.00     0.016 A 
ATOM     47  C   UNL A   1      47.342  25.588  32.086  1.00  0.00     0.010 A 
ATOM     48  C   UNL A   1      45.127  24.759  32.749  1.00  0.00     0.010 A 
ATOM     49  C   UNL A   1      45.977  25.396  31.850  1.00  0.00    -0.014 A 
BRANCH  49  50
ATOM     50  C   UNL A   1      45.452  25.904  30.609  1.00  0.00     0.031 A 
ATOM     51  C   UNL A   1      44.703  24.893  29.846  1.00  0.00     0.074 A 
ATOM     52  C   UNL A   1      45.601  27.193  30.257  1.00  0.00     0.049 A 
ATOM     53  N   UNL A   1      44.994  24.395  28.692  1.00  0.00    -0.248 NA
ATOM     54  C   UNL A   1      43.574  24.245  30.529  1.00  0.00     0.031 C 
ATOM     55  C   UNL A   1      46.081  28.311  31.074  1.00  0.00     0.029 A 
ATOM     56  N   UNL A   1      45.247  27.792  29.092  1.00  0.00    -0.354 N 
ATOM     57  C   UNL A   1      43.972  23.497  28.419  1.00  0.00     0.074 A 
ATOM     58  C   UNL A   1      43.242  23.308  29.644  1.00  0.00     0.031 C 
ATOM     59  C   UNL A   1      45.770  29.474  30.455  1.00  0.00     0.029 A 
ATOM     60  C   UNL A   1      45.187  29.173  29.158  1.00  0.00     0.049 A 
ATOM     61  H   UNL A   1      45.050  27.287  28.270  1.00  0.00     0.167 HD
ATOM     62  C   UNL A   1      43.634  23.202  27.139  1.00  0.00     0.037 A 
ATOM     63  C   UNL A   1      44.599  29.981  28.242  1.00  0.00     0.037 A 
ATOM     64  C   UNL A   1      44.719  23.470  26.230  1.00  0.00     0.049 A 
ATOM     65  C   UNL A   1      44.455  29.200  26.983  1.00  0.00     0.074 A 
ATOM     66  C   UNL A   1      46.018  23.013  26.119  1.00  0.00     0.029 A 
ATOM     67  N   UNL A   1      44.661  24.606  25.460  1.00  0.00    -0.354 N 
ATOM     68  N   UNL A   1      45.456  28.829  26.235  1.00  0.00    -0.248 NA
ATOM     69  C   UNL A   1      43.224  28.443  26.793  1.00  0.00     0.031 C 
ATOM     70  C   UNL A   1      46.778  24.140  25.683  1.00  0.00     0.029 A 
ATOM     71  C   UNL A   1      45.893  25.206  25.517  1.00  0.00     0.049 A 
ATOM     72  H   UNL A   1      43.879  24.930  24.959  1.00  0.00     0.167 HD
ATOM     73  C   UNL A   1      45.123  27.554  25.799  1.00  0.00     0.074 A 
ATOM     74  C   UNL A   1      43.702  27.409  26.093  1.00  0.00     0.031 C 
ATOM     75  C   UNL A   1      46.090  26.636  25.506  1.00  0.00     0.037 A 
BRANCH  62  76
ATOM     76  C   UNL A   1      42.202  23.058  26.695  1.00  0.00     0.064 A 
ATOM     77  C   UNL A   1      41.294  24.093  26.982  1.00  0.00     0.173 A 
ATOM     78  C   UNL A   1      41.624  21.840  26.270  1.00  0.00     0.173 A 
ATOM     79  F   UNL A   1      41.733  25.283  27.418  1.00  0.00    -0.203 F 
ATOM     80  C   UNL A   1      39.913  23.894  26.925  1.00  0.00     0.198 A 
ATOM     81  C   UNL A   1      40.247  21.665  26.154  1.00  0.00     0.198 A 
ATOM     82  F   UNL A   1      42.346  20.733  26.061  1.00  0.00    -0.203 F 
ATOM     83  F   UNL A   1      39.087  24.865  27.337  1.00  0.00    -0.200 F 
ATOM     84  C   UNL A   1      39.391  22.680  26.515  1.00  0.00     0.200 A 
ATOM     85  F   UNL A   1      39.766  20.473  25.775  1.00  0.00    -0.200 F 
ATOM     86  F   UNL A   1      38.070  22.468  26.521  1.00  0.00    -0.200 F 
ENDBRANCH  62  76
BRANCH  63  87
ATOM     87  C   UNL A   1      43.857  31.239  28.488  1.00  0.00     0.064 A 
ATOM     88  C   UNL A   1      42.793  31.285  29.402  1.00  0.00     0.173 A 
ATOM     89  C   UNL A   1      44.343  32.481  28.030  1.00  0.00     0.173 A 
ATOM     90  F   UNL A   1      42.305  30.150  29.926  1.00  0.00    -0.203 F 
ATOM     91  C   UNL A   1      42.260  32.499  29.847  1.00  0.00     0.198 A 
ATOM     92  C   UNL A   1      43.802  33.691  28.465  1.00  0.00     0.198 A 
ATOM     93  F   UNL A   1      45.413  32.551  27.227  1.00  0.00    -0.203 F 
ATOM     94  F   UNL A   1      41.285  32.505  30.767  1.00  0.00    -0.200 F 
ATOM     95  C   UNL A   1      42.769  33.701  29.383  1.00  0.00     0.200 A 
ATOM     96  F   UNL A   1      44.330  34.847  28.036  1.00  0.00    -0.200 F 
ATOM     97  F   UNL A   1      42.297  34.866  29.849  1.00  0.00    -0.200 F 
ENDBRANCH  63  87
BRANCH  75  98
ATOM     98  C   UNL A   1      47.508  27.128  25.415  1.00  0.00     0.064 A 
ATOM     99  C   UNL A   1      48.378  27.207  26.517  1.00  0.00     0.173 A 
ATOM    100  C   UNL A   1      48.043  27.404  24.151  1.00  0.00     0.173 A 
ATOM    101  F   UNL A   1      47.970  26.858  27.744  1.00  0.00    -0.203 F 
ATOM    102  C   UNL A   1      49.707  27.598  26.363  1.00  0.00     0.198 A 
ATOM    103  C   UNL A   1      49.381  27.756  23.995  1.00  0.00     0.198 A 
ATOM    104  F   UNL A   1      47.276  27.285  23.056  1.00  0.00    -0.203 F 
ATOM    105  F   UNL A   1      50.511  27.684  27.433  1.00  0.00    -0.200 F 
ATOM    106  C   UNL A   1      50.209  27.865  25.101  1.00  0.00     0.200 A 
ATOM    107  F   UNL A   1      49.876  27.965  22.767  1.00  0.00    -0.200 F 
ATOM    108  F   UNL A   1      51.497  28.204  24.947  1.00  0.00    -0.200 F 
ENDBRANCH  75  98
ENDBRANCH  49  50
ENDBRANCH  42  44
ENDBRANCH  41  42
ENDBRANCH  40  41
ENDBRANCH  39  40
ENDBRANCH  38  39
ENDBRANCH  37  38
ENDBRANCH  36  37
ENDBRANCH   1  36
TORSDOF 22
ENDMDL
