MODEL 1
REMARK VINA RESULT:     -10.8      0.000      0.000
REMARK SMILES Cc1c(CC(=O)N[C@H](CO)C(=O)OCCOCCOCCOC(=O)c2ccc(-c3c4nc(c(-c5c(F)c(F)c(F)c(F)c5F)c5ccc([nH]5)c(-c5c(F)c(F)c(F)c(F)c5F)c5nc(c(-c6c(F)c(F)c(F)c(F)c6F)c6ccc3[nH]6)C=C5)C=C4)cc2)cc(-c2ccc(S(C)(=O)=O)cc2)n1-c1ccc(F)cc1
REMARK SMILES IDX 16 1 15 2 14 3 13 4 11 5 12 6 8 7 7 8 5 9 6 10 4 12 3 13
REMARK SMILES IDX 1 14 2 15 100 16 88 17 89 18 101 19 102 20 107 21 103 22
REMARK SMILES IDX 106 23 104 24 105 25 90 26 91 27 99 28 92 29 98 30 93 31
REMARK SMILES IDX 94 32 95 33 96 34 97 35 9 36 10 37 17 39 18 40 19 41 20 42
REMARK SMILES IDX 21 43 22 44 23 45 24 46 25 47 26 48 87 49 27 50 86 51 28 52
REMARK SMILES IDX 29 53 30 54 80 55 31 56 85 57 79 58 81 59 32 60 84 61 78 62
REMARK SMILES IDX 77 63 33 65 65 66 45 67 64 68 46 69 49 70 63 71 82 72 47 73
REMARK SMILES IDX 48 74 62 76 83 77 50 78 34 79 35 80 43 81 36 82 37 83 41 84
REMARK SMILES IDX 44 85 38 86 39 87 42 88 40 89 66 90 67 91 75 92 68 93 69 94
REMARK SMILES IDX 73 95 76 96 70 97 71 98 74 99 72 100 51 101 52 102 60 103
REMARK SMILES IDX 53 104 54 105 58 106 61 107 55 108 56 109 59 110 57 111
REMARK H PARENT 7 11 10 38 81 64 49 75
REMARK Flexibility Score: inf
ROOT
ATOM      1  O   UNL A   1      39.911  24.151  26.486  1.00  0.00    -0.376 OA
ENDROOT
BRANCH   1   2
ATOM      2  C   UNL A   1      38.522  23.815  26.608  1.00  0.00     0.202 C 
BRANCH   2   3
ATOM      3  C   UNL A   1      37.884  22.668  25.806  1.00  0.00     0.261 C 
BRANCH   3   4
ATOM      4  O   UNL A   1      36.598  23.006  25.271  1.00  0.00    -0.462 OA
BRANCH   4   5
ATOM      5  C   UNL A   1      35.825  21.918  24.976  1.00  0.00     0.331 C 
ATOM      6  O   UNL A   1      36.147  20.771  25.269  1.00  0.00    -0.250 OA
BRANCH   5   7
ATOM      7  C   UNL A   1      34.430  22.316  24.438  1.00  0.00     0.218 C 
BRANCH   7   8
ATOM      8  N   UNL A   1      33.716  21.074  24.177  1.00  0.00    -0.341 N 
ATOM      9  C   UNL A   1      32.635  20.602  24.863  1.00  0.00     0.225 C 
ATOM     10  O   UNL A   1      32.540  19.374  24.973  1.00  0.00    -0.275 OA
ATOM     11  H   UNL A   1      34.046  20.521  23.432  1.00  0.00     0.164 HD
BRANCH   9  12
ATOM     12  C   UNL A   1      31.473  21.495  25.278  1.00  0.00     0.137 C 
BRANCH  12  13
ATOM     13  C   UNL A   1      31.554  23.001  25.213  1.00  0.00    -0.017 A 
ATOM     14  C   UNL A   1      32.848  23.565  27.380  1.00  0.00     0.065 C 
ATOM     15  C   UNL A   1      32.150  23.899  26.097  1.00  0.00     0.024 A 
ATOM     16  N   UNL A   1      31.833  25.210  25.705  1.00  0.00    -0.314 N 
ATOM     17  C   UNL A   1      30.795  23.792  24.305  1.00  0.00     0.033 A 
ATOM     18  C   UNL A   1      30.948  25.133  24.612  1.00  0.00     0.053 A 
BRANCH  16  19
ATOM     19  C   UNL A   1      32.364  26.432  26.250  1.00  0.00     0.046 A 
ATOM     20  C   UNL A   1      31.558  27.292  27.015  1.00  0.00     0.029 A 
ATOM     21  C   UNL A   1      33.623  26.880  25.834  1.00  0.00     0.029 A 
ATOM     22  C   UNL A   1      31.946  28.618  27.236  1.00  0.00     0.041 A 
ATOM     23  C   UNL A   1      34.023  28.198  26.084  1.00  0.00     0.041 A 
ATOM     24  C   UNL A   1      33.166  29.063  26.749  1.00  0.00     0.123 A 
ATOM     25  F   UNL A   1      33.508  30.349  26.897  1.00  0.00    -0.207 F 
ENDBRANCH  16  19
BRANCH  18  26
ATOM     26  C   UNL A   1      30.357  26.282  23.895  1.00  0.00    -0.001 A 
ATOM     27  C   UNL A   1      31.155  27.279  23.306  1.00  0.00     0.011 A 
ATOM     28  C   UNL A   1      28.969  26.451  23.886  1.00  0.00     0.011 A 
ATOM     29  C   UNL A   1      30.611  28.475  22.850  1.00  0.00     0.021 A 
ATOM     30  C   UNL A   1      28.415  27.658  23.455  1.00  0.00     0.021 A 
ATOM     31  C   UNL A   1      29.249  28.685  23.003  1.00  0.00     0.067 A 
BRANCH  31  32
ATOM     32  S   UNL A   1      28.553  30.292  22.762  1.00  0.00     0.175 S 
ATOM     33  C   UNL A   1      29.366  31.393  23.894  1.00  0.00     0.163 C 
ATOM     34  O   UNL A   1      28.887  30.664  21.416  1.00  0.00    -0.224 OA
ATOM     35  O   UNL A   1      27.158  30.218  23.177  1.00  0.00    -0.224 OA
ENDBRANCH  31  32
ENDBRANCH  18  26
ENDBRANCH  12  13
ENDBRANCH   9  12
ENDBRANCH   7   8
BRANCH   7  36
ATOM     36  C   UNL A   1      34.508  23.213  23.194  1.00  0.00     0.193 C 
BRANCH  36  37
ATOM     37  O   UNL A   1      35.826  23.231  22.647  1.00  0.00    -0.394 OA
ATOM     38  H   UNL A   1      35.960  22.440  22.101  1.00  0.00     0.210 HD
ENDBRANCH  36  37
ENDBRANCH   7  36
ENDBRANCH   5   7
ENDBRANCH   4   5
ENDBRANCH   3   4
ENDBRANCH   2   3
ENDBRANCH   1   2
BRANCH   1  39
ATOM     39  C   UNL A   1      40.830  23.749  27.482  1.00  0.00     0.188 C 
BRANCH  39  40
ATOM     40  C   UNL A   1      41.873  22.648  27.248  1.00  0.00     0.188 C 
BRANCH  40  41
ATOM     41  O   UNL A   1      42.527  22.075  28.355  1.00  0.00    -0.376 OA
BRANCH  41  42
ATOM     42  C   UNL A   1      42.934  22.972  29.366  1.00  0.00     0.202 C 
BRANCH  42  43
ATOM     43  C   UNL A   1      44.313  22.933  30.092  1.00  0.00     0.261 C 
BRANCH  43  44
ATOM     44  O   UNL A   1      44.601  23.269  31.482  1.00  0.00    -0.460 OA
BRANCH  44  45
ATOM     45  C   UNL A   1      45.071  24.545  31.677  1.00  0.00     0.338 C 
ATOM     46  O   UNL A   1      46.129  24.762  32.258  1.00  0.00    -0.246 OA
BRANCH  45  47
ATOM     47  C   UNL A   1      44.248  25.715  31.098  1.00  0.00     0.060 A 
ATOM     48  C   UNL A   1      43.452  26.402  31.984  1.00  0.00     0.016 A 
ATOM     49  C   UNL A   1      44.034  26.101  29.752  1.00  0.00     0.016 A 
ATOM     50  C   UNL A   1      42.557  27.436  31.539  1.00  0.00     0.010 A 
ATOM     51  C   UNL A   1      43.076  27.181  29.310  1.00  0.00     0.010 A 
ATOM     52  C   UNL A   1      42.288  27.932  30.199  1.00  0.00    -0.014 A 
BRANCH  52  53
ATOM     53  C   UNL A   1      41.232  29.260  29.993  1.00  0.00     0.031 A 
ATOM     54  C   UNL A   1      42.146  30.398  29.719  1.00  0.00     0.074 A 
ATOM     55  C   UNL A   1      39.917  29.776  30.141  1.00  0.00     0.049 A 
ATOM     56  N   UNL A   1      42.874  30.789  30.715  1.00  0.00    -0.248 NA
ATOM     57  C   UNL A   1      42.588  30.883  28.416  1.00  0.00     0.031 C 
ATOM     58  C   UNL A   1      38.704  29.105  30.646  1.00  0.00     0.029 A 
ATOM     59  N   UNL A   1      39.343  31.106  29.929  1.00  0.00    -0.354 N 
ATOM     60  C   UNL A   1      43.886  31.563  30.219  1.00  0.00     0.074 A 
ATOM     61  C   UNL A   1      43.676  31.584  28.778  1.00  0.00     0.031 C 
ATOM     62  C   UNL A   1      37.587  29.902  30.578  1.00  0.00     0.029 A 
ATOM     63  C   UNL A   1      37.899  31.256  30.101  1.00  0.00     0.049 A 
ATOM     64  H   UNL A   1      39.909  31.872  29.679  1.00  0.00     0.167 HD
ATOM     65  C   UNL A   1      44.370  32.471  31.106  1.00  0.00     0.037 A 
ATOM     66  C   UNL A   1      37.038  32.369  30.000  1.00  0.00     0.037 A 
ATOM     67  C   UNL A   1      43.611  33.681  30.959  1.00  0.00     0.049 A 
ATOM     68  C   UNL A   1      37.852  33.528  30.376  1.00  0.00     0.074 A 
ATOM     69  C   UNL A   1      43.181  34.345  29.823  1.00  0.00     0.029 A 
ATOM     70  N   UNL A   1      42.703  33.970  31.954  1.00  0.00    -0.354 N 
ATOM     71  N   UNL A   1      38.128  33.773  31.621  1.00  0.00    -0.248 NA
ATOM     72  C   UNL A   1      38.250  34.561  29.426  1.00  0.00     0.031 C 
ATOM     73  C   UNL A   1      41.788  34.463  30.016  1.00  0.00     0.029 A 
ATOM     74  C   UNL A   1      41.506  34.308  31.368  1.00  0.00     0.049 A 
ATOM     75  H   UNL A   1      42.882  33.941  32.922  1.00  0.00     0.167 HD
ATOM     76  C   UNL A   1      39.167  34.635  31.524  1.00  0.00     0.074 A 
ATOM     77  C   UNL A   1      39.010  35.296  30.241  1.00  0.00     0.031 C 
ATOM     78  C   UNL A   1      40.300  34.238  32.147  1.00  0.00     0.037 A 
BRANCH  65  79
ATOM     79  C   UNL A   1      44.703  31.799  32.435  1.00  0.00     0.064 A 
ATOM     80  C   UNL A   1      46.044  31.715  32.818  1.00  0.00     0.173 A 
ATOM     81  C   UNL A   1      43.781  31.031  33.191  1.00  0.00     0.173 A 
ATOM     82  F   UNL A   1      46.967  32.470  32.205  1.00  0.00    -0.203 F 
ATOM     83  C   UNL A   1      46.454  30.837  33.828  1.00  0.00     0.198 A 
ATOM     84  C   UNL A   1      44.203  30.081  34.116  1.00  0.00     0.198 A 
ATOM     85  F   UNL A   1      42.456  31.178  33.028  1.00  0.00    -0.203 F 
ATOM     86  F   UNL A   1      47.741  30.801  34.198  1.00  0.00    -0.200 F 
ATOM     87  C   UNL A   1      45.543  29.982  34.432  1.00  0.00     0.200 A 
ATOM     88  F   UNL A   1      43.310  29.260  34.688  1.00  0.00    -0.200 F 
ATOM     89  F   UNL A   1      45.954  29.081  35.336  1.00  0.00    -0.200 F 
ENDBRANCH  65  79
BRANCH  66  90
ATOM     90  C   UNL A   1      35.542  32.907  29.918  1.00  0.00     0.064 A 
ATOM     91  C   UNL A   1      34.931  33.645  31.006  1.00  0.00     0.173 A 
ATOM     92  C   UNL A   1      34.906  33.150  28.689  1.00  0.00     0.173 A 
ATOM     93  F   UNL A   1      35.366  33.522  32.267  1.00  0.00    -0.203 F 
ATOM     94  C   UNL A   1      33.899  34.597  30.852  1.00  0.00     0.198 A 
ATOM     95  C   UNL A   1      33.835  34.082  28.544  1.00  0.00     0.198 A 
ATOM     96  F   UNL A   1      35.367  32.567  27.577  1.00  0.00    -0.203 F 
ATOM     97  F   UNL A   1      33.489  35.333  31.900  1.00  0.00    -0.200 F 
ATOM     98  C   UNL A   1      33.359  34.829  29.612  1.00  0.00     0.200 A 
ATOM     99  F   UNL A   1      33.307  34.311  27.331  1.00  0.00    -0.200 F 
ATOM    100  F   UNL A   1      32.424  35.778  29.442  1.00  0.00    -0.200 F 
ENDBRANCH  66  90
BRANCH  78 101
ATOM    101  C   UNL A   1      40.149  33.596  33.514  1.00  0.00     0.064 A 
ATOM    102  C   UNL A   1      39.791  32.255  33.798  1.00  0.00     0.173 A 
ATOM    103  C   UNL A   1      40.304  34.434  34.626  1.00  0.00     0.173 A 
ATOM    104  F   UNL A   1      39.698  31.323  32.840  1.00  0.00    -0.203 F 
ATOM    105  C   UNL A   1      39.533  31.819  35.101  1.00  0.00     0.198 A 
ATOM    106  C   UNL A   1      40.097  33.983  35.929  1.00  0.00     0.198 A 
ATOM    107  F   UNL A   1      40.684  35.709  34.451  1.00  0.00    -0.203 F 
ATOM    108  F   UNL A   1      39.134  30.556  35.324  1.00  0.00    -0.200 F 
ATOM    109  C   UNL A   1      39.688  32.684  36.165  1.00  0.00     0.200 A 
ATOM    110  F   UNL A   1      40.301  34.820  36.955  1.00  0.00    -0.200 F 
ATOM    111  F   UNL A   1      39.459  32.267  37.419  1.00  0.00    -0.200 F 
ENDBRANCH  78 101
ENDBRANCH  52  53
ENDBRANCH  45  47
ENDBRANCH  44  45
ENDBRANCH  43  44
ENDBRANCH  42  43
ENDBRANCH  41  42
ENDBRANCH  40  41
ENDBRANCH  39  40
ENDBRANCH   1  39
TORSDOF 25
ENDMDL
MODEL 2
REMARK VINA RESULT:     -10.8      3.670      8.152
REMARK SMILES Cc1c(CC(=O)N[C@H](CO)C(=O)OCCOCCOCCOC(=O)c2ccc(-c3c4nc(c(-c5c(F)c(F)c(F)c(F)c5F)c5ccc([nH]5)c(-c5c(F)c(F)c(F)c(F)c5F)c5nc(c(-c6c(F)c(F)c(F)c(F)c6F)c6ccc3[nH]6)C=C5)C=C4)cc2)cc(-c2ccc(S(C)(=O)=O)cc2)n1-c1ccc(F)cc1
REMARK SMILES IDX 16 1 15 2 14 3 13 4 11 5 12 6 8 7 7 8 5 9 6 10 4 12 3 13
REMARK SMILES IDX 1 14 2 15 100 16 88 17 89 18 101 19 102 20 107 21 103 22
REMARK SMILES IDX 106 23 104 24 105 25 90 26 91 27 99 28 92 29 98 30 93 31
REMARK SMILES IDX 94 32 95 33 96 34 97 35 9 36 10 37 17 39 18 40 19 41 20 42
REMARK SMILES IDX 21 43 22 44 23 45 24 46 25 47 26 48 87 49 27 50 86 51 28 52
REMARK SMILES IDX 29 53 30 54 80 55 31 56 85 57 79 58 81 59 32 60 84 61 78 62
REMARK SMILES IDX 77 63 33 65 65 66 45 67 64 68 46 69 49 70 63 71 82 72 47 73
REMARK SMILES IDX 48 74 62 76 83 77 50 78 34 79 35 80 43 81 36 82 37 83 41 84
REMARK SMILES IDX 44 85 38 86 39 87 42 88 40 89 66 90 67 91 75 92 68 93 69 94
REMARK SMILES IDX 73 95 76 96 70 97 71 98 74 99 72 100 51 101 52 102 60 103
REMARK SMILES IDX 53 104 54 105 58 106 61 107 55 108 56 109 59 110 57 111
REMARK H PARENT 7 11 10 38 81 64 49 75
REMARK Flexibility Score: inf
ROOT
ATOM      1  O   UNL A   1      32.754  23.561  24.434  1.00  0.00    -0.376 OA
ENDROOT
BRANCH   1   2
ATOM      2  C   UNL A   1      31.566  24.363  24.372  1.00  0.00     0.202 C 
BRANCH   2   3
ATOM      3  C   UNL A   1      31.512  25.789  24.946  1.00  0.00     0.261 C 
BRANCH   3   4
ATOM      4  O   UNL A   1      32.159  26.756  24.109  1.00  0.00    -0.462 OA
BRANCH   4   5
ATOM      5  C   UNL A   1      33.390  27.137  24.564  1.00  0.00     0.331 C 
ATOM      6  O   UNL A   1      34.109  26.405  25.237  1.00  0.00    -0.250 OA
BRANCH   5   7
ATOM      7  C   UNL A   1      33.849  28.485  23.960  1.00  0.00     0.218 C 
BRANCH   7   8
ATOM      8  N   UNL A   1      33.194  29.531  24.735  1.00  0.00    -0.341 N 
ATOM      9  C   UNL A   1      33.181  29.644  26.095  1.00  0.00     0.225 C 
ATOM     10  O   UNL A   1      32.162  30.128  26.600  1.00  0.00    -0.275 OA
ATOM     11  H   UNL A   1      32.716  30.225  24.226  1.00  0.00     0.164 HD
BRANCH   9  12
ATOM     12  C   UNL A   1      34.421  29.415  26.949  1.00  0.00     0.137 C 
BRANCH  12  13
ATOM     13  C   UNL A   1      35.061  30.525  27.749  1.00  0.00    -0.017 A 
ATOM     14  C   UNL A   1      37.441  29.597  28.150  1.00  0.00     0.065 C 
ATOM     15  C   UNL A   1      36.355  30.623  28.258  1.00  0.00     0.024 A 
ATOM     16  N   UNL A   1      36.444  31.764  29.071  1.00  0.00    -0.314 N 
ATOM     17  C   UNL A   1      34.329  31.597  28.331  1.00  0.00     0.033 A 
ATOM     18  C   UNL A   1      35.162  32.343  29.148  1.00  0.00     0.053 A 
BRANCH  16  19
ATOM     19  C   UNL A   1      37.634  32.316  29.665  1.00  0.00     0.046 A 
ATOM     20  C   UNL A   1      38.088  31.872  30.919  1.00  0.00     0.029 A 
ATOM     21  C   UNL A   1      38.220  33.455  29.101  1.00  0.00     0.029 A 
ATOM     22  C   UNL A   1      39.006  32.631  31.651  1.00  0.00     0.041 A 
ATOM     23  C   UNL A   1      39.162  34.197  29.822  1.00  0.00     0.041 A 
ATOM     24  C   UNL A   1      39.518  33.799  31.103  1.00  0.00     0.123 A 
ATOM     25  F   UNL A   1      40.342  34.565  31.829  1.00  0.00    -0.207 F 
ENDBRANCH  16  19
BRANCH  18  26
ATOM     26  C   UNL A   1      34.807  33.557  29.911  1.00  0.00    -0.001 A 
ATOM     27  C   UNL A   1      35.173  33.721  31.259  1.00  0.00     0.011 A 
ATOM     28  C   UNL A   1      33.994  34.530  29.321  1.00  0.00     0.011 A 
ATOM     29  C   UNL A   1      34.638  34.737  32.043  1.00  0.00     0.021 A 
ATOM     30  C   UNL A   1      33.431  35.539  30.105  1.00  0.00     0.021 A 
ATOM     31  C   UNL A   1      33.707  35.593  31.475  1.00  0.00     0.067 A 
BRANCH  31  32
ATOM     32  S   UNL A   1      32.745  36.678  32.486  1.00  0.00     0.175 S 
ATOM     33  C   UNL A   1      31.164  35.905  32.732  1.00  0.00     0.163 C 
ATOM     34  O   UNL A   1      33.436  36.755  33.742  1.00  0.00    -0.224 OA
ATOM     35  O   UNL A   1      32.505  37.885  31.705  1.00  0.00    -0.224 OA
ENDBRANCH  31  32
ENDBRANCH  18  26
ENDBRANCH  12  13
ENDBRANCH   9  12
ENDBRANCH   7   8
BRANCH   7  36
ATOM     36  C   UNL A   1      33.544  28.597  22.460  1.00  0.00     0.193 C 
BRANCH  36  37
ATOM     37  O   UNL A   1      33.658  27.331  21.810  1.00  0.00    -0.394 OA
ATOM     38  H   UNL A   1      33.239  26.648  22.357  1.00  0.00     0.210 HD
ENDBRANCH  36  37
ENDBRANCH   7  36
ENDBRANCH   5   7
ENDBRANCH   4   5
ENDBRANCH   3   4
ENDBRANCH   2   3
ENDBRANCH   1   2
BRANCH   1  39
ATOM     39  C   UNL A   1      32.821  22.458  25.317  1.00  0.00     0.188 C 
BRANCH  39  40
ATOM     40  C   UNL A   1      33.277  21.065  24.865  1.00  0.00     0.188 C 
BRANCH  40  41
ATOM     41  O   UNL A   1      34.635  20.714  24.988  1.00  0.00    -0.376 OA
BRANCH  41  42
ATOM     42  C   UNL A   1      35.566  21.680  24.548  1.00  0.00     0.202 C 
BRANCH  42  43
ATOM     43  C   UNL A   1      37.032  21.807  25.065  1.00  0.00     0.261 C 
BRANCH  43  44
ATOM     44  O   UNL A   1      37.597  22.864  25.897  1.00  0.00    -0.460 OA
BRANCH  44  45
ATOM     45  C   UNL A   1      38.895  22.649  26.293  1.00  0.00     0.338 C 
ATOM     46  O   UNL A   1      39.439  21.559  26.158  1.00  0.00    -0.246 OA
BRANCH  45  47
ATOM     47  C   UNL A   1      39.678  23.844  26.876  1.00  0.00     0.060 A 
ATOM     48  C   UNL A   1      39.768  24.964  26.083  1.00  0.00     0.016 A 
ATOM     49  C   UNL A   1      40.483  23.927  28.038  1.00  0.00     0.016 A 
ATOM     50  C   UNL A   1      40.566  26.095  26.474  1.00  0.00     0.010 A 
ATOM     51  C   UNL A   1      41.324  25.122  28.418  1.00  0.00     0.010 A 
ATOM     52  C   UNL A   1      41.395  26.297  27.651  1.00  0.00    -0.014 A 
BRANCH  52  53
ATOM     53  C   UNL A   1      42.153  27.810  27.893  1.00  0.00     0.031 A 
ATOM     54  C   UNL A   1      43.571  27.555  27.530  1.00  0.00     0.074 A 
ATOM     55  C   UNL A   1      42.066  29.117  28.443  1.00  0.00     0.049 A 
ATOM     56  N   UNL A   1      44.231  26.793  28.340  1.00  0.00    -0.248 NA
ATOM     57  C   UNL A   1      44.197  27.745  26.226  1.00  0.00     0.031 C 
ATOM     58  C   UNL A   1      40.946  29.753  29.162  1.00  0.00     0.029 A 
ATOM     59  N   UNL A   1      43.030  30.213  28.553  1.00  0.00    -0.354 N 
ATOM     60  C   UNL A   1      45.361  26.371  27.695  1.00  0.00     0.074 A 
ATOM     61  C   UNL A   1      45.291  26.978  26.373  1.00  0.00     0.031 C 
ATOM     62  C   UNL A   1      41.198  31.063  29.488  1.00  0.00     0.029 A 
ATOM     63  C   UNL A   1      42.557  31.477  29.114  1.00  0.00     0.049 A 
ATOM     64  H   UNL A   1      43.963  30.103  28.259  1.00  0.00     0.167 HD
ATOM     65  C   UNL A   1      46.387  26.060  28.528  1.00  0.00     0.037 A 
ATOM     66  C   UNL A   1      43.203  32.703  29.380  1.00  0.00     0.037 A 
ATOM     67  C   UNL A   1      47.165  27.250  28.735  1.00  0.00     0.049 A 
ATOM     68  C   UNL A   1      44.598  32.355  29.668  1.00  0.00     0.074 A 
ATOM     69  C   UNL A   1      47.586  28.220  27.841  1.00  0.00     0.029 A 
ATOM     70  N   UNL A   1      47.044  27.867  29.961  1.00  0.00    -0.354 N 
ATOM     71  N   UNL A   1      44.935  31.854  30.817  1.00  0.00    -0.248 NA
ATOM     72  C   UNL A   1      45.702  32.702  28.781  1.00  0.00     0.031 C 
ATOM     73  C   UNL A   1      47.105  29.421  28.405  1.00  0.00     0.029 A 
ATOM     74  C   UNL A   1      46.845  29.212  29.755  1.00  0.00     0.049 A 
ATOM     75  H   UNL A   1      47.093  27.420  30.836  1.00  0.00     0.167 HD
ATOM     76  C   UNL A   1      46.155  31.329  30.558  1.00  0.00     0.074 A 
ATOM     77  C   UNL A   1      46.688  32.102  29.452  1.00  0.00     0.031 C 
ATOM     78  C   UNL A   1      46.273  30.005  30.808  1.00  0.00     0.037 A 
BRANCH  65  79
ATOM     79  C   UNL A   1      45.918  25.115  29.630  1.00  0.00     0.064 A 
ATOM     80  C   UNL A   1      45.097  24.041  29.279  1.00  0.00     0.173 A 
ATOM     81  C   UNL A   1      46.044  25.385  31.017  1.00  0.00     0.173 A 
ATOM     82  F   UNL A   1      44.989  23.671  27.994  1.00  0.00    -0.203 F 
ATOM     83  C   UNL A   1      44.364  23.344  30.245  1.00  0.00     0.198 A 
ATOM     84  C   UNL A   1      45.231  24.766  31.962  1.00  0.00     0.198 A 
ATOM     85  F   UNL A   1      46.944  26.272  31.474  1.00  0.00    -0.203 F 
ATOM     86  F   UNL A   1      43.610  22.297  29.883  1.00  0.00    -0.200 F 
ATOM     87  C   UNL A   1      44.387  23.745  31.573  1.00  0.00     0.200 A 
ATOM     88  F   UNL A   1      45.263  25.169  33.240  1.00  0.00    -0.200 F 
ATOM     89  F   UNL A   1      43.615  23.131  32.482  1.00  0.00    -0.200 F 
ENDBRANCH  65  79
BRANCH  66  90
ATOM     90  C   UNL A   1      43.060  34.242  29.760  1.00  0.00     0.064 A 
ATOM     91  C   UNL A   1      43.239  34.718  31.118  1.00  0.00     0.173 A 
ATOM     92  C   UNL A   1      43.246  35.262  28.812  1.00  0.00     0.173 A 
ATOM     93  F   UNL A   1      43.068  33.909  32.171  1.00  0.00    -0.203 F 
ATOM     94  C   UNL A   1      43.674  36.017  31.463  1.00  0.00     0.198 A 
ATOM     95  C   UNL A   1      43.644  36.586  29.167  1.00  0.00     0.198 A 
ATOM     96  F   UNL A   1      43.144  34.981  27.507  1.00  0.00    -0.203 F 
ATOM     97  F   UNL A   1      43.944  36.325  32.743  1.00  0.00    -0.200 F 
ATOM     98  C   UNL A   1      43.893  36.951  30.483  1.00  0.00     0.200 A 
ATOM     99  F   UNL A   1      43.860  37.500  28.208  1.00  0.00    -0.200 F 
ATOM    100  F   UNL A   1      44.368  38.168  30.794  1.00  0.00    -0.200 F 
ENDBRANCH  66  90
BRANCH  78 101
ATOM    101  C   UNL A   1      45.626  29.481  32.077  1.00  0.00     0.064 A 
ATOM    102  C   UNL A   1      46.081  29.655  33.408  1.00  0.00     0.173 A 
ATOM    103  C   UNL A   1      44.496  28.669  31.921  1.00  0.00     0.173 A 
ATOM    104  F   UNL A   1      47.094  30.476  33.715  1.00  0.00    -0.203 F 
ATOM    105  C   UNL A   1      45.484  28.993  34.486  1.00  0.00     0.198 A 
ATOM    106  C   UNL A   1      43.869  28.053  33.004  1.00  0.00     0.198 A 
ATOM    107  F   UNL A   1      43.971  28.485  30.700  1.00  0.00    -0.203 F 
ATOM    108  F   UNL A   1      45.983  29.134  35.724  1.00  0.00    -0.200 F 
ATOM    109  C   UNL A   1      44.377  28.194  34.282  1.00  0.00     0.200 A 
ATOM    110  F   UNL A   1      42.766  27.321  32.798  1.00  0.00    -0.200 F 
ATOM    111  F   UNL A   1      43.790  27.572  35.314  1.00  0.00    -0.200 F 
ENDBRANCH  78 101
ENDBRANCH  52  53
ENDBRANCH  45  47
ENDBRANCH  44  45
ENDBRANCH  43  44
ENDBRANCH  42  43
ENDBRANCH  41  42
ENDBRANCH  40  41
ENDBRANCH  39  40
ENDBRANCH   1  39
TORSDOF 25
ENDMDL
MODEL 3
REMARK VINA RESULT:     -10.7      3.690      8.177
REMARK SMILES Cc1c(CC(=O)N[C@H](CO)C(=O)OCCOCCOCCOC(=O)c2ccc(-c3c4nc(c(-c5c(F)c(F)c(F)c(F)c5F)c5ccc([nH]5)c(-c5c(F)c(F)c(F)c(F)c5F)c5nc(c(-c6c(F)c(F)c(F)c(F)c6F)c6ccc3[nH]6)C=C5)C=C4)cc2)cc(-c2ccc(S(C)(=O)=O)cc2)n1-c1ccc(F)cc1
REMARK SMILES IDX 16 1 15 2 14 3 13 4 11 5 12 6 8 7 7 8 5 9 6 10 4 12 3 13
REMARK SMILES IDX 1 14 2 15 100 16 88 17 89 18 101 19 102 20 107 21 103 22
REMARK SMILES IDX 106 23 104 24 105 25 90 26 91 27 99 28 92 29 98 30 93 31
REMARK SMILES IDX 94 32 95 33 96 34 97 35 9 36 10 37 17 39 18 40 19 41 20 42
REMARK SMILES IDX 21 43 22 44 23 45 24 46 25 47 26 48 87 49 27 50 86 51 28 52
REMARK SMILES IDX 29 53 30 54 80 55 31 56 85 57 79 58 81 59 32 60 84 61 78 62
REMARK SMILES IDX 77 63 33 65 65 66 45 67 64 68 46 69 49 70 63 71 82 72 47 73
REMARK SMILES IDX 48 74 62 76 83 77 50 78 34 79 35 80 43 81 36 82 37 83 41 84
REMARK SMILES IDX 44 85 38 86 39 87 42 88 40 89 66 90 67 91 75 92 68 93 69 94
REMARK SMILES IDX 73 95 76 96 70 97 71 98 74 99 72 100 51 101 52 102 60 103
REMARK SMILES IDX 53 104 54 105 58 106 61 107 55 108 56 109 59 110 57 111
REMARK H PARENT 7 11 10 38 81 64 49 75
REMARK Flexibility Score: inf
ROOT
ATOM      1  O   UNL A   1      32.603  23.825  24.340  1.00  0.00    -0.376 OA
ENDROOT
BRANCH   1   2
ATOM      2  C   UNL A   1      31.347  24.305  24.839  1.00  0.00     0.202 C 
BRANCH   2   3
ATOM      3  C   UNL A   1      31.215  25.658  25.558  1.00  0.00     0.261 C 
BRANCH   3   4
ATOM      4  O   UNL A   1      30.778  26.713  24.691  1.00  0.00    -0.462 OA
BRANCH   4   5
ATOM      5  C   UNL A   1      31.800  27.475  24.198  1.00  0.00     0.331 C 
ATOM      6  O   UNL A   1      32.729  27.005  23.548  1.00  0.00    -0.250 OA
BRANCH   5   7
ATOM      7  C   UNL A   1      31.537  28.990  24.364  1.00  0.00     0.218 C 
BRANCH   7   8
ATOM      8  N   UNL A   1      31.448  29.241  25.796  1.00  0.00    -0.341 N 
ATOM      9  C   UNL A   1      32.413  28.982  26.726  1.00  0.00     0.225 C 
ATOM     10  O   UNL A   1      32.023  28.652  27.852  1.00  0.00    -0.275 OA
ATOM     11  H   UNL A   1      30.609  29.638  26.125  1.00  0.00     0.164 HD
BRANCH   9  12
ATOM     12  C   UNL A   1      33.884  29.298  26.491  1.00  0.00     0.137 C 
BRANCH  12  13
ATOM     13  C   UNL A   1      34.614  30.360  27.278  1.00  0.00    -0.017 A 
ATOM     14  C   UNL A   1      36.949  29.294  27.586  1.00  0.00     0.065 C 
ATOM     15  C   UNL A   1      35.928  30.379  27.742  1.00  0.00     0.024 A 
ATOM     16  N   UNL A   1      36.111  31.505  28.562  1.00  0.00    -0.314 N 
ATOM     17  C   UNL A   1      33.965  31.466  27.895  1.00  0.00     0.033 A 
ATOM     18  C   UNL A   1      34.867  32.154  28.689  1.00  0.00     0.053 A 
BRANCH  16  19
ATOM     19  C   UNL A   1      37.349  31.982  29.118  1.00  0.00     0.046 A 
ATOM     20  C   UNL A   1      37.953  31.325  30.205  1.00  0.00     0.029 A 
ATOM     21  C   UNL A   1      37.845  33.230  28.726  1.00  0.00     0.029 A 
ATOM     22  C   UNL A   1      38.934  31.968  30.966  1.00  0.00     0.041 A 
ATOM     23  C   UNL A   1      38.849  33.859  29.470  1.00  0.00     0.041 A 
ATOM     24  C   UNL A   1      39.357  33.239  30.604  1.00  0.00     0.123 A 
ATOM     25  F   UNL A   1      40.243  33.886  31.371  1.00  0.00    -0.207 F 
ENDBRANCH  16  19
BRANCH  18  26
ATOM     26  C   UNL A   1      34.608  33.378  29.475  1.00  0.00    -0.001 A 
ATOM     27  C   UNL A   1      34.938  33.469  30.839  1.00  0.00     0.011 A 
ATOM     28  C   UNL A   1      33.921  34.444  28.886  1.00  0.00     0.011 A 
ATOM     29  C   UNL A   1      34.479  34.513  31.634  1.00  0.00     0.021 A 
ATOM     30  C   UNL A   1      33.433  35.485  29.679  1.00  0.00     0.021 A 
ATOM     31  C   UNL A   1      33.661  35.474  31.059  1.00  0.00     0.067 A 
BRANCH  31  32
ATOM     32  S   UNL A   1      32.777  36.625  32.068  1.00  0.00     0.175 S 
ATOM     33  C   UNL A   1      33.691  36.808  33.581  1.00  0.00     0.163 C 
ATOM     34  O   UNL A   1      32.795  37.868  31.349  1.00  0.00    -0.224 OA
ATOM     35  O   UNL A   1      31.509  35.998  32.417  1.00  0.00    -0.224 OA
ENDBRANCH  31  32
ENDBRANCH  18  26
ENDBRANCH  12  13
ENDBRANCH   9  12
ENDBRANCH   7   8
BRANCH   7  36
ATOM     36  C   UNL A   1      30.283  29.460  23.613  1.00  0.00     0.193 C 
BRANCH  36  37
ATOM     37  O   UNL A   1      30.618  30.028  22.347  1.00  0.00    -0.394 OA
ATOM     38  H   UNL A   1      30.119  30.851  22.220  1.00  0.00     0.210 HD
ENDBRANCH  36  37
ENDBRANCH   7  36
ENDBRANCH   5   7
ENDBRANCH   4   5
ENDBRANCH   3   4
ENDBRANCH   2   3
ENDBRANCH   1   2
BRANCH   1  39
ATOM     39  C   UNL A   1      33.300  22.808  25.032  1.00  0.00     0.188 C 
BRANCH  39  40
ATOM     40  C   UNL A   1      33.918  21.599  24.318  1.00  0.00     0.188 C 
BRANCH  40  41
ATOM     41  O   UNL A   1      35.248  21.237  24.606  1.00  0.00    -0.376 OA
BRANCH  41  42
ATOM     42  C   UNL A   1      36.147  22.304  24.820  1.00  0.00     0.202 C 
BRANCH  42  43
ATOM     43  C   UNL A   1      37.664  22.142  25.143  1.00  0.00     0.261 C 
BRANCH  43  44
ATOM     44  O   UNL A   1      38.297  22.093  26.456  1.00  0.00    -0.460 OA
BRANCH  44  45
ATOM     45  C   UNL A   1      39.658  22.278  26.443  1.00  0.00     0.338 C 
ATOM     46  O   UNL A   1      40.400  21.572  25.769  1.00  0.00    -0.246 OA
BRANCH  45  47
ATOM     47  C   UNL A   1      40.236  23.444  27.273  1.00  0.00     0.060 A 
ATOM     48  C   UNL A   1      39.505  24.609  27.286  1.00  0.00     0.016 A 
ATOM     49  C   UNL A   1      41.500  23.580  27.897  1.00  0.00     0.016 A 
ATOM     50  C   UNL A   1      40.001  25.794  27.932  1.00  0.00     0.010 A 
ATOM     51  C   UNL A   1      42.002  24.843  28.556  1.00  0.00     0.010 A 
ATOM     52  C   UNL A   1      41.256  26.031  28.626  1.00  0.00    -0.014 A 
BRANCH  52  53
ATOM     53  C   UNL A   1      41.520  27.537  29.391  1.00  0.00     0.031 A 
ATOM     54  C   UNL A   1      42.110  28.379  28.319  1.00  0.00     0.074 A 
ATOM     55  C   UNL A   1      41.589  28.262  30.611  1.00  0.00     0.049 A 
ATOM     56  N   UNL A   1      43.306  28.056  27.944  1.00  0.00    -0.248 NA
ATOM     57  C   UNL A   1      41.403  29.266  27.402  1.00  0.00     0.031 C 
ATOM     58  C   UNL A   1      41.359  27.792  31.990  1.00  0.00     0.029 A 
ATOM     59  N   UNL A   1      41.967  29.641  30.924  1.00  0.00    -0.354 N 
ATOM     60  C   UNL A   1      43.549  28.665  26.744  1.00  0.00     0.074 A 
ATOM     61  C   UNL A   1      42.329  29.398  26.437  1.00  0.00     0.031 C 
ATOM     62  C   UNL A   1      41.446  28.800  32.918  1.00  0.00     0.029 A 
ATOM     63  C   UNL A   1      41.834  30.080  32.312  1.00  0.00     0.049 A 
ATOM     64  H   UNL A   1      42.299  30.251  30.227  1.00  0.00     0.167 HD
ATOM     65  C   UNL A   1      44.865  28.897  26.501  1.00  0.00     0.037 A 
ATOM     66  C   UNL A   1      42.121  31.303  32.956  1.00  0.00     0.037 A 
ATOM     67  C   UNL A   1      45.190  30.195  27.024  1.00  0.00     0.049 A 
ATOM     68  C   UNL A   1      43.230  31.892  32.201  1.00  0.00     0.074 A 
ATOM     69  C   UNL A   1      44.500  31.394  26.956  1.00  0.00     0.029 A 
ATOM     70  N   UNL A   1      45.933  30.231  28.182  1.00  0.00    -0.354 N 
ATOM     71  N   UNL A   1      44.443  31.455  32.349  1.00  0.00    -0.248 NA
ATOM     72  C   UNL A   1      43.086  33.094  31.387  1.00  0.00     0.031 C 
ATOM     73  C   UNL A   1      44.380  31.783  28.307  1.00  0.00     0.029 A 
ATOM     74  C   UNL A   1      45.337  31.109  29.056  1.00  0.00     0.049 A 
ATOM     75  H   UNL A   1      46.754  29.715  28.355  1.00  0.00     0.167 HD
ATOM     76  C   UNL A   1      45.066  31.948  31.253  1.00  0.00     0.074 A 
ATOM     77  C   UNL A   1      44.321  33.137  30.881  1.00  0.00     0.031 C 
ATOM     78  C   UNL A   1      45.645  31.020  30.458  1.00  0.00     0.037 A 
BRANCH  65  79
ATOM     79  C   UNL A   1      45.685  27.630  26.726  1.00  0.00     0.064 A 
ATOM     80  C   UNL A   1      46.078  26.887  25.611  1.00  0.00     0.173 A 
ATOM     81  C   UNL A   1      45.864  27.012  27.990  1.00  0.00     0.173 A 
ATOM     82  F   UNL A   1      46.015  27.430  24.385  1.00  0.00    -0.203 F 
ATOM     83  C   UNL A   1      46.526  25.568  25.741  1.00  0.00     0.198 A 
ATOM     84  C   UNL A   1      46.203  25.668  28.109  1.00  0.00     0.198 A 
ATOM     85  F   UNL A   1      45.692  27.701  29.131  1.00  0.00    -0.203 F 
ATOM     86  F   UNL A   1      46.928  24.890  24.657  1.00  0.00    -0.200 F 
ATOM     87  C   UNL A   1      46.531  24.944  26.980  1.00  0.00     0.200 A 
ATOM     88  F   UNL A   1      46.199  25.080  29.314  1.00  0.00    -0.200 F 
ATOM     89  F   UNL A   1      46.877  23.653  27.089  1.00  0.00    -0.200 F 
ENDBRANCH  65  79
BRANCH  66  90
ATOM     90  C   UNL A   1      41.969  32.201  34.262  1.00  0.00     0.064 A 
ATOM     91  C   UNL A   1      40.679  32.676  34.723  1.00  0.00     0.173 A 
ATOM     92  C   UNL A   1      42.926  32.181  35.292  1.00  0.00     0.173 A 
ATOM     93  F   UNL A   1      39.642  32.805  33.886  1.00  0.00    -0.203 F 
ATOM     94  C   UNL A   1      40.365  32.971  36.068  1.00  0.00     0.198 A 
ATOM     95  C   UNL A   1      42.615  32.521  36.643  1.00  0.00     0.198 A 
ATOM     96  F   UNL A   1      44.163  31.740  35.039  1.00  0.00    -0.203 F 
ATOM     97  F   UNL A   1      39.103  33.273  36.421  1.00  0.00    -0.200 F 
ATOM     98  C   UNL A   1      41.333  32.877  37.036  1.00  0.00     0.200 A 
ATOM     99  F   UNL A   1      43.561  32.428  37.591  1.00  0.00    -0.200 F 
ATOM    100  F   UNL A   1      41.029  33.091  38.326  1.00  0.00    -0.200 F 
ENDBRANCH  66  90
BRANCH  78 101
ATOM    101  C   UNL A   1      46.393  29.892  31.144  1.00  0.00     0.064 A 
ATOM    102  C   UNL A   1      45.844  28.711  31.701  1.00  0.00     0.173 A 
ATOM    103  C   UNL A   1      47.773  30.064  31.319  1.00  0.00     0.173 A 
ATOM    104  F   UNL A   1      44.559  28.373  31.532  1.00  0.00    -0.203 F 
ATOM    105  C   UNL A   1      46.618  27.815  32.445  1.00  0.00     0.198 A 
ATOM    106  C   UNL A   1      48.553  29.142  32.016  1.00  0.00     0.198 A 
ATOM    107  F   UNL A   1      48.384  31.133  30.786  1.00  0.00    -0.203 F 
ATOM    108  F   UNL A   1      46.048  26.739  33.011  1.00  0.00    -0.200 F 
ATOM    109  C   UNL A   1      47.972  28.032  32.600  1.00  0.00     0.200 A 
ATOM    110  F   UNL A   1      49.874  29.339  32.116  1.00  0.00    -0.200 F 
ATOM    111  F   UNL A   1      48.723  27.167  33.298  1.00  0.00    -0.200 F 
ENDBRANCH  78 101
ENDBRANCH  52  53
ENDBRANCH  45  47
ENDBRANCH  44  45
ENDBRANCH  43  44
ENDBRANCH  42  43
ENDBRANCH  41  42
ENDBRANCH  40  41
ENDBRANCH  39  40
ENDBRANCH   1  39
TORSDOF 25
ENDMDL
