MODEL 1
REMARK VINA RESULT:     -10.6      0.000      0.000
REMARK SMILES CSc1ncc(Cl)c(C(=O)Nc2ccsc2C(=O)OCCOCCOCCOC(=O)c2ccc(-c3c4nc(c(-c5c(F)c(F)c(F)c(F)c5F)c5ccc([nH]5)c(-c5c(F)c(F)c(F)c(F)c5F)c5nc(c(-c6c(F)c(F)c(F)c(F)c6F)c6ccc3[nH]6)C=C5)C=C4)cc2)n1
REMARK SMILES IDX 23 1 22 2 21 3 20 4 19 5 17 6 18 7 16 8 12 9 13 10 14 11
REMARK SMILES IDX 15 12 11 13 9 14 10 15 8 17 3 18 4 19 94 20 5 21 6 22 7 23
REMARK SMILES IDX 2 24 1 25 24 26 25 27 26 28 27 29 28 30 29 31 30 32 31 33
REMARK SMILES IDX 32 34 93 35 33 36 92 37 34 38 35 39 36 40 86 41 37 42 91 43
REMARK SMILES IDX 85 44 87 45 38 46 90 47 84 48 83 49 39 51 71 52 51 53 70 54
REMARK SMILES IDX 52 55 55 56 69 57 88 58 53 59 54 60 68 62 89 63 56 64 40 65
REMARK SMILES IDX 41 66 49 67 42 68 43 69 47 70 50 71 44 72 45 73 48 74 46 75
REMARK SMILES IDX 72 76 73 77 81 78 74 79 75 80 79 81 82 82 76 83 77 84 80 85
REMARK SMILES IDX 78 86 57 87 58 88 66 89 59 90 60 91 64 92 67 93 61 94 62 95
REMARK SMILES IDX 65 96 63 97
REMARK H PARENT 11 16 87 50 55 61
REMARK Flexibility Score: inf
ROOT
ATOM      1  C   UNL A   1      35.476  32.325  28.264  1.00  0.00     0.188 C 
ENDROOT
BRANCH   1   2
ATOM      2  O   UNL A   1      35.100  31.375  27.272  1.00  0.00    -0.376 OA
BRANCH   2   3
ATOM      3  C   UNL A   1      33.836  30.738  27.330  1.00  0.00     0.202 C 
BRANCH   3   4
ATOM      4  C   UNL A   1      33.738  29.379  26.633  1.00  0.00     0.261 C 
BRANCH   4   5
ATOM      5  O   UNL A   1      32.478  29.131  25.979  1.00  0.00    -0.459 OA
BRANCH   5   6
ATOM      6  C   UNL A   1      31.716  28.140  26.541  1.00  0.00     0.350 C 
ATOM      7  O   UNL A   1      31.639  27.952  27.751  1.00  0.00    -0.245 OA
BRANCH   6   8
ATOM      8  C   UNL A   1      31.006  27.364  25.526  1.00  0.00     0.136 A 
ATOM      9  C   UNL A   1      30.528  26.052  25.473  1.00  0.00     0.067 A 
ATOM     10  C   UNL A   1      29.811  25.814  24.256  1.00  0.00     0.039 A 
ATOM     11  C   UNL A   1      29.897  26.857  23.367  1.00  0.00     0.068 A 
ATOM     12  S   UNL A   1      30.731  28.179  24.026  1.00  0.00    -0.135 S 
BRANCH   9  13
ATOM     13  N   UNL A   1      30.719  25.134  26.501  1.00  0.00    -0.319 N 
ATOM     14  C   UNL A   1      31.380  23.920  26.556  1.00  0.00     0.276 C 
ATOM     15  O   UNL A   1      31.254  23.250  27.584  1.00  0.00    -0.267 OA
ATOM     16  H   UNL A   1      30.303  25.399  27.352  1.00  0.00     0.170 HD
BRANCH  14  17
ATOM     17  C   UNL A   1      32.295  23.394  25.494  1.00  0.00     0.151 A 
ATOM     18  C   UNL A   1      32.811  21.538  24.223  1.00  0.00     0.188 A 
ATOM     19  N   UNL A   1      33.917  22.109  23.725  1.00  0.00    -0.230 NA
ATOM     20  N   UNL A   1      31.956  22.148  25.055  1.00  0.00    -0.216 NA
ATOM     21  C   UNL A   1      34.221  23.334  24.188  1.00  0.00     0.137 A 
ATOM     22  C   UNL A   1      33.471  24.018  25.120  1.00  0.00     0.090 A 
ATOM     23  Cl  UNL A   1      34.108  25.474  25.751  1.00  0.00    -0.080 Cl
BRANCH  18  24
ATOM     24  S   UNL A   1      32.528  19.828  23.851  1.00  0.00    -0.090 SA
ATOM     25  C   UNL A   1      33.967  19.113  24.694  1.00  0.00     0.094 C 
ENDBRANCH  18  24
ENDBRANCH  14  17
ENDBRANCH   9  13
ENDBRANCH   6   8
ENDBRANCH   5   6
ENDBRANCH   4   5
ENDBRANCH   3   4
ENDBRANCH   2   3
ENDBRANCH   1   2
BRANCH   1  26
ATOM     26  C   UNL A   1      35.288  33.836  28.056  1.00  0.00     0.188 C 
BRANCH  26  27
ATOM     27  O   UNL A   1      34.350  34.443  28.929  1.00  0.00    -0.376 OA
BRANCH  27  28
ATOM     28  C   UNL A   1      34.004  35.786  28.615  1.00  0.00     0.202 C 
BRANCH  28  29
ATOM     29  C   UNL A   1      32.903  36.297  29.548  1.00  0.00     0.261 C 
BRANCH  29  30
ATOM     30  O   UNL A   1      32.502  35.352  30.555  1.00  0.00    -0.460 OA
BRANCH  30  31
ATOM     31  C   UNL A   1      32.661  35.738  31.840  1.00  0.00     0.338 C 
ATOM     32  O   UNL A   1      31.916  36.439  32.500  1.00  0.00    -0.246 OA
BRANCH  31  33
ATOM     33  C   UNL A   1      33.827  35.023  32.393  1.00  0.00     0.060 A 
ATOM     34  C   UNL A   1      35.090  35.615  32.283  1.00  0.00     0.016 A 
ATOM     35  C   UNL A   1      33.680  33.773  33.000  1.00  0.00     0.016 A 
ATOM     36  C   UNL A   1      36.217  34.949  32.764  1.00  0.00     0.010 A 
ATOM     37  C   UNL A   1      34.810  33.098  33.462  1.00  0.00     0.010 A 
ATOM     38  C   UNL A   1      36.087  33.673  33.327  1.00  0.00    -0.014 A 
BRANCH  38  39
ATOM     39  C   UNL A   1      37.292  32.869  33.637  1.00  0.00     0.031 A 
ATOM     40  C   UNL A   1      38.043  33.155  34.906  1.00  0.00     0.074 A 
ATOM     41  C   UNL A   1      37.716  31.905  32.803  1.00  0.00     0.049 A 
ATOM     42  N   UNL A   1      39.159  32.633  35.348  1.00  0.00    -0.248 NA
ATOM     43  C   UNL A   1      37.453  34.164  35.801  1.00  0.00     0.031 C 
ATOM     44  C   UNL A   1      37.058  31.511  31.560  1.00  0.00     0.029 A 
ATOM     45  N   UNL A   1      38.819  31.090  32.875  1.00  0.00    -0.354 N 
ATOM     46  C   UNL A   1      39.401  33.243  36.571  1.00  0.00     0.074 A 
ATOM     47  C   UNL A   1      38.334  34.197  36.789  1.00  0.00     0.031 C 
ATOM     48  C   UNL A   1      37.785  30.546  30.970  1.00  0.00     0.029 A 
ATOM     49  C   UNL A   1      38.971  30.275  31.780  1.00  0.00     0.049 A 
ATOM     50  H   UNL A   1      39.441  31.090  33.638  1.00  0.00     0.167 HD
ATOM     51  C   UNL A   1      40.416  33.020  37.438  1.00  0.00     0.037 A 
ATOM     52  C   UNL A   1      39.971  29.432  31.460  1.00  0.00     0.037 A 
ATOM     53  C   UNL A   1      41.489  32.091  37.216  1.00  0.00     0.049 A 
ATOM     54  C   UNL A   1      41.135  29.263  32.405  1.00  0.00     0.074 A 
ATOM     55  C   UNL A   1      42.573  31.810  38.029  1.00  0.00     0.029 A 
ATOM     56  N   UNL A   1      41.617  31.294  36.088  1.00  0.00    -0.354 N 
ATOM     57  N   UNL A   1      41.348  29.832  33.567  1.00  0.00    -0.248 NA
ATOM     58  C   UNL A   1      42.197  28.333  31.992  1.00  0.00     0.031 C 
ATOM     59  C   UNL A   1      43.376  30.868  37.378  1.00  0.00     0.029 A 
ATOM     60  C   UNL A   1      42.769  30.530  36.179  1.00  0.00     0.049 A 
ATOM     61  H   UNL A   1      40.983  31.273  35.335  1.00  0.00     0.167 HD
ATOM     62  C   UNL A   1      42.548  29.310  34.034  1.00  0.00     0.074 A 
ATOM     63  C   UNL A   1      43.013  28.369  33.037  1.00  0.00     0.031 C 
ATOM     64  C   UNL A   1      43.209  29.587  35.184  1.00  0.00     0.037 A 
BRANCH  51  65
ATOM     65  C   UNL A   1      40.416  33.811  38.712  1.00  0.00     0.064 A 
ATOM     66  C   UNL A   1      41.186  34.977  38.844  1.00  0.00     0.173 A 
ATOM     67  C   UNL A   1      39.614  33.424  39.794  1.00  0.00     0.173 A 
ATOM     68  F   UNL A   1      41.983  35.376  37.842  1.00  0.00    -0.203 F 
ATOM     69  C   UNL A   1      41.164  35.717  40.022  1.00  0.00     0.198 A 
ATOM     70  C   UNL A   1      39.576  34.181  40.962  1.00  0.00     0.198 A 
ATOM     71  F   UNL A   1      38.859  32.318  39.715  1.00  0.00    -0.203 F 
ATOM     72  F   UNL A   1      41.935  36.807  40.141  1.00  0.00    -0.200 F 
ATOM     73  C   UNL A   1      40.354  35.322  41.077  1.00  0.00     0.200 A 
ATOM     74  F   UNL A   1      38.787  33.803  41.978  1.00  0.00    -0.200 F 
ATOM     75  F   UNL A   1      40.328  36.041  42.208  1.00  0.00    -0.200 F 
ENDBRANCH  51  65
BRANCH  52  76
ATOM     76  C   UNL A   1      39.941  28.695  30.170  1.00  0.00     0.064 A 
ATOM     77  C   UNL A   1      39.367  27.420  30.075  1.00  0.00     0.173 A 
ATOM     78  C   UNL A   1      40.530  29.234  29.016  1.00  0.00     0.173 A 
ATOM     79  F   UNL A   1      38.821  26.850  31.160  1.00  0.00    -0.203 F 
ATOM     80  C   UNL A   1      39.404  26.702  28.882  1.00  0.00     0.198 A 
ATOM     81  C   UNL A   1      40.542  28.526  27.816  1.00  0.00     0.198 A 
ATOM     82  F   UNL A   1      41.099  30.447  29.056  1.00  0.00    -0.203 F 
ATOM     83  F   UNL A   1      38.900  25.460  28.834  1.00  0.00    -0.200 F 
ATOM     84  C   UNL A   1      39.988  27.255  27.752  1.00  0.00     0.200 A 
ATOM     85  F   UNL A   1      41.102  29.067  26.727  1.00  0.00    -0.200 F 
ATOM     86  F   UNL A   1      40.031  26.560  26.608  1.00  0.00    -0.200 F 
ENDBRANCH  52  76
BRANCH  64  87
ATOM     87  C   UNL A   1      44.483  28.839  35.449  1.00  0.00     0.064 A 
ATOM     88  C   UNL A   1      44.486  27.601  36.107  1.00  0.00     0.173 A 
ATOM     89  C   UNL A   1      45.710  29.347  34.994  1.00  0.00     0.173 A 
ATOM     90  F   UNL A   1      43.340  27.082  36.572  1.00  0.00    -0.203 F 
ATOM     91  C   UNL A   1      45.675  26.907  36.318  1.00  0.00     0.198 A 
ATOM     92  C   UNL A   1      46.893  28.638  35.184  1.00  0.00     0.198 A 
ATOM     93  F   UNL A   1      45.760  30.523  34.353  1.00  0.00    -0.203 F 
ATOM     94  F   UNL A   1      45.659  25.744  36.983  1.00  0.00    -0.200 F 
ATOM     95  C   UNL A   1      46.875  27.421  35.850  1.00  0.00     0.200 A 
ATOM     96  F   UNL A   1      48.049  29.130  34.722  1.00  0.00    -0.200 F 
ATOM     97  F   UNL A   1      48.017  26.748  36.048  1.00  0.00    -0.200 F 
ENDBRANCH  64  87
ENDBRANCH  38  39
ENDBRANCH  31  33
ENDBRANCH  30  31
ENDBRANCH  29  30
ENDBRANCH  28  29
ENDBRANCH  27  28
ENDBRANCH  26  27
ENDBRANCH   1  26
TORSDOF 20
ENDMDL
MODEL 2
REMARK VINA RESULT:     -10.3      2.039      3.219
REMARK SMILES CSc1ncc(Cl)c(C(=O)Nc2ccsc2C(=O)OCCOCCOCCOC(=O)c2ccc(-c3c4nc(c(-c5c(F)c(F)c(F)c(F)c5F)c5ccc([nH]5)c(-c5c(F)c(F)c(F)c(F)c5F)c5nc(c(-c6c(F)c(F)c(F)c(F)c6F)c6ccc3[nH]6)C=C5)C=C4)cc2)n1
REMARK SMILES IDX 23 1 22 2 21 3 20 4 19 5 17 6 18 7 16 8 12 9 13 10 14 11
REMARK SMILES IDX 15 12 11 13 9 14 10 15 8 17 3 18 4 19 94 20 5 21 6 22 7 23
REMARK SMILES IDX 2 24 1 25 24 26 25 27 26 28 27 29 28 30 29 31 30 32 31 33
REMARK SMILES IDX 32 34 93 35 33 36 92 37 34 38 35 39 36 40 86 41 37 42 91 43
REMARK SMILES IDX 85 44 87 45 38 46 90 47 84 48 83 49 39 51 71 52 51 53 70 54
REMARK SMILES IDX 52 55 55 56 69 57 88 58 53 59 54 60 68 62 89 63 56 64 40 65
REMARK SMILES IDX 41 66 49 67 42 68 43 69 47 70 50 71 44 72 45 73 48 74 46 75
REMARK SMILES IDX 72 76 73 77 81 78 74 79 75 80 79 81 82 82 76 83 77 84 80 85
REMARK SMILES IDX 78 86 57 87 58 88 66 89 59 90 60 91 64 92 67 93 61 94 62 95
REMARK SMILES IDX 65 96 63 97
REMARK H PARENT 11 16 87 50 55 61
REMARK Flexibility Score: inf
ROOT
ATOM      1  C   UNL A   1      31.793  29.161  26.539  1.00  0.00     0.188 C 
ENDROOT
BRANCH   1   2
ATOM      2  O   UNL A   1      33.097  28.590  26.579  1.00  0.00    -0.376 OA
BRANCH   2   3
ATOM      3  C   UNL A   1      33.643  27.965  25.430  1.00  0.00     0.202 C 
BRANCH   3   4
ATOM      4  C   UNL A   1      33.997  26.484  25.579  1.00  0.00     0.261 C 
BRANCH   4   5
ATOM      5  O   UNL A   1      33.306  25.609  24.665  1.00  0.00    -0.459 OA
BRANCH   5   6
ATOM      6  C   UNL A   1      34.113  24.784  23.927  1.00  0.00     0.350 C 
ATOM      7  O   UNL A   1      34.301  24.925  22.722  1.00  0.00    -0.245 OA
BRANCH   6   8
ATOM      8  C   UNL A   1      34.725  23.746  24.753  1.00  0.00     0.136 A 
ATOM      9  C   UNL A   1      34.218  22.800  25.649  1.00  0.00     0.067 A 
ATOM     10  C   UNL A   1      35.258  21.943  26.136  1.00  0.00     0.039 A 
ATOM     11  C   UNL A   1      36.513  22.344  25.748  1.00  0.00     0.068 A 
ATOM     12  S   UNL A   1      36.452  23.673  24.697  1.00  0.00    -0.135 S 
BRANCH   9  13
ATOM     13  N   UNL A   1      32.869  22.714  25.976  1.00  0.00    -0.319 N 
ATOM     14  C   UNL A   1      31.853  21.885  25.534  1.00  0.00     0.276 C 
ATOM     15  O   UNL A   1      30.706  22.145  25.906  1.00  0.00    -0.267 OA
ATOM     16  H   UNL A   1      32.582  23.369  26.652  1.00  0.00     0.170 HD
BRANCH  14  17
ATOM     17  C   UNL A   1      32.051  20.657  24.701  1.00  0.00     0.151 A 
ATOM     18  C   UNL A   1      32.499  18.394  24.786  1.00  0.00     0.188 A 
ATOM     19  N   UNL A   1      32.636  18.308  23.456  1.00  0.00    -0.230 NA
ATOM     20  N   UNL A   1      32.162  19.514  25.439  1.00  0.00    -0.216 NA
ATOM     21  C   UNL A   1      32.527  19.456  22.765  1.00  0.00     0.137 A 
ATOM     22  C   UNL A   1      32.283  20.685  23.339  1.00  0.00     0.090 A 
ATOM     23  Cl  UNL A   1      32.379  22.070  22.341  1.00  0.00    -0.080 Cl
BRANCH  18  24
ATOM     24  S   UNL A   1      32.906  16.964  25.751  1.00  0.00    -0.090 SA
ATOM     25  C   UNL A   1      33.351  15.831  24.404  1.00  0.00     0.094 C 
ENDBRANCH  18  24
ENDBRANCH  14  17
ENDBRANCH   9  13
ENDBRANCH   6   8
ENDBRANCH   5   6
ENDBRANCH   4   5
ENDBRANCH   3   4
ENDBRANCH   2   3
ENDBRANCH   1   2
BRANCH   1  26
ATOM     26  C   UNL A   1      31.471  30.398  25.685  1.00  0.00     0.188 C 
BRANCH  26  27
ATOM     27  O   UNL A   1      31.383  31.613  26.409  1.00  0.00    -0.376 OA
BRANCH  27  28
ATOM     28  C   UNL A   1      32.463  31.876  27.296  1.00  0.00     0.202 C 
BRANCH  28  29
ATOM     29  C   UNL A   1      32.868  33.351  27.240  1.00  0.00     0.261 C 
BRANCH  29  30
ATOM     30  O   UNL A   1      32.184  34.183  28.193  1.00  0.00    -0.460 OA
BRANCH  30  31
ATOM     31  C   UNL A   1      32.908  35.178  28.752  1.00  0.00     0.338 C 
ATOM     32  O   UNL A   1      32.631  36.364  28.789  1.00  0.00    -0.246 OA
BRANCH  31  33
ATOM     33  C   UNL A   1      34.040  34.573  29.478  1.00  0.00     0.060 A 
ATOM     34  C   UNL A   1      35.313  34.627  28.901  1.00  0.00     0.016 A 
ATOM     35  C   UNL A   1      33.845  33.940  30.708  1.00  0.00     0.016 A 
ATOM     36  C   UNL A   1      36.398  34.033  29.544  1.00  0.00     0.010 A 
ATOM     37  C   UNL A   1      34.927  33.328  31.342  1.00  0.00     0.010 A 
ATOM     38  C   UNL A   1      36.204  33.352  30.753  1.00  0.00    -0.014 A 
BRANCH  38  39
ATOM     39  C   UNL A   1      37.296  32.534  31.330  1.00  0.00     0.031 A 
ATOM     40  C   UNL A   1      37.827  32.894  32.689  1.00  0.00     0.074 A 
ATOM     41  C   UNL A   1      37.812  31.492  30.657  1.00  0.00     0.049 A 
ATOM     42  N   UNL A   1      38.822  32.371  33.359  1.00  0.00    -0.248 NA
ATOM     43  C   UNL A   1      37.140  33.992  33.389  1.00  0.00     0.031 C 
ATOM     44  C   UNL A   1      37.363  31.023  29.349  1.00  0.00     0.029 A 
ATOM     45  N   UNL A   1      38.844  30.647  30.984  1.00  0.00    -0.354 N 
ATOM     46  C   UNL A   1      38.876  33.068  34.558  1.00  0.00     0.074 A 
ATOM     47  C   UNL A   1      37.836  34.074  34.513  1.00  0.00     0.031 C 
ATOM     48  C   UNL A   1      38.134  29.988  28.970  1.00  0.00     0.029 A 
ATOM     49  C   UNL A   1      39.146  29.742  29.996  1.00  0.00     0.049 A 
ATOM     50  H   UNL A   1      39.323  30.687  31.844  1.00  0.00     0.167 HD
ATOM     51  C   UNL A   1      39.712  32.881  35.606  1.00  0.00     0.037 A 
ATOM     52  C   UNL A   1      40.144  28.841  29.921  1.00  0.00     0.037 A 
ATOM     53  C   UNL A   1      40.761  31.899  35.646  1.00  0.00     0.049 A 
ATOM     54  C   UNL A   1      41.115  28.709  31.068  1.00  0.00     0.074 A 
ATOM     55  C   UNL A   1      41.671  31.647  36.657  1.00  0.00     0.029 A 
ATOM     56  N   UNL A   1      41.045  31.010  34.619  1.00  0.00    -0.354 N 
ATOM     57  N   UNL A   1      41.150  29.361  32.205  1.00  0.00    -0.248 NA
ATOM     58  C   UNL A   1      42.186  27.711  30.919  1.00  0.00     0.031 C 
ATOM     59  C   UNL A   1      42.529  30.628  36.229  1.00  0.00     0.029 A 
ATOM     60  C   UNL A   1      42.125  30.216  34.970  1.00  0.00     0.049 A 
ATOM     61  H   UNL A   1      40.552  30.951  33.769  1.00  0.00     0.167 HD
ATOM     62  C   UNL A   1      42.223  28.836  32.914  1.00  0.00     0.074 A 
ATOM     63  C   UNL A   1      42.808  27.803  32.087  1.00  0.00     0.031 C 
ATOM     64  C   UNL A   1      42.686  29.182  34.140  1.00  0.00     0.037 A 
BRANCH  51  65
ATOM     65  C   UNL A   1      39.529  33.770  36.798  1.00  0.00     0.064 A 
ATOM     66  C   UNL A   1      40.114  35.044  36.852  1.00  0.00     0.173 A 
ATOM     67  C   UNL A   1      38.731  33.364  37.877  1.00  0.00     0.173 A 
ATOM     68  F   UNL A   1      40.900  35.469  35.851  1.00  0.00    -0.203 F 
ATOM     69  C   UNL A   1      39.921  35.873  37.953  1.00  0.00     0.198 A 
ATOM     70  C   UNL A   1      38.521  34.206  38.966  1.00  0.00     0.198 A 
ATOM     71  F   UNL A   1      38.150  32.156  37.871  1.00  0.00    -0.203 F 
ATOM     72  F   UNL A   1      40.520  37.071  38.001  1.00  0.00    -0.200 F 
ATOM     73  C   UNL A   1      39.120  35.456  39.005  1.00  0.00     0.200 A 
ATOM     74  F   UNL A   1      37.739  33.806  39.979  1.00  0.00    -0.200 F 
ATOM     75  F   UNL A   1      38.928  36.259  40.062  1.00  0.00    -0.200 F 
ENDBRANCH  51  65
BRANCH  52  76
ATOM     76  C   UNL A   1      40.304  28.005  28.703  1.00  0.00     0.064 A 
ATOM     77  C   UNL A   1      39.720  26.734  28.614  1.00  0.00     0.173 A 
ATOM     78  C   UNL A   1      41.085  28.443  27.623  1.00  0.00     0.173 A 
ATOM     79  F   UNL A   1      38.992  26.259  29.635  1.00  0.00    -0.203 F 
ATOM     80  C   UNL A   1      39.932  25.922  27.501  1.00  0.00     0.198 A 
ATOM     81  C   UNL A   1      41.272  27.642  26.498  1.00  0.00     0.198 A 
ATOM     82  F   UNL A   1      41.671  29.648  27.663  1.00  0.00    -0.203 F 
ATOM     83  F   UNL A   1      39.410  24.688  27.466  1.00  0.00    -0.200 F 
ATOM     84  C   UNL A   1      40.704  26.377  26.443  1.00  0.00     0.200 A 
ATOM     85  F   UNL A   1      42.015  28.088  25.477  1.00  0.00    -0.200 F 
ATOM     86  F   UNL A   1      40.914  25.593  25.377  1.00  0.00    -0.200 F 
ENDBRANCH  52  76
BRANCH  64  87
ATOM     87  C   UNL A   1      43.856  28.414  34.681  1.00  0.00     0.064 A 
ATOM     88  C   UNL A   1      45.175  28.844  34.481  1.00  0.00     0.173 A 
ATOM     89  C   UNL A   1      43.650  27.258  35.452  1.00  0.00     0.173 A 
ATOM     90  F   UNL A   1      45.423  29.935  33.740  1.00  0.00    -0.203 F 
ATOM     91  C   UNL A   1      46.247  28.136  35.015  1.00  0.00     0.198 A 
ATOM     92  C   UNL A   1      44.724  26.567  36.006  1.00  0.00     0.198 A 
ATOM     93  F   UNL A   1      42.407  26.809  35.678  1.00  0.00    -0.203 F 
ATOM     94  F   UNL A   1      47.502  28.544  34.779  1.00  0.00    -0.200 F 
ATOM     95  C   UNL A   1      46.022  27.003  35.783  1.00  0.00     0.200 A 
ATOM     96  F   UNL A   1      44.503  25.480  36.757  1.00  0.00    -0.200 F 
ATOM     97  F   UNL A   1      47.055  26.327  36.303  1.00  0.00    -0.200 F 
ENDBRANCH  64  87
ENDBRANCH  38  39
ENDBRANCH  31  33
ENDBRANCH  30  31
ENDBRANCH  29  30
ENDBRANCH  28  29
ENDBRANCH  27  28
ENDBRANCH  26  27
ENDBRANCH   1  26
TORSDOF 20
ENDMDL
MODEL 3
REMARK VINA RESULT:     -10.3      3.772      9.131
REMARK SMILES CSc1ncc(Cl)c(C(=O)Nc2ccsc2C(=O)OCCOCCOCCOC(=O)c2ccc(-c3c4nc(c(-c5c(F)c(F)c(F)c(F)c5F)c5ccc([nH]5)c(-c5c(F)c(F)c(F)c(F)c5F)c5nc(c(-c6c(F)c(F)c(F)c(F)c6F)c6ccc3[nH]6)C=C5)C=C4)cc2)n1
REMARK SMILES IDX 23 1 22 2 21 3 20 4 19 5 17 6 18 7 16 8 12 9 13 10 14 11
REMARK SMILES IDX 15 12 11 13 9 14 10 15 8 17 3 18 4 19 94 20 5 21 6 22 7 23
REMARK SMILES IDX 2 24 1 25 24 26 25 27 26 28 27 29 28 30 29 31 30 32 31 33
REMARK SMILES IDX 32 34 93 35 33 36 92 37 34 38 35 39 36 40 86 41 37 42 91 43
REMARK SMILES IDX 85 44 87 45 38 46 90 47 84 48 83 49 39 51 71 52 51 53 70 54
REMARK SMILES IDX 52 55 55 56 69 57 88 58 53 59 54 60 68 62 89 63 56 64 40 65
REMARK SMILES IDX 41 66 49 67 42 68 43 69 47 70 50 71 44 72 45 73 48 74 46 75
REMARK SMILES IDX 72 76 73 77 81 78 74 79 75 80 79 81 82 82 76 83 77 84 80 85
REMARK SMILES IDX 78 86 57 87 58 88 66 89 59 90 60 91 64 92 67 93 61 94 62 95
REMARK SMILES IDX 65 96 63 97
REMARK H PARENT 11 16 87 50 55 61
REMARK Flexibility Score: inf
ROOT
ATOM      1  C   UNL A   1      39.773  21.888  26.624  1.00  0.00     0.188 C 
ENDROOT
BRANCH   1   2
ATOM      2  O   UNL A   1      38.672  22.264  25.804  1.00  0.00    -0.376 OA
BRANCH   2   3
ATOM      3  C   UNL A   1      37.933  23.439  26.087  1.00  0.00     0.202 C 
BRANCH   3   4
ATOM      4  C   UNL A   1      36.739  23.717  25.171  1.00  0.00     0.261 C 
BRANCH   4   5
ATOM      5  O   UNL A   1      35.457  23.679  25.831  1.00  0.00    -0.459 OA
BRANCH   5   6
ATOM      6  C   UNL A   1      34.532  24.569  25.355  1.00  0.00     0.350 C 
ATOM      7  O   UNL A   1      34.726  25.780  25.299  1.00  0.00    -0.245 OA
BRANCH   6   8
ATOM      8  C   UNL A   1      33.312  23.896  24.913  1.00  0.00     0.136 A 
ATOM      9  C   UNL A   1      32.658  23.792  23.683  1.00  0.00     0.067 A 
ATOM     10  C   UNL A   1      31.522  22.924  23.775  1.00  0.00     0.039 A 
ATOM     11  C   UNL A   1      31.247  22.533  25.062  1.00  0.00     0.068 A 
ATOM     12  S   UNL A   1      32.413  23.097  26.156  1.00  0.00    -0.135 S 
BRANCH   9  13
ATOM     13  N   UNL A   1      33.100  24.439  22.533  1.00  0.00    -0.319 N 
ATOM     14  C   UNL A   1      32.855  25.701  22.021  1.00  0.00     0.276 C 
ATOM     15  O   UNL A   1      33.278  25.946  20.888  1.00  0.00    -0.267 OA
ATOM     16  H   UNL A   1      33.701  23.894  21.977  1.00  0.00     0.170 HD
BRANCH  14  17
ATOM     17  C   UNL A   1      32.184  26.813  22.766  1.00  0.00     0.151 A 
ATOM     18  C   UNL A   1      30.143  27.618  23.481  1.00  0.00     0.188 A 
ATOM     19  N   UNL A   1      30.675  28.775  23.899  1.00  0.00    -0.230 NA
ATOM     20  N   UNL A   1      30.850  26.604  22.965  1.00  0.00    -0.216 NA
ATOM     21  C   UNL A   1      31.991  28.945  23.679  1.00  0.00     0.137 A 
ATOM     22  C   UNL A   1      32.800  28.014  23.066  1.00  0.00     0.090 A 
ATOM     23  Cl  UNL A   1      34.402  28.472  22.680  1.00  0.00    -0.080 Cl
BRANCH  18  24
ATOM     24  S   UNL A   1      28.376  27.470  23.501  1.00  0.00    -0.090 SA
ATOM     25  C   UNL A   1      27.950  29.063  22.743  1.00  0.00     0.094 C 
ENDBRANCH  18  24
ENDBRANCH  14  17
ENDBRANCH   9  13
ENDBRANCH   6   8
ENDBRANCH   5   6
ENDBRANCH   4   5
ENDBRANCH   3   4
ENDBRANCH   2   3
ENDBRANCH   1   2
BRANCH   1  26
ATOM     26  C   UNL A   1      40.442  20.509  26.507  1.00  0.00     0.188 C 
BRANCH  26  27
ATOM     27  O   UNL A   1      41.496  20.438  25.562  1.00  0.00    -0.376 OA
BRANCH  27  28
ATOM     28  C   UNL A   1      42.803  20.330  26.112  1.00  0.00     0.202 C 
BRANCH  28  29
ATOM     29  C   UNL A   1      43.708  21.449  25.590  1.00  0.00     0.261 C 
BRANCH  29  30
ATOM     30  O   UNL A   1      43.011  22.664  25.266  1.00  0.00    -0.460 OA
BRANCH  30  31
ATOM     31  C   UNL A   1      43.762  23.784  25.179  1.00  0.00     0.338 C 
ATOM     32  O   UNL A   1      44.470  24.131  24.251  1.00  0.00    -0.246 OA
BRANCH  31  33
ATOM     33  C   UNL A   1      43.457  24.633  26.346  1.00  0.00     0.060 A 
ATOM     34  C   UNL A   1      42.540  24.166  27.294  1.00  0.00     0.016 A 
ATOM     35  C   UNL A   1      44.055  25.887  26.496  1.00  0.00     0.016 A 
ATOM     36  C   UNL A   1      42.203  24.959  28.391  1.00  0.00     0.010 A 
ATOM     37  C   UNL A   1      43.702  26.689  27.582  1.00  0.00     0.010 A 
ATOM     38  C   UNL A   1      42.759  26.238  28.523  1.00  0.00    -0.014 A 
BRANCH  38  39
ATOM     39  C   UNL A   1      42.245  27.170  29.554  1.00  0.00     0.031 A 
ATOM     40  C   UNL A   1      42.922  27.207  30.895  1.00  0.00     0.074 A 
ATOM     41  C   UNL A   1      41.192  27.967  29.306  1.00  0.00     0.049 A 
ATOM     42  N   UNL A   1      42.606  27.884  31.969  1.00  0.00    -0.248 NA
ATOM     43  C   UNL A   1      44.123  26.368  31.043  1.00  0.00     0.031 C 
ATOM     44  C   UNL A   1      40.471  28.047  28.039  1.00  0.00     0.029 A 
ATOM     45  N   UNL A   1      40.537  28.853  30.126  1.00  0.00    -0.354 N 
ATOM     46  C   UNL A   1      43.568  27.560  32.915  1.00  0.00     0.074 A 
ATOM     47  C   UNL A   1      44.462  26.601  32.302  1.00  0.00     0.031 C 
ATOM     48  C   UNL A   1      39.454  28.917  28.172  1.00  0.00     0.029 A 
ATOM     49  C   UNL A   1      39.438  29.431  29.541  1.00  0.00     0.049 A 
ATOM     50  H   UNL A   1      40.828  29.054  31.045  1.00  0.00     0.167 HD
ATOM     51  C   UNL A   1      43.699  28.027  34.179  1.00  0.00     0.037 A 
ATOM     52  C   UNL A   1      38.510  30.256  30.064  1.00  0.00     0.037 A 
ATOM     53  C   UNL A   1      42.800  28.962  34.799  1.00  0.00     0.049 A 
ATOM     54  C   UNL A   1      38.632  30.696  31.502  1.00  0.00     0.074 A 
ATOM     55  C   UNL A   1      42.841  29.478  36.082  1.00  0.00     0.029 A 
ATOM     56  N   UNL A   1      41.689  29.514  34.179  1.00  0.00    -0.354 N 
ATOM     57  N   UNL A   1      39.553  30.398  32.385  1.00  0.00    -0.248 NA
ATOM     58  C   UNL A   1      37.582  31.592  32.013  1.00  0.00     0.031 C 
ATOM     59  C   UNL A   1      41.735  30.318  36.250  1.00  0.00     0.029 A 
ATOM     60  C   UNL A   1      41.030  30.357  35.059  1.00  0.00     0.049 A 
ATOM     61  H   UNL A   1      41.411  29.334  33.252  1.00  0.00     0.167 HD
ATOM     62  C   UNL A   1      39.211  31.087  33.542  1.00  0.00     0.074 A 
ATOM     63  C   UNL A   1      38.004  31.829  33.248  1.00  0.00     0.031 C 
ATOM     64  C   UNL A   1      39.838  31.101  34.744  1.00  0.00     0.037 A 
BRANCH  51  65
ATOM     65  C   UNL A   1      44.859  27.520  34.981  1.00  0.00     0.064 A 
ATOM     66  C   UNL A   1      44.760  26.345  35.741  1.00  0.00     0.173 A 
ATOM     67  C   UNL A   1      46.089  28.191  34.961  1.00  0.00     0.173 A 
ATOM     68  F   UNL A   1      43.597  25.679  35.805  1.00  0.00    -0.203 F 
ATOM     69  C   UNL A   1      45.849  25.869  36.466  1.00  0.00     0.198 A 
ATOM     70  C   UNL A   1      47.183  27.699  35.668  1.00  0.00     0.198 A 
ATOM     71  F   UNL A   1      46.234  29.318  34.248  1.00  0.00    -0.203 F 
ATOM     72  F   UNL A   1      45.722  24.765  37.215  1.00  0.00    -0.200 F 
ATOM     73  C   UNL A   1      47.060  26.543  36.423  1.00  0.00     0.200 A 
ATOM     74  F   UNL A   1      48.356  28.346  35.619  1.00  0.00    -0.200 F 
ATOM     75  F   UNL A   1      48.111  26.079  37.116  1.00  0.00    -0.200 F 
ENDBRANCH  51  65
BRANCH  52  76
ATOM     76  C   UNL A   1      37.360  30.704  29.238  1.00  0.00     0.064 A 
ATOM     77  C   UNL A   1      37.284  32.016  28.751  1.00  0.00     0.173 A 
ATOM     78  C   UNL A   1      36.290  29.841  28.958  1.00  0.00     0.173 A 
ATOM     79  F   UNL A   1      38.267  32.888  29.019  1.00  0.00    -0.203 F 
ATOM     80  C   UNL A   1      36.170  32.455  28.038  1.00  0.00     0.198 A 
ATOM     81  C   UNL A   1      35.190  30.273  28.221  1.00  0.00     0.198 A 
ATOM     82  F   UNL A   1      36.311  28.578  29.408  1.00  0.00    -0.203 F 
ATOM     83  F   UNL A   1      36.096  33.731  27.634  1.00  0.00    -0.200 F 
ATOM     84  C   UNL A   1      35.125  31.583  27.770  1.00  0.00     0.200 A 
ATOM     85  F   UNL A   1      34.186  29.425  27.961  1.00  0.00    -0.200 F 
ATOM     86  F   UNL A   1      34.051  32.008  27.091  1.00  0.00    -0.200 F 
ENDBRANCH  52  76
BRANCH  64  87
ATOM     87  C   UNL A   1      39.258  31.973  35.818  1.00  0.00     0.064 A 
ATOM     88  C   UNL A   1      38.303  31.488  36.724  1.00  0.00     0.173 A 
ATOM     89  C   UNL A   1      39.700  33.296  35.973  1.00  0.00     0.173 A 
ATOM     90  F   UNL A   1      37.839  30.234  36.608  1.00  0.00    -0.203 F 
ATOM     91  C   UNL A   1      37.797  32.302  37.733  1.00  0.00     0.198 A 
ATOM     92  C   UNL A   1      39.211  34.099  37.000  1.00  0.00     0.198 A 
ATOM     93  F   UNL A   1      40.617  33.805  35.137  1.00  0.00    -0.203 F 
ATOM     94  F   UNL A   1      36.858  31.830  38.564  1.00  0.00    -0.200 F 
ATOM     95  C   UNL A   1      38.257  33.603  37.876  1.00  0.00     0.200 A 
ATOM     96  F   UNL A   1      39.664  35.352  37.142  1.00  0.00    -0.200 F 
ATOM     97  F   UNL A   1      37.774  34.383  38.853  1.00  0.00    -0.200 F 
ENDBRANCH  64  87
ENDBRANCH  38  39
ENDBRANCH  31  33
ENDBRANCH  30  31
ENDBRANCH  29  30
ENDBRANCH  28  29
ENDBRANCH  27  28
ENDBRANCH  26  27
ENDBRANCH   1  26
TORSDOF 20
ENDMDL
