MODEL 1
REMARK VINA RESULT:     -14.3      0.000      0.000
REMARK SMILES Cc1ccc(NC(=O)C[C@@H](C(=O)OCCOCCOCCOC(=O)c2ccc(-c3c4nc(c(-c5c(F)c(F)c(F)c(F)c5F)c5ccc([nH]5)c(-c5c(F)c(F)c(F)c(F)c5F)c5nc(c(-c6c(F)c(F)c(F)c(F)c6F)c6ccc3[nH]6)C=C5)C=C4)cc2)[NH+]2CCOCC2)cc1
REMARK SMILES IDX 17 1 16 2 15 3 14 4 13 5 11 6 12 7 10 8 9 9 7 10 6 11 8 13
REMARK SMILES IDX 5 14 1 15 2 16 3 17 95 18 4 19 94 20 88 21 89 22 93 23 90 25
REMARK SMILES IDX 92 26 91 27 18 28 19 29 20 30 21 31 22 32 23 33 24 34 25 35
REMARK SMILES IDX 26 36 87 37 27 38 86 39 28 40 29 41 30 42 80 43 31 44 85 45
REMARK SMILES IDX 79 46 81 47 32 48 84 49 78 50 77 51 33 53 65 54 45 55 64 56
REMARK SMILES IDX 46 57 49 58 63 59 82 60 47 61 48 62 62 64 83 65 50 66 34 67
REMARK SMILES IDX 35 68 43 69 36 70 37 71 41 72 44 73 38 74 39 75 42 76 40 77
REMARK SMILES IDX 66 78 67 79 75 80 68 81 69 82 73 83 76 84 70 85 71 86 74 87
REMARK SMILES IDX 72 88 51 89 52 90 60 91 53 92 54 93 58 94 61 95 55 96 56 97
REMARK SMILES IDX 59 98 57 99
REMARK H PARENT 6 12 88 24 81 52 49 63
REMARK Flexibility Score: inf
ROOT
ATOM      1  C   UNL A   1      32.850  35.587  28.971  1.00  0.00     0.188 C 
ENDROOT
BRANCH   1   2
ATOM      2  O   UNL A   1      33.080  34.142  29.019  1.00  0.00    -0.376 OA
BRANCH   2   3
ATOM      3  C   UNL A   1      34.457  33.285  28.435  1.00  0.00     0.202 C 
BRANCH   3   4
ATOM      4  C   UNL A   1      34.660  31.143  27.844  1.00  0.00     0.261 C 
BRANCH   4   5
ATOM      5  O   UNL A   1      33.924  29.884  26.628  1.00  0.00    -0.459 OA
BRANCH   5   6
ATOM      6  C   UNL A   1      32.924  29.014  25.534  1.00  0.00     0.365 C 
ATOM      7  O   UNL A   1      31.946  29.521  24.989  1.00  0.00    -0.245 OA
BRANCH   6   8
ATOM      8  C   UNL A   1      33.108  27.183  25.023  1.00  0.00     0.304 C 
BRANCH   8   9
ATOM      9  C   UNL A   1      33.916  26.588  23.447  1.00  0.00     0.177 C 
BRANCH   9  10
ATOM     10  C   UNL A   1      33.239  25.603  21.972  1.00  0.00     0.231 C 
ATOM     11  N   UNL A   1      32.833  24.146  21.799  1.00  0.00    -0.326 N 
ATOM     12  H   UNL A   1      32.234  24.050  21.023  1.00  0.00     0.169 HD
ATOM     13  O   UNL A   1      32.980  26.303  20.970  1.00  0.00    -0.274 OA
BRANCH  11  14
ATOM     14  C   UNL A   1      33.070  22.769  22.464  1.00  0.00     0.041 A 
ATOM     15  C   UNL A   1      34.240  18.351  24.749  1.00  0.00     0.044 C 
ATOM     16  C   UNL A   1      33.499  19.612  24.354  1.00  0.00    -0.051 A 
ATOM     17  C   UNL A   1      34.520  20.976  24.688  1.00  0.00     0.005 A 
ATOM     18  C   UNL A   1      32.215  19.809  23.142  1.00  0.00     0.005 A 
ATOM     19  C   UNL A   1      34.382  22.471  23.653  1.00  0.00     0.026 A 
ATOM     20  C   UNL A   1      32.038  21.339  22.171  1.00  0.00     0.026 A 
ENDBRANCH  11  14
ENDBRANCH   9  10
ENDBRANCH   8   9
BRANCH   8  21
ATOM     21  N   UNL A   1      31.780  26.501  25.384  1.00  0.00    -0.319 N 
ATOM     22  C   UNL A   1      31.744  25.489  26.459  1.00  0.00     0.291 C 
ATOM     23  C   UNL A   1      30.721  26.180  24.419  1.00  0.00     0.291 C 
ATOM     24  H   UNL A   1      31.538  27.433  25.719  1.00  0.00     0.348 HD
ATOM     25  C   UNL A   1      31.766  24.059  25.921  1.00  0.00     0.221 C 
ATOM     26  C   UNL A   1      30.418  24.689  24.110  1.00  0.00     0.221 C 
ATOM     27  O   UNL A   1      30.544  23.806  25.228  1.00  0.00    -0.370 OA
ENDBRANCH   8  21
ENDBRANCH   6   8
ENDBRANCH   5   6
ENDBRANCH   4   5
ENDBRANCH   3   4
ENDBRANCH   2   3
ENDBRANCH   1   2
BRANCH   1  28
ATOM     28  C   UNL A   1      33.093  36.392  30.217  1.00  0.00     0.188 C 
BRANCH  28  29
ATOM     29  O   UNL A   1      32.510  35.732  31.315  1.00  0.00    -0.376 OA
BRANCH  29  30
ATOM     30  C   UNL A   1      33.435  35.488  32.353  1.00  0.00     0.202 C 
BRANCH  30  31
ATOM     31  C   UNL A   1      34.169  34.162  32.086  1.00  0.00     0.261 C 
BRANCH  31  32
ATOM     32  O   UNL A   1      35.490  34.187  32.702  1.00  0.00    -0.460 OA
BRANCH  32  33
ATOM     33  C   UNL A   1      35.972  33.023  33.267  1.00  0.00     0.338 C 
ATOM     34  O   UNL A   1      36.324  32.911  34.430  1.00  0.00    -0.246 OA
BRANCH  33  35
ATOM     35  C   UNL A   1      36.309  32.003  32.196  1.00  0.00     0.060 A 
ATOM     36  C   UNL A   1      36.205  30.605  32.399  1.00  0.00     0.016 A 
ATOM     37  C   UNL A   1      37.238  32.418  31.299  1.00  0.00     0.016 A 
ATOM     38  C   UNL A   1      37.224  29.681  31.930  1.00  0.00     0.010 A 
ATOM     39  C   UNL A   1      38.303  31.548  31.142  1.00  0.00     0.010 A 
ATOM     40  C   UNL A   1      38.399  30.148  31.322  1.00  0.00    -0.014 A 
BRANCH  40  41
ATOM     41  C   UNL A   1      39.899  29.310  30.937  1.00  0.00     0.031 A 
ATOM     42  C   UNL A   1      40.070  27.887  29.508  1.00  0.00     0.074 A 
ATOM     43  C   UNL A   1      41.039  29.951  31.774  1.00  0.00     0.049 A 
ATOM     44  N   UNL A   1      41.079  27.675  28.614  1.00  0.00    -0.248 NA
ATOM     45  C   UNL A   1      39.335  26.474  29.218  1.00  0.00     0.031 C 
ATOM     46  C   UNL A   1      42.642  29.922  31.582  1.00  0.00     0.029 A 
ATOM     47  N   UNL A   1      41.075  30.946  32.757  1.00  0.00    -0.354 N 
ATOM     48  C   UNL A   1      41.327  26.375  28.257  1.00  0.00     0.074 A 
ATOM     49  C   UNL A   1      40.030  25.828  28.286  1.00  0.00     0.031 C 
ATOM     50  C   UNL A   1      43.316  30.912  32.139  1.00  0.00     0.029 A 
ATOM     51  C   UNL A   1      42.411  31.304  33.136  1.00  0.00     0.049 A 
ATOM     52  H   UNL A   1      40.269  31.355  33.148  1.00  0.00     0.167 HD
ATOM     53  C   UNL A   1      42.527  25.691  28.338  1.00  0.00     0.037 A 
ATOM     54  C   UNL A   1      42.900  31.104  34.384  1.00  0.00     0.037 A 
ATOM     55  C   UNL A   1      43.628  26.312  29.146  1.00  0.00     0.049 A 
ATOM     56  C   UNL A   1      43.725  29.753  34.459  1.00  0.00     0.074 A 
ATOM     57  C   UNL A   1      44.597  27.280  28.933  1.00  0.00     0.029 A 
ATOM     58  N   UNL A   1      43.835  25.962  30.496  1.00  0.00    -0.354 N 
ATOM     59  N   UNL A   1      43.636  28.779  33.551  1.00  0.00    -0.248 NA
ATOM     60  C   UNL A   1      44.852  29.488  35.342  1.00  0.00     0.031 C 
ATOM     61  C   UNL A   1      45.230  27.619  30.194  1.00  0.00     0.029 A 
ATOM     62  C   UNL A   1      44.682  26.862  31.227  1.00  0.00     0.049 A 
ATOM     63  H   UNL A   1      43.430  25.165  30.906  1.00  0.00     0.167 HD
ATOM     64  C   UNL A   1      44.677  27.875  33.608  1.00  0.00     0.074 A 
ATOM     65  C   UNL A   1      45.391  28.375  34.790  1.00  0.00     0.031 C 
ATOM     66  C   UNL A   1      44.896  26.778  32.759  1.00  0.00     0.037 A 
BRANCH  53  67
ATOM     67  C   UNL A   1      42.746  24.492  27.380  1.00  0.00     0.064 A 
ATOM     68  C   UNL A   1      42.387  23.195  27.802  1.00  0.00     0.173 A 
ATOM     69  C   UNL A   1      43.437  24.509  26.143  1.00  0.00     0.173 A 
ATOM     70  F   UNL A   1      41.643  23.008  28.900  1.00  0.00    -0.203 F 
ATOM     71  C   UNL A   1      42.799  22.033  27.125  1.00  0.00     0.198 A 
ATOM     72  C   UNL A   1      43.924  23.353  25.514  1.00  0.00     0.198 A 
ATOM     73  F   UNL A   1      43.595  25.629  25.433  1.00  0.00    -0.203 F 
ATOM     74  F   UNL A   1      42.425  20.829  27.579  1.00  0.00    -0.200 F 
ATOM     75  C   UNL A   1      43.613  22.111  26.013  1.00  0.00     0.200 A 
ATOM     76  F   UNL A   1      44.690  23.462  24.417  1.00  0.00    -0.200 F 
ATOM     77  F   UNL A   1      44.063  21.003  25.407  1.00  0.00    -0.200 F 
ENDBRANCH  53  67
BRANCH  54  78
ATOM     78  C   UNL A   1      42.148  32.126  35.183  1.00  0.00     0.064 A 
ATOM     79  C   UNL A   1      42.324  33.477  34.701  1.00  0.00     0.173 A 
ATOM     80  C   UNL A   1      40.837  31.779  35.549  1.00  0.00     0.173 A 
ATOM     81  F   UNL A   1      43.533  33.869  34.256  1.00  0.00    -0.203 F 
ATOM     82  C   UNL A   1      41.231  34.278  34.337  1.00  0.00     0.198 A 
ATOM     83  C   UNL A   1      39.753  32.610  35.210  1.00  0.00     0.198 A 
ATOM     84  F   UNL A   1      40.575  30.518  35.922  1.00  0.00    -0.203 F 
ATOM     85  F   UNL A   1      41.420  35.395  33.612  1.00  0.00    -0.200 F 
ATOM     86  C   UNL A   1      39.946  33.821  34.555  1.00  0.00     0.200 A 
ATOM     87  F   UNL A   1      38.503  32.142  35.343  1.00  0.00    -0.200 F 
ATOM     88  F   UNL A   1      38.901  34.480  34.029  1.00  0.00    -0.200 F 
ENDBRANCH  54  78
BRANCH  66  89
ATOM     89  C   UNL A   1      45.341  25.419  33.377  1.00  0.00     0.064 A 
ATOM     90  C   UNL A   1      46.682  25.002  33.546  1.00  0.00     0.173 A 
ATOM     91  C   UNL A   1      44.407  24.535  33.978  1.00  0.00     0.173 A 
ATOM     92  F   UNL A   1      47.726  25.759  33.197  1.00  0.00    -0.203 F 
ATOM     93  C   UNL A   1      47.041  23.792  34.155  1.00  0.00     0.198 A 
ATOM     94  C   UNL A   1      44.775  23.378  34.676  1.00  0.00     0.198 A 
ATOM     95  F   UNL A   1      43.087  24.750  33.955  1.00  0.00    -0.203 F 
ATOM     96  F   UNL A   1      48.333  23.436  34.203  1.00  0.00    -0.200 F 
ATOM     97  C   UNL A   1      46.091  22.988  34.737  1.00  0.00     0.200 A 
ATOM     98  F   UNL A   1      43.835  22.657  35.303  1.00  0.00    -0.200 F 
ATOM     99  F   UNL A   1      46.441  21.863  35.373  1.00  0.00    -0.200 F 
ENDBRANCH  66  89
ENDBRANCH  40  41
ENDBRANCH  33  35
ENDBRANCH  32  33
ENDBRANCH  31  32
ENDBRANCH  30  31
ENDBRANCH  29  30
ENDBRANCH  28  29
ENDBRANCH   1  28
TORSDOF 21
ENDMDL
MODEL 2
REMARK VINA RESULT:     -14.2      1.744      3.888
REMARK SMILES Cc1ccc(NC(=O)C[C@@H](C(=O)OCCOCCOCCOC(=O)c2ccc(-c3c4nc(c(-c5c(F)c(F)c(F)c(F)c5F)c5ccc([nH]5)c(-c5c(F)c(F)c(F)c(F)c5F)c5nc(c(-c6c(F)c(F)c(F)c(F)c6F)c6ccc3[nH]6)C=C5)C=C4)cc2)[NH+]2CCOCC2)cc1
REMARK SMILES IDX 17 1 16 2 15 3 14 4 13 5 11 6 12 7 10 8 9 9 7 10 6 11 8 13
REMARK SMILES IDX 5 14 1 15 2 16 3 17 95 18 4 19 94 20 88 21 89 22 93 23 90 25
REMARK SMILES IDX 92 26 91 27 18 28 19 29 20 30 21 31 22 32 23 33 24 34 25 35
REMARK SMILES IDX 26 36 87 37 27 38 86 39 28 40 29 41 30 42 80 43 31 44 85 45
REMARK SMILES IDX 79 46 81 47 32 48 84 49 78 50 77 51 33 53 65 54 45 55 64 56
REMARK SMILES IDX 46 57 49 58 63 59 82 60 47 61 48 62 62 64 83 65 50 66 34 67
REMARK SMILES IDX 35 68 43 69 36 70 37 71 41 72 44 73 38 74 39 75 42 76 40 77
REMARK SMILES IDX 66 78 67 79 75 80 68 81 69 82 73 83 76 84 70 85 71 86 74 87
REMARK SMILES IDX 72 88 51 89 52 90 60 91 53 92 54 93 58 94 61 95 55 96 56 97
REMARK SMILES IDX 59 98 57 99
REMARK H PARENT 6 12 88 24 81 52 49 63
REMARK Flexibility Score: inf
ROOT
ATOM      1  C   UNL A   1      33.703  31.493  27.643  1.00  0.00     0.188 C 
ENDROOT
BRANCH   1   2
ATOM      2  O   UNL A   1      33.123  30.278  27.068  1.00  0.00    -0.376 OA
BRANCH   2   3
ATOM      3  C   UNL A   1      33.951  29.024  26.222  1.00  0.00     0.202 C 
BRANCH   3   4
ATOM      4  C   UNL A   1      34.082  28.628  24.031  1.00  0.00     0.261 C 
BRANCH   4   5
ATOM      5  O   UNL A   1      33.801  27.231  22.776  1.00  0.00    -0.459 OA
BRANCH   5   6
ATOM      6  C   UNL A   1      33.527  25.725  21.994  1.00  0.00     0.365 C 
ATOM      7  O   UNL A   1      33.279  25.641  20.794  1.00  0.00    -0.245 OA
BRANCH   6   8
ATOM      8  C   UNL A   1      33.514  23.998  22.808  1.00  0.00     0.304 C 
BRANCH   8   9
ATOM      9  C   UNL A   1      32.000  23.158  23.512  1.00  0.00     0.177 C 
BRANCH   9  10
ATOM     10  C   UNL A   1      30.867  23.606  24.967  1.00  0.00     0.231 C 
ATOM     11  N   UNL A   1      29.898  24.755  25.211  1.00  0.00    -0.326 N 
ATOM     12  H   UNL A   1      29.250  24.511  25.910  1.00  0.00     0.169 HD
ATOM     13  O   UNL A   1      30.828  22.738  25.865  1.00  0.00    -0.274 OA
BRANCH  11  14
ATOM     14  C   UNL A   1      29.619  26.189  24.699  1.00  0.00     0.041 A 
ATOM     15  C   UNL A   1      29.005  31.052  23.257  1.00  0.00     0.044 C 
ATOM     16  C   UNL A   1      29.165  29.547  23.202  1.00  0.00    -0.051 A 
ATOM     17  C   UNL A   1      30.666  29.126  23.965  1.00  0.00     0.005 A 
ATOM     18  C   UNL A   1      27.902  28.301  23.104  1.00  0.00     0.005 A 
ATOM     19  C   UNL A   1      30.819  27.520  24.815  1.00  0.00     0.026 A 
ATOM     20  C   UNL A   1      28.100  26.670  23.889  1.00  0.00     0.026 A 
ENDBRANCH  11  14
ENDBRANCH   9  10
ENDBRANCH   8   9
BRANCH   8  21
ATOM     21  N   UNL A   1      34.777  23.924  23.679  1.00  0.00    -0.319 N 
ATOM     22  C   UNL A   1      35.707  22.787  23.526  1.00  0.00     0.291 C 
ATOM     23  C   UNL A   1      34.859  24.397  25.065  1.00  0.00     0.291 C 
ATOM     24  H   UNL A   1      35.055  24.732  23.123  1.00  0.00     0.348 HD
ATOM     25  C   UNL A   1      35.504  21.713  24.593  1.00  0.00     0.221 C 
ATOM     26  C   UNL A   1      35.051  23.356  26.201  1.00  0.00     0.221 C 
ATOM     27  O   UNL A   1      35.884  22.244  25.862  1.00  0.00    -0.370 OA
ENDBRANCH   8  21
ENDBRANCH   6   8
ENDBRANCH   5   6
ENDBRANCH   4   5
ENDBRANCH   3   4
ENDBRANCH   2   3
ENDBRANCH   1   2
BRANCH   1  28
ATOM     28  C   UNL A   1      32.934  32.779  27.523  1.00  0.00     0.188 C 
BRANCH  28  29
ATOM     29  O   UNL A   1      33.370  33.672  28.520  1.00  0.00    -0.376 OA
BRANCH  29  30
ATOM     30  C   UNL A   1      34.594  34.294  28.191  1.00  0.00     0.202 C 
BRANCH  30  31
ATOM     31  C   UNL A   1      35.231  34.878  29.465  1.00  0.00     0.261 C 
BRANCH  31  32
ATOM     32  O   UNL A   1      34.907  34.043  30.615  1.00  0.00    -0.460 OA
BRANCH  32  33
ATOM     33  C   UNL A   1      35.462  32.782  30.687  1.00  0.00     0.338 C 
ATOM     34  O   UNL A   1      34.832  31.758  30.897  1.00  0.00    -0.246 OA
BRANCH  33  35
ATOM     35  C   UNL A   1      36.974  32.861  30.791  1.00  0.00     0.060 A 
ATOM     36  C   UNL A   1      37.814  33.116  29.680  1.00  0.00     0.016 A 
ATOM     37  C   UNL A   1      37.505  32.123  31.798  1.00  0.00     0.016 A 
ATOM     38  C   UNL A   1      39.050  32.384  29.467  1.00  0.00     0.010 A 
ATOM     39  C   UNL A   1      38.514  31.264  31.397  1.00  0.00     0.010 A 
ATOM     40  C   UNL A   1      39.425  31.333  30.317  1.00  0.00    -0.014 A 
BRANCH  40  41
ATOM     41  C   UNL A   1      40.675  30.105  30.138  1.00  0.00     0.031 A 
ATOM     42  C   UNL A   1      40.548  28.534  28.869  1.00  0.00     0.074 A 
ATOM     43  C   UNL A   1      41.894  30.528  31.001  1.00  0.00     0.049 A 
ATOM     44  N   UNL A   1      41.515  27.975  28.085  1.00  0.00    -0.248 NA
ATOM     45  C   UNL A   1      39.489  27.329  28.654  1.00  0.00     0.031 C 
ATOM     46  C   UNL A   1      43.443  30.074  30.945  1.00  0.00     0.029 A 
ATOM     47  N   UNL A   1      42.133  31.585  31.886  1.00  0.00    -0.354 N 
ATOM     48  C   UNL A   1      41.437  26.622  27.874  1.00  0.00     0.074 A 
ATOM     49  C   UNL A   1      40.043  26.427  27.848  1.00  0.00     0.031 C 
ATOM     50  C   UNL A   1      44.319  30.918  31.459  1.00  0.00     0.029 A 
ATOM     51  C   UNL A   1      43.493  31.636  32.338  1.00  0.00     0.049 A 
ATOM     52  H   UNL A   1      41.441  32.226  32.168  1.00  0.00     0.167 HD
ATOM     53  C   UNL A   1      42.412  25.672  28.117  1.00  0.00     0.037 A 
ATOM     54  C   UNL A   1      43.844  31.460  33.635  1.00  0.00     0.037 A 
ATOM     55  C   UNL A   1      43.591  26.082  28.950  1.00  0.00     0.049 A 
ATOM     56  C   UNL A   1      44.285  29.961  33.904  1.00  0.00     0.074 A 
ATOM     57  C   UNL A   1      44.787  26.744  28.727  1.00  0.00     0.029 A 
ATOM     58  N   UNL A   1      43.625  25.845  30.340  1.00  0.00    -0.354 N 
ATOM     59  N   UNL A   1      43.996  28.946  33.088  1.00  0.00    -0.248 NA
ATOM     60  C   UNL A   1      45.254  29.522  34.898  1.00  0.00     0.031 C 
ATOM     61  C   UNL A   1      45.417  27.051  29.998  1.00  0.00     0.029 A 
ATOM     62  C   UNL A   1      44.635  26.578  31.050  1.00  0.00     0.049 A 
ATOM     63  H   UNL A   1      43.004  25.227  30.789  1.00  0.00     0.167 HD
ATOM     64  C   UNL A   1      44.762  27.821  33.316  1.00  0.00     0.074 A 
ATOM     65  C   UNL A   1      45.515  28.254  34.500  1.00  0.00     0.031 C 
ATOM     66  C   UNL A   1      44.735  26.616  32.595  1.00  0.00     0.037 A 
BRANCH  53  67
ATOM     67  C   UNL A   1      42.364  24.356  27.298  1.00  0.00     0.064 A 
ATOM     68  C   UNL A   1      42.132  23.135  27.963  1.00  0.00     0.173 A 
ATOM     69  C   UNL A   1      42.698  24.196  25.929  1.00  0.00     0.173 A 
ATOM     70  F   UNL A   1      41.710  23.112  29.234  1.00  0.00    -0.203 F 
ATOM     71  C   UNL A   1      42.346  21.884  27.356  1.00  0.00     0.198 A 
ATOM     72  C   UNL A   1      42.997  22.955  25.349  1.00  0.00     0.198 A 
ATOM     73  F   UNL A   1      42.659  25.213  25.066  1.00  0.00    -0.203 F 
ATOM     74  F   UNL A   1      42.106  20.760  28.045  1.00  0.00    -0.200 F 
ATOM     75  C   UNL A   1      42.830  21.796  26.067  1.00  0.00     0.200 A 
ATOM     76  F   UNL A   1      43.440  22.900  24.082  1.00  0.00    -0.200 F 
ATOM     77  F   UNL A   1      43.101  20.606  25.511  1.00  0.00    -0.200 F 
ENDBRANCH  53  67
BRANCH  54  78
ATOM     78  C   UNL A   1      43.341  32.722  34.269  1.00  0.00     0.064 A 
ATOM     79  C   UNL A   1      42.299  32.500  35.245  1.00  0.00     0.173 A 
ATOM     80  C   UNL A   1      44.321  33.661  34.631  1.00  0.00     0.173 A 
ATOM     81  F   UNL A   1      41.363  31.561  35.013  1.00  0.00    -0.203 F 
ATOM     82  C   UNL A   1      42.420  32.952  36.569  1.00  0.00     0.198 A 
ATOM     83  C   UNL A   1      44.409  34.135  35.953  1.00  0.00     0.198 A 
ATOM     84  F   UNL A   1      45.370  33.857  33.819  1.00  0.00    -0.203 F 
ATOM     85  F   UNL A   1      41.602  32.480  37.525  1.00  0.00    -0.200 F 
ATOM     86  C   UNL A   1      43.499  33.735  36.928  1.00  0.00     0.200 A 
ATOM     87  F   UNL A   1      45.493  34.826  36.331  1.00  0.00    -0.200 F 
ATOM     88  F   UNL A   1      43.735  34.001  38.222  1.00  0.00    -0.200 F 
ENDBRANCH  54  78
BRANCH  66  89
ATOM     89  C   UNL A   1      44.777  25.267  33.373  1.00  0.00     0.064 A 
ATOM     90  C   UNL A   1      45.931  24.470  33.559  1.00  0.00     0.173 A 
ATOM     91  C   UNL A   1      43.657  24.799  34.110  1.00  0.00     0.173 A 
ATOM     92  F   UNL A   1      47.132  24.813  33.085  1.00  0.00    -0.203 F 
ATOM     93  C   UNL A   1      45.937  23.288  34.311  1.00  0.00     0.198 A 
ATOM     94  C   UNL A   1      43.694  23.674  34.943  1.00  0.00     0.198 A 
ATOM     95  F   UNL A   1      42.471  25.415  34.094  1.00  0.00    -0.203 F 
ATOM     96  F   UNL A   1      47.055  22.549  34.370  1.00  0.00    -0.200 F 
ATOM     97  C   UNL A   1      44.825  22.898  35.019  1.00  0.00     0.200 A 
ATOM     98  F   UNL A   1      42.621  23.364  35.684  1.00  0.00    -0.200 F 
ATOM     99  F   UNL A   1      44.851  21.801  35.787  1.00  0.00    -0.200 F 
ENDBRANCH  66  89
ENDBRANCH  40  41
ENDBRANCH  33  35
ENDBRANCH  32  33
ENDBRANCH  31  32
ENDBRANCH  30  31
ENDBRANCH  29  30
ENDBRANCH  28  29
ENDBRANCH   1  28
TORSDOF 21
ENDMDL
MODEL 3
REMARK VINA RESULT:     -14.0      1.557      2.414
REMARK SMILES Cc1ccc(NC(=O)C[C@@H](C(=O)OCCOCCOCCOC(=O)c2ccc(-c3c4nc(c(-c5c(F)c(F)c(F)c(F)c5F)c5ccc([nH]5)c(-c5c(F)c(F)c(F)c(F)c5F)c5nc(c(-c6c(F)c(F)c(F)c(F)c6F)c6ccc3[nH]6)C=C5)C=C4)cc2)[NH+]2CCOCC2)cc1
REMARK SMILES IDX 17 1 16 2 15 3 14 4 13 5 11 6 12 7 10 8 9 9 7 10 6 11 8 13
REMARK SMILES IDX 5 14 1 15 2 16 3 17 95 18 4 19 94 20 88 21 89 22 93 23 90 25
REMARK SMILES IDX 92 26 91 27 18 28 19 29 20 30 21 31 22 32 23 33 24 34 25 35
REMARK SMILES IDX 26 36 87 37 27 38 86 39 28 40 29 41 30 42 80 43 31 44 85 45
REMARK SMILES IDX 79 46 81 47 32 48 84 49 78 50 77 51 33 53 65 54 45 55 64 56
REMARK SMILES IDX 46 57 49 58 63 59 82 60 47 61 48 62 62 64 83 65 50 66 34 67
REMARK SMILES IDX 35 68 43 69 36 70 37 71 41 72 44 73 38 74 39 75 42 76 40 77
REMARK SMILES IDX 66 78 67 79 75 80 68 81 69 82 73 83 76 84 70 85 71 86 74 87
REMARK SMILES IDX 72 88 51 89 52 90 60 91 53 92 54 93 58 94 61 95 55 96 56 97
REMARK SMILES IDX 59 98 57 99
REMARK H PARENT 6 12 88 24 81 52 49 63
REMARK Flexibility Score: inf
ROOT
ATOM      1  C   UNL A   1      33.063  35.768  28.458  1.00  0.00     0.188 C 
ENDROOT
BRANCH   1   2
ATOM      2  O   UNL A   1      33.248  34.333  28.680  1.00  0.00    -0.376 OA
BRANCH   2   3
ATOM      3  C   UNL A   1      34.531  33.342  28.090  1.00  0.00     0.202 C 
BRANCH   3   4
ATOM      4  C   UNL A   1      34.652  31.122  27.911  1.00  0.00     0.261 C 
BRANCH   4   5
ATOM      5  O   UNL A   1      34.342  29.735  26.651  1.00  0.00    -0.459 OA
BRANCH   5   6
ATOM      6  C   UNL A   1      33.847  28.789  25.304  1.00  0.00     0.365 C 
ATOM      7  O   UNL A   1      33.665  29.273  24.190  1.00  0.00    -0.245 OA
BRANCH   6   8
ATOM      8  C   UNL A   1      33.466  26.918  25.297  1.00  0.00     0.304 C 
BRANCH   8   9
ATOM      9  C   UNL A   1      34.114  25.699  24.039  1.00  0.00     0.177 C 
BRANCH   9  10
ATOM     10  C   UNL A   1      33.291  24.864  22.546  1.00  0.00     0.231 C 
ATOM     11  N   UNL A   1      32.651  23.497  22.345  1.00  0.00    -0.326 N 
ATOM     12  H   UNL A   1      32.048  23.514  21.567  1.00  0.00     0.169 HD
ATOM     13  O   UNL A   1      33.154  25.615  21.556  1.00  0.00    -0.274 OA
BRANCH  11  14
ATOM     14  C   UNL A   1      32.657  22.088  22.985  1.00  0.00     0.041 A 
ATOM     15  C   UNL A   1      32.380  17.330  24.829  1.00  0.00     0.044 C 
ATOM     16  C   UNL A   1      32.938  18.636  24.300  1.00  0.00    -0.051 A 
ATOM     17  C   UNL A   1      32.272  18.919  22.722  1.00  0.00     0.005 A 
ATOM     18  C   UNL A   1      33.536  20.036  25.215  1.00  0.00     0.005 A 
ATOM     19  C   UNL A   1      32.017  20.632  22.152  1.00  0.00     0.026 A 
ATOM     20  C   UNL A   1      33.348  21.739  24.597  1.00  0.00     0.026 A 
ENDBRANCH  11  14
ENDBRANCH   9  10
ENDBRANCH   8   9
BRANCH   8  21
ATOM     21  N   UNL A   1      31.976  26.782  25.644  1.00  0.00    -0.319 N 
ATOM     22  C   UNL A   1      31.495  25.579  26.351  1.00  0.00     0.291 C 
ATOM     23  C   UNL A   1      30.879  27.292  24.813  1.00  0.00     0.291 C 
ATOM     24  H   UNL A   1      32.184  27.551  26.281  1.00  0.00     0.348 HD
ATOM     25  C   UNL A   1      30.864  24.555  25.408  1.00  0.00     0.221 C 
ATOM     26  C   UNL A   1      29.932  26.276  24.118  1.00  0.00     0.221 C 
ATOM     27  O   UNL A   1      29.654  25.098  24.880  1.00  0.00    -0.370 OA
ENDBRANCH   8  21
ENDBRANCH   6   8
ENDBRANCH   5   6
ENDBRANCH   4   5
ENDBRANCH   3   4
ENDBRANCH   2   3
ENDBRANCH   1   2
BRANCH   1  28
ATOM     28  C   UNL A   1      33.276  36.705  29.614  1.00  0.00     0.188 C 
BRANCH  28  29
ATOM     29  O   UNL A   1      32.232  36.536  30.543  1.00  0.00    -0.376 OA
BRANCH  29  30
ATOM     30  C   UNL A   1      32.683  36.597  31.880  1.00  0.00     0.202 C 
BRANCH  30  31
ATOM     31  C   UNL A   1      33.482  35.323  32.210  1.00  0.00     0.261 C 
BRANCH  31  32
ATOM     32  O   UNL A   1      34.895  35.646  32.368  1.00  0.00    -0.460 OA
BRANCH  32  33
ATOM     33  C   UNL A   1      35.692  34.770  33.077  1.00  0.00     0.338 C 
ATOM     34  O   UNL A   1      36.308  35.058  34.090  1.00  0.00    -0.246 OA
BRANCH  33  35
ATOM     35  C   UNL A   1      35.960  33.511  32.272  1.00  0.00     0.060 A 
ATOM     36  C   UNL A   1      35.912  32.211  32.832  1.00  0.00     0.016 A 
ATOM     37  C   UNL A   1      36.794  33.688  31.217  1.00  0.00     0.016 A 
ATOM     38  C   UNL A   1      36.910  31.202  32.519  1.00  0.00     0.010 A 
ATOM     39  C   UNL A   1      37.864  32.810  31.188  1.00  0.00     0.010 A 
ATOM     40  C   UNL A   1      38.013  31.502  31.706  1.00  0.00    -0.014 A 
BRANCH  40  41
ATOM     41  C   UNL A   1      39.495  30.599  31.409  1.00  0.00     0.031 A 
ATOM     42  C   UNL A   1      39.659  29.102  30.057  1.00  0.00     0.074 A 
ATOM     43  C   UNL A   1      40.631  31.245  32.247  1.00  0.00     0.049 A 
ATOM     44  N   UNL A   1      40.686  28.813  29.206  1.00  0.00    -0.248 NA
ATOM     45  C   UNL A   1      38.887  27.699  29.816  1.00  0.00     0.031 C 
ATOM     46  C   UNL A   1      42.237  31.156  32.106  1.00  0.00     0.029 A 
ATOM     47  N   UNL A   1      40.672  32.286  33.181  1.00  0.00    -0.354 N 
ATOM     48  C   UNL A   1      40.902  27.489  28.922  1.00  0.00     0.074 A 
ATOM     49  C   UNL A   1      39.587  26.986  28.938  1.00  0.00     0.031 C 
ATOM     50  C   UNL A   1      42.927  32.150  32.634  1.00  0.00     0.029 A 
ATOM     51  C   UNL A   1      42.007  32.621  33.583  1.00  0.00     0.049 A 
ATOM     52  H   UNL A   1      39.869  32.740  33.526  1.00  0.00     0.167 HD
ATOM     53  C   UNL A   1      42.075  26.773  29.072  1.00  0.00     0.037 A 
ATOM     54  C   UNL A   1      42.453  32.468  34.853  1.00  0.00     0.037 A 
ATOM     55  C   UNL A   1      43.173  27.399  29.881  1.00  0.00     0.049 A 
ATOM     56  C   UNL A   1      43.231  31.097  35.019  1.00  0.00     0.074 A 
ATOM     57  C   UNL A   1      44.179  28.324  29.650  1.00  0.00     0.029 A 
ATOM     58  N   UNL A   1      43.329  27.110  31.253  1.00  0.00    -0.354 N 
ATOM     59  N   UNL A   1      43.136  30.082  34.158  1.00  0.00    -0.248 NA
ATOM     60  C   UNL A   1      44.323  30.841  35.948  1.00  0.00     0.031 C 
ATOM     61  C   UNL A   1      44.786  28.706  30.912  1.00  0.00     0.029 A 
ATOM     62  C   UNL A   1      44.184  28.018  31.964  1.00  0.00     0.049 A 
ATOM     63  H   UNL A   1      42.886  26.348  31.689  1.00  0.00     0.167 HD
ATOM     64  C   UNL A   1      44.145  29.150  34.291  1.00  0.00     0.074 A 
ATOM     65  C   UNL A   1      44.841  29.686  35.468  1.00  0.00     0.031 C 
ATOM     66  C   UNL A   1      44.352  28.005  33.504  1.00  0.00     0.037 A 
BRANCH  53  67
ATOM     67  C   UNL A   1      42.281  25.521  28.181  1.00  0.00     0.064 A 
ATOM     68  C   UNL A   1      42.811  24.345  28.752  1.00  0.00     0.173 A 
ATOM     69  C   UNL A   1      42.152  25.451  26.771  1.00  0.00     0.173 A 
ATOM     70  F   UNL A   1      42.906  24.206  30.081  1.00  0.00    -0.203 F 
ATOM     71  C   UNL A   1      43.286  23.270  27.979  1.00  0.00     0.198 A 
ATOM     72  C   UNL A   1      42.705  24.422  25.995  1.00  0.00     0.198 A 
ATOM     73  F   UNL A   1      41.408  26.320  26.083  1.00  0.00    -0.203 F 
ATOM     74  F   UNL A   1      43.778  22.181  28.584  1.00  0.00    -0.200 F 
ATOM     75  C   UNL A   1      43.283  23.333  26.600  1.00  0.00     0.200 A 
ATOM     76  F   UNL A   1      42.661  24.499  24.655  1.00  0.00    -0.200 F 
ATOM     77  F   UNL A   1      43.800  22.339  25.863  1.00  0.00    -0.200 F 
ENDBRANCH  53  67
BRANCH  54  78
ATOM     78  C   UNL A   1      41.713  33.552  35.578  1.00  0.00     0.064 A 
ATOM     79  C   UNL A   1      40.770  33.054  36.552  1.00  0.00     0.173 A 
ATOM     80  C   UNL A   1      42.484  34.653  35.987  1.00  0.00     0.173 A 
ATOM     81  F   UNL A   1      40.047  31.954  36.271  1.00  0.00    -0.203 F 
ATOM     82  C   UNL A   1      40.830  33.438  37.900  1.00  0.00     0.198 A 
ATOM     83  C   UNL A   1      42.506  35.052  37.337  1.00  0.00     0.198 A 
ATOM     84  F   UNL A   1      43.443  35.118  35.175  1.00  0.00    -0.203 F 
ATOM     85  F   UNL A   1      40.157  32.744  38.835  1.00  0.00    -0.200 F 
ATOM     86  C   UNL A   1      41.730  34.408  38.295  1.00  0.00     0.200 A 
ATOM     87  F   UNL A   1      43.431  35.933  37.744  1.00  0.00    -0.200 F 
ATOM     88  F   UNL A   1      41.941  34.637  39.601  1.00  0.00    -0.200 F 
ENDBRANCH  54  78
BRANCH  66  89
ATOM     89  C   UNL A   1      44.733  26.666  34.201  1.00  0.00     0.064 A 
ATOM     90  C   UNL A   1      43.810  25.720  34.706  1.00  0.00     0.173 A 
ATOM     91  C   UNL A   1      46.075  26.206  34.245  1.00  0.00     0.173 A 
ATOM     92  F   UNL A   1      42.486  25.880  34.618  1.00  0.00    -0.203 F 
ATOM     93  C   UNL A   1      44.193  24.500  35.280  1.00  0.00     0.198 A 
ATOM     94  C   UNL A   1      46.445  24.944  34.726  1.00  0.00     0.198 A 
ATOM     95  F   UNL A   1      47.105  26.933  33.800  1.00  0.00    -0.203 F 
ATOM     96  F   UNL A   1      43.258  23.696  35.807  1.00  0.00    -0.200 F 
ATOM     97  C   UNL A   1      45.509  24.102  35.274  1.00  0.00     0.200 A 
ATOM     98  F   UNL A   1      47.723  24.550  34.633  1.00  0.00    -0.200 F 
ATOM     99  F   UNL A   1      45.866  22.910  35.767  1.00  0.00    -0.200 F 
ENDBRANCH  66  89
ENDBRANCH  40  41
ENDBRANCH  33  35
ENDBRANCH  32  33
ENDBRANCH  31  32
ENDBRANCH  30  31
ENDBRANCH  29  30
ENDBRANCH  28  29
ENDBRANCH   1  28
TORSDOF 21
ENDMDL
