MODEL 1
REMARK VINA RESULT:     -12.6      0.000      0.000
REMARK SMILES O=C(OCCOCCOCCOC(=O)c1ccccc1C(=O)c1cccc(S(=O)(=O)N2CCOCC2)c1)c1ccc(-c2c3nc(c(-c4c(F)c(F)c(F)c(F)c4F)c4ccc([nH]4)c(-c4c(F)c(F)c(F)c(F)c4F)c4nc(c(-c5c(F)c(F)c(F)c(F)c5F)c5ccc2[nH]5)C=C4)C=C3)cc1
REMARK SMILES IDX 8 1 7 2 6 3 5 4 4 5 3 6 2 7 1 8 38 9 39 10 100 11 40 12
REMARK SMILES IDX 99 13 41 14 42 15 43 16 93 17 44 18 98 19 92 20 94 21 45 22
REMARK SMILES IDX 97 23 91 24 90 25 46 27 78 28 58 29 77 30 59 31 62 32 76 33
REMARK SMILES IDX 95 34 60 35 61 36 75 38 96 39 63 40 47 41 48 42 56 43 49 44
REMARK SMILES IDX 50 45 54 46 57 47 51 48 52 49 55 50 53 51 79 52 80 53 88 54
REMARK SMILES IDX 81 55 82 56 86 57 89 58 83 59 84 60 87 61 85 62 64 63 65 64
REMARK SMILES IDX 73 65 66 66 67 67 71 68 74 69 68 70 69 71 72 72 70 73 9 74
REMARK SMILES IDX 10 75 11 76 12 77 13 78 14 79 15 80 16 81 20 82 17 83 19 84
REMARK SMILES IDX 18 85 21 86 22 87 23 88 24 89 37 90 25 91 27 92 26 93 28 94
REMARK SMILES IDX 29 95 30 96 31 97 32 98 36 99 33 100 35 101 34 102
REMARK H PARENT 94 26 62 37
REMARK Flexibility Score: inf
ROOT
ATOM      1  C   UNL A   1      40.577  21.818  27.283  1.00  0.00     0.188 C 
ENDROOT
BRANCH   1   2
ATOM      2  C   UNL A   1      41.919  21.144  27.546  1.00  0.00     0.188 C 
BRANCH   2   3
ATOM      3  O   UNL A   1      42.978  21.909  26.974  1.00  0.00    -0.376 OA
BRANCH   3   4
ATOM      4  C   UNL A   1      43.465  21.377  25.735  1.00  0.00     0.202 C 
BRANCH   4   5
ATOM      5  C   UNL A   1      43.920  22.488  24.794  1.00  0.00     0.261 C 
BRANCH   5   6
ATOM      6  O   UNL A   1      43.019  23.590  24.963  1.00  0.00    -0.460 OA
BRANCH   6   7
ATOM      7  C   UNL A   1      43.616  24.805  25.082  1.00  0.00     0.338 C 
ATOM      8  O   UNL A   1      44.727  25.126  24.703  1.00  0.00    -0.246 OA
BRANCH   7   9
ATOM      9  C   UNL A   1      42.658  25.692  25.770  1.00  0.00     0.060 A 
ATOM     10  C   UNL A   1      42.970  27.050  25.916  1.00  0.00     0.016 A 
ATOM     11  C   UNL A   1      41.503  25.159  26.344  1.00  0.00     0.016 A 
ATOM     12  C   UNL A   1      42.244  27.832  26.790  1.00  0.00     0.010 A 
ATOM     13  C   UNL A   1      40.756  25.953  27.215  1.00  0.00     0.010 A 
ATOM     14  C   UNL A   1      41.189  27.258  27.504  1.00  0.00    -0.014 A 
BRANCH  14  15
ATOM     15  C   UNL A   1      40.783  27.948  28.745  1.00  0.00     0.031 A 
ATOM     16  C   UNL A   1      41.698  27.852  29.929  1.00  0.00     0.074 A 
ATOM     17  C   UNL A   1      39.756  28.811  28.729  1.00  0.00     0.049 A 
ATOM     18  N   UNL A   1      41.588  28.399  31.110  1.00  0.00    -0.248 NA
ATOM     19  C   UNL A   1      42.923  27.055  29.750  1.00  0.00     0.031 C 
ATOM     20  C   UNL A   1      38.937  29.096  27.558  1.00  0.00     0.029 A 
ATOM     21  N   UNL A   1      39.267  29.645  29.696  1.00  0.00    -0.354 N 
ATOM     22  C   UNL A   1      42.710  27.989  31.817  1.00  0.00     0.074 A 
ATOM     23  C   UNL A   1      43.490  27.148  30.942  1.00  0.00     0.031 C 
ATOM     24  C   UNL A   1      38.064  30.070  27.858  1.00  0.00     0.029 A 
ATOM     25  C   UNL A   1      38.220  30.420  29.263  1.00  0.00     0.049 A 
ATOM     26  H   UNL A   1      39.630  29.686  30.610  1.00  0.00     0.167 HD
ATOM     27  C   UNL A   1      43.048  28.291  33.091  1.00  0.00     0.037 A 
ATOM     28  C   UNL A   1      37.460  31.297  29.942  1.00  0.00     0.037 A 
ATOM     29  C   UNL A   1      42.257  29.142  33.934  1.00  0.00     0.049 A 
ATOM     30  C   UNL A   1      37.788  31.530  31.389  1.00  0.00     0.074 A 
ATOM     31  C   UNL A   1      42.437  29.457  35.267  1.00  0.00     0.029 A 
ATOM     32  N   UNL A   1      41.124  29.825  33.507  1.00  0.00    -0.354 N 
ATOM     33  N   UNL A   1      38.787  31.054  32.094  1.00  0.00    -0.248 NA
ATOM     34  C   UNL A   1      36.881  32.405  32.141  1.00  0.00     0.031 C 
ATOM     35  C   UNL A   1      41.391  30.303  35.655  1.00  0.00     0.029 A 
ATOM     36  C   UNL A   1      40.584  30.549  34.553  1.00  0.00     0.049 A 
ATOM     37  H   UNL A   1      40.761  29.797  32.591  1.00  0.00     0.167 HD
ATOM     38  C   UNL A   1      38.644  31.581  33.368  1.00  0.00     0.074 A 
ATOM     39  C   UNL A   1      37.464  32.427  33.332  1.00  0.00     0.031 C 
ATOM     40  C   UNL A   1      39.412  31.386  34.468  1.00  0.00     0.037 A 
BRANCH  27  41
ATOM     41  C   UNL A   1      44.268  27.615  33.642  1.00  0.00     0.064 A 
ATOM     42  C   UNL A   1      45.552  28.163  33.503  1.00  0.00     0.173 A 
ATOM     43  C   UNL A   1      44.153  26.359  34.256  1.00  0.00     0.173 A 
ATOM     44  F   UNL A   1      45.720  29.346  32.891  1.00  0.00    -0.203 F 
ATOM     45  C   UNL A   1      46.679  27.461  33.929  1.00  0.00     0.198 A 
ATOM     46  C   UNL A   1      45.279  25.672  34.701  1.00  0.00     0.198 A 
ATOM     47  F   UNL A   1      42.949  25.786  34.400  1.00  0.00    -0.203 F 
ATOM     48  F   UNL A   1      47.902  27.972  33.725  1.00  0.00    -0.200 F 
ATOM     49  C   UNL A   1      46.541  26.218  34.527  1.00  0.00     0.200 A 
ATOM     50  F   UNL A   1      45.143  24.469  35.276  1.00  0.00    -0.200 F 
ATOM     51  F   UNL A   1      47.627  25.536  34.917  1.00  0.00    -0.200 F 
ENDBRANCH  27  41
BRANCH  28  52
ATOM     52  C   UNL A   1      36.320  31.969  29.266  1.00  0.00     0.064 A 
ATOM     53  C   UNL A   1      35.199  31.251  28.836  1.00  0.00     0.173 A 
ATOM     54  C   UNL A   1      36.320  33.359  29.060  1.00  0.00     0.173 A 
ATOM     55  F   UNL A   1      35.157  29.918  28.988  1.00  0.00    -0.203 F 
ATOM     56  C   UNL A   1      34.124  31.893  28.220  1.00  0.00     0.198 A 
ATOM     57  C   UNL A   1      35.236  34.003  28.471  1.00  0.00     0.198 A 
ATOM     58  F   UNL A   1      37.371  34.097  29.448  1.00  0.00    -0.203 F 
ATOM     59  F   UNL A   1      33.080  31.177  27.781  1.00  0.00    -0.200 F 
ATOM     60  C   UNL A   1      34.140  33.270  28.046  1.00  0.00     0.200 A 
ATOM     61  F   UNL A   1      35.253  35.334  28.315  1.00  0.00    -0.200 F 
ATOM     62  F   UNL A   1      33.106  33.886  27.456  1.00  0.00    -0.200 F 
ENDBRANCH  28  52
BRANCH  40  63
ATOM     63  C   UNL A   1      39.012  32.125  35.704  1.00  0.00     0.064 A 
ATOM     64  C   UNL A   1      39.375  33.464  35.905  1.00  0.00     0.173 A 
ATOM     65  C   UNL A   1      38.222  31.497  36.677  1.00  0.00     0.173 A 
ATOM     66  F   UNL A   1      40.143  34.098  35.007  1.00  0.00    -0.203 F 
ATOM     67  C   UNL A   1      38.976  34.143  37.051  1.00  0.00     0.198 A 
ATOM     68  C   UNL A   1      37.805  32.187  37.809  1.00  0.00     0.198 A 
ATOM     69  F   UNL A   1      37.848  30.218  36.521  1.00  0.00    -0.203 F 
ATOM     70  F   UNL A   1      39.365  35.411  37.246  1.00  0.00    -0.200 F 
ATOM     71  C   UNL A   1      38.187  33.507  37.999  1.00  0.00     0.200 A 
ATOM     72  F   UNL A   1      37.034  31.574  38.720  1.00  0.00    -0.200 F 
ATOM     73  F   UNL A   1      37.799  34.165  39.099  1.00  0.00    -0.200 F 
ENDBRANCH  40  63
ENDBRANCH  14  15
ENDBRANCH   7   9
ENDBRANCH   6   7
ENDBRANCH   5   6
ENDBRANCH   4   5
ENDBRANCH   3   4
ENDBRANCH   2   3
ENDBRANCH   1   2
BRANCH   1  74
ATOM     74  O   UNL A   1      39.818  21.251  26.224  1.00  0.00    -0.376 OA
BRANCH  74  75
ATOM     75  C   UNL A   1      38.645  21.943  25.803  1.00  0.00     0.202 C 
BRANCH  75  76
ATOM     76  C   UNL A   1      37.568  21.145  25.071  1.00  0.00     0.261 C 
BRANCH  76  77
ATOM     77  O   UNL A   1      36.233  20.992  25.608  1.00  0.00    -0.460 OA
BRANCH  77  78
ATOM     78  C   UNL A   1      35.267  21.230  24.690  1.00  0.00     0.338 C 
ATOM     79  O   UNL A   1      35.188  22.230  23.991  1.00  0.00    -0.246 OA
BRANCH  78  80
ATOM     80  C   UNL A   1      34.212  20.218  24.543  1.00  0.00     0.071 A 
ATOM     81  C   UNL A   1      34.656  18.896  24.774  1.00  0.00     0.016 A 
ATOM     82  C   UNL A   1      33.011  20.432  23.838  1.00  0.00     0.037 A 
ATOM     83  C   UNL A   1      33.942  17.797  24.290  1.00  0.00     0.001 A 
ATOM     84  C   UNL A   1      32.335  19.301  23.324  1.00  0.00     0.013 A 
ATOM     85  C   UNL A   1      32.795  18.001  23.539  1.00  0.00     0.001 A 
BRANCH  82  86
ATOM     86  C   UNL A   1      32.270  21.712  23.630  1.00  0.00     0.193 C 
ATOM     87  O   UNL A   1      32.005  22.053  22.474  1.00  0.00    -0.289 OA
BRANCH  86  88
ATOM     88  C   UNL A   1      31.758  22.604  24.675  1.00  0.00     0.024 A 
ATOM     89  C   UNL A   1      31.008  22.027  25.711  1.00  0.00     0.012 A 
ATOM     90  C   UNL A   1      31.888  23.990  24.580  1.00  0.00     0.034 A 
ATOM     91  C   UNL A   1      30.426  22.832  26.690  1.00  0.00     0.002 A 
ATOM     92  C   UNL A   1      31.333  24.791  25.585  1.00  0.00     0.083 A 
ATOM     93  C   UNL A   1      30.598  24.216  26.635  1.00  0.00     0.022 A 
BRANCH  92  94
ATOM     94  S   UNL A   1      31.664  26.544  25.692  1.00  0.00     0.243 S 
ATOM     95  O   UNL A   1      30.873  27.024  26.806  1.00  0.00    -0.207 OA
ATOM     96  O   UNL A   1      33.104  26.666  25.667  1.00  0.00    -0.207 OA
BRANCH  94  97
ATOM     97  N   UNL A   1      31.045  27.177  24.279  1.00  0.00    -0.193 NA
ATOM     98  C   UNL A   1      31.933  27.682  23.216  1.00  0.00     0.131 C 
ATOM     99  C   UNL A   1      29.656  26.926  23.829  1.00  0.00     0.131 C 
ATOM    100  C   UNL A   1      31.289  28.912  22.566  1.00  0.00     0.177 C 
ATOM    101  C   UNL A   1      29.122  28.191  23.137  1.00  0.00     0.177 C 
ATOM    102  O   UNL A   1      29.980  28.606  22.061  1.00  0.00    -0.379 OA
ENDBRANCH  94  97
ENDBRANCH  92  94
ENDBRANCH  86  88
ENDBRANCH  82  86
ENDBRANCH  78  80
ENDBRANCH  77  78
ENDBRANCH  76  77
ENDBRANCH  75  76
ENDBRANCH  74  75
ENDBRANCH   1  74
TORSDOF 21
ENDMDL
MODEL 2
REMARK VINA RESULT:     -12.2      1.048      7.059
REMARK SMILES O=C(OCCOCCOCCOC(=O)c1ccccc1C(=O)c1cccc(S(=O)(=O)N2CCOCC2)c1)c1ccc(-c2c3nc(c(-c4c(F)c(F)c(F)c(F)c4F)c4ccc([nH]4)c(-c4c(F)c(F)c(F)c(F)c4F)c4nc(c(-c5c(F)c(F)c(F)c(F)c5F)c5ccc2[nH]5)C=C4)C=C3)cc1
REMARK SMILES IDX 8 1 7 2 6 3 5 4 4 5 3 6 2 7 1 8 38 9 39 10 100 11 40 12
REMARK SMILES IDX 99 13 41 14 42 15 43 16 93 17 44 18 98 19 92 20 94 21 45 22
REMARK SMILES IDX 97 23 91 24 90 25 46 27 78 28 58 29 77 30 59 31 62 32 76 33
REMARK SMILES IDX 95 34 60 35 61 36 75 38 96 39 63 40 47 41 48 42 56 43 49 44
REMARK SMILES IDX 50 45 54 46 57 47 51 48 52 49 55 50 53 51 79 52 80 53 88 54
REMARK SMILES IDX 81 55 82 56 86 57 89 58 83 59 84 60 87 61 85 62 64 63 65 64
REMARK SMILES IDX 73 65 66 66 67 67 71 68 74 69 68 70 69 71 72 72 70 73 9 74
REMARK SMILES IDX 10 75 11 76 12 77 13 78 14 79 15 80 16 81 20 82 17 83 19 84
REMARK SMILES IDX 18 85 21 86 22 87 23 88 24 89 37 90 25 91 27 92 26 93 28 94
REMARK SMILES IDX 29 95 30 96 31 97 32 98 36 99 33 100 35 101 34 102
REMARK H PARENT 94 26 62 37
REMARK Flexibility Score: inf
ROOT
ATOM      1  C   UNL A   1      40.809  21.136  27.278  1.00  0.00     0.188 C 
ENDROOT
BRANCH   1   2
ATOM      2  C   UNL A   1      41.504  20.372  26.156  1.00  0.00     0.188 C 
BRANCH   2   3
ATOM      3  O   UNL A   1      42.915  20.362  26.364  1.00  0.00    -0.376 OA
BRANCH   3   4
ATOM      4  C   UNL A   1      43.643  21.130  25.396  1.00  0.00     0.202 C 
BRANCH   4   5
ATOM      5  C   UNL A   1      44.050  22.488  25.957  1.00  0.00     0.261 C 
BRANCH   5   6
ATOM      6  O   UNL A   1      43.145  23.462  25.423  1.00  0.00    -0.460 OA
BRANCH   6   7
ATOM      7  C   UNL A   1      43.677  24.699  25.239  1.00  0.00     0.338 C 
ATOM      8  O   UNL A   1      44.690  24.987  24.628  1.00  0.00    -0.246 OA
BRANCH   7   9
ATOM      9  C   UNL A   1      42.793  25.658  25.928  1.00  0.00     0.060 A 
ATOM     10  C   UNL A   1      43.156  27.011  25.971  1.00  0.00     0.016 A 
ATOM     11  C   UNL A   1      41.660  25.201  26.602  1.00  0.00     0.016 A 
ATOM     12  C   UNL A   1      42.511  27.868  26.838  1.00  0.00     0.010 A 
ATOM     13  C   UNL A   1      40.995  26.071  27.467  1.00  0.00     0.010 A 
ATOM     14  C   UNL A   1      41.486  27.374  27.649  1.00  0.00    -0.014 A 
BRANCH  14  15
ATOM     15  C   UNL A   1      41.180  28.151  28.867  1.00  0.00     0.031 A 
ATOM     16  C   UNL A   1      39.926  28.973  28.875  1.00  0.00     0.074 A 
ATOM     17  C   UNL A   1      41.877  27.938  29.993  1.00  0.00     0.049 A 
ATOM     18  N   UNL A   1      39.419  29.705  29.831  1.00  0.00    -0.248 NA
ATOM     19  C   UNL A   1      39.114  28.945  27.646  1.00  0.00     0.031 C 
ATOM     20  C   UNL A   1      42.994  27.009  30.107  1.00  0.00     0.029 A 
ATOM     21  N   UNL A   1      41.718  28.433  31.257  1.00  0.00    -0.354 N 
ATOM     22  C   UNL A   1      38.249  30.241  29.309  1.00  0.00     0.074 A 
ATOM     23  C   UNL A   1      38.117  29.759  27.955  1.00  0.00     0.031 C 
ATOM     24  C   UNL A   1      43.403  26.967  31.384  1.00  0.00     0.029 A 
ATOM     25  C   UNL A   1      42.621  27.923  32.157  1.00  0.00     0.049 A 
ATOM     26  H   UNL A   1      41.025  29.089  31.499  1.00  0.00     0.167 HD
ATOM     27  C   UNL A   1      37.370  31.070  29.916  1.00  0.00     0.037 A 
ATOM     28  C   UNL A   1      42.804  28.220  33.455  1.00  0.00     0.037 A 
ATOM     29  C   UNL A   1      37.522  31.524  31.270  1.00  0.00     0.049 A 
ATOM     30  C   UNL A   1      41.883  29.230  34.076  1.00  0.00     0.074 A 
ATOM     31  C   UNL A   1      36.756  32.431  31.975  1.00  0.00     0.029 A 
ATOM     32  N   UNL A   1      38.521  31.084  32.130  1.00  0.00    -0.354 N 
ATOM     33  N   UNL A   1      40.840  29.827  33.549  1.00  0.00    -0.248 NA
ATOM     34  C   UNL A   1      42.166  29.622  35.461  1.00  0.00     0.031 C 
ATOM     35  C   UNL A   1      37.315  32.567  33.251  1.00  0.00     0.029 A 
ATOM     36  C   UNL A   1      38.403  31.712  33.355  1.00  0.00     0.049 A 
ATOM     37  H   UNL A   1      39.213  30.421  31.899  1.00  0.00     0.167 HD
ATOM     38  C   UNL A   1      40.329  30.652  34.539  1.00  0.00     0.074 A 
ATOM     39  C   UNL A   1      41.174  30.467  35.705  1.00  0.00     0.031 C 
ATOM     40  C   UNL A   1      39.263  31.489  34.491  1.00  0.00     0.037 A 
BRANCH  27  41
ATOM     41  C   UNL A   1      36.243  31.589  29.074  1.00  0.00     0.064 A 
ATOM     42  C   UNL A   1      36.156  32.936  28.692  1.00  0.00     0.173 A 
ATOM     43  C   UNL A   1      35.194  30.734  28.707  1.00  0.00     0.173 A 
ATOM     44  F   UNL A   1      37.115  33.804  29.050  1.00  0.00    -0.203 F 
ATOM     45  C   UNL A   1      35.042  33.413  28.003  1.00  0.00     0.198 A 
ATOM     46  C   UNL A   1      34.094  31.209  27.997  1.00  0.00     0.198 A 
ATOM     47  F   UNL A   1      35.223  29.440  29.060  1.00  0.00    -0.203 F 
ATOM     48  F   UNL A   1      34.946  34.718  27.707  1.00  0.00    -0.200 F 
ATOM     49  C   UNL A   1      34.014  32.550  27.656  1.00  0.00     0.200 A 
ATOM     50  F   UNL A   1      33.101  30.373  27.666  1.00  0.00    -0.200 F 
ATOM     51  F   UNL A   1      32.935  33.014  27.011  1.00  0.00    -0.200 F 
ENDBRANCH  27  41
BRANCH  28  52
ATOM     52  C   UNL A   1      43.911  27.581  34.212  1.00  0.00     0.064 A 
ATOM     53  C   UNL A   1      43.731  26.369  34.888  1.00  0.00     0.173 A 
ATOM     54  C   UNL A   1      45.189  28.163  34.253  1.00  0.00     0.173 A 
ATOM     55  F   UNL A   1      42.524  25.782  34.901  1.00  0.00    -0.203 F 
ATOM     56  C   UNL A   1      44.781  25.766  35.580  1.00  0.00     0.198 A 
ATOM     57  C   UNL A   1      46.244  27.547  34.920  1.00  0.00     0.198 A 
ATOM     58  F   UNL A   1      45.419  29.327  33.627  1.00  0.00    -0.203 F 
ATOM     59  F   UNL A   1      44.571  24.626  36.253  1.00  0.00    -0.200 F 
ATOM     60  C   UNL A   1      46.040  26.351  35.589  1.00  0.00     0.200 A 
ATOM     61  F   UNL A   1      47.460  28.113  34.915  1.00  0.00    -0.200 F 
ATOM     62  F   UNL A   1      47.049  25.771  36.252  1.00  0.00    -0.200 F 
ENDBRANCH  28  52
BRANCH  40  63
ATOM     63  C   UNL A   1      38.941  32.236  35.747  1.00  0.00     0.064 A 
ATOM     64  C   UNL A   1      38.232  31.633  36.795  1.00  0.00     0.173 A 
ATOM     65  C   UNL A   1      39.386  33.555  35.916  1.00  0.00     0.173 A 
ATOM     66  F   UNL A   1      37.775  30.379  36.667  1.00  0.00    -0.203 F 
ATOM     67  C   UNL A   1      37.960  32.336  37.963  1.00  0.00     0.198 A 
ATOM     68  C   UNL A   1      39.133  34.245  37.096  1.00  0.00     0.198 A 
ATOM     69  F   UNL A   1      40.073  34.167  34.939  1.00  0.00    -0.203 F 
ATOM     70  F   UNL A   1      37.246  31.758  38.939  1.00  0.00    -0.200 F 
ATOM     71  C   UNL A   1      38.416  33.638  38.116  1.00  0.00     0.200 A 
ATOM     72  F   UNL A   1      39.583  35.499  37.246  1.00  0.00    -0.200 F 
ATOM     73  F   UNL A   1      38.158  34.310  39.245  1.00  0.00    -0.200 F 
ENDBRANCH  40  63
ENDBRANCH  14  15
ENDBRANCH   7   9
ENDBRANCH   6   7
ENDBRANCH   5   6
ENDBRANCH   4   5
ENDBRANCH   3   4
ENDBRANCH   2   3
ENDBRANCH   1   2
BRANCH   1  74
ATOM     74  O   UNL A   1      39.745  21.979  26.859  1.00  0.00    -0.376 OA
BRANCH  74  75
ATOM     75  C   UNL A   1      38.949  21.548  25.758  1.00  0.00     0.202 C 
BRANCH  75  76
ATOM     76  C   UNL A   1      37.467  21.913  25.760  1.00  0.00     0.261 C 
BRANCH  76  77
ATOM     77  O   UNL A   1      36.554  21.407  24.758  1.00  0.00    -0.460 OA
BRANCH  77  78
ATOM     78  C   UNL A   1      36.280  20.091  24.912  1.00  0.00     0.338 C 
ATOM     79  O   UNL A   1      37.114  19.201  25.000  1.00  0.00    -0.246 OA
BRANCH  78  80
ATOM     80  C   UNL A   1      34.866  19.695  24.948  1.00  0.00     0.071 A 
ATOM     81  C   UNL A   1      34.600  18.481  24.273  1.00  0.00     0.016 A 
ATOM     82  C   UNL A   1      33.807  20.582  25.220  1.00  0.00     0.037 A 
ATOM     83  C   UNL A   1      33.310  18.159  23.843  1.00  0.00     0.001 A 
ATOM     84  C   UNL A   1      32.521  20.247  24.733  1.00  0.00     0.013 A 
ATOM     85  C   UNL A   1      32.274  19.057  24.048  1.00  0.00     0.001 A 
BRANCH  82  86
ATOM     86  C   UNL A   1      33.820  21.818  26.058  1.00  0.00     0.193 C 
ATOM     87  O   UNL A   1      34.093  21.710  27.256  1.00  0.00    -0.289 OA
BRANCH  86  88
ATOM     88  C   UNL A   1      33.595  23.190  25.592  1.00  0.00     0.024 A 
ATOM     89  C   UNL A   1      34.515  23.726  24.679  1.00  0.00     0.012 A 
ATOM     90  C   UNL A   1      32.587  23.988  26.135  1.00  0.00     0.034 A 
ATOM     91  C   UNL A   1      34.401  25.051  24.262  1.00  0.00     0.002 A 
ATOM     92  C   UNL A   1      32.455  25.307  25.685  1.00  0.00     0.083 A 
ATOM     93  C   UNL A   1      33.362  25.842  24.756  1.00  0.00     0.022 A 
BRANCH  92  94
ATOM     94  S   UNL A   1      31.049  26.323  26.121  1.00  0.00     0.243 S 
ATOM     95  O   UNL A   1      29.922  25.419  26.196  1.00  0.00    -0.207 OA
ATOM     96  O   UNL A   1      31.479  27.108  27.256  1.00  0.00    -0.207 OA
BRANCH  94  97
ATOM     97  N   UNL A   1      30.841  27.336  24.814  1.00  0.00    -0.193 NA
ATOM     98  C   UNL A   1      30.013  26.936  23.660  1.00  0.00     0.131 C 
ATOM     99  C   UNL A   1      31.117  28.791  24.874  1.00  0.00     0.131 C 
ATOM    100  C   UNL A   1      30.650  27.474  22.374  1.00  0.00     0.177 C 
ATOM    101  C   UNL A   1      31.691  29.245  23.523  1.00  0.00     0.177 C 
ATOM    102  O   UNL A   1      30.817  28.899  22.435  1.00  0.00    -0.379 OA
ENDBRANCH  94  97
ENDBRANCH  92  94
ENDBRANCH  86  88
ENDBRANCH  82  86
ENDBRANCH  78  80
ENDBRANCH  77  78
ENDBRANCH  76  77
ENDBRANCH  75  76
ENDBRANCH  74  75
ENDBRANCH   1  74
TORSDOF 21
ENDMDL
MODEL 3
REMARK VINA RESULT:     -12.0      1.039      2.220
REMARK SMILES O=C(OCCOCCOCCOC(=O)c1ccccc1C(=O)c1cccc(S(=O)(=O)N2CCOCC2)c1)c1ccc(-c2c3nc(c(-c4c(F)c(F)c(F)c(F)c4F)c4ccc([nH]4)c(-c4c(F)c(F)c(F)c(F)c4F)c4nc(c(-c5c(F)c(F)c(F)c(F)c5F)c5ccc2[nH]5)C=C4)C=C3)cc1
REMARK SMILES IDX 8 1 7 2 6 3 5 4 4 5 3 6 2 7 1 8 38 9 39 10 100 11 40 12
REMARK SMILES IDX 99 13 41 14 42 15 43 16 93 17 44 18 98 19 92 20 94 21 45 22
REMARK SMILES IDX 97 23 91 24 90 25 46 27 78 28 58 29 77 30 59 31 62 32 76 33
REMARK SMILES IDX 95 34 60 35 61 36 75 38 96 39 63 40 47 41 48 42 56 43 49 44
REMARK SMILES IDX 50 45 54 46 57 47 51 48 52 49 55 50 53 51 79 52 80 53 88 54
REMARK SMILES IDX 81 55 82 56 86 57 89 58 83 59 84 60 87 61 85 62 64 63 65 64
REMARK SMILES IDX 73 65 66 66 67 67 71 68 74 69 68 70 69 71 72 72 70 73 9 74
REMARK SMILES IDX 10 75 11 76 12 77 13 78 14 79 15 80 16 81 20 82 17 83 19 84
REMARK SMILES IDX 18 85 21 86 22 87 23 88 24 89 37 90 25 91 27 92 26 93 28 94
REMARK SMILES IDX 29 95 30 96 31 97 32 98 36 99 33 100 35 101 34 102
REMARK H PARENT 94 26 62 37
REMARK Flexibility Score: inf
ROOT
ATOM      1  C   UNL A   1      40.036  21.692  26.155  1.00  0.00     0.188 C 
ENDROOT
BRANCH   1   2
ATOM      2  C   UNL A   1      41.504  21.470  26.503  1.00  0.00     0.188 C 
BRANCH   2   3
ATOM      3  O   UNL A   1      42.335  21.855  25.410  1.00  0.00    -0.376 OA
BRANCH   3   4
ATOM      4  C   UNL A   1      43.717  21.521  25.595  1.00  0.00     0.202 C 
BRANCH   4   5
ATOM      5  C   UNL A   1      44.625  22.693  25.237  1.00  0.00     0.261 C 
BRANCH   5   6
ATOM      6  O   UNL A   1      44.312  23.766  26.134  1.00  0.00    -0.460 OA
BRANCH   6   7
ATOM      7  C   UNL A   1      44.334  25.005  25.575  1.00  0.00     0.338 C 
ATOM      8  O   UNL A   1      45.073  25.409  24.697  1.00  0.00    -0.246 OA
BRANCH   7   9
ATOM      9  C   UNL A   1      43.278  25.796  26.236  1.00  0.00     0.060 A 
ATOM     10  C   UNL A   1      43.426  27.187  26.328  1.00  0.00     0.016 A 
ATOM     11  C   UNL A   1      42.198  25.151  26.839  1.00  0.00     0.016 A 
ATOM     12  C   UNL A   1      42.614  27.910  27.177  1.00  0.00     0.010 A 
ATOM     13  C   UNL A   1      41.365  25.883  27.686  1.00  0.00     0.010 A 
ATOM     14  C   UNL A   1      41.639  27.241  27.921  1.00  0.00    -0.014 A 
BRANCH  14  15
ATOM     15  C   UNL A   1      41.157  27.925  29.138  1.00  0.00     0.031 A 
ATOM     16  C   UNL A   1      42.027  27.875  30.359  1.00  0.00     0.074 A 
ATOM     17  C   UNL A   1      40.099  28.747  29.073  1.00  0.00     0.049 A 
ATOM     18  N   UNL A   1      41.848  28.427  31.529  1.00  0.00    -0.248 NA
ATOM     19  C   UNL A   1      43.288  27.124  30.236  1.00  0.00     0.031 C 
ATOM     20  C   UNL A   1      39.317  28.990  27.868  1.00  0.00     0.029 A 
ATOM     21  N   UNL A   1      39.540  29.570  30.011  1.00  0.00    -0.354 N 
ATOM     22  C   UNL A   1      42.956  28.067  32.284  1.00  0.00     0.074 A 
ATOM     23  C   UNL A   1      43.803  27.249  31.448  1.00  0.00     0.031 C 
ATOM     24  C   UNL A   1      38.396  29.931  28.123  1.00  0.00     0.029 A 
ATOM     25  C   UNL A   1      38.482  30.300  29.530  1.00  0.00     0.049 A 
ATOM     26  H   UNL A   1      39.864  29.633  30.939  1.00  0.00     0.167 HD
ATOM     27  C   UNL A   1      43.231  28.393  33.567  1.00  0.00     0.037 A 
ATOM     28  C   UNL A   1      37.662  31.152  30.169  1.00  0.00     0.037 A 
ATOM     29  C   UNL A   1      42.375  29.219  34.370  1.00  0.00     0.049 A 
ATOM     30  C   UNL A   1      37.922  31.409  31.626  1.00  0.00     0.074 A 
ATOM     31  C   UNL A   1      42.489  29.552  35.706  1.00  0.00     0.029 A 
ATOM     32  N   UNL A   1      41.235  29.854  33.891  1.00  0.00    -0.354 N 
ATOM     33  N   UNL A   1      38.910  30.978  32.375  1.00  0.00    -0.248 NA
ATOM     34  C   UNL A   1      36.953  32.255  32.333  1.00  0.00     0.031 C 
ATOM     35  C   UNL A   1      41.396  30.359  36.043  1.00  0.00     0.029 A 
ATOM     36  C   UNL A   1      40.625  30.565  34.908  1.00  0.00     0.049 A 
ATOM     37  H   UNL A   1      40.909  29.804  32.962  1.00  0.00     0.167 HD
ATOM     38  C   UNL A   1      38.696  31.511  33.637  1.00  0.00     0.074 A 
ATOM     39  C   UNL A   1      37.487  32.309  33.546  1.00  0.00     0.031 C 
ATOM     40  C   UNL A   1      39.427  31.354  34.768  1.00  0.00     0.037 A 
BRANCH  27  41
ATOM     41  C   UNL A   1      44.453  27.769  34.173  1.00  0.00     0.064 A 
ATOM     42  C   UNL A   1      44.421  26.508  34.788  1.00  0.00     0.173 A 
ATOM     43  C   UNL A   1      45.661  28.482  34.201  1.00  0.00     0.173 A 
ATOM     44  F   UNL A   1      43.281  25.801  34.820  1.00  0.00    -0.203 F 
ATOM     45  C   UNL A   1      45.545  26.002  35.438  1.00  0.00     0.198 A 
ATOM     46  C   UNL A   1      46.788  27.962  34.831  1.00  0.00     0.198 A 
ATOM     47  F   UNL A   1      45.739  29.698  33.640  1.00  0.00    -0.203 F 
ATOM     48  F   UNL A   1      45.474  24.825  36.078  1.00  0.00    -0.200 F 
ATOM     49  C   UNL A   1      46.727  26.728  35.458  1.00  0.00     0.200 A 
ATOM     50  F   UNL A   1      47.927  28.668  34.852  1.00  0.00    -0.200 F 
ATOM     51  F   UNL A   1      47.800  26.248  36.101  1.00  0.00    -0.200 F 
ENDBRANCH  27  41
BRANCH  28  52
ATOM     52  C   UNL A   1      36.524  31.773  29.442  1.00  0.00     0.064 A 
ATOM     53  C   UNL A   1      36.494  33.145  29.169  1.00  0.00     0.173 A 
ATOM     54  C   UNL A   1      35.450  30.994  28.981  1.00  0.00     0.173 A 
ATOM     55  F   UNL A   1      37.484  33.938  29.607  1.00  0.00    -0.203 F 
ATOM     56  C   UNL A   1      35.431  33.717  28.468  1.00  0.00     0.198 A 
ATOM     57  C   UNL A   1      34.404  31.560  28.257  1.00  0.00     0.198 A 
ATOM     58  F   UNL A   1      35.425  29.674  29.218  1.00  0.00    -0.203 F 
ATOM     59  F   UNL A   1      35.407  35.040  28.255  1.00  0.00    -0.200 F 
ATOM     60  C   UNL A   1      34.392  32.923  28.006  1.00  0.00     0.200 A 
ATOM     61  F   UNL A   1      33.408  30.786  27.805  1.00  0.00    -0.200 F 
ATOM     62  F   UNL A   1      33.372  33.472  27.331  1.00  0.00    -0.200 F 
ENDBRANCH  28  52
BRANCH  40  63
ATOM     63  C   UNL A   1      38.949  32.088  35.980  1.00  0.00     0.064 A 
ATOM     64  C   UNL A   1      38.147  31.463  36.945  1.00  0.00     0.173 A 
ATOM     65  C   UNL A   1      39.335  33.419  36.197  1.00  0.00     0.173 A 
ATOM     66  F   UNL A   1      37.743  30.197  36.769  1.00  0.00    -0.203 F 
ATOM     67  C   UNL A   1      37.730  32.154  38.077  1.00  0.00     0.198 A 
ATOM     68  C   UNL A   1      38.936  34.098  37.342  1.00  0.00     0.198 A 
ATOM     69  F   UNL A   1      40.107  34.053  35.301  1.00  0.00    -0.203 F 
ATOM     70  F   UNL A   1      36.931  31.553  38.969  1.00  0.00    -0.200 F 
ATOM     71  C   UNL A   1      38.130  33.468  38.278  1.00  0.00     0.200 A 
ATOM     72  F   UNL A   1      39.331  35.364  37.540  1.00  0.00    -0.200 F 
ATOM     73  F   UNL A   1      37.731  34.129  39.372  1.00  0.00    -0.200 F 
ENDBRANCH  40  63
ENDBRANCH  14  15
ENDBRANCH   7   9
ENDBRANCH   6   7
ENDBRANCH   5   6
ENDBRANCH   4   5
ENDBRANCH   3   4
ENDBRANCH   2   3
ENDBRANCH   1   2
BRANCH   1  74
ATOM     74  O   UNL A   1      39.367  22.652  26.962  1.00  0.00    -0.376 OA
BRANCH  74  75
ATOM     75  C   UNL A   1      38.769  23.768  26.308  1.00  0.00     0.202 C 
BRANCH  75  76
ATOM     76  C   UNL A   1      37.321  23.632  25.844  1.00  0.00     0.261 C 
BRANCH  76  77
ATOM     77  O   UNL A   1      36.507  22.491  26.202  1.00  0.00    -0.460 OA
BRANCH  77  78
ATOM     78  C   UNL A   1      35.934  21.895  25.131  1.00  0.00     0.338 C 
ATOM     79  O   UNL A   1      36.226  22.110  23.964  1.00  0.00    -0.246 OA
BRANCH  78  80
ATOM     80  C   UNL A   1      34.852  20.936  25.390  1.00  0.00     0.071 A 
ATOM     81  C   UNL A   1      34.970  19.736  24.651  1.00  0.00     0.016 A 
ATOM     82  C   UNL A   1      33.608  21.285  25.950  1.00  0.00     0.037 A 
ATOM     83  C   UNL A   1      33.867  18.904  24.440  1.00  0.00     0.001 A 
ATOM     84  C   UNL A   1      32.502  20.444  25.682  1.00  0.00     0.013 A 
ATOM     85  C   UNL A   1      32.625  19.274  24.932  1.00  0.00     0.001 A 
BRANCH  82  86
ATOM     86  C   UNL A   1      33.293  22.395  26.898  1.00  0.00     0.193 C 
ATOM     87  O   UNL A   1      33.912  22.447  27.965  1.00  0.00    -0.289 OA
BRANCH  86  88
ATOM     88  C   UNL A   1      32.345  23.491  26.675  1.00  0.00     0.024 A 
ATOM     89  C   UNL A   1      30.981  23.169  26.621  1.00  0.00     0.012 A 
ATOM     90  C   UNL A   1      32.781  24.785  26.388  1.00  0.00     0.034 A 
ATOM     91  C   UNL A   1      30.037  24.154  26.331  1.00  0.00     0.002 A 
ATOM     92  C   UNL A   1      31.827  25.777  26.133  1.00  0.00     0.083 A 
ATOM     93  C   UNL A   1      30.458  25.463  26.098  1.00  0.00     0.022 A 
BRANCH  92  94
ATOM     94  S   UNL A   1      32.265  27.506  26.012  1.00  0.00     0.243 S 
ATOM     95  O   UNL A   1      31.491  28.179  27.033  1.00  0.00    -0.207 OA
ATOM     96  O   UNL A   1      33.711  27.537  26.001  1.00  0.00    -0.207 OA
BRANCH  94  97
ATOM     97  N   UNL A   1      31.706  27.978  24.514  1.00  0.00    -0.193 NA
ATOM     98  C   UNL A   1      31.182  29.338  24.287  1.00  0.00     0.131 C 
ATOM     99  C   UNL A   1      32.042  27.252  23.267  1.00  0.00     0.131 C 
ATOM    100  C   UNL A   1      30.007  29.267  23.306  1.00  0.00     0.177 C 
ATOM    101  C   UNL A   1      30.828  27.291  22.325  1.00  0.00     0.177 C 
ATOM    102  O   UNL A   1      30.397  28.640  22.075  1.00  0.00    -0.379 OA
ENDBRANCH  94  97
ENDBRANCH  92  94
ENDBRANCH  86  88
ENDBRANCH  82  86
ENDBRANCH  78  80
ENDBRANCH  77  78
ENDBRANCH  76  77
ENDBRANCH  75  76
ENDBRANCH  74  75
ENDBRANCH   1  74
TORSDOF 21
ENDMDL
