MODEL 1
REMARK VINA RESULT:     -12.2      0.000      0.000
REMARK SMILES O=C(COc1ccccc1/C=C1\C(=O)Nc2ccccc21)OCCOCCOCCOC(=O)c1ccc(-c2c3nc(c(-c4c(F)c(F)c(F)c(F)c4F)c4ccc([nH]4)c(-c4c(F)c(F)c(F)c(F)c4F)c4nc(c(-c5c(F)c(F)c(F)c(F)c5F)c5ccc2[nH]5)C=C4)C=C3)cc1
REMARK SMILES IDX 26 1 25 2 24 3 23 4 22 5 2 6 1 7 3 8 4 9 5 10 6 11 10 12
REMARK SMILES IDX 7 13 9 14 8 15 11 16 12 17 13 18 21 19 14 20 15 21 16 22
REMARK SMILES IDX 20 23 17 25 19 26 18 27 27 28 28 29 29 30 30 31 31 32 32 33
REMARK SMILES IDX 33 34 34 35 35 36 96 37 36 38 95 39 37 40 38 41 39 42 89 43
REMARK SMILES IDX 40 44 94 45 88 46 90 47 41 48 93 49 87 50 86 51 42 53 74 54
REMARK SMILES IDX 54 55 73 56 55 57 58 58 72 59 91 60 56 61 57 62 71 64 92 65
REMARK SMILES IDX 59 66 43 67 44 68 52 69 45 70 46 71 50 72 53 73 47 74 48 75
REMARK SMILES IDX 51 76 49 77 75 78 76 79 84 80 77 81 78 82 82 83 85 84 79 85
REMARK SMILES IDX 80 86 83 87 81 88 60 89 61 90 69 91 62 92 63 93 67 94 70 95
REMARK SMILES IDX 64 96 65 97 68 98 66 99
REMARK H PARENT 15 24 90 52 58 63
REMARK Flexibility Score: inf
ROOT
ATOM      1  C   UNL A   1      42.817  18.817  26.089  1.00  0.00     0.188 C 
ENDROOT
BRANCH   1   2
ATOM      2  O   UNL A   1      41.718  19.677  25.858  1.00  0.00    -0.376 OA
BRANCH   2   3
ATOM      3  C   UNL A   1      40.925  20.004  26.983  1.00  0.00     0.202 C 
BRANCH   3   4
ATOM      4  C   UNL A   1      40.391  21.436  26.992  1.00  0.00     0.261 C 
BRANCH   4   5
ATOM      5  O   UNL A   1      39.504  21.829  25.909  1.00  0.00    -0.461 OA
BRANCH   5   6
ATOM      6  C   UNL A   1      38.423  22.644  25.905  1.00  0.00     0.344 C 
ATOM      7  O   UNL A   1      38.416  23.654  26.609  1.00  0.00    -0.248 OA
BRANCH   6   8
ATOM      8  C   UNL A   1      37.204  22.265  25.103  1.00  0.00     0.351 C 
BRANCH   8   9
ATOM      9  O   UNL A   1      36.018  22.403  25.857  1.00  0.00    -0.481 OA
BRANCH   9  10
ATOM     10  C   UNL A   1      35.093  23.131  25.171  1.00  0.00     0.127 A 
ATOM     11  C   UNL A   1      35.157  24.507  25.419  1.00  0.00     0.047 A 
ATOM     12  C   UNL A   1      34.140  22.562  24.305  1.00  0.00     0.017 A 
ATOM     13  C   UNL A   1      34.267  25.359  24.790  1.00  0.00     0.004 A 
ATOM     14  C   UNL A   1      33.191  23.439  23.770  1.00  0.00     0.012 A 
ATOM     15  C   UNL A   1      33.274  24.822  23.979  1.00  0.00     0.001 A 
BRANCH  12  16
ATOM     16  C   UNL A   1      34.093  21.118  23.939  1.00  0.00     0.026 C 
ATOM     17  C   UNL A   1      33.592  20.119  24.696  1.00  0.00     0.050 C 
ATOM     18  C   UNL A   1      33.022  20.283  26.091  1.00  0.00     0.256 C 
ATOM     19  C   UNL A   1      33.570  18.664  24.418  1.00  0.00     0.011 A 
ATOM     20  O   UNL A   1      32.694  21.295  26.673  1.00  0.00    -0.269 OA
ATOM     21  N   UNL A   1      32.926  19.001  26.596  1.00  0.00    -0.321 N 
ATOM     22  C   UNL A   1      33.213  18.051  25.628  1.00  0.00     0.049 A 
ATOM     23  C   UNL A   1      33.745  17.872  23.295  1.00  0.00     0.011 A 
ATOM     24  H   UNL A   1      32.683  18.789  27.526  1.00  0.00     0.170 HD
ATOM     25  C   UNL A   1      33.091  16.684  25.792  1.00  0.00     0.027 A 
ATOM     26  C   UNL A   1      33.593  16.477  23.428  1.00  0.00     0.001 A 
ATOM     27  C   UNL A   1      33.286  15.888  24.669  1.00  0.00     0.002 A 
ENDBRANCH  12  16
ENDBRANCH   9  10
ENDBRANCH   8   9
ENDBRANCH   6   8
ENDBRANCH   5   6
ENDBRANCH   4   5
ENDBRANCH   3   4
ENDBRANCH   2   3
ENDBRANCH   1   2
BRANCH   1  28
ATOM     28  C   UNL A   1      43.918  18.871  25.007  1.00  0.00     0.188 C 
BRANCH  28  29
ATOM     29  O   UNL A   1      44.185  20.095  24.342  1.00  0.00    -0.376 OA
BRANCH  29  30
ATOM     30  C   UNL A   1      45.219  20.929  24.836  1.00  0.00     0.202 C 
BRANCH  30  31
ATOM     31  C   UNL A   1      44.881  21.921  25.962  1.00  0.00     0.261 C 
BRANCH  31  32
ATOM     32  O   UNL A   1      43.704  22.735  25.759  1.00  0.00    -0.460 OA
BRANCH  32  33
ATOM     33  C   UNL A   1      43.908  23.996  25.298  1.00  0.00     0.338 C 
ATOM     34  O   UNL A   1      44.535  24.319  24.303  1.00  0.00    -0.246 OA
BRANCH  33  35
ATOM     35  C   UNL A   1      43.103  24.976  26.077  1.00  0.00     0.060 A 
ATOM     36  C   UNL A   1      43.394  26.347  25.964  1.00  0.00     0.016 A 
ATOM     37  C   UNL A   1      42.116  24.552  26.965  1.00  0.00     0.016 A 
ATOM     38  C   UNL A   1      42.742  27.287  26.771  1.00  0.00     0.010 A 
ATOM     39  C   UNL A   1      41.484  25.490  27.795  1.00  0.00     0.010 A 
ATOM     40  C   UNL A   1      41.824  26.857  27.736  1.00  0.00    -0.014 A 
BRANCH  40  41
ATOM     41  C   UNL A   1      41.417  27.762  28.848  1.00  0.00     0.031 A 
ATOM     42  C   UNL A   1      42.186  27.680  30.142  1.00  0.00     0.074 A 
ATOM     43  C   UNL A   1      40.394  28.629  28.743  1.00  0.00     0.049 A 
ATOM     44  N   UNL A   1      41.948  28.248  31.298  1.00  0.00    -0.248 NA
ATOM     45  C   UNL A   1      43.384  26.826  30.128  1.00  0.00     0.031 C 
ATOM     46  C   UNL A   1      39.602  28.867  27.540  1.00  0.00     0.029 A 
ATOM     47  N   UNL A   1      39.832  29.460  29.686  1.00  0.00    -0.354 N 
ATOM     48  C   UNL A   1      42.952  27.803  32.149  1.00  0.00     0.074 A 
ATOM     49  C   UNL A   1      43.783  26.897  31.387  1.00  0.00     0.031 C 
ATOM     50  C   UNL A   1      38.640  29.763  27.824  1.00  0.00     0.029 A 
ATOM     51  C   UNL A   1      38.722  30.132  29.239  1.00  0.00     0.049 A 
ATOM     52  H   UNL A   1      40.194  29.563  30.596  1.00  0.00     0.167 HD
ATOM     53  C   UNL A   1      43.166  28.119  33.450  1.00  0.00     0.037 A 
ATOM     54  C   UNL A   1      37.852  30.924  29.902  1.00  0.00     0.037 A 
ATOM     55  C   UNL A   1      42.343  29.020  34.213  1.00  0.00     0.049 A 
ATOM     56  C   UNL A   1      38.058  31.197  31.374  1.00  0.00     0.074 A 
ATOM     57  C   UNL A   1      42.490  29.416  35.530  1.00  0.00     0.029 A 
ATOM     58  N   UNL A   1      41.212  29.660  33.727  1.00  0.00    -0.354 N 
ATOM     59  N   UNL A   1      39.011  30.780  32.172  1.00  0.00    -0.248 NA
ATOM     60  C   UNL A   1      37.062  32.052  32.038  1.00  0.00     0.031 C 
ATOM     61  C   UNL A   1      41.412  30.242  35.862  1.00  0.00     0.029 A 
ATOM     62  C   UNL A   1      40.634  30.423  34.730  1.00  0.00     0.049 A 
ATOM     63  H   UNL A   1      40.871  29.584  32.807  1.00  0.00     0.167 HD
ATOM     64  C   UNL A   1      38.754  31.352  33.413  1.00  0.00     0.074 A 
ATOM     65  C   UNL A   1      37.556  32.150  33.264  1.00  0.00     0.031 C 
ATOM     66  C   UNL A   1      39.450  31.229  34.571  1.00  0.00     0.037 A 
BRANCH  53  67
ATOM     67  C   UNL A   1      44.319  27.449  34.143  1.00  0.00     0.064 A 
ATOM     68  C   UNL A   1      44.159  26.259  34.869  1.00  0.00     0.173 A 
ATOM     69  C   UNL A   1      45.608  27.999  34.063  1.00  0.00     0.173 A 
ATOM     70  F   UNL A   1      42.946  25.698  34.989  1.00  0.00    -0.203 F 
ATOM     71  C   UNL A   1      45.239  25.665  35.518  1.00  0.00     0.198 A 
ATOM     72  C   UNL A   1      46.691  27.382  34.680  1.00  0.00     0.198 A 
ATOM     73  F   UNL A   1      45.819  29.132  33.376  1.00  0.00    -0.203 F 
ATOM     74  F   UNL A   1      45.051  24.562  36.255  1.00  0.00    -0.200 F 
ATOM     75  C   UNL A   1      46.505  26.223  35.417  1.00  0.00     0.200 A 
ATOM     76  F   UNL A   1      47.916  27.913  34.568  1.00  0.00    -0.200 F 
ATOM     77  F   UNL A   1      47.544  25.646  36.037  1.00  0.00    -0.200 F 
ENDBRANCH  53  67
BRANCH  54  78
ATOM     78  C   UNL A   1      36.683  31.510  29.189  1.00  0.00     0.064 A 
ATOM     79  C   UNL A   1      36.626  32.878  28.892  1.00  0.00     0.173 A 
ATOM     80  C   UNL A   1      35.584  30.718  28.820  1.00  0.00     0.173 A 
ATOM     81  F   UNL A   1      37.635  33.684  29.255  1.00  0.00    -0.203 F 
ATOM     82  C   UNL A   1      35.512  33.437  28.269  1.00  0.00     0.198 A 
ATOM     83  C   UNL A   1      34.483  31.271  28.168  1.00  0.00     0.198 A 
ATOM     84  F   UNL A   1      35.581  29.404  29.088  1.00  0.00    -0.203 F 
ATOM     85  F   UNL A   1      35.462  34.757  28.046  1.00  0.00    -0.200 F 
ATOM     86  C   UNL A   1      34.444  32.631  27.900  1.00  0.00     0.200 A 
ATOM     87  F   UNL A   1      33.459  30.488  27.804  1.00  0.00    -0.200 F 
ATOM     88  F   UNL A   1      33.373  33.167  27.297  1.00  0.00    -0.200 F 
ENDBRANCH  54  78
BRANCH  66  89
ATOM     89  C   UNL A   1      38.980  32.019  35.762  1.00  0.00     0.064 A 
ATOM     90  C   UNL A   1      38.198  31.444  36.776  1.00  0.00     0.173 A 
ATOM     91  C   UNL A   1      39.366  33.360  35.917  1.00  0.00     0.173 A 
ATOM     92  F   UNL A   1      37.791  30.171  36.674  1.00  0.00    -0.203 F 
ATOM     93  C   UNL A   1      37.799  32.191  37.883  1.00  0.00     0.198 A 
ATOM     94  C   UNL A   1      38.995  34.093  37.041  1.00  0.00     0.198 A 
ATOM     95  F   UNL A   1      40.122  33.958  34.983  1.00  0.00    -0.203 F 
ATOM     96  F   UNL A   1      37.011  31.635  38.814  1.00  0.00    -0.200 F 
ATOM     97  C   UNL A   1      38.205  33.510  38.020  1.00  0.00     0.200 A 
ATOM     98  F   UNL A   1      39.406  35.361  37.180  1.00  0.00    -0.200 F 
ATOM     99  F   UNL A   1      37.831  34.221  39.093  1.00  0.00    -0.200 F 
ENDBRANCH  66  89
ENDBRANCH  40  41
ENDBRANCH  33  35
ENDBRANCH  32  33
ENDBRANCH  31  32
ENDBRANCH  30  31
ENDBRANCH  29  30
ENDBRANCH  28  29
ENDBRANCH   1  28
TORSDOF 20
ENDMDL
MODEL 2
REMARK VINA RESULT:     -12.1      1.203      2.841
REMARK SMILES O=C(COc1ccccc1/C=C1\C(=O)Nc2ccccc21)OCCOCCOCCOC(=O)c1ccc(-c2c3nc(c(-c4c(F)c(F)c(F)c(F)c4F)c4ccc([nH]4)c(-c4c(F)c(F)c(F)c(F)c4F)c4nc(c(-c5c(F)c(F)c(F)c(F)c5F)c5ccc2[nH]5)C=C4)C=C3)cc1
REMARK SMILES IDX 26 1 25 2 24 3 23 4 22 5 2 6 1 7 3 8 4 9 5 10 6 11 10 12
REMARK SMILES IDX 7 13 9 14 8 15 11 16 12 17 13 18 21 19 14 20 15 21 16 22
REMARK SMILES IDX 20 23 17 25 19 26 18 27 27 28 28 29 29 30 30 31 31 32 32 33
REMARK SMILES IDX 33 34 34 35 35 36 96 37 36 38 95 39 37 40 38 41 39 42 89 43
REMARK SMILES IDX 40 44 94 45 88 46 90 47 41 48 93 49 87 50 86 51 42 53 74 54
REMARK SMILES IDX 54 55 73 56 55 57 58 58 72 59 91 60 56 61 57 62 71 64 92 65
REMARK SMILES IDX 59 66 43 67 44 68 52 69 45 70 46 71 50 72 53 73 47 74 48 75
REMARK SMILES IDX 51 76 49 77 75 78 76 79 84 80 77 81 78 82 82 83 85 84 79 85
REMARK SMILES IDX 80 86 83 87 81 88 60 89 61 90 69 91 62 92 63 93 67 94 70 95
REMARK SMILES IDX 64 96 65 97 68 98 66 99
REMARK H PARENT 15 24 90 52 58 63
REMARK Flexibility Score: inf
ROOT
ATOM      1  C   UNL A   1      42.140  19.693  26.432  1.00  0.00     0.188 C 
ENDROOT
BRANCH   1   2
ATOM      2  O   UNL A   1      41.422  20.851  26.054  1.00  0.00    -0.376 OA
BRANCH   2   3
ATOM      3  C   UNL A   1      40.422  21.293  26.952  1.00  0.00     0.202 C 
BRANCH   3   4
ATOM      4  C   UNL A   1      39.346  22.179  26.324  1.00  0.00     0.261 C 
BRANCH   4   5
ATOM      5  O   UNL A   1      38.385  21.541  25.439  1.00  0.00    -0.461 OA
BRANCH   5   6
ATOM      6  C   UNL A   1      37.153  21.938  25.041  1.00  0.00     0.344 C 
ATOM      7  O   UNL A   1      37.016  23.010  24.450  1.00  0.00    -0.248 OA
BRANCH   6   8
ATOM      8  C   UNL A   1      35.947  21.106  25.397  1.00  0.00     0.351 C 
BRANCH   8   9
ATOM      9  O   UNL A   1      34.745  21.728  24.998  1.00  0.00    -0.481 OA
BRANCH   9  10
ATOM     10  C   UNL A   1      33.892  20.819  24.446  1.00  0.00     0.127 A 
ATOM     11  C   UNL A   1      34.092  19.509  24.895  1.00  0.00     0.047 A 
ATOM     12  C   UNL A   1      32.910  21.152  23.494  1.00  0.00     0.017 A 
ATOM     13  C   UNL A   1      33.296  18.488  24.407  1.00  0.00     0.004 A 
ATOM     14  C   UNL A   1      32.196  20.082  22.945  1.00  0.00     0.012 A 
ATOM     15  C   UNL A   1      32.360  18.773  23.419  1.00  0.00     0.001 A 
BRANCH  12  16
ATOM     16  C   UNL A   1      32.598  22.542  23.057  1.00  0.00     0.026 C 
ATOM     17  C   UNL A   1      31.817  23.427  23.711  1.00  0.00     0.050 C 
ATOM     18  C   UNL A   1      31.070  23.146  25.000  1.00  0.00     0.256 C 
ATOM     19  C   UNL A   1      31.420  24.796  23.303  1.00  0.00     0.011 A 
ATOM     20  O   UNL A   1      31.203  22.229  25.781  1.00  0.00    -0.269 OA
ATOM     21  N   UNL A   1      30.175  24.190  25.134  1.00  0.00    -0.321 N 
ATOM     22  C   UNL A   1      30.385  25.168  24.174  1.00  0.00     0.049 A 
ATOM     23  C   UNL A   1      31.871  25.716  22.371  1.00  0.00     0.011 A 
ATOM     24  H   UNL A   1      29.475  24.234  25.826  1.00  0.00     0.170 HD
ATOM     25  C   UNL A   1      29.730  26.383  24.117  1.00  0.00     0.027 A 
ATOM     26  C   UNL A   1      31.241  26.976  22.315  1.00  0.00     0.001 A 
ATOM     27  C   UNL A   1      30.170  27.299  23.168  1.00  0.00     0.002 A 
ENDBRANCH  12  16
ENDBRANCH   9  10
ENDBRANCH   8   9
ENDBRANCH   6   8
ENDBRANCH   5   6
ENDBRANCH   4   5
ENDBRANCH   3   4
ENDBRANCH   2   3
ENDBRANCH   1   2
BRANCH   1  28
ATOM     28  C   UNL A   1      43.222  19.248  25.423  1.00  0.00     0.188 C 
BRANCH  28  29
ATOM     29  O   UNL A   1      43.862  20.218  24.610  1.00  0.00    -0.376 OA
BRANCH  29  30
ATOM     30  C   UNL A   1      45.146  20.685  24.986  1.00  0.00     0.202 C 
BRANCH  30  31
ATOM     31  C   UNL A   1      45.236  21.940  25.871  1.00  0.00     0.261 C 
BRANCH  31  32
ATOM     32  O   UNL A   1      44.034  22.737  25.968  1.00  0.00    -0.460 OA
BRANCH  32  33
ATOM     33  C   UNL A   1      44.066  23.961  25.380  1.00  0.00     0.338 C 
ATOM     34  O   UNL A   1      44.559  24.242  24.301  1.00  0.00    -0.246 OA
BRANCH  33  35
ATOM     35  C   UNL A   1      43.247  24.934  26.153  1.00  0.00     0.060 A 
ATOM     36  C   UNL A   1      43.512  26.309  26.024  1.00  0.00     0.016 A 
ATOM     37  C   UNL A   1      42.271  24.502  27.050  1.00  0.00     0.016 A 
ATOM     38  C   UNL A   1      42.847  27.246  26.825  1.00  0.00     0.010 A 
ATOM     39  C   UNL A   1      41.626  25.437  27.873  1.00  0.00     0.010 A 
ATOM     40  C   UNL A   1      41.942  26.809  27.798  1.00  0.00    -0.014 A 
BRANCH  40  41
ATOM     41  C   UNL A   1      41.523  27.719  28.902  1.00  0.00     0.031 A 
ATOM     42  C   UNL A   1      42.285  27.648  30.201  1.00  0.00     0.074 A 
ATOM     43  C   UNL A   1      40.496  28.580  28.786  1.00  0.00     0.049 A 
ATOM     44  N   UNL A   1      42.036  28.222  31.352  1.00  0.00    -0.248 NA
ATOM     45  C   UNL A   1      43.487  26.800  30.199  1.00  0.00     0.031 C 
ATOM     46  C   UNL A   1      39.710  28.806  27.578  1.00  0.00     0.029 A 
ATOM     47  N   UNL A   1      39.924  29.413  29.721  1.00  0.00    -0.354 N 
ATOM     48  C   UNL A   1      43.038  27.787  32.212  1.00  0.00     0.074 A 
ATOM     49  C   UNL A   1      43.878  26.881  31.461  1.00  0.00     0.031 C 
ATOM     50  C   UNL A   1      38.741  29.699  27.850  1.00  0.00     0.029 A 
ATOM     51  C   UNL A   1      38.813  30.077  29.263  1.00  0.00     0.049 A 
ATOM     52  H   UNL A   1      40.280  29.524  30.632  1.00  0.00     0.167 HD
ATOM     53  C   UNL A   1      43.243  28.112  33.512  1.00  0.00     0.037 A 
ATOM     54  C   UNL A   1      37.935  30.868  29.917  1.00  0.00     0.037 A 
ATOM     55  C   UNL A   1      42.410  29.013  34.265  1.00  0.00     0.049 A 
ATOM     56  C   UNL A   1      38.131  31.150  31.388  1.00  0.00     0.074 A 
ATOM     57  C   UNL A   1      42.548  29.417  35.581  1.00  0.00     0.029 A 
ATOM     58  N   UNL A   1      41.279  29.643  33.768  1.00  0.00    -0.354 N 
ATOM     59  N   UNL A   1      39.082  30.743  32.194  1.00  0.00    -0.248 NA
ATOM     60  C   UNL A   1      37.126  32.004  32.041  1.00  0.00     0.031 C 
ATOM     61  C   UNL A   1      41.463  30.240  35.902  1.00  0.00     0.029 A 
ATOM     62  C   UNL A   1      40.691  30.410  34.764  1.00  0.00     0.049 A 
ATOM     63  H   UNL A   1      40.943  29.560  32.847  1.00  0.00     0.167 HD
ATOM     64  C   UNL A   1      38.813  31.321  33.430  1.00  0.00     0.074 A 
ATOM     65  C   UNL A   1      37.612  32.112  33.269  1.00  0.00     0.031 C 
ATOM     66  C   UNL A   1      39.504  31.208  34.593  1.00  0.00     0.037 A 
BRANCH  53  67
ATOM     67  C   UNL A   1      44.395  27.452  34.216  1.00  0.00     0.064 A 
ATOM     68  C   UNL A   1      44.279  26.182  34.801  1.00  0.00     0.173 A 
ATOM     69  C   UNL A   1      45.640  28.096  34.289  1.00  0.00     0.173 A 
ATOM     70  F   UNL A   1      43.107  25.529  34.772  1.00  0.00    -0.203 F 
ATOM     71  C   UNL A   1      45.356  25.597  35.463  1.00  0.00     0.198 A 
ATOM     72  C   UNL A   1      46.724  27.492  34.918  1.00  0.00     0.198 A 
ATOM     73  F   UNL A   1      45.808  29.309  33.741  1.00  0.00    -0.203 F 
ATOM     74  F   UNL A   1      45.204  24.410  36.066  1.00  0.00    -0.200 F 
ATOM     75  C   UNL A   1      46.579  26.249  35.515  1.00  0.00     0.200 A 
ATOM     76  F   UNL A   1      47.910  28.116  34.953  1.00  0.00    -0.200 F 
ATOM     77  F   UNL A   1      47.616  25.682  36.148  1.00  0.00    -0.200 F 
ENDBRANCH  53  67
BRANCH  54  78
ATOM     78  C   UNL A   1      36.767  31.443  29.193  1.00  0.00     0.064 A 
ATOM     79  C   UNL A   1      36.714  32.805  28.870  1.00  0.00     0.173 A 
ATOM     80  C   UNL A   1      35.666  30.647  28.840  1.00  0.00     0.173 A 
ATOM     81  F   UNL A   1      37.725  33.615  29.218  1.00  0.00    -0.203 F 
ATOM     82  C   UNL A   1      35.600  33.355  28.237  1.00  0.00     0.198 A 
ATOM     83  C   UNL A   1      34.566  31.191  28.178  1.00  0.00     0.198 A 
ATOM     84  F   UNL A   1      35.660  29.339  29.132  1.00  0.00    -0.203 F 
ATOM     85  F   UNL A   1      35.554  34.671  27.990  1.00  0.00    -0.200 F 
ATOM     86  C   UNL A   1      34.530  32.546  27.885  1.00  0.00     0.200 A 
ATOM     87  F   UNL A   1      33.540  30.404  27.830  1.00  0.00    -0.200 F 
ATOM     88  F   UNL A   1      33.461  33.073  27.272  1.00  0.00    -0.200 F 
ENDBRANCH  54  78
BRANCH  66  89
ATOM     89  C   UNL A   1      39.022  32.003  35.776  1.00  0.00     0.064 A 
ATOM     90  C   UNL A   1      38.226  31.433  36.782  1.00  0.00     0.173 A 
ATOM     91  C   UNL A   1      39.411  33.343  35.933  1.00  0.00     0.173 A 
ATOM     92  F   UNL A   1      37.816  30.160  36.680  1.00  0.00    -0.203 F 
ATOM     93  C   UNL A   1      37.817  32.184  37.884  1.00  0.00     0.198 A 
ATOM     94  C   UNL A   1      39.029  34.079  37.051  1.00  0.00     0.198 A 
ATOM     95  F   UNL A   1      40.180  33.936  35.007  1.00  0.00    -0.203 F 
ATOM     96  F   UNL A   1      37.017  31.632  38.807  1.00  0.00    -0.200 F 
ATOM     97  C   UNL A   1      38.226  33.501  38.022  1.00  0.00     0.200 A 
ATOM     98  F   UNL A   1      39.443  35.346  37.191  1.00  0.00    -0.200 F 
ATOM     99  F   UNL A   1      37.842  34.216  39.089  1.00  0.00    -0.200 F 
ENDBRANCH  66  89
ENDBRANCH  40  41
ENDBRANCH  33  35
ENDBRANCH  32  33
ENDBRANCH  31  32
ENDBRANCH  30  31
ENDBRANCH  29  30
ENDBRANCH  28  29
ENDBRANCH   1  28
TORSDOF 20
ENDMDL
MODEL 3
REMARK VINA RESULT:     -11.1      5.888     11.428
REMARK SMILES O=C(COc1ccccc1/C=C1\C(=O)Nc2ccccc21)OCCOCCOCCOC(=O)c1ccc(-c2c3nc(c(-c4c(F)c(F)c(F)c(F)c4F)c4ccc([nH]4)c(-c4c(F)c(F)c(F)c(F)c4F)c4nc(c(-c5c(F)c(F)c(F)c(F)c5F)c5ccc2[nH]5)C=C4)C=C3)cc1
REMARK SMILES IDX 26 1 25 2 24 3 23 4 22 5 2 6 1 7 3 8 4 9 5 10 6 11 10 12
REMARK SMILES IDX 7 13 9 14 8 15 11 16 12 17 13 18 21 19 14 20 15 21 16 22
REMARK SMILES IDX 20 23 17 25 19 26 18 27 27 28 28 29 29 30 30 31 31 32 32 33
REMARK SMILES IDX 33 34 34 35 35 36 96 37 36 38 95 39 37 40 38 41 39 42 89 43
REMARK SMILES IDX 40 44 94 45 88 46 90 47 41 48 93 49 87 50 86 51 42 53 74 54
REMARK SMILES IDX 54 55 73 56 55 57 58 58 72 59 91 60 56 61 57 62 71 64 92 65
REMARK SMILES IDX 59 66 43 67 44 68 52 69 45 70 46 71 50 72 53 73 47 74 48 75
REMARK SMILES IDX 51 76 49 77 75 78 76 79 84 80 77 81 78 82 82 83 85 84 79 85
REMARK SMILES IDX 80 86 83 87 81 88 60 89 61 90 69 91 62 92 63 93 67 94 70 95
REMARK SMILES IDX 64 96 65 97 68 98 66 99
REMARK H PARENT 15 24 90 52 58 63
REMARK Flexibility Score: inf
ROOT
ATOM      1  C   UNL A   1      35.308  32.597  28.926  1.00  0.00     0.188 C 
ENDROOT
BRANCH   1   2
ATOM      2  O   UNL A   1      34.270  31.727  28.517  1.00  0.00    -0.376 OA
BRANCH   2   3
ATOM      3  C   UNL A   1      34.511  30.961  27.353  1.00  0.00     0.202 C 
BRANCH   3   4
ATOM      4  C   UNL A   1      34.059  29.503  27.442  1.00  0.00     0.261 C 
BRANCH   4   5
ATOM      5  O   UNL A   1      32.731  29.181  26.946  1.00  0.00    -0.461 OA
BRANCH   5   6
ATOM      6  C   UNL A   1      31.949  28.096  27.156  1.00  0.00     0.344 C 
ATOM      7  O   UNL A   1      31.057  28.139  28.004  1.00  0.00    -0.248 OA
BRANCH   6   8
ATOM      8  C   UNL A   1      32.230  26.816  26.410  1.00  0.00     0.351 C 
BRANCH   8   9
ATOM      9  O   UNL A   1      31.263  25.826  26.688  1.00  0.00    -0.481 OA
BRANCH   9  10
ATOM     10  C   UNL A   1      31.279  24.856  25.731  1.00  0.00     0.127 A 
ATOM     11  C   UNL A   1      32.074  23.751  26.056  1.00  0.00     0.047 A 
ATOM     12  C   UNL A   1      30.581  24.954  24.512  1.00  0.00     0.017 A 
ATOM     13  C   UNL A   1      32.181  22.697  25.165  1.00  0.00     0.004 A 
ATOM     14  C   UNL A   1      30.797  23.922  23.593  1.00  0.00     0.012 A 
ATOM     15  C   UNL A   1      31.556  22.792  23.927  1.00  0.00     0.001 A 
BRANCH  12  16
ATOM     16  C   UNL A   1      29.651  26.064  24.162  1.00  0.00     0.026 C 
ATOM     17  C   UNL A   1      29.939  27.130  23.384  1.00  0.00     0.050 C 
ATOM     18  C   UNL A   1      31.290  27.413  22.757  1.00  0.00     0.256 C 
ATOM     19  C   UNL A   1      29.084  28.293  23.048  1.00  0.00     0.011 A 
ATOM     20  O   UNL A   1      32.245  26.679  22.626  1.00  0.00    -0.269 OA
ATOM     21  N   UNL A   1      31.221  28.724  22.326  1.00  0.00    -0.321 N 
ATOM     22  C   UNL A   1      29.940  29.237  22.462  1.00  0.00     0.049 A 
ATOM     23  C   UNL A   1      27.731  28.577  23.126  1.00  0.00     0.011 A 
ATOM     24  H   UNL A   1      31.986  29.229  21.966  1.00  0.00     0.170 HD
ATOM     25  C   UNL A   1      29.528  30.478  22.015  1.00  0.00     0.027 A 
ATOM     26  C   UNL A   1      27.279  29.822  22.645  1.00  0.00     0.001 A 
ATOM     27  C   UNL A   1      28.171  30.770  22.111  1.00  0.00     0.002 A 
ENDBRANCH  12  16
ENDBRANCH   9  10
ENDBRANCH   8   9
ENDBRANCH   6   8
ENDBRANCH   5   6
ENDBRANCH   4   5
ENDBRANCH   3   4
ENDBRANCH   2   3
ENDBRANCH   1   2
BRANCH   1  28
ATOM     28  C   UNL A   1      34.828  33.952  29.491  1.00  0.00     0.188 C 
BRANCH  28  29
ATOM     29  O   UNL A   1      34.828  34.165  30.893  1.00  0.00    -0.376 OA
BRANCH  29  30
ATOM     30  C   UNL A   1      34.253  33.179  31.734  1.00  0.00     0.202 C 
BRANCH  30  31
ATOM     31  C   UNL A   1      35.057  32.703  32.955  1.00  0.00     0.261 C 
BRANCH  31  32
ATOM     32  O   UNL A   1      36.483  32.934  32.907  1.00  0.00    -0.460 OA
BRANCH  32  33
ATOM     33  C   UNL A   1      37.270  32.026  33.541  1.00  0.00     0.338 C 
ATOM     34  O   UNL A   1      37.217  31.707  34.717  1.00  0.00    -0.246 OA
BRANCH  33  35
ATOM     35  C   UNL A   1      38.129  31.304  32.563  1.00  0.00     0.060 A 
ATOM     36  C   UNL A   1      39.258  30.606  33.028  1.00  0.00     0.016 A 
ATOM     37  C   UNL A   1      37.871  31.366  31.195  1.00  0.00     0.016 A 
ATOM     38  C   UNL A   1      40.157  30.018  32.129  1.00  0.00     0.010 A 
ATOM     39  C   UNL A   1      38.787  30.803  30.294  1.00  0.00     0.010 A 
ATOM     40  C   UNL A   1      39.958  30.165  30.751  1.00  0.00    -0.014 A 
BRANCH  40  41
ATOM     41  C   UNL A   1      41.070  29.900  29.795  1.00  0.00     0.031 A 
ATOM     42  C   UNL A   1      41.143  28.535  29.159  1.00  0.00     0.074 A 
ATOM     43  C   UNL A   1      42.004  30.819  29.493  1.00  0.00     0.049 A 
ATOM     44  N   UNL A   1      42.080  28.006  28.412  1.00  0.00    -0.248 NA
ATOM     45  C   UNL A   1      40.003  27.641  29.417  1.00  0.00     0.031 C 
ATOM     46  C   UNL A   1      42.029  32.196  29.975  1.00  0.00     0.029 A 
ATOM     47  N   UNL A   1      43.135  30.715  28.714  1.00  0.00    -0.354 N 
ATOM     48  C   UNL A   1      41.650  26.715  28.130  1.00  0.00     0.074 A 
ATOM     49  C   UNL A   1      40.387  26.530  28.809  1.00  0.00     0.031 C 
ATOM     50  C   UNL A   1      43.134  32.802  29.504  1.00  0.00     0.029 A 
ATOM     51  C   UNL A   1      43.915  31.845  28.720  1.00  0.00     0.049 A 
ATOM     52  H   UNL A   1      43.361  29.906  28.200  1.00  0.00     0.167 HD
ATOM     53  C   UNL A   1      42.252  25.765  27.372  1.00  0.00     0.037 A 
ATOM     54  C   UNL A   1      45.135  32.068  28.185  1.00  0.00     0.037 A 
ATOM     55  C   UNL A   1      43.509  25.943  26.694  1.00  0.00     0.049 A 
ATOM     56  C   UNL A   1      45.830  30.968  27.416  1.00  0.00     0.074 A 
ATOM     57  C   UNL A   1      44.189  25.046  25.890  1.00  0.00     0.029 A 
ATOM     58  N   UNL A   1      44.279  27.096  26.748  1.00  0.00    -0.354 N 
ATOM     59  N   UNL A   1      45.417  29.753  27.146  1.00  0.00    -0.248 NA
ATOM     60  C   UNL A   1      47.164  31.274  26.877  1.00  0.00     0.031 C 
ATOM     61  C   UNL A   1      45.402  25.630  25.511  1.00  0.00     0.029 A 
ATOM     62  C   UNL A   1      45.443  26.920  26.016  1.00  0.00     0.049 A 
ATOM     63  H   UNL A   1      44.035  27.916  27.233  1.00  0.00     0.167 HD
ATOM     64  C   UNL A   1      46.418  29.168  26.377  1.00  0.00     0.074 A 
ATOM     65  C   UNL A   1      47.457  30.162  26.218  1.00  0.00     0.031 C 
ATOM     66  C   UNL A   1      46.467  27.919  25.847  1.00  0.00     0.037 A 
BRANCH  53  67
ATOM     67  C   UNL A   1      41.573  24.428  27.272  1.00  0.00     0.064 A 
ATOM     68  C   UNL A   1      42.077  23.289  27.919  1.00  0.00     0.173 A 
ATOM     69  C   UNL A   1      40.389  24.291  26.532  1.00  0.00     0.173 A 
ATOM     70  F   UNL A   1      43.213  23.362  28.629  1.00  0.00    -0.203 F 
ATOM     71  C   UNL A   1      41.440  22.057  27.798  1.00  0.00     0.198 A 
ATOM     72  C   UNL A   1      39.734  23.066  26.445  1.00  0.00     0.198 A 
ATOM     73  F   UNL A   1      39.860  25.349  25.898  1.00  0.00    -0.203 F 
ATOM     74  F   UNL A   1      41.972  20.970  28.376  1.00  0.00    -0.200 F 
ATOM     75  C   UNL A   1      40.266  21.947  27.068  1.00  0.00     0.200 A 
ATOM     76  F   UNL A   1      38.592  22.966  25.753  1.00  0.00    -0.200 F 
ATOM     77  F   UNL A   1      39.651  20.761  26.958  1.00  0.00    -0.200 F 
ENDBRANCH  53  67
BRANCH  54  78
ATOM     78  C   UNL A   1      45.800  33.387  28.370  1.00  0.00     0.064 A 
ATOM     79  C   UNL A   1      46.715  33.597  29.411  1.00  0.00     0.173 A 
ATOM     80  C   UNL A   1      45.510  34.473  27.530  1.00  0.00     0.173 A 
ATOM     81  F   UNL A   1      47.001  32.601  30.263  1.00  0.00    -0.203 F 
ATOM     82  C   UNL A   1      47.302  34.845  29.616  1.00  0.00     0.198 A 
ATOM     83  C   UNL A   1      46.122  35.712  27.716  1.00  0.00     0.198 A 
ATOM     84  F   UNL A   1      44.635  34.331  26.524  1.00  0.00    -0.203 F 
ATOM     85  F   UNL A   1      48.132  35.032  30.651  1.00  0.00    -0.200 F 
ATOM     86  C   UNL A   1      47.011  35.899  28.763  1.00  0.00     0.200 A 
ATOM     87  F   UNL A   1      45.845  36.725  26.884  1.00  0.00    -0.200 F 
ATOM     88  F   UNL A   1      47.578  37.099  28.957  1.00  0.00    -0.200 F 
ENDBRANCH  54  78
BRANCH  66  89
ATOM     89  C   UNL A   1      47.653  27.566  24.991  1.00  0.00     0.064 A 
ATOM     90  C   UNL A   1      47.659  27.774  23.603  1.00  0.00     0.173 A 
ATOM     91  C   UNL A   1      48.824  27.062  25.581  1.00  0.00     0.173 A 
ATOM     92  F   UNL A   1      46.564  28.243  22.986  1.00  0.00    -0.203 F 
ATOM     93  C   UNL A   1      48.782  27.465  22.837  1.00  0.00     0.198 A 
ATOM     94  C   UNL A   1      49.955  26.787  24.817  1.00  0.00     0.198 A 
ATOM     95  F   UNL A   1      48.878  26.853  26.905  1.00  0.00    -0.203 F 
ATOM     96  F   UNL A   1      48.746  27.626  21.507  1.00  0.00    -0.200 F 
ATOM     97  C   UNL A   1      49.930  26.981  23.444  1.00  0.00     0.200 A 
ATOM     98  F   UNL A   1      51.070  26.339  25.410  1.00  0.00    -0.200 F 
ATOM     99  F   UNL A   1      51.013  26.697  22.706  1.00  0.00    -0.200 F 
ENDBRANCH  66  89
ENDBRANCH  40  41
ENDBRANCH  33  35
ENDBRANCH  32  33
ENDBRANCH  31  32
ENDBRANCH  30  31
ENDBRANCH  29  30
ENDBRANCH  28  29
ENDBRANCH   1  28
TORSDOF 20
ENDMDL
