MODEL 1
REMARK VINA RESULT:     -11.0      0.000      0.000
REMARK SMILES Cc1cc(C)cc(CSc2cc(C(=O)OCCOCCOCCOC(=O)c3ccc(-c4c5nc(c(-c6c(F)c(F)c(F)c(F)c6F)c6ccc([nH]6)c(-c6c(F)c(F)c(F)c(F)c6F)c6nc(c(-c7c(F)c(F)c(F)c(F)c7F)c7ccc4[nH]7)C=C6)C=C5)cc3)cc(Cl)n2)c1
REMARK SMILES IDX 19 1 18 2 17 3 16 4 15 5 13 6 14 7 12 8 10 9 11 10 93 11
REMARK SMILES IDX 91 12 90 13 92 14 9 15 8 16 7 17 1 18 2 19 3 20 94 21 4 22
REMARK SMILES IDX 5 23 6 24 20 25 21 26 22 27 23 28 24 29 25 30 26 31 27 32
REMARK SMILES IDX 28 33 89 34 29 35 88 36 30 37 31 38 32 39 82 40 33 41 87 42
REMARK SMILES IDX 81 43 83 44 34 45 86 46 80 47 79 48 35 50 67 51 47 52 66 53
REMARK SMILES IDX 48 54 51 55 65 56 84 57 49 58 50 59 64 61 85 62 52 63 36 64
REMARK SMILES IDX 37 65 45 66 38 67 39 68 43 69 46 70 40 71 41 72 44 73 42 74
REMARK SMILES IDX 68 75 69 76 77 77 70 78 71 79 75 80 78 81 72 82 73 83 76 84
REMARK SMILES IDX 74 85 53 86 54 87 62 88 55 89 56 90 60 91 63 92 57 93 58 94
REMARK SMILES IDX 61 95 59 96
REMARK H PARENT 83 49 51 60
REMARK Flexibility Score: inf
ROOT
ATOM      1  C   UNL A   1      40.102  21.831  27.231  1.00  0.00     0.188 C 
ENDROOT
BRANCH   1   2
ATOM      2  O   UNL A   1      39.148  22.176  26.248  1.00  0.00    -0.376 OA
BRANCH   2   3
ATOM      3  C   UNL A   1      38.621  21.187  25.379  1.00  0.00     0.202 C 
BRANCH   3   4
ATOM      4  C   UNL A   1      37.131  21.122  25.013  1.00  0.00     0.261 C 
BRANCH   4   5
ATOM      5  O   UNL A   1      36.262  21.932  25.817  1.00  0.00    -0.460 OA
BRANCH   5   6
ATOM      6  C   UNL A   1      35.939  23.141  25.293  1.00  0.00     0.338 C 
ATOM      7  O   UNL A   1      36.640  24.136  25.238  1.00  0.00    -0.246 OA
BRANCH   6   8
ATOM      8  C   UNL A   1      34.659  23.032  24.568  1.00  0.00     0.065 A 
ATOM      9  C   UNL A   1      32.281  22.927  24.675  1.00  0.00     0.099 A 
ATOM     10  C   UNL A   1      33.496  22.910  25.332  1.00  0.00     0.051 A 
ATOM     11  N   UNL A   1      32.181  23.041  23.336  1.00  0.00    -0.230 NA
ATOM     12  C   UNL A   1      33.326  23.115  22.630  1.00  0.00     0.131 A 
ATOM     13  C   UNL A   1      34.588  23.133  23.184  1.00  0.00     0.056 A 
ATOM     14  Cl  UNL A   1      33.107  23.218  20.933  1.00  0.00    -0.062 Cl
BRANCH   9  15
ATOM     15  S   UNL A   1      30.764  22.928  25.600  1.00  0.00    -0.102 SA
BRANCH  15  16
ATOM     16  C   UNL A   1      31.029  24.409  26.628  1.00  0.00     0.112 C 
BRANCH  16  17
ATOM     17  C   UNL A   1      31.234  25.687  25.854  1.00  0.00    -0.037 A 
ATOM     18  C   UNL A   1      29.357  27.816  23.303  1.00  0.00     0.044 C 
ATOM     19  C   UNL A   1      30.415  27.328  24.248  1.00  0.00    -0.051 A 
ATOM     20  C   UNL A   1      31.609  28.045  24.387  1.00  0.00     0.006 A 
ATOM     21  C   UNL A   1      30.236  26.151  24.983  1.00  0.00     0.008 A 
ATOM     22  C   UNL A   1      32.615  27.604  25.255  1.00  0.00    -0.051 A 
ATOM     23  C   UNL A   1      33.894  28.378  25.370  1.00  0.00     0.044 C 
ATOM     24  C   UNL A   1      32.417  26.429  25.990  1.00  0.00     0.008 A 
ENDBRANCH  16  17
ENDBRANCH  15  16
ENDBRANCH   9  15
ENDBRANCH   6   8
ENDBRANCH   5   6
ENDBRANCH   4   5
ENDBRANCH   3   4
ENDBRANCH   2   3
ENDBRANCH   1   2
BRANCH   1  25
ATOM     25  C   UNL A   1      40.772  20.442  27.235  1.00  0.00     0.188 C 
BRANCH  25  26
ATOM     26  O   UNL A   1      42.174  20.350  27.303  1.00  0.00    -0.376 OA
BRANCH  26  27
ATOM     27  C   UNL A   1      42.969  20.475  26.135  1.00  0.00     0.202 C 
BRANCH  27  28
ATOM     28  C   UNL A   1      43.690  21.752  25.672  1.00  0.00     0.261 C 
BRANCH  28  29
ATOM     29  O   UNL A   1      42.882  22.865  25.283  1.00  0.00    -0.460 OA
BRANCH  29  30
ATOM     30  C   UNL A   1      43.551  24.035  25.124  1.00  0.00     0.338 C 
ATOM     31  O   UNL A   1      44.422  24.294  24.316  1.00  0.00    -0.246 OA
BRANCH  30  32
ATOM     32  C   UNL A   1      42.946  25.037  26.015  1.00  0.00     0.060 A 
ATOM     33  C   UNL A   1      43.165  26.399  25.767  1.00  0.00     0.016 A 
ATOM     34  C   UNL A   1      42.193  24.620  27.111  1.00  0.00     0.016 A 
ATOM     35  C   UNL A   1      42.627  27.359  26.624  1.00  0.00     0.010 A 
ATOM     36  C   UNL A   1      41.679  25.579  27.983  1.00  0.00     0.010 A 
ATOM     37  C   UNL A   1      41.911  26.949  27.755  1.00  0.00    -0.014 A 
BRANCH  37  38
ATOM     38  C   UNL A   1      41.550  27.910  28.822  1.00  0.00     0.031 A 
ATOM     39  C   UNL A   1      42.343  27.878  30.095  1.00  0.00     0.074 A 
ATOM     40  C   UNL A   1      40.499  28.736  28.692  1.00  0.00     0.049 A 
ATOM     41  N   UNL A   1      42.096  28.448  31.246  1.00  0.00    -0.248 NA
ATOM     42  C   UNL A   1      43.577  27.076  30.070  1.00  0.00     0.031 C 
ATOM     43  C   UNL A   1      39.692  28.896  27.487  1.00  0.00     0.029 A 
ATOM     44  N   UNL A   1      39.913  29.574  29.610  1.00  0.00    -0.354 N 
ATOM     45  C   UNL A   1      43.130  28.056  32.086  1.00  0.00     0.074 A 
ATOM     46  C   UNL A   1      43.997  27.187  31.321  1.00  0.00     0.031 C 
ATOM     47  C   UNL A   1      38.689  29.754  27.748  1.00  0.00     0.029 A 
ATOM     48  C   UNL A   1      38.759  30.161  29.152  1.00  0.00     0.049 A 
ATOM     49  H   UNL A   1      40.283  29.738  30.507  1.00  0.00     0.167 HD
ATOM     50  C   UNL A   1      43.331  28.390  33.382  1.00  0.00     0.037 A 
ATOM     51  C   UNL A   1      37.843  30.901  29.808  1.00  0.00     0.037 A 
ATOM     52  C   UNL A   1      42.458  29.250  34.135  1.00  0.00     0.049 A 
ATOM     53  C   UNL A   1      38.041  31.190  31.277  1.00  0.00     0.074 A 
ATOM     54  C   UNL A   1      42.575  29.659  35.450  1.00  0.00     0.029 A 
ATOM     55  N   UNL A   1      41.299  29.825  33.636  1.00  0.00    -0.354 N 
ATOM     56  N   UNL A   1      39.020  30.824  32.069  1.00  0.00    -0.248 NA
ATOM     57  C   UNL A   1      37.002  31.988  31.946  1.00  0.00     0.031 C 
ATOM     58  C   UNL A   1      41.456  30.434  35.766  1.00  0.00     0.029 A 
ATOM     59  C   UNL A   1      40.678  30.567  34.627  1.00  0.00     0.049 A 
ATOM     60  H   UNL A   1      40.965  29.720  32.715  1.00  0.00     0.167 HD
ATOM     61  C   UNL A   1      38.741  31.386  33.311  1.00  0.00     0.074 A 
ATOM     62  C   UNL A   1      37.497  32.110  33.170  1.00  0.00     0.031 C 
ATOM     63  C   UNL A   1      39.457  31.314  34.459  1.00  0.00     0.037 A 
BRANCH  50  64
ATOM     64  C   UNL A   1      44.517  27.791  34.077  1.00  0.00     0.064 A 
ATOM     65  C   UNL A   1      45.750  28.458  34.147  1.00  0.00     0.173 A 
ATOM     66  C   UNL A   1      44.410  26.543  34.711  1.00  0.00     0.173 A 
ATOM     67  F   UNL A   1      45.910  29.646  33.546  1.00  0.00    -0.203 F 
ATOM     68  C   UNL A   1      46.837  27.884  34.801  1.00  0.00     0.198 A 
ATOM     69  C   UNL A   1      45.489  25.989  35.392  1.00  0.00     0.198 A 
ATOM     70  F   UNL A   1      43.253  25.864  34.677  1.00  0.00    -0.203 F 
ATOM     71  F   UNL A   1      48.019  28.516  34.811  1.00  0.00    -0.200 F 
ATOM     72  C   UNL A   1      46.704  26.655  35.429  1.00  0.00     0.200 A 
ATOM     73  F   UNL A   1      45.353  24.808  36.011  1.00  0.00    -0.200 F 
ATOM     74  F   UNL A   1      47.749  26.109  36.067  1.00  0.00    -0.200 F 
ENDBRANCH  50  64
BRANCH  51  75
ATOM     75  C   UNL A   1      36.640  31.404  29.094  1.00  0.00     0.064 A 
ATOM     76  C   UNL A   1      36.531  32.753  28.728  1.00  0.00     0.173 A 
ATOM     77  C   UNL A   1      35.565  30.557  28.783  1.00  0.00     0.173 A 
ATOM     78  F   UNL A   1      37.519  33.609  29.028  1.00  0.00    -0.203 F 
ATOM     79  C   UNL A   1      35.387  33.239  28.097  1.00  0.00     0.198 A 
ATOM     80  C   UNL A   1      34.436  31.037  28.124  1.00  0.00     0.198 A 
ATOM     81  F   UNL A   1      35.616  29.258  29.113  1.00  0.00    -0.203 F 
ATOM     82  F   UNL A   1      35.289  34.543  27.807  1.00  0.00    -0.200 F 
ATOM     83  C   UNL A   1      34.343  32.380  27.790  1.00  0.00     0.200 A 
ATOM     84  F   UNL A   1      33.434  30.201  27.819  1.00  0.00    -0.200 F 
ATOM     85  F   UNL A   1      33.244  32.848  27.183  1.00  0.00    -0.200 F 
ENDBRANCH  51  75
BRANCH  63  86
ATOM     86  C   UNL A   1      38.971  32.097  35.644  1.00  0.00     0.064 A 
ATOM     87  C   UNL A   1      38.248  31.501  36.685  1.00  0.00     0.173 A 
ATOM     88  C   UNL A   1      39.328  33.449  35.781  1.00  0.00     0.173 A 
ATOM     89  F   UNL A   1      37.872  30.216  36.598  1.00  0.00    -0.203 F 
ATOM     90  C   UNL A   1      37.895  32.230  37.819  1.00  0.00     0.198 A 
ATOM     91  C   UNL A   1      39.000  34.166  36.927  1.00  0.00     0.198 A 
ATOM     92  F   UNL A   1      40.027  34.064  34.815  1.00  0.00    -0.203 F 
ATOM     93  F   UNL A   1      37.181  31.648  38.792  1.00  0.00    -0.200 F 
ATOM     94  C   UNL A   1      38.282  33.557  37.945  1.00  0.00     0.200 A 
ATOM     95  F   UNL A   1      39.391  35.441  37.053  1.00  0.00    -0.200 F 
ATOM     96  F   UNL A   1      37.962  34.249  39.046  1.00  0.00    -0.200 F 
ENDBRANCH  63  86
ENDBRANCH  37  38
ENDBRANCH  30  32
ENDBRANCH  29  30
ENDBRANCH  28  29
ENDBRANCH  27  28
ENDBRANCH  26  27
ENDBRANCH  25  26
ENDBRANCH   1  25
TORSDOF 20
ENDMDL
MODEL 2
REMARK VINA RESULT:     -10.8      5.094      7.511
REMARK SMILES Cc1cc(C)cc(CSc2cc(C(=O)OCCOCCOCCOC(=O)c3ccc(-c4c5nc(c(-c6c(F)c(F)c(F)c(F)c6F)c6ccc([nH]6)c(-c6c(F)c(F)c(F)c(F)c6F)c6nc(c(-c7c(F)c(F)c(F)c(F)c7F)c7ccc4[nH]7)C=C6)C=C5)cc3)cc(Cl)n2)c1
REMARK SMILES IDX 19 1 18 2 17 3 16 4 15 5 13 6 14 7 12 8 10 9 11 10 93 11
REMARK SMILES IDX 91 12 90 13 92 14 9 15 8 16 7 17 1 18 2 19 3 20 94 21 4 22
REMARK SMILES IDX 5 23 6 24 20 25 21 26 22 27 23 28 24 29 25 30 26 31 27 32
REMARK SMILES IDX 28 33 89 34 29 35 88 36 30 37 31 38 32 39 82 40 33 41 87 42
REMARK SMILES IDX 81 43 83 44 34 45 86 46 80 47 79 48 35 50 67 51 47 52 66 53
REMARK SMILES IDX 48 54 51 55 65 56 84 57 49 58 50 59 64 61 85 62 52 63 36 64
REMARK SMILES IDX 37 65 45 66 38 67 39 68 43 69 46 70 40 71 41 72 44 73 42 74
REMARK SMILES IDX 68 75 69 76 77 77 70 78 71 79 75 80 78 81 72 82 73 83 76 84
REMARK SMILES IDX 74 85 53 86 54 87 62 88 55 89 56 90 60 91 63 92 57 93 58 94
REMARK SMILES IDX 61 95 59 96
REMARK H PARENT 83 49 51 60
REMARK Flexibility Score: inf
ROOT
ATOM      1  C   UNL A   1      40.716  21.929  27.341  1.00  0.00     0.188 C 
ENDROOT
BRANCH   1   2
ATOM      2  O   UNL A   1      39.485  21.430  26.858  1.00  0.00    -0.376 OA
BRANCH   2   3
ATOM      3  C   UNL A   1      38.825  22.068  25.778  1.00  0.00     0.202 C 
BRANCH   3   4
ATOM      4  C   UNL A   1      37.294  22.111  25.658  1.00  0.00     0.261 C 
BRANCH   4   5
ATOM      5  O   UNL A   1      36.764  21.732  24.380  1.00  0.00    -0.460 OA
BRANCH   5   6
ATOM      6  C   UNL A   1      35.680  22.433  23.965  1.00  0.00     0.338 C 
ATOM      7  O   UNL A   1      35.643  23.309  23.119  1.00  0.00    -0.246 OA
BRANCH   6   8
ATOM      8  C   UNL A   1      34.460  21.825  24.530  1.00  0.00     0.065 A 
ATOM      9  C   UNL A   1      32.345  22.148  25.579  1.00  0.00     0.099 A 
ATOM     10  C   UNL A   1      33.546  22.680  25.151  1.00  0.00     0.051 A 
ATOM     11  N   UNL A   1      32.035  20.845  25.434  1.00  0.00    -0.230 NA
ATOM     12  C   UNL A   1      32.960  20.044  24.869  1.00  0.00     0.131 A 
ATOM     13  C   UNL A   1      34.176  20.473  24.383  1.00  0.00     0.056 A 
ATOM     14  Cl  UNL A   1      32.499  18.397  24.759  1.00  0.00    -0.062 Cl
BRANCH   9  15
ATOM     15  S   UNL A   1      31.081  23.208  26.238  1.00  0.00    -0.102 SA
BRANCH  15  16
ATOM     16  C   UNL A   1      30.677  24.173  24.746  1.00  0.00     0.112 C 
BRANCH  16  17
ATOM     17  C   UNL A   1      30.917  25.657  24.870  1.00  0.00    -0.037 A 
ATOM     18  C   UNL A   1      31.744  28.201  27.591  1.00  0.00     0.044 C 
ATOM     19  C   UNL A   1      31.436  27.595  26.254  1.00  0.00    -0.051 A 
ATOM     20  C   UNL A   1      31.339  28.416  25.124  1.00  0.00     0.006 A 
ATOM     21  C   UNL A   1      31.223  26.219  26.119  1.00  0.00     0.008 A 
ATOM     22  C   UNL A   1      31.043  27.875  23.867  1.00  0.00    -0.051 A 
ATOM     23  C   UNL A   1      30.924  28.778  22.675  1.00  0.00     0.044 C 
ATOM     24  C   UNL A   1      30.841  26.495  23.747  1.00  0.00     0.008 A 
ENDBRANCH  16  17
ENDBRANCH  15  16
ENDBRANCH   9  15
ENDBRANCH   6   8
ENDBRANCH   5   6
ENDBRANCH   4   5
ENDBRANCH   3   4
ENDBRANCH   2   3
ENDBRANCH   1   2
BRANCH   1  25
ATOM     25  C   UNL A   1      42.050  21.254  26.959  1.00  0.00     0.188 C 
BRANCH  25  26
ATOM     26  O   UNL A   1      42.060  20.254  25.970  1.00  0.00    -0.376 OA
BRANCH  26  27
ATOM     27  C   UNL A   1      42.555  18.955  26.254  1.00  0.00     0.202 C 
BRANCH  27  28
ATOM     28  C   UNL A   1      43.516  18.147  25.366  1.00  0.00     0.261 C 
BRANCH  28  29
ATOM     29  O   UNL A   1      44.893  18.525  25.364  1.00  0.00    -0.460 OA
BRANCH  29  30
ATOM     30  C   UNL A   1      45.275  19.305  24.321  1.00  0.00     0.338 C 
ATOM     31  O   UNL A   1      45.585  18.953  23.198  1.00  0.00    -0.246 OA
BRANCH  30  32
ATOM     32  C   UNL A   1      45.114  20.713  24.714  1.00  0.00     0.060 A 
ATOM     33  C   UNL A   1      44.585  21.628  23.794  1.00  0.00     0.016 A 
ATOM     34  C   UNL A   1      45.521  21.125  25.982  1.00  0.00     0.016 A 
ATOM     35  C   UNL A   1      44.461  22.974  24.141  1.00  0.00     0.010 A 
ATOM     36  C   UNL A   1      45.422  22.474  26.319  1.00  0.00     0.010 A 
ATOM     37  C   UNL A   1      44.913  23.406  25.394  1.00  0.00    -0.014 A 
BRANCH  37  38
ATOM     38  C   UNL A   1      45.042  24.847  25.705  1.00  0.00     0.031 A 
ATOM     39  C   UNL A   1      46.400  25.474  25.583  1.00  0.00     0.074 A 
ATOM     40  C   UNL A   1      43.998  25.563  26.155  1.00  0.00     0.049 A 
ATOM     41  N   UNL A   1      46.822  26.639  26.000  1.00  0.00    -0.248 NA
ATOM     42  C   UNL A   1      47.429  24.664  24.911  1.00  0.00     0.031 C 
ATOM     43  C   UNL A   1      42.624  25.080  26.261  1.00  0.00     0.029 A 
ATOM     44  N   UNL A   1      43.948  26.847  26.641  1.00  0.00    -0.354 N 
ATOM     45  C   UNL A   1      48.167  26.692  25.664  1.00  0.00     0.074 A 
ATOM     46  C   UNL A   1      48.498  25.438  25.023  1.00  0.00     0.031 C 
ATOM     47  C   UNL A   1      41.868  26.046  26.815  1.00  0.00     0.029 A 
ATOM     48  C   UNL A   1      42.718  27.190  27.145  1.00  0.00     0.049 A 
ATOM     49  H   UNL A   1      44.717  27.460  26.629  1.00  0.00     0.167 HD
ATOM     50  C   UNL A   1      49.047  27.699  25.876  1.00  0.00     0.037 A 
ATOM     51  C   UNL A   1      42.338  28.284  27.837  1.00  0.00     0.037 A 
ATOM     52  C   UNL A   1      48.708  28.939  26.520  1.00  0.00     0.049 A 
ATOM     53  C   UNL A   1      43.357  29.357  28.140  1.00  0.00     0.074 A 
ATOM     54  C   UNL A   1      49.522  30.028  26.776  1.00  0.00     0.029 A 
ATOM     55  N   UNL A   1      47.452  29.249  27.017  1.00  0.00    -0.354 N 
ATOM     56  N   UNL A   1      44.626  29.409  27.817  1.00  0.00    -0.248 NA
ATOM     57  C   UNL A   1      42.891  30.520  28.911  1.00  0.00     0.031 C 
ATOM     58  C   UNL A   1      48.773  30.973  27.481  1.00  0.00     0.029 A 
ATOM     59  C   UNL A   1      47.475  30.505  27.601  1.00  0.00     0.049 A 
ATOM     60  H   UNL A   1      46.661  28.665  26.965  1.00  0.00     0.167 HD
ATOM     61  C   UNL A   1      45.097  30.625  28.300  1.00  0.00     0.074 A 
ATOM     62  C   UNL A   1      43.979  31.278  28.946  1.00  0.00     0.031 C 
ATOM     63  C   UNL A   1      46.340  31.155  28.208  1.00  0.00     0.037 A 
BRANCH  50  64
ATOM     64  C   UNL A   1      50.467  27.481  25.445  1.00  0.00     0.064 A 
ATOM     65  C   UNL A   1      51.457  27.053  26.342  1.00  0.00     0.173 A 
ATOM     66  C   UNL A   1      50.836  27.675  24.104  1.00  0.00     0.173 A 
ATOM     67  F   UNL A   1      51.160  26.868  27.636  1.00  0.00    -0.203 F 
ATOM     68  C   UNL A   1      52.768  26.854  25.918  1.00  0.00     0.198 A 
ATOM     69  C   UNL A   1      52.141  27.442  23.679  1.00  0.00     0.198 A 
ATOM     70  F   UNL A   1      49.928  28.080  23.204  1.00  0.00    -0.203 F 
ATOM     71  F   UNL A   1      53.708  26.494  26.804  1.00  0.00    -0.200 F 
ATOM     72  C   UNL A   1      53.107  27.041  24.587  1.00  0.00     0.200 A 
ATOM     73  F   UNL A   1      52.462  27.609  22.388  1.00  0.00    -0.200 F 
ATOM     74  F   UNL A   1      54.368  26.839  24.179  1.00  0.00    -0.200 F 
ENDBRANCH  50  64
BRANCH  51  75
ATOM     75  C   UNL A   1      40.936  28.415  28.315  1.00  0.00     0.064 A 
ATOM     76  C   UNL A   1      39.946  28.975  27.496  1.00  0.00     0.173 A 
ATOM     77  C   UNL A   1      40.561  28.007  29.603  1.00  0.00     0.173 A 
ATOM     78  F   UNL A   1      40.261  29.407  26.265  1.00  0.00    -0.203 F 
ATOM     79  C   UNL A   1      38.640  29.141  27.954  1.00  0.00     0.198 A 
ATOM     80  C   UNL A   1      39.248  28.144  30.049  1.00  0.00     0.198 A 
ATOM     81  F   UNL A   1      41.470  27.468  30.429  1.00  0.00    -0.203 F 
ATOM     82  F   UNL A   1      37.727  29.727  27.168  1.00  0.00    -0.200 F 
ATOM     83  C   UNL A   1      38.291  28.719  29.227  1.00  0.00     0.200 A 
ATOM     84  F   UNL A   1      38.912  27.725  31.277  1.00  0.00    -0.200 F 
ATOM     85  F   UNL A   1      37.035  28.878  29.667  1.00  0.00    -0.200 F 
ENDBRANCH  51  75
BRANCH  63  86
ATOM     86  C   UNL A   1      46.558  32.542  28.742  1.00  0.00     0.064 A 
ATOM     87  C   UNL A   1      47.031  32.773  30.041  1.00  0.00     0.173 A 
ATOM     88  C   UNL A   1      46.386  33.651  27.898  1.00  0.00     0.173 A 
ATOM     89  F   UNL A   1      47.201  31.750  30.891  1.00  0.00    -0.203 F 
ATOM     90  C   UNL A   1      47.317  34.066  30.478  1.00  0.00     0.198 A 
ATOM     91  C   UNL A   1      46.701  34.936  28.326  1.00  0.00     0.198 A 
ATOM     92  F   UNL A   1      45.943  33.481  26.642  1.00  0.00    -0.203 F 
ATOM     93  F   UNL A   1      47.742  34.268  31.732  1.00  0.00    -0.200 F 
ATOM     94  C   UNL A   1      47.164  35.143  29.617  1.00  0.00     0.200 A 
ATOM     95  F   UNL A   1      46.571  35.972  27.487  1.00  0.00    -0.200 F 
ATOM     96  F   UNL A   1      47.464  36.381  30.031  1.00  0.00    -0.200 F 
ENDBRANCH  63  86
ENDBRANCH  37  38
ENDBRANCH  30  32
ENDBRANCH  29  30
ENDBRANCH  28  29
ENDBRANCH  27  28
ENDBRANCH  26  27
ENDBRANCH  25  26
ENDBRANCH   1  25
TORSDOF 20
ENDMDL
MODEL 3
REMARK VINA RESULT:     -10.7      4.598      7.234
REMARK SMILES Cc1cc(C)cc(CSc2cc(C(=O)OCCOCCOCCOC(=O)c3ccc(-c4c5nc(c(-c6c(F)c(F)c(F)c(F)c6F)c6ccc([nH]6)c(-c6c(F)c(F)c(F)c(F)c6F)c6nc(c(-c7c(F)c(F)c(F)c(F)c7F)c7ccc4[nH]7)C=C6)C=C5)cc3)cc(Cl)n2)c1
REMARK SMILES IDX 19 1 18 2 17 3 16 4 15 5 13 6 14 7 12 8 10 9 11 10 93 11
REMARK SMILES IDX 91 12 90 13 92 14 9 15 8 16 7 17 1 18 2 19 3 20 94 21 4 22
REMARK SMILES IDX 5 23 6 24 20 25 21 26 22 27 23 28 24 29 25 30 26 31 27 32
REMARK SMILES IDX 28 33 89 34 29 35 88 36 30 37 31 38 32 39 82 40 33 41 87 42
REMARK SMILES IDX 81 43 83 44 34 45 86 46 80 47 79 48 35 50 67 51 47 52 66 53
REMARK SMILES IDX 48 54 51 55 65 56 84 57 49 58 50 59 64 61 85 62 52 63 36 64
REMARK SMILES IDX 37 65 45 66 38 67 39 68 43 69 46 70 40 71 41 72 44 73 42 74
REMARK SMILES IDX 68 75 69 76 77 77 70 78 71 79 75 80 78 81 72 82 73 83 76 84
REMARK SMILES IDX 74 85 53 86 54 87 62 88 55 89 56 90 60 91 63 92 57 93 58 94
REMARK SMILES IDX 61 95 59 96
REMARK H PARENT 83 49 51 60
REMARK Flexibility Score: inf
ROOT
ATOM      1  C   UNL A   1      35.558  22.125  24.345  1.00  0.00     0.188 C 
ENDROOT
BRANCH   1   2
ATOM      2  O   UNL A   1      34.148  22.046  24.309  1.00  0.00    -0.376 OA
BRANCH   2   3
ATOM      3  C   UNL A   1      33.380  22.375  25.455  1.00  0.00     0.202 C 
BRANCH   3   4
ATOM      4  C   UNL A   1      31.879  22.062  25.558  1.00  0.00     0.261 C 
BRANCH   4   5
ATOM      5  O   UNL A   1      31.003  23.190  25.424  1.00  0.00    -0.460 OA
BRANCH   5   6
ATOM      6  C   UNL A   1      31.011  23.795  24.211  1.00  0.00     0.338 C 
ATOM      7  O   UNL A   1      30.910  23.267  23.117  1.00  0.00    -0.246 OA
BRANCH   6   8
ATOM      8  C   UNL A   1      30.930  25.257  24.394  1.00  0.00     0.065 A 
ATOM      9  C   UNL A   1      31.257  27.132  25.829  1.00  0.00     0.099 A 
ATOM     10  C   UNL A   1      31.211  25.760  25.667  1.00  0.00     0.051 A 
ATOM     11  N   UNL A   1      31.028  27.991  24.816  1.00  0.00    -0.230 NA
ATOM     12  C   UNL A   1      30.720  27.468  23.613  1.00  0.00     0.131 A 
ATOM     13  C   UNL A   1      30.672  26.118  23.335  1.00  0.00     0.056 A 
ATOM     14  Cl  UNL A   1      30.406  28.630  22.394  1.00  0.00    -0.062 Cl
BRANCH   9  15
ATOM     15  S   UNL A   1      31.756  27.833  27.383  1.00  0.00    -0.102 SA
BRANCH  15  16
ATOM     16  C   UNL A   1      31.833  29.593  26.919  1.00  0.00     0.112 C 
BRANCH  16  17
ATOM     17  C   UNL A   1      33.137  30.276  27.248  1.00  0.00    -0.037 A 
ATOM     18  C   UNL A   1      36.805  29.348  27.741  1.00  0.00     0.044 C 
ATOM     19  C   UNL A   1      35.539  30.146  27.640  1.00  0.00    -0.051 A 
ATOM     20  C   UNL A   1      35.563  31.524  27.885  1.00  0.00     0.006 A 
ATOM     21  C   UNL A   1      34.323  29.530  27.325  1.00  0.00     0.008 A 
ATOM     22  C   UNL A   1      34.394  32.289  27.807  1.00  0.00    -0.051 A 
ATOM     23  C   UNL A   1      34.442  33.760  28.094  1.00  0.00     0.044 C 
ATOM     24  C   UNL A   1      33.187  31.659  27.481  1.00  0.00     0.008 A 
ENDBRANCH  16  17
ENDBRANCH  15  16
ENDBRANCH   9  15
ENDBRANCH   6   8
ENDBRANCH   5   6
ENDBRANCH   4   5
ENDBRANCH   3   4
ENDBRANCH   2   3
ENDBRANCH   1   2
BRANCH   1  25
ATOM     25  C   UNL A   1      36.380  21.212  25.277  1.00  0.00     0.188 C 
BRANCH  25  26
ATOM     26  O   UNL A   1      37.776  21.136  25.115  1.00  0.00    -0.376 OA
BRANCH  26  27
ATOM     27  C   UNL A   1      38.428  19.882  25.002  1.00  0.00     0.202 C 
BRANCH  27  28
ATOM     28  C   UNL A   1      39.700  19.461  25.757  1.00  0.00     0.261 C 
BRANCH  28  29
ATOM     29  O   UNL A   1      39.968  20.094  27.010  1.00  0.00    -0.460 OA
BRANCH  29  30
ATOM     30  C   UNL A   1      41.273  20.389  27.239  1.00  0.00     0.338 C 
ATOM     31  O   UNL A   1      42.229  19.639  27.187  1.00  0.00    -0.246 OA
BRANCH  30  32
ATOM     32  C   UNL A   1      41.392  21.843  27.426  1.00  0.00     0.060 A 
ATOM     33  C   UNL A   1      40.689  22.706  26.573  1.00  0.00     0.016 A 
ATOM     34  C   UNL A   1      42.227  22.344  28.423  1.00  0.00     0.016 A 
ATOM     35  C   UNL A   1      40.821  24.087  26.716  1.00  0.00     0.010 A 
ATOM     36  C   UNL A   1      42.379  23.724  28.547  1.00  0.00     0.010 A 
ATOM     37  C   UNL A   1      41.695  24.599  27.683  1.00  0.00    -0.014 A 
BRANCH  37  38
ATOM     38  C   UNL A   1      42.064  26.033  27.697  1.00  0.00     0.031 A 
ATOM     39  C   UNL A   1      43.368  26.431  27.070  1.00  0.00     0.074 A 
ATOM     40  C   UNL A   1      41.298  26.946  28.317  1.00  0.00     0.049 A 
ATOM     41  N   UNL A   1      44.017  27.563  27.143  1.00  0.00    -0.248 NA
ATOM     42  C   UNL A   1      44.039  25.399  26.263  1.00  0.00     0.031 C 
ATOM     43  C   UNL A   1      39.989  26.690  28.911  1.00  0.00     0.029 A 
ATOM     44  N   UNL A   1      41.537  28.274  28.577  1.00  0.00    -0.354 N 
ATOM     45  C   UNL A   1      45.182  27.373  26.413  1.00  0.00     0.074 A 
ATOM     46  C   UNL A   1      45.160  26.014  25.918  1.00  0.00     0.031 C 
ATOM     47  C   UNL A   1      39.552  27.818  29.499  1.00  0.00     0.029 A 
ATOM     48  C   UNL A   1      40.575  28.856  29.365  1.00  0.00     0.049 A 
ATOM     49  H   UNL A   1      42.320  28.759  28.233  1.00  0.00     0.167 HD
ATOM     50  C   UNL A   1      46.181  28.256  26.181  1.00  0.00     0.037 A 
ATOM     51  C   UNL A   1      40.551  30.071  29.948  1.00  0.00     0.037 A 
ATOM     52  C   UNL A   1      46.195  29.603  26.683  1.00  0.00     0.049 A 
ATOM     53  C   UNL A   1      41.717  31.010  29.749  1.00  0.00     0.074 A 
ATOM     54  C   UNL A   1      47.154  30.583  26.499  1.00  0.00     0.029 A 
ATOM     55  N   UNL A   1      45.202  30.156  27.478  1.00  0.00    -0.354 N 
ATOM     56  N   UNL A   1      42.814  30.833  29.054  1.00  0.00    -0.248 NA
ATOM     57  C   UNL A   1      41.643  32.316  30.422  1.00  0.00     0.031 C 
ATOM     58  C   UNL A   1      46.771  31.709  27.230  1.00  0.00     0.029 A 
ATOM     59  C   UNL A   1      45.539  31.457  27.812  1.00  0.00     0.049 A 
ATOM     60  H   UNL A   1      44.382  29.694  27.763  1.00  0.00     0.167 HD
ATOM     61  C   UNL A   1      43.536  32.016  29.166  1.00  0.00     0.074 A 
ATOM     62  C   UNL A   1      42.756  32.903  30.002  1.00  0.00     0.031 C 
ATOM     63  C   UNL A   1      44.732  32.340  28.617  1.00  0.00     0.037 A 
BRANCH  50  64
ATOM     64  C   UNL A   1      47.359  27.778  25.383  1.00  0.00     0.064 A 
ATOM     65  C   UNL A   1      47.373  27.827  23.982  1.00  0.00     0.173 A 
ATOM     66  C   UNL A   1      48.503  27.293  26.035  1.00  0.00     0.173 A 
ATOM     67  F   UNL A   1      46.300  28.269  23.310  1.00  0.00    -0.203 F 
ATOM     68  C   UNL A   1      48.479  27.382  23.262  1.00  0.00     0.198 A 
ATOM     69  C   UNL A   1      49.619  26.880  25.312  1.00  0.00     0.198 A 
ATOM     70  F   UNL A   1      48.544  27.227  27.374  1.00  0.00    -0.203 F 
ATOM     71  F   UNL A   1      48.451  27.390  21.922  1.00  0.00    -0.200 F 
ATOM     72  C   UNL A   1      49.602  26.916  23.927  1.00  0.00     0.200 A 
ATOM     73  F   UNL A   1      50.709  26.445  25.959  1.00  0.00    -0.200 F 
ATOM     74  F   UNL A   1      50.670  26.497  23.233  1.00  0.00    -0.200 F 
ENDBRANCH  50  64
BRANCH  51  75
ATOM     75  C   UNL A   1      39.397  30.468  30.798  1.00  0.00     0.064 A 
ATOM     76  C   UNL A   1      39.230  29.931  32.082  1.00  0.00     0.173 A 
ATOM     77  C   UNL A   1      38.425  31.370  30.340  1.00  0.00     0.173 A 
ATOM     78  F   UNL A   1      40.117  29.042  32.556  1.00  0.00    -0.203 F 
ATOM     79  C   UNL A   1      38.128  30.265  32.867  1.00  0.00     0.198 A 
ATOM     80  C   UNL A   1      37.340  31.728  31.136  1.00  0.00     0.198 A 
ATOM     81  F   UNL A   1      38.534  31.911  29.117  1.00  0.00    -0.203 F 
ATOM     82  F   UNL A   1      37.967  29.697  34.069  1.00  0.00    -0.200 F 
ATOM     83  C   UNL A   1      37.187  31.168  32.396  1.00  0.00     0.200 A 
ATOM     84  F   UNL A   1      36.439  32.610  30.682  1.00  0.00    -0.200 F 
ATOM     85  F   UNL A   1      36.128  31.490  33.151  1.00  0.00    -0.200 F 
ENDBRANCH  51  75
BRANCH  63  86
ATOM     86  C   UNL A   1      45.249  33.734  28.824  1.00  0.00     0.064 A 
ATOM     87  C   UNL A   1      46.139  34.051  29.860  1.00  0.00     0.173 A 
ATOM     88  C   UNL A   1      44.924  34.744  27.904  1.00  0.00     0.173 A 
ATOM     89  F   UNL A   1      46.472  33.126  30.772  1.00  0.00    -0.203 F 
ATOM     90  C   UNL A   1      46.679  35.331  29.970  1.00  0.00     0.198 A 
ATOM     91  C   UNL A   1      45.489  36.012  27.999  1.00  0.00     0.198 A 
ATOM     92  F   UNL A   1      44.083  34.488  26.890  1.00  0.00    -0.203 F 
ATOM     93  F   UNL A   1      47.507  35.622  30.982  1.00  0.00    -0.200 F 
ATOM     94  C   UNL A   1      46.365  36.305  29.033  1.00  0.00     0.200 A 
ATOM     95  F   UNL A   1      45.198  36.944  27.082  1.00  0.00    -0.200 F 
ATOM     96  F   UNL A   1      46.905  37.528  29.127  1.00  0.00    -0.200 F 
ENDBRANCH  63  86
ENDBRANCH  37  38
ENDBRANCH  30  32
ENDBRANCH  29  30
ENDBRANCH  28  29
ENDBRANCH  27  28
ENDBRANCH  26  27
ENDBRANCH  25  26
ENDBRANCH   1  25
TORSDOF 20
ENDMDL
