MODEL 1
REMARK VINA RESULT:      -9.7      0.000      0.000
REMARK SMILES [NH3+][C@@]1(C(=O)OCCOCCOCCOC(=O)c2ccc(-c3c4nc(c(-c5c(F)c(F)c(F)c(F)c5F)c5ccc([nH]5)c(-c5c(F)c(F)c(F)c(F)c5F)c5nc(c(-c6c(F)c(F)c(F)c(F)c6F)c6ccc3[nH]6)C=C5)C=C4)cc2)CC[N@@H+](Cc2ccc(OCC(=O)N3CCCCC3)cc2)C1
REMARK SMILES IDX 8 1 7 2 6 3 5 4 3 5 4 6 2 7 80 8 100 9 81 10 82 11 1 13
REMARK SMILES IDX 83 17 84 18 85 19 99 20 86 21 98 22 87 23 88 24 89 25 90 26
REMARK SMILES IDX 91 27 92 28 93 29 97 30 94 31 96 32 95 33 9 34 10 35 11 36
REMARK SMILES IDX 12 37 13 38 14 39 15 40 16 41 17 42 18 43 79 44 19 45 78 46
REMARK SMILES IDX 20 47 21 48 22 49 72 50 23 51 77 52 71 53 73 54 24 55 76 56
REMARK SMILES IDX 70 57 69 58 25 60 57 61 37 62 56 63 38 64 41 65 55 66 74 67
REMARK SMILES IDX 39 68 40 69 54 71 75 72 42 73 26 74 27 75 35 76 28 77 29 78
REMARK SMILES IDX 33 79 36 80 30 81 31 82 34 83 32 84 58 85 59 86 67 87 60 88
REMARK SMILES IDX 61 89 65 90 68 91 62 92 63 93 66 94 64 95 43 96 44 97 52 98
REMARK SMILES IDX 45 99 46 100 50 101 53 102 47 103 48 104 51 105 49 106
REMARK H PARENT 82 12 1 14 1 15 1 16 73 59 41 70
REMARK Flexibility Score: inf
ROOT
ATOM      1  O   UNL A   1      37.460  32.588  34.965  1.00  0.00    -0.376 OA
ENDROOT
BRANCH   1   2
ATOM      2  C   UNL A   1      37.046  31.972  33.769  1.00  0.00     0.202 C 
BRANCH   2   3
ATOM      3  C   UNL A   1      38.111  32.001  32.675  1.00  0.00     0.261 C 
BRANCH   3   4
ATOM      4  O   UNL A   1      38.046  30.766  31.964  1.00  0.00    -0.458 OA
BRANCH   4   5
ATOM      5  C   UNL A   1      39.021  29.898  32.300  1.00  0.00     0.374 C 
ATOM      6  O   UNL A   1      39.890  30.119  33.142  1.00  0.00    -0.244 OA
BRANCH   5   7
ATOM      7  C   UNL A   1      38.890  28.549  31.551  1.00  0.00     0.246 C 
ATOM      8  C   UNL A   1      40.223  28.190  30.895  1.00  0.00     0.148 C 
ATOM      9  C   UNL A   1      37.943  28.578  30.322  1.00  0.00     0.344 C 
ATOM     10  C   UNL A   1      40.166  28.837  29.494  1.00  0.00     0.270 C 
ATOM     11  N   UNL A   1      38.765  29.076  29.244  1.00  0.00    -0.325 N 
ATOM     12  H   UNL A   1      38.495  29.774  28.551  1.00  0.00     0.348 HD
BRANCH   7  13
ATOM     13  N   UNL A   1      38.465  27.549  32.576  1.00  0.00    -0.338 N 
ATOM     14  H   UNL A   1      38.595  26.607  32.207  1.00  0.00     0.345 HD
ATOM     15  H   UNL A   1      37.481  27.692  32.803  1.00  0.00     0.345 HD
ATOM     16  H   UNL A   1      39.028  27.665  33.418  1.00  0.00     0.345 HD
ENDBRANCH   7  13
BRANCH  11  17
ATOM     17  C   UNL A   1      38.233  29.687  28.040  1.00  0.00     0.299 C 
BRANCH  17  18
ATOM     18  C   UNL A   1      37.128  30.724  28.253  1.00  0.00     0.006 A 
ATOM     19  C   UNL A   1      37.435  31.993  28.758  1.00  0.00     0.013 A 
ATOM     20  C   UNL A   1      35.781  30.497  27.917  1.00  0.00     0.013 A 
ATOM     21  C   UNL A   1      36.492  33.038  28.697  1.00  0.00     0.047 A 
ATOM     22  C   UNL A   1      34.840  31.561  27.828  1.00  0.00     0.047 A 
ATOM     23  C   UNL A   1      35.247  32.864  28.079  1.00  0.00     0.120 A 
BRANCH  23  24
ATOM     24  O   UNL A   1      34.676  34.027  27.627  1.00  0.00    -0.484 OA
BRANCH  24  25
ATOM     25  C   UNL A   1      33.500  34.630  28.153  1.00  0.00     0.329 C 
BRANCH  25  26
ATOM     26  C   UNL A   1      33.219  35.759  29.248  1.00  0.00     0.260 C 
ATOM     27  O   UNL A   1      32.661  36.791  28.843  1.00  0.00    -0.271 OA
ATOM     28  N   UNL A   1      33.476  35.608  30.625  1.00  0.00    -0.340 N 
ATOM     29  C   UNL A   1      32.781  36.510  31.558  1.00  0.00     0.119 C 
ATOM     30  C   UNL A   1      34.233  34.544  31.296  1.00  0.00     0.119 C 
ATOM     31  C   UNL A   1      33.709  37.129  32.600  1.00  0.00     0.022 C 
ATOM     32  C   UNL A   1      35.067  35.016  32.520  1.00  0.00     0.022 C 
ATOM     33  C   UNL A   1      34.403  36.052  33.419  1.00  0.00     0.004 C 
ENDBRANCH  25  26
ENDBRANCH  24  25
ENDBRANCH  23  24
ENDBRANCH  17  18
ENDBRANCH  11  17
ENDBRANCH   5   7
ENDBRANCH   4   5
ENDBRANCH   3   4
ENDBRANCH   2   3
ENDBRANCH   1   2
BRANCH   1  34
ATOM     34  C   UNL A   1      38.134  31.752  35.864  1.00  0.00     0.188 C 
BRANCH  34  35
ATOM     35  C   UNL A   1      37.857  31.953  37.352  1.00  0.00     0.188 C 
BRANCH  35  36
ATOM     36  O   UNL A   1      38.885  32.337  38.244  1.00  0.00    -0.376 OA
BRANCH  36  37
ATOM     37  C   UNL A   1      38.451  32.932  39.473  1.00  0.00     0.202 C 
BRANCH  37  38
ATOM     38  C   UNL A   1      39.217  34.193  39.916  1.00  0.00     0.261 C 
BRANCH  38  39
ATOM     39  O   UNL A   1      39.253  35.164  38.849  1.00  0.00    -0.460 OA
BRANCH  39  40
ATOM     40  C   UNL A   1      40.432  35.806  38.666  1.00  0.00     0.338 C 
ATOM     41  O   UNL A   1      41.070  36.439  39.495  1.00  0.00    -0.246 OA
BRANCH  40  42
ATOM     42  C   UNL A   1      41.014  35.325  37.393  1.00  0.00     0.060 A 
ATOM     43  C   UNL A   1      40.136  35.012  36.338  1.00  0.00     0.016 A 
ATOM     44  C   UNL A   1      42.394  35.230  37.219  1.00  0.00     0.016 A 
ATOM     45  C   UNL A   1      40.633  34.554  35.124  1.00  0.00     0.010 A 
ATOM     46  C   UNL A   1      42.891  34.723  36.020  1.00  0.00     0.010 A 
ATOM     47  C   UNL A   1      42.006  34.334  34.997  1.00  0.00    -0.014 A 
BRANCH  47  48
ATOM     48  C   UNL A   1      42.474  33.385  33.966  1.00  0.00     0.031 A 
ATOM     49  C   UNL A   1      42.767  33.954  32.605  1.00  0.00     0.074 A 
ATOM     50  C   UNL A   1      42.652  32.082  34.231  1.00  0.00     0.049 A 
ATOM     51  N   UNL A   1      43.105  33.346  31.499  1.00  0.00    -0.248 NA
ATOM     52  C   UNL A   1      42.652  35.418  32.474  1.00  0.00     0.031 C 
ATOM     53  C   UNL A   1      42.456  31.447  35.532  1.00  0.00     0.029 A 
ATOM     54  N   UNL A   1      43.030  31.058  33.403  1.00  0.00    -0.354 N 
ATOM     55  C   UNL A   1      43.227  34.350  30.546  1.00  0.00     0.074 A 
ATOM     56  C   UNL A   1      42.897  35.599  31.187  1.00  0.00     0.031 C 
ATOM     57  C   UNL A   1      42.694  30.129  35.409  1.00  0.00     0.029 A 
ATOM     58  C   UNL A   1      43.026  29.831  34.016  1.00  0.00     0.049 A 
ATOM     59  H   UNL A   1      43.280  31.190  32.461  1.00  0.00     0.167 HD
ATOM     60  C   UNL A   1      43.591  34.235  29.248  1.00  0.00     0.037 A 
ATOM     61  C   UNL A   1      43.242  28.610  33.491  1.00  0.00     0.037 A 
ATOM     62  C   UNL A   1      43.909  32.981  28.624  1.00  0.00     0.049 A 
ATOM     63  C   UNL A   1      43.573  28.498  32.023  1.00  0.00     0.074 A 
ATOM     64  C   UNL A   1      44.291  32.738  27.317  1.00  0.00     0.029 A 
ATOM     65  N   UNL A   1      43.873  31.753  29.269  1.00  0.00    -0.354 N 
ATOM     66  N   UNL A   1      43.696  29.447  31.124  1.00  0.00    -0.248 NA
ATOM     67  C   UNL A   1      43.802  27.145  31.500  1.00  0.00     0.031 C 
ATOM     68  C   UNL A   1      44.430  31.356  27.158  1.00  0.00     0.029 A 
ATOM     69  C   UNL A   1      44.204  30.744  28.381  1.00  0.00     0.049 A 
ATOM     70  H   UNL A   1      43.646  31.619  30.218  1.00  0.00     0.167 HD
ATOM     71  C   UNL A   1      44.051  28.812  29.941  1.00  0.00     0.074 A 
ATOM     72  C   UNL A   1      44.136  27.397  30.242  1.00  0.00     0.031 C 
ATOM     73  C   UNL A   1      44.287  29.343  28.714  1.00  0.00     0.037 A 
BRANCH  60  74
ATOM     74  C   UNL A   1      43.621  35.489  28.424  1.00  0.00     0.064 A 
ATOM     75  C   UNL A   1      44.816  36.178  28.162  1.00  0.00     0.173 A 
ATOM     76  C   UNL A   1      42.435  36.009  27.883  1.00  0.00     0.173 A 
ATOM     77  F   UNL A   1      45.975  35.739  28.677  1.00  0.00    -0.203 F 
ATOM     78  C   UNL A   1      44.819  37.352  27.413  1.00  0.00     0.198 A 
ATOM     79  C   UNL A   1      42.447  37.165  27.105  1.00  0.00     0.198 A 
ATOM     80  F   UNL A   1      41.264  35.396  28.107  1.00  0.00    -0.203 F 
ATOM     81  F   UNL A   1      45.965  38.023  27.226  1.00  0.00    -0.200 F 
ATOM     82  C   UNL A   1      43.636  37.840  26.878  1.00  0.00     0.200 A 
ATOM     83  F   UNL A   1      41.304  37.628  26.582  1.00  0.00    -0.200 F 
ATOM     84  F   UNL A   1      43.642  38.965  26.152  1.00  0.00    -0.200 F 
ENDBRANCH  60  74
BRANCH  61  85
ATOM     85  C   UNL A   1      43.145  27.400  34.351  1.00  0.00     0.064 A 
ATOM     86  C   UNL A   1      41.904  26.817  34.643  1.00  0.00     0.173 A 
ATOM     87  C   UNL A   1      44.288  26.812  34.913  1.00  0.00     0.173 A 
ATOM     88  F   UNL A   1      40.779  27.357  34.151  1.00  0.00    -0.203 F 
ATOM     89  C   UNL A   1      41.808  25.707  35.481  1.00  0.00     0.198 A 
ATOM     90  C   UNL A   1      44.193  25.683  35.725  1.00  0.00     0.198 A 
ATOM     91  F   UNL A   1      45.501  27.331  34.670  1.00  0.00    -0.203 F 
ATOM     92  F   UNL A   1      40.605  25.204  35.785  1.00  0.00    -0.200 F 
ATOM     93  C   UNL A   1      42.953  25.137  36.016  1.00  0.00     0.200 A 
ATOM     94  F   UNL A   1      45.305  25.128  36.229  1.00  0.00    -0.200 F 
ATOM     95  F   UNL A   1      42.860  24.069  36.819  1.00  0.00    -0.200 F 
ENDBRANCH  61  85
BRANCH  73  96
ATOM     96  C   UNL A   1      44.706  28.397  27.626  1.00  0.00     0.064 A 
ATOM     97  C   UNL A   1      43.775  27.805  26.759  1.00  0.00     0.173 A 
ATOM     98  C   UNL A   1      46.065  28.104  27.430  1.00  0.00     0.173 A 
ATOM     99  F   UNL A   1      42.464  28.044  26.910  1.00  0.00    -0.203 F 
ATOM    100  C   UNL A   1      44.186  26.921  25.764  1.00  0.00     0.198 A 
ATOM    101  C   UNL A   1      46.475  27.252  26.409  1.00  0.00     0.198 A 
ATOM    102  F   UNL A   1      46.997  28.655  28.221  1.00  0.00    -0.203 F 
ATOM    103  F   UNL A   1      43.275  26.318  24.990  1.00  0.00    -0.200 F 
ATOM    104  C   UNL A   1      45.535  26.651  25.586  1.00  0.00     0.200 A 
ATOM    105  F   UNL A   1      47.780  27.008  26.226  1.00  0.00    -0.200 F 
ATOM    106  F   UNL A   1      45.929  25.805  24.625  1.00  0.00    -0.200 F 
ENDBRANCH  73  96
ENDBRANCH  47  48
ENDBRANCH  40  42
ENDBRANCH  39  40
ENDBRANCH  38  39
ENDBRANCH  37  38
ENDBRANCH  36  37
ENDBRANCH  35  36
ENDBRANCH  34  35
ENDBRANCH   1  34
TORSDOF 23
ENDMDL
MODEL 2
REMARK VINA RESULT:      -8.8      7.642     14.303
REMARK SMILES [NH3+][C@@]1(C(=O)OCCOCCOCCOC(=O)c2ccc(-c3c4nc(c(-c5c(F)c(F)c(F)c(F)c5F)c5ccc([nH]5)c(-c5c(F)c(F)c(F)c(F)c5F)c5nc(c(-c6c(F)c(F)c(F)c(F)c6F)c6ccc3[nH]6)C=C5)C=C4)cc2)CC[N@@H+](Cc2ccc(OCC(=O)N3CCCCC3)cc2)C1
REMARK SMILES IDX 8 1 7 2 6 3 5 4 3 5 4 6 2 7 80 8 100 9 81 10 82 11 1 13
REMARK SMILES IDX 83 17 84 18 85 19 99 20 86 21 98 22 87 23 88 24 89 25 90 26
REMARK SMILES IDX 91 27 92 28 93 29 97 30 94 31 96 32 95 33 9 34 10 35 11 36
REMARK SMILES IDX 12 37 13 38 14 39 15 40 16 41 17 42 18 43 79 44 19 45 78 46
REMARK SMILES IDX 20 47 21 48 22 49 72 50 23 51 77 52 71 53 73 54 24 55 76 56
REMARK SMILES IDX 70 57 69 58 25 60 57 61 37 62 56 63 38 64 41 65 55 66 74 67
REMARK SMILES IDX 39 68 40 69 54 71 75 72 42 73 26 74 27 75 35 76 28 77 29 78
REMARK SMILES IDX 33 79 36 80 30 81 31 82 34 83 32 84 58 85 59 86 67 87 60 88
REMARK SMILES IDX 61 89 65 90 68 91 62 92 63 93 66 94 64 95 43 96 44 97 52 98
REMARK SMILES IDX 45 99 46 100 50 101 53 102 47 103 48 104 51 105 49 106
REMARK H PARENT 82 12 1 14 1 15 1 16 73 59 41 70
REMARK Flexibility Score: inf
ROOT
ATOM      1  O   UNL A   1      45.306  24.683  39.995  1.00  0.00    -0.376 OA
ENDROOT
BRANCH   1   2
ATOM      2  C   UNL A   1      45.278  23.893  38.829  1.00  0.00     0.202 C 
BRANCH   2   3
ATOM      3  C   UNL A   1      46.347  22.802  38.815  1.00  0.00     0.261 C 
BRANCH   3   4
ATOM      4  O   UNL A   1      45.692  21.542  38.945  1.00  0.00    -0.458 OA
BRANCH   4   5
ATOM      5  C   UNL A   1      46.416  20.625  39.617  1.00  0.00     0.374 C 
ATOM      6  O   UNL A   1      46.501  20.566  40.843  1.00  0.00    -0.244 OA
BRANCH   5   7
ATOM      7  C   UNL A   1      47.087  19.599  38.670  1.00  0.00     0.246 C 
ATOM      8  C   UNL A   1      46.029  18.949  37.779  1.00  0.00     0.148 C 
ATOM      9  C   UNL A   1      47.694  18.360  39.379  1.00  0.00     0.344 C 
ATOM     10  C   UNL A   1      45.543  17.716  38.573  1.00  0.00     0.270 C 
ATOM     11  N   UNL A   1      46.581  17.455  39.540  1.00  0.00    -0.325 N 
ATOM     12  H   UNL A   1      46.358  16.914  40.375  1.00  0.00     0.348 HD
BRANCH   7  13
ATOM     13  N   UNL A   1      48.105  20.366  37.890  1.00  0.00    -0.338 N 
ATOM     14  H   UNL A   1      49.019  19.926  37.999  1.00  0.00     0.345 HD
ATOM     15  H   UNL A   1      48.146  21.325  38.234  1.00  0.00     0.345 HD
ATOM     16  H   UNL A   1      47.845  20.369  36.903  1.00  0.00     0.345 HD
ENDBRANCH   7  13
BRANCH  11  17
ATOM     17  C   UNL A   1      46.547  16.383  40.518  1.00  0.00     0.299 C 
BRANCH  17  18
ATOM     18  C   UNL A   1      45.932  16.741  41.874  1.00  0.00     0.006 A 
ATOM     19  C   UNL A   1      44.542  16.758  42.040  1.00  0.00     0.013 A 
ATOM     20  C   UNL A   1      46.700  17.015  43.021  1.00  0.00     0.013 A 
ATOM     21  C   UNL A   1      43.973  16.808  43.328  1.00  0.00     0.047 A 
ATOM     22  C   UNL A   1      46.124  17.034  44.322  1.00  0.00     0.047 A 
ATOM     23  C   UNL A   1      44.769  16.779  44.480  1.00  0.00     0.120 A 
BRANCH  23  24
ATOM     24  O   UNL A   1      44.125  16.309  45.597  1.00  0.00    -0.484 OA
BRANCH  24  25
ATOM     25  C   UNL A   1      43.656  14.979  45.784  1.00  0.00     0.329 C 
BRANCH  25  26
ATOM     26  C   UNL A   1      42.692  14.009  44.956  1.00  0.00     0.260 C 
ATOM     27  O   UNL A   1      41.519  14.390  44.814  1.00  0.00    -0.271 OA
ATOM     28  N   UNL A   1      43.118  12.829  44.315  1.00  0.00    -0.340 N 
ATOM     29  C   UNL A   1      42.267  12.282  43.246  1.00  0.00     0.119 C 
ATOM     30  C   UNL A   1      44.405  12.135  44.450  1.00  0.00     0.119 C 
ATOM     31  C   UNL A   1      42.021  10.781  43.381  1.00  0.00     0.022 C 
ATOM     32  C   UNL A   1      44.312  10.585  44.392  1.00  0.00     0.022 C 
ATOM     33  C   UNL A   1      43.333  10.012  43.375  1.00  0.00     0.004 C 
ENDBRANCH  25  26
ENDBRANCH  24  25
ENDBRANCH  23  24
ENDBRANCH  17  18
ENDBRANCH  11  17
ENDBRANCH   5   7
ENDBRANCH   4   5
ENDBRANCH   3   4
ENDBRANCH   2   3
ENDBRANCH   1   2
BRANCH   1  34
ATOM     34  C   UNL A   1      45.215  26.064  39.781  1.00  0.00     0.188 C 
BRANCH  34  35
ATOM     35  C   UNL A   1      45.557  26.582  38.385  1.00  0.00     0.188 C 
BRANCH  35  36
ATOM     36  O   UNL A   1      46.835  27.113  38.094  1.00  0.00    -0.376 OA
BRANCH  36  37
ATOM     37  C   UNL A   1      47.933  26.206  38.242  1.00  0.00     0.202 C 
BRANCH  37  38
ATOM     38  C   UNL A   1      48.667  25.822  36.943  1.00  0.00     0.261 C 
BRANCH  38  39
ATOM     39  O   UNL A   1      47.848  24.948  36.138  1.00  0.00    -0.460 OA
BRANCH  39  40
ATOM     40  C   UNL A   1      47.753  25.264  34.824  1.00  0.00     0.338 C 
ATOM     41  O   UNL A   1      48.340  24.739  33.889  1.00  0.00    -0.246 OA
BRANCH  40  42
ATOM     42  C   UNL A   1      46.551  26.111  34.651  1.00  0.00     0.060 A 
ATOM     43  C   UNL A   1      45.294  25.550  34.945  1.00  0.00     0.016 A 
ATOM     44  C   UNL A   1      46.658  27.444  34.258  1.00  0.00     0.016 A 
ATOM     45  C   UNL A   1      44.137  26.303  34.797  1.00  0.00     0.010 A 
ATOM     46  C   UNL A   1      45.495  28.186  34.059  1.00  0.00     0.010 A 
ATOM     47  C   UNL A   1      44.235  27.595  34.276  1.00  0.00    -0.014 A 
BRANCH  47  48
ATOM     48  C   UNL A   1      43.045  28.185  33.630  1.00  0.00     0.031 A 
ATOM     49  C   UNL A   1      42.826  27.852  32.179  1.00  0.00     0.074 A 
ATOM     50  C   UNL A   1      42.186  28.963  34.305  1.00  0.00     0.049 A 
ATOM     51  N   UNL A   1      41.923  28.295  31.347  1.00  0.00    -0.248 NA
ATOM     52  C   UNL A   1      43.770  26.888  31.585  1.00  0.00     0.031 C 
ATOM     53  C   UNL A   1      42.276  29.293  35.725  1.00  0.00     0.029 A 
ATOM     54  N   UNL A   1      41.069  29.627  33.870  1.00  0.00    -0.354 N 
ATOM     55  C   UNL A   1      42.199  27.675  30.134  1.00  0.00     0.074 A 
ATOM     56  C   UNL A   1      43.371  26.854  30.324  1.00  0.00     0.031 C 
ATOM     57  C   UNL A   1      41.264  30.120  36.041  1.00  0.00     0.029 A 
ATOM     58  C   UNL A   1      40.480  30.399  34.838  1.00  0.00     0.049 A 
ATOM     59  H   UNL A   1      40.722  29.556  32.952  1.00  0.00     0.167 HD
ATOM     60  C   UNL A   1      41.527  27.780  28.965  1.00  0.00     0.037 A 
ATOM     61  C   UNL A   1      39.442  31.251  34.742  1.00  0.00     0.037 A 
ATOM     62  C   UNL A   1      40.367  28.610  28.791  1.00  0.00     0.049 A 
ATOM     63  C   UNL A   1      38.753  31.409  33.408  1.00  0.00     0.074 A 
ATOM     64  C   UNL A   1      39.602  28.798  27.655  1.00  0.00     0.029 A 
ATOM     65  N   UNL A   1      39.811  29.397  29.788  1.00  0.00    -0.354 N 
ATOM     66  N   UNL A   1      39.010  30.819  32.264  1.00  0.00    -0.248 NA
ATOM     67  C   UNL A   1      37.626  32.349  33.356  1.00  0.00     0.031 C 
ATOM     68  C   UNL A   1      38.615  29.744  27.952  1.00  0.00     0.029 A 
ATOM     69  C   UNL A   1      38.723  30.093  29.289  1.00  0.00     0.049 A 
ATOM     70  H   UNL A   1      40.140  29.453  30.715  1.00  0.00     0.167 HD
ATOM     71  C   UNL A   1      38.057  31.286  31.368  1.00  0.00     0.074 A 
ATOM     72  C   UNL A   1      37.209  32.198  32.107  1.00  0.00     0.031 C 
ATOM     73  C   UNL A   1      37.893  30.990  30.054  1.00  0.00     0.037 A 
BRANCH  60  74
ATOM     74  C   UNL A   1      42.059  27.014  27.789  1.00  0.00     0.064 A 
ATOM     75  C   UNL A   1      41.644  25.702  27.508  1.00  0.00     0.173 A 
ATOM     76  C   UNL A   1      42.996  27.602  26.926  1.00  0.00     0.173 A 
ATOM     77  F   UNL A   1      40.769  25.083  28.315  1.00  0.00    -0.203 F 
ATOM     78  C   UNL A   1      42.167  25.001  26.424  1.00  0.00     0.198 A 
ATOM     79  C   UNL A   1      43.491  26.909  25.823  1.00  0.00     0.198 A 
ATOM     80  F   UNL A   1      43.434  28.850  27.151  1.00  0.00    -0.203 F 
ATOM     81  F   UNL A   1      41.798  23.729  26.210  1.00  0.00    -0.200 F 
ATOM     82  C   UNL A   1      43.083  25.607  25.578  1.00  0.00     0.200 A 
ATOM     83  F   UNL A   1      44.369  27.501  25.002  1.00  0.00    -0.200 F 
ATOM     84  F   UNL A   1      43.579  24.934  24.532  1.00  0.00    -0.200 F 
ENDBRANCH  60  74
BRANCH  61  85
ATOM     85  C   UNL A   1      38.996  32.022  35.933  1.00  0.00     0.064 A 
ATOM     86  C   UNL A   1      38.151  31.447  36.893  1.00  0.00     0.173 A 
ATOM     87  C   UNL A   1      39.390  33.354  36.128  1.00  0.00     0.173 A 
ATOM     88  F   UNL A   1      37.725  30.185  36.739  1.00  0.00    -0.203 F 
ATOM     89  C   UNL A   1      37.700  32.181  37.989  1.00  0.00     0.198 A 
ATOM     90  C   UNL A   1      38.964  34.077  37.241  1.00  0.00     0.198 A 
ATOM     91  F   UNL A   1      40.195  33.955  35.239  1.00  0.00    -0.203 F 
ATOM     92  F   UNL A   1      36.851  31.623  38.861  1.00  0.00    -0.200 F 
ATOM     93  C   UNL A   1      38.112  33.493  38.166  1.00  0.00     0.200 A 
ATOM     94  F   UNL A   1      39.376  35.341  37.414  1.00  0.00    -0.200 F 
ATOM     95  F   UNL A   1      37.680  34.197  39.220  1.00  0.00    -0.200 F 
ENDBRANCH  61  85
BRANCH  73  96
ATOM     96  C   UNL A   1      36.726  31.622  29.349  1.00  0.00     0.064 A 
ATOM     97  C   UNL A   1      36.710  32.985  29.019  1.00  0.00     0.173 A 
ATOM     98  C   UNL A   1      35.621  30.842  28.973  1.00  0.00     0.173 A 
ATOM     99  F   UNL A   1      37.736  33.777  29.363  1.00  0.00    -0.203 F 
ATOM    100  C   UNL A   1      35.611  33.551  28.376  1.00  0.00     0.198 A 
ATOM    101  C   UNL A   1      34.544  31.403  28.296  1.00  0.00     0.198 A 
ATOM    102  F   UNL A   1      35.593  29.530  29.252  1.00  0.00    -0.203 F 
ATOM    103  F   UNL A   1      35.589  34.867  28.127  1.00  0.00    -0.200 F 
ATOM    104  C   UNL A   1      34.533  32.759  28.010  1.00  0.00     0.200 A 
ATOM    105  F   UNL A   1      33.512  30.631  27.925  1.00  0.00    -0.200 F 
ATOM    106  F   UNL A   1      33.480  33.305  27.387  1.00  0.00    -0.200 F 
ENDBRANCH  73  96
ENDBRANCH  47  48
ENDBRANCH  40  42
ENDBRANCH  39  40
ENDBRANCH  38  39
ENDBRANCH  37  38
ENDBRANCH  36  37
ENDBRANCH  35  36
ENDBRANCH  34  35
ENDBRANCH   1  34
TORSDOF 23
ENDMDL
MODEL 3
REMARK VINA RESULT:      -8.7      4.129      7.403
REMARK SMILES [NH3+][C@@]1(C(=O)OCCOCCOCCOC(=O)c2ccc(-c3c4nc(c(-c5c(F)c(F)c(F)c(F)c5F)c5ccc([nH]5)c(-c5c(F)c(F)c(F)c(F)c5F)c5nc(c(-c6c(F)c(F)c(F)c(F)c6F)c6ccc3[nH]6)C=C5)C=C4)cc2)CC[N@@H+](Cc2ccc(OCC(=O)N3CCCCC3)cc2)C1
REMARK SMILES IDX 8 1 7 2 6 3 5 4 3 5 4 6 2 7 80 8 100 9 81 10 82 11 1 13
REMARK SMILES IDX 83 17 84 18 85 19 99 20 86 21 98 22 87 23 88 24 89 25 90 26
REMARK SMILES IDX 91 27 92 28 93 29 97 30 94 31 96 32 95 33 9 34 10 35 11 36
REMARK SMILES IDX 12 37 13 38 14 39 15 40 16 41 17 42 18 43 79 44 19 45 78 46
REMARK SMILES IDX 20 47 21 48 22 49 72 50 23 51 77 52 71 53 73 54 24 55 76 56
REMARK SMILES IDX 70 57 69 58 25 60 57 61 37 62 56 63 38 64 41 65 55 66 74 67
REMARK SMILES IDX 39 68 40 69 54 71 75 72 42 73 26 74 27 75 35 76 28 77 29 78
REMARK SMILES IDX 33 79 36 80 30 81 31 82 34 83 32 84 58 85 59 86 67 87 60 88
REMARK SMILES IDX 61 89 65 90 68 91 62 92 63 93 66 94 64 95 43 96 44 97 52 98
REMARK SMILES IDX 45 99 46 100 50 101 53 102 47 103 48 104 51 105 49 106
REMARK H PARENT 82 12 1 14 1 15 1 16 73 59 41 70
REMARK Flexibility Score: inf
ROOT
ATOM      1  O   UNL A   1      39.578  29.862  28.816  1.00  0.00    -0.376 OA
ENDROOT
BRANCH   1   2
ATOM      2  C   UNL A   1      40.010  28.923  27.859  1.00  0.00     0.202 C 
BRANCH   2   3
ATOM      3  C   UNL A   1      41.493  29.050  27.516  1.00  0.00     0.261 C 
BRANCH   3   4
ATOM      4  O   UNL A   1      41.919  27.815  26.942  1.00  0.00    -0.458 OA
BRANCH   4   5
ATOM      5  C   UNL A   1      42.708  27.968  25.859  1.00  0.00     0.374 C 
ATOM      6  O   UNL A   1      42.316  28.357  24.761  1.00  0.00    -0.244 OA
BRANCH   5   7
ATOM      7  C   UNL A   1      44.194  27.659  26.169  1.00  0.00     0.246 C 
ATOM      8  C   UNL A   1      44.643  26.433  25.376  1.00  0.00     0.148 C 
ATOM      9  C   UNL A   1      44.472  27.200  27.625  1.00  0.00     0.344 C 
ATOM     10  C   UNL A   1      44.327  25.228  26.289  1.00  0.00     0.270 C 
ATOM     11  N   UNL A   1      44.198  25.783  27.615  1.00  0.00    -0.325 N 
ATOM     12  H   UNL A   1      43.683  25.262  28.324  1.00  0.00     0.348 HD
BRANCH   7  13
ATOM     13  N   UNL A   1      44.955  28.892  25.804  1.00  0.00    -0.338 N 
ATOM     14  H   UNL A   1      44.303  29.661  25.651  1.00  0.00     0.345 HD
ATOM     15  H   UNL A   1      45.487  28.723  24.951  1.00  0.00     0.345 HD
ATOM     16  H   UNL A   1      45.593  29.134  26.561  1.00  0.00     0.345 HD
ENDBRANCH   7  13
BRANCH  11  17
ATOM     17  C   UNL A   1      43.890  25.012  28.806  1.00  0.00     0.299 C 
BRANCH  17  18
ATOM     18  C   UNL A   1      42.790  23.960  28.650  1.00  0.00     0.006 A 
ATOM     19  C   UNL A   1      41.485  24.344  28.317  1.00  0.00     0.013 A 
ATOM     20  C   UNL A   1      43.020  22.578  28.773  1.00  0.00     0.013 A 
ATOM     21  C   UNL A   1      40.539  23.387  27.899  1.00  0.00     0.047 A 
ATOM     22  C   UNL A   1      42.073  21.616  28.320  1.00  0.00     0.047 A 
ATOM     23  C   UNL A   1      40.884  22.038  27.742  1.00  0.00     0.120 A 
BRANCH  23  24
ATOM     24  O   UNL A   1      40.084  21.351  26.864  1.00  0.00    -0.484 OA
BRANCH  24  25
ATOM     25  C   UNL A   1      39.150  21.935  25.964  1.00  0.00     0.329 C 
BRANCH  25  26
ATOM     26  C   UNL A   1      37.761  21.460  25.334  1.00  0.00     0.260 C 
ATOM     27  O   UNL A   1      37.774  20.374  24.732  1.00  0.00    -0.271 OA
ATOM     28  N   UNL A   1      36.540  22.140  25.505  1.00  0.00    -0.340 N 
ATOM     29  C   UNL A   1      35.295  21.391  25.266  1.00  0.00     0.119 C 
ATOM     30  C   UNL A   1      36.317  23.481  26.061  1.00  0.00     0.119 C 
ATOM     31  C   UNL A   1      34.299  22.144  24.389  1.00  0.00     0.022 C 
ATOM     32  C   UNL A   1      35.172  24.281  25.381  1.00  0.00     0.022 C 
ATOM     33  C   UNL A   1      33.929  23.482  25.011  1.00  0.00     0.004 C 
ENDBRANCH  25  26
ENDBRANCH  24  25
ENDBRANCH  23  24
ENDBRANCH  17  18
ENDBRANCH  11  17
ENDBRANCH   5   7
ENDBRANCH   4   5
ENDBRANCH   3   4
ENDBRANCH   2   3
ENDBRANCH   1   2
BRANCH   1  34
ATOM     34  C   UNL A   1      38.190  29.970  28.961  1.00  0.00     0.188 C 
BRANCH  34  35
ATOM     35  C   UNL A   1      37.561  31.338  28.710  1.00  0.00     0.188 C 
BRANCH  35  36
ATOM     36  O   UNL A   1      37.152  32.165  29.782  1.00  0.00    -0.376 OA
BRANCH  36  37
ATOM     37  C   UNL A   1      35.836  31.917  30.290  1.00  0.00     0.202 C 
BRANCH  37  38
ATOM     38  C   UNL A   1      35.523  32.528  31.670  1.00  0.00     0.261 C 
BRANCH  38  39
ATOM     39  O   UNL A   1      36.730  33.009  32.297  1.00  0.00    -0.460 OA
BRANCH  39  40
ATOM     40  C   UNL A   1      37.008  32.502  33.522  1.00  0.00     0.338 C 
ATOM     41  O   UNL A   1      36.267  32.456  34.493  1.00  0.00    -0.246 OA
BRANCH  40  42
ATOM     42  C   UNL A   1      38.236  31.682  33.403  1.00  0.00     0.060 A 
ATOM     43  C   UNL A   1      39.390  32.113  34.084  1.00  0.00     0.016 A 
ATOM     44  C   UNL A   1      38.242  30.491  32.679  1.00  0.00     0.016 A 
ATOM     45  C   UNL A   1      40.568  31.381  34.001  1.00  0.00     0.010 A 
ATOM     46  C   UNL A   1      39.435  29.782  32.554  1.00  0.00     0.010 A 
ATOM     47  C   UNL A   1      40.608  30.260  33.169  1.00  0.00    -0.014 A 
BRANCH  47  48
ATOM     48  C   UNL A   1      41.919  29.807  32.663  1.00  0.00     0.031 A 
ATOM     49  C   UNL A   1      42.535  30.617  31.555  1.00  0.00     0.074 A 
ATOM     50  C   UNL A   1      42.546  28.738  33.177  1.00  0.00     0.049 A 
ATOM     51  N   UNL A   1      43.625  30.403  30.868  1.00  0.00    -0.248 NA
ATOM     52  C   UNL A   1      41.807  31.838  31.162  1.00  0.00     0.031 C 
ATOM     53  C   UNL A   1      42.063  27.926  34.292  1.00  0.00     0.029 A 
ATOM     54  N   UNL A   1      43.728  28.149  32.812  1.00  0.00    -0.354 N 
ATOM     55  C   UNL A   1      43.703  31.450  29.959  1.00  0.00     0.074 A 
ATOM     56  C   UNL A   1      42.539  32.280  30.153  1.00  0.00     0.031 C 
ATOM     57  C   UNL A   1      42.935  26.925  34.506  1.00  0.00     0.029 A 
ATOM     58  C   UNL A   1      44.014  27.012  33.524  1.00  0.00     0.049 A 
ATOM     59  H   UNL A   1      44.315  28.507  32.109  1.00  0.00     0.167 HD
ATOM     60  C   UNL A   1      44.669  31.698  29.045  1.00  0.00     0.037 A 
ATOM     61  C   UNL A   1      45.024  26.135  33.368  1.00  0.00     0.037 A 
ATOM     62  C   UNL A   1      45.818  30.856  28.859  1.00  0.00     0.049 A 
ATOM     63  C   UNL A   1      46.050  26.392  32.291  1.00  0.00     0.074 A 
ATOM     64  C   UNL A   1      46.863  31.003  27.966  1.00  0.00     0.029 A 
ATOM     65  N   UNL A   1      46.065  29.698  29.582  1.00  0.00    -0.354 N 
ATOM     66  N   UNL A   1      46.128  27.385  31.437  1.00  0.00    -0.248 NA
ATOM     67  C   UNL A   1      47.132  25.407  32.164  1.00  0.00     0.031 C 
ATOM     68  C   UNL A   1      47.713  29.903  28.111  1.00  0.00     0.029 A 
ATOM     69  C   UNL A   1      47.235  29.106  29.140  1.00  0.00     0.049 A 
ATOM     70  H   UNL A   1      45.492  29.348  30.303  1.00  0.00     0.167 HD
ATOM     71  C   UNL A   1      47.283  27.165  30.696  1.00  0.00     0.074 A 
ATOM     72  C   UNL A   1      47.880  25.951  31.214  1.00  0.00     0.031 C 
ATOM     73  C   UNL A   1      47.808  27.898  29.681  1.00  0.00     0.037 A 
BRANCH  60  74
ATOM     74  C   UNL A   1      44.495  32.899  28.161  1.00  0.00     0.064 A 
ATOM     75  C   UNL A   1      43.973  32.795  26.861  1.00  0.00     0.173 A 
ATOM     76  C   UNL A   1      44.851  34.175  28.622  1.00  0.00     0.173 A 
ATOM     77  F   UNL A   1      43.640  31.595  26.361  1.00  0.00    -0.203 F 
ATOM     78  C   UNL A   1      43.841  33.919  26.049  1.00  0.00     0.198 A 
ATOM     79  C   UNL A   1      44.685  35.301  27.818  1.00  0.00     0.198 A 
ATOM     80  F   UNL A   1      45.362  34.332  29.852  1.00  0.00    -0.203 F 
ATOM     81  F   UNL A   1      43.394  33.785  24.791  1.00  0.00    -0.200 F 
ATOM     82  C   UNL A   1      44.188  35.171  26.531  1.00  0.00     0.200 A 
ATOM     83  F   UNL A   1      45.013  36.512  28.290  1.00  0.00    -0.200 F 
ATOM     84  F   UNL A   1      44.053  36.252  25.751  1.00  0.00    -0.200 F 
ENDBRANCH  60  74
BRANCH  61  85
ATOM     85  C   UNL A   1      45.112  24.934  34.242  1.00  0.00     0.064 A 
ATOM     86  C   UNL A   1      44.565  23.707  33.842  1.00  0.00     0.173 A 
ATOM     87  C   UNL A   1      45.726  24.993  35.501  1.00  0.00     0.173 A 
ATOM     88  F   UNL A   1      43.943  23.606  32.658  1.00  0.00    -0.203 F 
ATOM     89  C   UNL A   1      44.610  22.591  34.676  1.00  0.00     0.198 A 
ATOM     90  C   UNL A   1      45.800  23.868  36.321  1.00  0.00     0.198 A 
ATOM     91  F   UNL A   1      46.263  26.143  35.935  1.00  0.00    -0.203 F 
ATOM     92  F   UNL A   1      44.033  21.446  34.290  1.00  0.00    -0.200 F 
ATOM     93  C   UNL A   1      45.233  22.671  35.913  1.00  0.00     0.200 A 
ATOM     94  F   UNL A   1      46.414  23.947  37.510  1.00  0.00    -0.200 F 
ATOM     95  F   UNL A   1      45.279  21.598  36.713  1.00  0.00    -0.200 F 
ENDBRANCH  61  85
BRANCH  73  96
ATOM     96  C   UNL A   1      49.112  27.431  29.101  1.00  0.00     0.064 A 
ATOM     97  C   UNL A   1      50.346  27.827  29.638  1.00  0.00     0.173 A 
ATOM     98  C   UNL A   1      49.123  26.549  28.009  1.00  0.00     0.173 A 
ATOM     99  F   UNL A   1      50.391  28.676  30.675  1.00  0.00    -0.203 F 
ATOM    100  C   UNL A   1      51.543  27.390  29.075  1.00  0.00     0.198 A 
ATOM    101  C   UNL A   1      50.321  26.083  27.475  1.00  0.00     0.198 A 
ATOM    102  F   UNL A   1      47.971  26.127  27.467  1.00  0.00    -0.203 F 
ATOM    103  F   UNL A   1      52.710  27.831  29.563  1.00  0.00    -0.200 F 
ATOM    104  C   UNL A   1      51.529  26.514  27.999  1.00  0.00     0.200 A 
ATOM    105  F   UNL A   1      50.305  25.221  26.449  1.00  0.00    -0.200 F 
ATOM    106  F   UNL A   1      52.682  26.092  27.463  1.00  0.00    -0.200 F 
ENDBRANCH  73  96
ENDBRANCH  47  48
ENDBRANCH  40  42
ENDBRANCH  39  40
ENDBRANCH  38  39
ENDBRANCH  37  38
ENDBRANCH  36  37
ENDBRANCH  35  36
ENDBRANCH  34  35
ENDBRANCH   1  34
TORSDOF 23
ENDMDL
