MODEL 1
REMARK VINA RESULT:     -12.1      0.000      0.000
REMARK SMILES Cc1nc(-c2ccccc2Cl)nc2sc(C(=O)OCCOCCOCCOC(=O)c3ccc(-c4c5nc(c(-c6c(F)c(F)c(F)c(F)c6F)c6ccc([nH]6)c(-c6c(F)c(F)c(F)c(F)c6F)c6nc(c(-c7c(F)c(F)c(F)c(F)c7F)c7ccc4[nH]7)C=C6)C=C5)cc3)c(N)c12
REMARK SMILES IDX 23 1 22 2 21 3 20 4 19 5 18 6 16 7 17 8 15 9 1 10 2 11 3 12
REMARK SMILES IDX 95 13 4 14 13 15 93 16 12 17 14 18 5 19 6 20 10 21 7 22 9 23
REMARK SMILES IDX 11 24 8 25 94 26 24 29 25 30 26 31 27 32 28 33 29 34 30 35
REMARK SMILES IDX 31 36 92 37 32 38 91 39 33 40 34 41 35 42 85 43 36 44 90 45
REMARK SMILES IDX 84 46 86 47 37 48 89 49 83 50 82 51 38 53 70 54 50 55 69 56
REMARK SMILES IDX 51 57 54 58 68 59 87 60 52 61 53 62 67 64 88 65 55 66 39 67
REMARK SMILES IDX 40 68 48 69 41 70 42 71 46 72 49 73 43 74 44 75 47 76 45 77
REMARK SMILES IDX 71 78 72 79 80 80 73 81 74 82 78 83 81 84 75 85 76 86 79 87
REMARK SMILES IDX 77 88 56 89 57 90 65 91 58 92 59 93 63 94 66 95 60 96 61 97
REMARK SMILES IDX 64 98 62 99
REMARK H PARENT 94 27 94 28 86 52 54 63
REMARK Flexibility Score: inf
ROOT
ATOM      1  C   UNL A   1      33.706  34.318  28.027  1.00  0.00     0.188 C 
ENDROOT
BRANCH   1   2
ATOM      2  C   UNL A   1      34.467  33.264  28.865  1.00  0.00     0.188 C 
BRANCH   2   3
ATOM      3  O   UNL A   1      34.100  31.890  28.833  1.00  0.00    -0.376 OA
BRANCH   3   4
ATOM      4  C   UNL A   1      33.982  31.198  27.597  1.00  0.00     0.202 C 
BRANCH   4   5
ATOM      5  C   UNL A   1      32.616  30.998  26.912  1.00  0.00     0.261 C 
BRANCH   5   6
ATOM      6  O   UNL A   1      32.194  29.646  26.706  1.00  0.00    -0.459 OA
BRANCH   6   7
ATOM      7  C   UNL A   1      31.738  29.323  25.460  1.00  0.00     0.350 C 
ATOM      8  O   UNL A   1      30.978  30.021  24.801  1.00  0.00    -0.245 OA
BRANCH   7   9
ATOM      9  C   UNL A   1      32.406  28.131  24.970  1.00  0.00     0.138 A 
ATOM     10  C   UNL A   1      32.806  25.506  21.167  1.00  0.00     0.067 C 
ATOM     11  C   UNL A   1      33.378  25.433  22.550  1.00  0.00     0.052 A 
ATOM     12  N   UNL A   1      34.139  24.334  22.829  1.00  0.00    -0.233 NA
ATOM     13  C   UNL A   1      33.141  26.374  23.576  1.00  0.00     0.057 A 
ATOM     14  C   UNL A   1      34.672  24.190  24.056  1.00  0.00     0.162 A 
ATOM     15  C   UNL A   1      33.744  26.089  24.790  1.00  0.00     0.130 A 
ATOM     16  C   UNL A   1      32.387  27.600  23.688  1.00  0.00     0.069 A 
ATOM     17  N   UNL A   1      34.516  25.037  25.077  1.00  0.00    -0.217 NA
ATOM     18  S   UNL A   1      33.393  27.209  26.012  1.00  0.00    -0.106 S 
BRANCH  14  19
ATOM     19  C   UNL A   1      35.358  22.940  24.396  1.00  0.00     0.038 A 
ATOM     20  C   UNL A   1      36.769  22.909  24.299  1.00  0.00     0.013 A 
ATOM     21  C   UNL A   1      34.708  21.747  24.749  1.00  0.00     0.052 A 
ATOM     22  C   UNL A   1      37.501  21.743  24.521  1.00  0.00     0.001 A 
ATOM     23  C   UNL A   1      35.445  20.573  24.972  1.00  0.00     0.021 A 
ATOM     24  Cl  UNL A   1      32.986  21.622  24.861  1.00  0.00    -0.084 Cl
ATOM     25  C   UNL A   1      36.836  20.571  24.853  1.00  0.00     0.002 A 
ENDBRANCH  14  19
BRANCH  16  26
ATOM     26  N   UNL A   1      31.736  28.195  22.663  1.00  0.00    -0.397 N 
ATOM     27  H   UNL A   1      31.153  27.663  22.075  1.00  0.00     0.156 HD
ATOM     28  H   UNL A   1      31.845  29.161  22.504  1.00  0.00     0.156 HD
ENDBRANCH  16  26
ENDBRANCH   7   9
ENDBRANCH   6   7
ENDBRANCH   5   6
ENDBRANCH   4   5
ENDBRANCH   3   4
ENDBRANCH   2   3
ENDBRANCH   1   2
BRANCH   1  29
ATOM     29  O   UNL A   1      32.675  34.980  28.728  1.00  0.00    -0.376 OA
BRANCH  29  30
ATOM     30  C   UNL A   1      32.971  36.049  29.610  1.00  0.00     0.202 C 
BRANCH  30  31
ATOM     31  C   UNL A   1      32.637  35.994  31.101  1.00  0.00     0.261 C 
BRANCH  31  32
ATOM     32  O   UNL A   1      33.221  34.930  31.826  1.00  0.00    -0.460 OA
BRANCH  32  33
ATOM     33  C   UNL A   1      33.861  35.310  32.948  1.00  0.00     0.338 C 
ATOM     34  O   UNL A   1      33.834  36.405  33.480  1.00  0.00    -0.246 OA
BRANCH  33  35
ATOM     35  C   UNL A   1      34.732  34.215  33.373  1.00  0.00     0.060 A 
ATOM     36  C   UNL A   1      35.892  34.586  34.050  1.00  0.00     0.016 A 
ATOM     37  C   UNL A   1      34.596  32.982  32.716  1.00  0.00     0.016 A 
ATOM     38  C   UNL A   1      37.024  33.848  33.814  1.00  0.00     0.010 A 
ATOM     39  C   UNL A   1      35.733  32.263  32.457  1.00  0.00     0.010 A 
ATOM     40  C   UNL A   1      36.941  32.769  32.924  1.00  0.00    -0.014 A 
BRANCH  40  41
ATOM     41  C   UNL A   1      38.169  32.105  32.564  1.00  0.00     0.031 A 
ATOM     42  C   UNL A   1      39.055  31.926  33.729  1.00  0.00     0.074 A 
ATOM     43  C   UNL A   1      38.417  31.663  31.319  1.00  0.00     0.049 A 
ATOM     44  N   UNL A   1      40.183  32.512  33.944  1.00  0.00    -0.248 NA
ATOM     45  C   UNL A   1      38.531  31.171  34.878  1.00  0.00     0.031 C 
ATOM     46  C   UNL A   1      37.509  31.589  30.173  1.00  0.00     0.029 A 
ATOM     47  N   UNL A   1      39.557  31.099  30.839  1.00  0.00    -0.354 N 
ATOM     48  C   UNL A   1      40.608  32.043  35.179  1.00  0.00     0.074 A 
ATOM     49  C   UNL A   1      39.478  31.395  35.787  1.00  0.00     0.031 C 
ATOM     50  C   UNL A   1      38.066  30.815  29.211  1.00  0.00     0.029 A 
ATOM     51  C   UNL A   1      39.412  30.451  29.620  1.00  0.00     0.049 A 
ATOM     52  H   UNL A   1      40.416  31.147  31.318  1.00  0.00     0.167 HD
ATOM     53  C   UNL A   1      41.934  31.984  35.470  1.00  0.00     0.037 A 
ATOM     54  C   UNL A   1      40.327  29.628  29.048  1.00  0.00     0.037 A 
ATOM     55  C   UNL A   1      42.688  32.868  34.616  1.00  0.00     0.049 A 
ATOM     56  C   UNL A   1      41.638  29.917  29.685  1.00  0.00     0.074 A 
ATOM     57  C   UNL A   1      42.686  34.233  34.400  1.00  0.00     0.029 A 
ATOM     58  N   UNL A   1      43.341  32.318  33.541  1.00  0.00    -0.354 N 
ATOM     59  N   UNL A   1      42.302  31.024  29.497  1.00  0.00    -0.248 NA
ATOM     60  C   UNL A   1      41.985  29.177  30.891  1.00  0.00     0.031 C 
ATOM     61  C   UNL A   1      42.925  34.390  33.004  1.00  0.00     0.029 A 
ATOM     62  C   UNL A   1      43.121  33.124  32.455  1.00  0.00     0.049 A 
ATOM     63  H   UNL A   1      43.872  31.489  33.548  1.00  0.00     0.167 HD
ATOM     64  C   UNL A   1      42.819  31.338  30.745  1.00  0.00     0.074 A 
ATOM     65  C   UNL A   1      42.668  30.123  31.542  1.00  0.00     0.031 C 
ATOM     66  C   UNL A   1      43.044  32.637  31.098  1.00  0.00     0.037 A 
BRANCH  53  67
ATOM     67  C   UNL A   1      42.564  30.840  36.221  1.00  0.00     0.064 A 
ATOM     68  C   UNL A   1      43.483  31.131  37.246  1.00  0.00     0.173 A 
ATOM     69  C   UNL A   1      42.542  29.494  35.788  1.00  0.00     0.173 A 
ATOM     70  F   UNL A   1      43.603  32.380  37.722  1.00  0.00    -0.203 F 
ATOM     71  C   UNL A   1      44.370  30.168  37.734  1.00  0.00     0.198 A 
ATOM     72  C   UNL A   1      43.389  28.526  36.317  1.00  0.00     0.198 A 
ATOM     73  F   UNL A   1      41.794  29.078  34.761  1.00  0.00    -0.203 F 
ATOM     74  F   UNL A   1      45.317  30.525  38.611  1.00  0.00    -0.200 F 
ATOM     75  C   UNL A   1      44.326  28.869  37.265  1.00  0.00     0.200 A 
ATOM     76  F   UNL A   1      43.341  27.277  35.833  1.00  0.00    -0.200 F 
ATOM     77  F   UNL A   1      45.216  27.961  37.685  1.00  0.00    -0.200 F 
ENDBRANCH  53  67
BRANCH  54  78
ATOM     78  C   UNL A   1      40.113  28.427  28.204  1.00  0.00     0.064 A 
ATOM     79  C   UNL A   1      40.786  28.275  26.979  1.00  0.00     0.173 A 
ATOM     80  C   UNL A   1      39.474  27.280  28.711  1.00  0.00     0.173 A 
ATOM     81  F   UNL A   1      41.459  29.305  26.445  1.00  0.00    -0.203 F 
ATOM     82  C   UNL A   1      40.841  27.043  26.318  1.00  0.00     0.198 A 
ATOM     83  C   UNL A   1      39.525  26.052  28.048  1.00  0.00     0.198 A 
ATOM     84  F   UNL A   1      38.871  27.301  29.909  1.00  0.00    -0.203 F 
ATOM     85  F   UNL A   1      41.548  26.922  25.186  1.00  0.00    -0.200 F 
ATOM     86  C   UNL A   1      40.220  25.930  26.859  1.00  0.00     0.200 A 
ATOM     87  F   UNL A   1      38.951  24.974  28.601  1.00  0.00    -0.200 F 
ATOM     88  F   UNL A   1      40.326  24.735  26.262  1.00  0.00    -0.200 F 
ENDBRANCH  54  78
BRANCH  66  89
ATOM     89  C   UNL A   1      42.971  33.679  30.017  1.00  0.00     0.064 A 
ATOM     90  C   UNL A   1      44.024  33.965  29.130  1.00  0.00     0.173 A 
ATOM     91  C   UNL A   1      41.732  34.280  29.766  1.00  0.00     0.173 A 
ATOM     92  F   UNL A   1      45.212  33.359  29.250  1.00  0.00    -0.203 F 
ATOM     93  C   UNL A   1      43.844  34.836  28.057  1.00  0.00     0.198 A 
ATOM     94  C   UNL A   1      41.546  35.120  28.672  1.00  0.00     0.198 A 
ATOM     95  F   UNL A   1      40.679  34.003  30.551  1.00  0.00    -0.203 F 
ATOM     96  F   UNL A   1      44.863  35.096  27.224  1.00  0.00    -0.200 F 
ATOM     97  C   UNL A   1      42.603  35.403  27.821  1.00  0.00     0.200 A 
ATOM     98  F   UNL A   1      40.330  35.626  28.421  1.00  0.00    -0.200 F 
ATOM     99  F   UNL A   1      42.416  36.198  26.759  1.00  0.00    -0.200 F 
ENDBRANCH  66  89
ENDBRANCH  40  41
ENDBRANCH  33  35
ENDBRANCH  32  33
ENDBRANCH  31  32
ENDBRANCH  30  31
ENDBRANCH  29  30
ENDBRANCH   1  29
TORSDOF 19
ENDMDL
MODEL 2
REMARK VINA RESULT:     -12.0      5.112     10.302
REMARK SMILES Cc1nc(-c2ccccc2Cl)nc2sc(C(=O)OCCOCCOCCOC(=O)c3ccc(-c4c5nc(c(-c6c(F)c(F)c(F)c(F)c6F)c6ccc([nH]6)c(-c6c(F)c(F)c(F)c(F)c6F)c6nc(c(-c7c(F)c(F)c(F)c(F)c7F)c7ccc4[nH]7)C=C6)C=C5)cc3)c(N)c12
REMARK SMILES IDX 23 1 22 2 21 3 20 4 19 5 18 6 16 7 17 8 15 9 1 10 2 11 3 12
REMARK SMILES IDX 95 13 4 14 13 15 93 16 12 17 14 18 5 19 6 20 10 21 7 22 9 23
REMARK SMILES IDX 11 24 8 25 94 26 24 29 25 30 26 31 27 32 28 33 29 34 30 35
REMARK SMILES IDX 31 36 92 37 32 38 91 39 33 40 34 41 35 42 85 43 36 44 90 45
REMARK SMILES IDX 84 46 86 47 37 48 89 49 83 50 82 51 38 53 70 54 50 55 69 56
REMARK SMILES IDX 51 57 54 58 68 59 87 60 52 61 53 62 67 64 88 65 55 66 39 67
REMARK SMILES IDX 40 68 48 69 41 70 42 71 46 72 49 73 43 74 44 75 47 76 45 77
REMARK SMILES IDX 71 78 72 79 80 80 73 81 74 82 78 83 81 84 75 85 76 86 79 87
REMARK SMILES IDX 77 88 56 89 57 90 65 91 58 92 59 93 63 94 66 95 60 96 61 97
REMARK SMILES IDX 64 98 62 99
REMARK H PARENT 94 27 94 28 86 52 54 63
REMARK Flexibility Score: inf
ROOT
ATOM      1  C   UNL A   1      40.406  21.591  27.314  1.00  0.00     0.188 C 
ENDROOT
BRANCH   1   2
ATOM      2  C   UNL A   1      39.606  21.804  26.008  1.00  0.00     0.188 C 
BRANCH   2   3
ATOM      3  O   UNL A   1      38.184  21.838  26.009  1.00  0.00    -0.376 OA
BRANCH   3   4
ATOM      4  C   UNL A   1      37.437  21.038  25.103  1.00  0.00     0.202 C 
BRANCH   4   5
ATOM      5  C   UNL A   1      36.084  21.509  24.537  1.00  0.00     0.261 C 
BRANCH   5   6
ATOM      6  O   UNL A   1      34.911  20.924  25.111  1.00  0.00    -0.459 OA
BRANCH   6   7
ATOM      7  C   UNL A   1      33.733  21.118  24.446  1.00  0.00     0.350 C 
ATOM      8  O   UNL A   1      32.987  20.217  24.088  1.00  0.00    -0.245 OA
BRANCH   7   9
ATOM      9  C   UNL A   1      33.419  22.533  24.375  1.00  0.00     0.138 A 
ATOM     10  C   UNL A   1      32.466  25.885  21.314  1.00  0.00     0.067 C 
ATOM     11  C   UNL A   1      32.602  25.843  22.806  1.00  0.00     0.052 A 
ATOM     12  N   UNL A   1      32.501  27.040  23.453  1.00  0.00    -0.233 NA
ATOM     13  C   UNL A   1      32.879  24.682  23.562  1.00  0.00     0.057 A 
ATOM     14  C   UNL A   1      32.630  27.084  24.792  1.00  0.00     0.162 A 
ATOM     15  C   UNL A   1      32.999  24.881  24.927  1.00  0.00     0.130 A 
ATOM     16  C   UNL A   1      33.093  23.287  23.256  1.00  0.00     0.069 A 
ATOM     17  N   UNL A   1      32.873  26.037  25.585  1.00  0.00    -0.217 NA
ATOM     18  S   UNL A   1      33.385  23.479  25.795  1.00  0.00    -0.106 S 
BRANCH  14  19
ATOM     19  C   UNL A   1      32.672  28.386  25.464  1.00  0.00     0.038 A 
ATOM     20  C   UNL A   1      33.678  28.599  26.437  1.00  0.00     0.013 A 
ATOM     21  C   UNL A   1      31.743  29.417  25.259  1.00  0.00     0.052 A 
ATOM     22  C   UNL A   1      33.746  29.772  27.186  1.00  0.00     0.001 A 
ATOM     23  C   UNL A   1      31.812  30.599  26.014  1.00  0.00     0.021 A 
ATOM     24  Cl  UNL A   1      30.433  29.282  24.138  1.00  0.00    -0.084 Cl
ATOM     25  C   UNL A   1      32.806  30.772  26.978  1.00  0.00     0.002 A 
ENDBRANCH  14  19
BRANCH  16  26
ATOM     26  N   UNL A   1      32.978  22.747  22.022  1.00  0.00    -0.397 N 
ATOM     27  H   UNL A   1      33.617  22.060  21.724  1.00  0.00     0.156 HD
ATOM     28  H   UNL A   1      32.253  23.040  21.422  1.00  0.00     0.156 HD
ENDBRANCH  16  26
ENDBRANCH   7   9
ENDBRANCH   6   7
ENDBRANCH   5   6
ENDBRANCH   4   5
ENDBRANCH   3   4
ENDBRANCH   2   3
ENDBRANCH   1   2
BRANCH   1  29
ATOM     29  O   UNL A   1      41.093  20.360  27.379  1.00  0.00    -0.376 OA
BRANCH  29  30
ATOM     30  C   UNL A   1      41.277  19.573  26.214  1.00  0.00     0.202 C 
BRANCH  30  31
ATOM     31  C   UNL A   1      42.657  19.092  25.764  1.00  0.00     0.261 C 
BRANCH  31  32
ATOM     32  O   UNL A   1      43.708  20.030  25.887  1.00  0.00    -0.460 OA
BRANCH  32  33
ATOM     33  C   UNL A   1      44.271  20.386  24.717  1.00  0.00     0.338 C 
ATOM     34  O   UNL A   1      44.550  19.661  23.778  1.00  0.00    -0.246 OA
BRANCH  33  35
ATOM     35  C   UNL A   1      44.638  21.799  24.796  1.00  0.00     0.060 A 
ATOM     36  C   UNL A   1      45.581  22.131  25.769  1.00  0.00     0.016 A 
ATOM     37  C   UNL A   1      43.747  22.736  24.250  1.00  0.00     0.016 A 
ATOM     38  C   UNL A   1      45.427  23.334  26.411  1.00  0.00     0.010 A 
ATOM     39  C   UNL A   1      43.577  23.923  24.912  1.00  0.00     0.010 A 
ATOM     40  C   UNL A   1      44.351  24.152  26.044  1.00  0.00    -0.014 A 
BRANCH  40  41
ATOM     41  C   UNL A   1      44.109  25.333  26.835  1.00  0.00     0.031 A 
ATOM     42  C   UNL A   1      45.170  26.340  26.647  1.00  0.00     0.074 A 
ATOM     43  C   UNL A   1      43.011  25.487  27.593  1.00  0.00     0.049 A 
ATOM     44  N   UNL A   1      46.046  26.717  27.514  1.00  0.00    -0.248 NA
ATOM     45  C   UNL A   1      45.413  26.832  25.282  1.00  0.00     0.031 C 
ATOM     46  C   UNL A   1      41.811  24.650  27.652  1.00  0.00     0.029 A 
ATOM     47  N   UNL A   1      42.709  26.508  28.437  1.00  0.00    -0.354 N 
ATOM     48  C   UNL A   1      46.836  27.647  26.855  1.00  0.00     0.074 A 
ATOM     49  C   UNL A   1      46.536  27.527  25.455  1.00  0.00     0.031 C 
ATOM     50  C   UNL A   1      40.835  25.316  28.314  1.00  0.00     0.029 A 
ATOM     51  C   UNL A   1      41.380  26.560  28.831  1.00  0.00     0.049 A 
ATOM     52  H   UNL A   1      43.381  27.160  28.745  1.00  0.00     0.167 HD
ATOM     53  C   UNL A   1      47.463  28.630  27.553  1.00  0.00     0.037 A 
ATOM     54  C   UNL A   1      40.783  27.595  29.476  1.00  0.00     0.037 A 
ATOM     55  C   UNL A   1      47.590  28.273  28.944  1.00  0.00     0.049 A 
ATOM     56  C   UNL A   1      41.864  28.410  30.089  1.00  0.00     0.074 A 
ATOM     57  C   UNL A   1      48.219  27.245  29.622  1.00  0.00     0.029 A 
ATOM     58  N   UNL A   1      46.691  28.813  29.830  1.00  0.00    -0.354 N 
ATOM     59  N   UNL A   1      42.586  28.008  31.098  1.00  0.00    -0.248 NA
ATOM     60  C   UNL A   1      42.450  29.476  29.286  1.00  0.00     0.031 C 
ATOM     61  C   UNL A   1      47.351  26.928  30.706  1.00  0.00     0.029 A 
ATOM     62  C   UNL A   1      46.275  27.815  30.671  1.00  0.00     0.049 A 
ATOM     63  H   UNL A   1      46.396  29.752  29.855  1.00  0.00     0.167 HD
ATOM     64  C   UNL A   1      43.870  28.445  30.806  1.00  0.00     0.074 A 
ATOM     65  C   UNL A   1      43.709  29.418  29.728  1.00  0.00     0.031 C 
ATOM     66  C   UNL A   1      44.958  27.760  31.260  1.00  0.00     0.037 A 
BRANCH  53  67
ATOM     67  C   UNL A   1      47.571  30.050  27.061  1.00  0.00     0.064 A 
ATOM     68  C   UNL A   1      48.804  30.717  27.189  1.00  0.00     0.173 A 
ATOM     69  C   UNL A   1      46.464  30.875  26.756  1.00  0.00     0.173 A 
ATOM     70  F   UNL A   1      49.919  30.037  27.496  1.00  0.00    -0.203 F 
ATOM     71  C   UNL A   1      48.901  32.107  27.107  1.00  0.00     0.198 A 
ATOM     72  C   UNL A   1      46.575  32.254  26.619  1.00  0.00     0.198 A 
ATOM     73  F   UNL A   1      45.211  30.409  26.694  1.00  0.00    -0.203 F 
ATOM     74  F   UNL A   1      50.069  32.707  27.371  1.00  0.00    -0.200 F 
ATOM     75  C   UNL A   1      47.786  32.876  26.827  1.00  0.00     0.200 A 
ATOM     76  F   UNL A   1      45.477  32.980  26.366  1.00  0.00    -0.200 F 
ATOM     77  F   UNL A   1      47.865  34.212  26.811  1.00  0.00    -0.200 F 
ENDBRANCH  53  67
BRANCH  54  78
ATOM     78  C   UNL A   1      39.390  28.091  29.371  1.00  0.00     0.064 A 
ATOM     79  C   UNL A   1      38.583  28.229  30.514  1.00  0.00     0.173 A 
ATOM     80  C   UNL A   1      38.920  28.710  28.197  1.00  0.00     0.173 A 
ATOM     81  F   UNL A   1      38.977  27.708  31.685  1.00  0.00    -0.203 F 
ATOM     82  C   UNL A   1      37.394  28.966  30.490  1.00  0.00     0.198 A 
ATOM     83  C   UNL A   1      37.730  29.441  28.173  1.00  0.00     0.198 A 
ATOM     84  F   UNL A   1      39.653  28.703  27.074  1.00  0.00    -0.203 F 
ATOM     85  F   UNL A   1      36.686  29.130  31.616  1.00  0.00    -0.200 F 
ATOM     86  C   UNL A   1      36.975  29.582  29.323  1.00  0.00     0.200 A 
ATOM     87  F   UNL A   1      37.354  30.062  27.046  1.00  0.00    -0.200 F 
ATOM     88  F   UNL A   1      35.871  30.342  29.314  1.00  0.00    -0.200 F 
ENDBRANCH  54  78
BRANCH  66  89
ATOM     89  C   UNL A   1      44.732  26.691  32.292  1.00  0.00     0.064 A 
ATOM     90  C   UNL A   1      44.515  25.337  31.985  1.00  0.00     0.173 A 
ATOM     91  C   UNL A   1      44.915  27.028  33.639  1.00  0.00     0.173 A 
ATOM     92  F   UNL A   1      44.421  24.922  30.715  1.00  0.00    -0.203 F 
ATOM     93  C   UNL A   1      44.458  24.370  32.988  1.00  0.00     0.198 A 
ATOM     94  C   UNL A   1      44.895  26.056  34.635  1.00  0.00     0.198 A 
ATOM     95  F   UNL A   1      45.176  28.298  33.985  1.00  0.00    -0.203 F 
ATOM     96  F   UNL A   1      44.249  23.083  32.672  1.00  0.00    -0.200 F 
ATOM     97  C   UNL A   1      44.661  24.729  34.311  1.00  0.00     0.200 A 
ATOM     98  F   UNL A   1      45.141  26.401  35.906  1.00  0.00    -0.200 F 
ATOM     99  F   UNL A   1      44.660  23.793  35.270  1.00  0.00    -0.200 F 
ENDBRANCH  66  89
ENDBRANCH  40  41
ENDBRANCH  33  35
ENDBRANCH  32  33
ENDBRANCH  31  32
ENDBRANCH  30  31
ENDBRANCH  29  30
ENDBRANCH   1  29
TORSDOF 19
ENDMDL
MODEL 3
REMARK VINA RESULT:     -11.9      3.413      5.519
REMARK SMILES Cc1nc(-c2ccccc2Cl)nc2sc(C(=O)OCCOCCOCCOC(=O)c3ccc(-c4c5nc(c(-c6c(F)c(F)c(F)c(F)c6F)c6ccc([nH]6)c(-c6c(F)c(F)c(F)c(F)c6F)c6nc(c(-c7c(F)c(F)c(F)c(F)c7F)c7ccc4[nH]7)C=C6)C=C5)cc3)c(N)c12
REMARK SMILES IDX 23 1 22 2 21 3 20 4 19 5 18 6 16 7 17 8 15 9 1 10 2 11 3 12
REMARK SMILES IDX 95 13 4 14 13 15 93 16 12 17 14 18 5 19 6 20 10 21 7 22 9 23
REMARK SMILES IDX 11 24 8 25 94 26 24 29 25 30 26 31 27 32 28 33 29 34 30 35
REMARK SMILES IDX 31 36 92 37 32 38 91 39 33 40 34 41 35 42 85 43 36 44 90 45
REMARK SMILES IDX 84 46 86 47 37 48 89 49 83 50 82 51 38 53 70 54 50 55 69 56
REMARK SMILES IDX 51 57 54 58 68 59 87 60 52 61 53 62 67 64 88 65 55 66 39 67
REMARK SMILES IDX 40 68 48 69 41 70 42 71 46 72 49 73 43 74 44 75 47 76 45 77
REMARK SMILES IDX 71 78 72 79 80 80 73 81 74 82 78 83 81 84 75 85 76 86 79 87
REMARK SMILES IDX 77 88 56 89 57 90 65 91 58 92 59 93 63 94 66 95 60 96 61 97
REMARK SMILES IDX 64 98 62 99
REMARK H PARENT 94 27 94 28 86 52 54 63
REMARK Flexibility Score: inf
ROOT
ATOM      1  C   UNL A   1      34.925  35.827  33.282  1.00  0.00     0.188 C 
ENDROOT
BRANCH   1   2
ATOM      2  C   UNL A   1      34.016  37.005  32.860  1.00  0.00     0.188 C 
BRANCH   2   3
ATOM      3  O   UNL A   1      32.615  36.831  32.682  1.00  0.00    -0.376 OA
BRANCH   3   4
ATOM      4  C   UNL A   1      32.104  36.189  31.522  1.00  0.00     0.202 C 
BRANCH   4   5
ATOM      5  C   UNL A   1      32.917  36.116  30.216  1.00  0.00     0.261 C 
BRANCH   5   6
ATOM      6  O   UNL A   1      32.785  34.918  29.445  1.00  0.00    -0.459 OA
BRANCH   6   7
ATOM      7  C   UNL A   1      33.684  34.729  28.434  1.00  0.00     0.350 C 
ATOM      8  O   UNL A   1      34.430  35.598  28.004  1.00  0.00    -0.245 OA
BRANCH   7   9
ATOM      9  C   UNL A   1      33.742  33.327  28.064  1.00  0.00     0.138 A 
ATOM     10  C   UNL A   1      36.750  29.830  27.572  1.00  0.00     0.067 C 
ATOM     11  C   UNL A   1      35.272  29.971  27.368  1.00  0.00     0.052 A 
ATOM     12  N   UNL A   1      34.628  28.880  26.860  1.00  0.00    -0.233 NA
ATOM     13  C   UNL A   1      34.530  31.149  27.606  1.00  0.00     0.057 A 
ATOM     14  C   UNL A   1      33.302  28.937  26.634  1.00  0.00     0.162 A 
ATOM     15  C   UNL A   1      33.179  31.065  27.315  1.00  0.00     0.130 A 
ATOM     16  C   UNL A   1      34.840  32.477  28.082  1.00  0.00     0.069 A 
ATOM     17  N   UNL A   1      32.521  30.000  26.847  1.00  0.00    -0.217 NA
ATOM     18  S   UNL A   1      32.330  32.511  27.560  1.00  0.00    -0.106 S 
BRANCH  14  19
ATOM     19  C   UNL A   1      32.645  27.820  25.949  1.00  0.00     0.038 A 
ATOM     20  C   UNL A   1      31.695  27.063  26.675  1.00  0.00     0.013 A 
ATOM     21  C   UNL A   1      32.938  27.406  24.641  1.00  0.00     0.052 A 
ATOM     22  C   UNL A   1      31.081  25.934  26.136  1.00  0.00     0.001 A 
ATOM     23  C   UNL A   1      32.319  26.268  24.098  1.00  0.00     0.021 A 
ATOM     24  Cl  UNL A   1      34.110  28.205  23.651  1.00  0.00    -0.084 Cl
ATOM     25  C   UNL A   1      31.399  25.532  24.846  1.00  0.00     0.002 A 
ENDBRANCH  14  19
BRANCH  16  26
ATOM     26  N   UNL A   1      36.057  32.869  28.518  1.00  0.00    -0.397 N 
ATOM     27  H   UNL A   1      36.832  32.269  28.422  1.00  0.00     0.156 HD
ATOM     28  H   UNL A   1      36.170  33.756  28.933  1.00  0.00     0.156 HD
ENDBRANCH  16  26
ENDBRANCH   7   9
ENDBRANCH   6   7
ENDBRANCH   5   6
ENDBRANCH   4   5
ENDBRANCH   3   4
ENDBRANCH   2   3
ENDBRANCH   1   2
BRANCH   1  29
ATOM     29  O   UNL A   1      34.230  34.728  33.831  1.00  0.00    -0.376 OA
BRANCH  29  30
ATOM     30  C   UNL A   1      34.037  33.544  33.077  1.00  0.00     0.202 C 
BRANCH  30  31
ATOM     31  C   UNL A   1      34.846  33.239  31.816  1.00  0.00     0.261 C 
BRANCH  31  32
ATOM     32  O   UNL A   1      35.115  31.873  31.570  1.00  0.00    -0.460 OA
BRANCH  32  33
ATOM     33  C   UNL A   1      36.208  31.402  32.201  1.00  0.00     0.338 C 
ATOM     34  O   UNL A   1      36.534  31.591  33.359  1.00  0.00    -0.246 OA
BRANCH  33  35
ATOM     35  C   UNL A   1      37.047  30.719  31.216  1.00  0.00     0.060 A 
ATOM     36  C   UNL A   1      36.935  29.330  31.178  1.00  0.00     0.016 A 
ATOM     37  C   UNL A   1      38.170  31.405  30.729  1.00  0.00     0.016 A 
ATOM     38  C   UNL A   1      38.077  28.612  30.928  1.00  0.00     0.010 A 
ATOM     39  C   UNL A   1      39.316  30.687  30.510  1.00  0.00     0.010 A 
ATOM     40  C   UNL A   1      39.271  29.313  30.716  1.00  0.00    -0.014 A 
BRANCH  40  41
ATOM     41  C   UNL A   1      40.487  28.545  30.615  1.00  0.00     0.031 A 
ATOM     42  C   UNL A   1      41.182  28.453  31.912  1.00  0.00     0.074 A 
ATOM     43  C   UNL A   1      40.878  27.950  29.475  1.00  0.00     0.049 A 
ATOM     44  N   UNL A   1      42.307  28.996  32.231  1.00  0.00    -0.248 NA
ATOM     45  C   UNL A   1      40.447  27.865  33.043  1.00  0.00     0.031 C 
ATOM     46  C   UNL A   1      40.139  27.796  28.220  1.00  0.00     0.029 A 
ATOM     47  N   UNL A   1      42.031  27.274  29.233  1.00  0.00    -0.354 N 
ATOM     48  C   UNL A   1      42.517  28.649  33.558  1.00  0.00     0.074 A 
ATOM     49  C   UNL A   1      41.269  28.139  34.054  1.00  0.00     0.031 C 
ATOM     50  C   UNL A   1      40.772  26.887  27.439  1.00  0.00     0.029 A 
ATOM     51  C   UNL A   1      42.016  26.499  28.081  1.00  0.00     0.049 A 
ATOM     52  H   UNL A   1      42.814  27.328  29.827  1.00  0.00     0.167 HD
ATOM     53  C   UNL A   1      43.780  28.551  34.048  1.00  0.00     0.037 A 
ATOM     54  C   UNL A   1      42.941  25.566  27.742  1.00  0.00     0.037 A 
ATOM     55  C   UNL A   1      44.709  29.288  33.228  1.00  0.00     0.049 A 
ATOM     56  C   UNL A   1      44.166  25.854  28.534  1.00  0.00     0.074 A 
ATOM     57  C   UNL A   1      44.837  30.617  32.872  1.00  0.00     0.029 A 
ATOM     58  N   UNL A   1      45.468  28.582  32.327  1.00  0.00    -0.354 N 
ATOM     59  N   UNL A   1      44.927  26.893  28.333  1.00  0.00    -0.248 NA
ATOM     60  C   UNL A   1      44.283  25.239  29.850  1.00  0.00     0.031 C 
ATOM     61  C   UNL A   1      45.282  30.600  31.519  1.00  0.00     0.029 A 
ATOM     62  C   UNL A   1      45.464  29.270  31.142  1.00  0.00     0.049 A 
ATOM     63  H   UNL A   1      45.932  27.732  32.502  1.00  0.00     0.167 HD
ATOM     64  C   UNL A   1      45.282  27.319  29.604  1.00  0.00     0.074 A 
ATOM     65  C   UNL A   1      44.932  26.214  30.492  1.00  0.00     0.031 C 
ATOM     66  C   UNL A   1      45.547  28.635  29.848  1.00  0.00     0.037 A 
BRANCH  53  67
ATOM     67  C   UNL A   1      44.213  27.467  35.002  1.00  0.00     0.064 A 
ATOM     68  C   UNL A   1      44.026  26.124  34.627  1.00  0.00     0.173 A 
ATOM     69  C   UNL A   1      44.514  27.681  36.367  1.00  0.00     0.173 A 
ATOM     70  F   UNL A   1      43.717  25.805  33.360  1.00  0.00    -0.203 F 
ATOM     71  C   UNL A   1      44.051  25.088  35.563  1.00  0.00     0.198 A 
ATOM     72  C   UNL A   1      44.594  26.640  37.286  1.00  0.00     0.198 A 
ATOM     73  F   UNL A   1      44.627  28.902  36.900  1.00  0.00    -0.203 F 
ATOM     74  F   UNL A   1      43.733  23.844  35.183  1.00  0.00    -0.200 F 
ATOM     75  C   UNL A   1      44.330  25.347  36.892  1.00  0.00     0.200 A 
ATOM     76  F   UNL A   1      44.847  26.917  38.573  1.00  0.00    -0.200 F 
ATOM     77  F   UNL A   1      44.292  24.365  37.801  1.00  0.00    -0.200 F 
ENDBRANCH  53  67
BRANCH  54  78
ATOM     78  C   UNL A   1      42.765  24.291  27.007  1.00  0.00     0.064 A 
ATOM     79  C   UNL A   1      43.286  24.124  25.712  1.00  0.00     0.173 A 
ATOM     80  C   UNL A   1      42.340  23.120  27.663  1.00  0.00     0.173 A 
ATOM     81  F   UNL A   1      43.755  25.180  25.031  1.00  0.00    -0.203 F 
ATOM     82  C   UNL A   1      43.401  22.860  25.122  1.00  0.00     0.198 A 
ATOM     83  C   UNL A   1      42.451  21.859  27.071  1.00  0.00     0.198 A 
ATOM     84  F   UNL A   1      41.901  23.162  28.930  1.00  0.00    -0.203 F 
ATOM     85  F   UNL A   1      43.964  22.735  23.912  1.00  0.00    -0.200 F 
ATOM     86  C   UNL A   1      42.995  21.728  25.808  1.00  0.00     0.200 A 
ATOM     87  F   UNL A   1      42.087  20.768  27.760  1.00  0.00    -0.200 F 
ATOM     88  F   UNL A   1      43.164  20.511  25.272  1.00  0.00    -0.200 F 
ENDBRANCH  54  78
BRANCH  66  89
ATOM     89  C   UNL A   1      45.703  29.549  28.664  1.00  0.00     0.064 A 
ATOM     90  C   UNL A   1      44.633  30.205  28.033  1.00  0.00     0.173 A 
ATOM     91  C   UNL A   1      47.000  29.902  28.273  1.00  0.00     0.173 A 
ATOM     92  F   UNL A   1      43.367  29.990  28.415  1.00  0.00    -0.203 F 
ATOM     93  C   UNL A   1      44.857  31.154  27.036  1.00  0.00     0.198 A 
ATOM     94  C   UNL A   1      47.222  30.875  27.304  1.00  0.00     0.198 A 
ATOM     95  F   UNL A   1      48.060  29.343  28.878  1.00  0.00    -0.203 F 
ATOM     96  F   UNL A   1      43.820  31.767  26.445  1.00  0.00    -0.200 F 
ATOM     97  C   UNL A   1      46.151  31.496  26.681  1.00  0.00     0.200 A 
ATOM     98  F   UNL A   1      48.476  31.238  27.000  1.00  0.00    -0.200 F 
ATOM     99  F   UNL A   1      46.368  32.446  25.760  1.00  0.00    -0.200 F 
ENDBRANCH  66  89
ENDBRANCH  40  41
ENDBRANCH  33  35
ENDBRANCH  32  33
ENDBRANCH  31  32
ENDBRANCH  30  31
ENDBRANCH  29  30
ENDBRANCH   1  29
TORSDOF 19
ENDMDL
