MODEL 1
REMARK VINA RESULT:     -10.8      0.000      0.000
REMARK SMILES CC[C@@](C)(NC(=O)CCc1ccc(OC)c(Br)c1)C(=O)OCCOCCOCCOC(=O)c1ccc(-c2c3nc(c(-c4c(F)c(F)c(F)c(F)c4F)c4ccc([nH]4)c(-c4c(F)c(F)c(F)c(F)c4F)c4nc(c(-c5c(F)c(F)c(F)c(F)c5F)c5ccc2[nH]5)C=C4)C=C3)cc1
REMARK SMILES IDX 24 1 23 2 22 3 21 4 19 5 20 6 3 7 4 8 2 9 1 10 5 11 6 12
REMARK SMILES IDX 7 14 8 15 9 16 10 17 11 18 18 19 12 20 16 21 13 22 17 23
REMARK SMILES IDX 14 24 15 25 25 26 26 27 27 28 28 29 29 30 30 31 31 32 32 33
REMARK SMILES IDX 33 34 34 35 95 36 35 37 94 38 36 39 37 40 38 41 88 42 39 43
REMARK SMILES IDX 93 44 87 45 89 46 40 47 92 48 86 49 85 50 41 52 73 53 53 54
REMARK SMILES IDX 72 55 54 56 57 57 71 58 90 59 55 60 56 61 70 63 91 64 58 65
REMARK SMILES IDX 42 66 43 67 51 68 44 69 45 70 49 71 52 72 46 73 47 74 50 75
REMARK SMILES IDX 48 76 74 77 75 78 83 79 76 80 77 81 81 82 84 83 78 84 79 85
REMARK SMILES IDX 82 86 80 87 59 88 60 89 68 90 61 91 62 92 66 93 69 94 63 95
REMARK SMILES IDX 64 96 67 97 65 98
REMARK H PARENT 5 13 89 51 57 62
REMARK Flexibility Score: inf
ROOT
ATOM      1  O   UNL A   1      37.204  21.981  24.088  1.00  0.00    -0.376 OA
ENDROOT
BRANCH   1   2
ATOM      2  C   UNL A   1      36.749  23.343  24.088  1.00  0.00     0.202 C 
BRANCH   2   3
ATOM      3  C   UNL A   1      35.263  23.428  23.602  1.00  0.00     0.261 C 
BRANCH   3   4
ATOM      4  O   UNL A   1      34.514  24.511  24.244  1.00  0.00    -0.462 OA
BRANCH   4   5
ATOM      5  C   UNL A   1      33.173  24.658  23.950  1.00  0.00     0.331 C 
ATOM      6  O   UNL A   1      32.593  23.989  23.101  1.00  0.00    -0.249 OA
BRANCH   5   7
ATOM      7  C   UNL A   1      32.478  25.811  24.777  1.00  0.00     0.135 C 
ATOM      8  C   UNL A   1      33.638  26.741  25.199  1.00  0.00     0.047 C 
BRANCH   7   9
ATOM      9  C   UNL A   1      31.422  26.712  24.079  1.00  0.00     0.037 C 
ATOM     10  C   UNL A   1      29.950  26.431  24.289  1.00  0.00     0.007 C 
ENDBRANCH   7   9
BRANCH   7  11
ATOM     11  N   UNL A   1      31.807  25.319  26.000  1.00  0.00    -0.340 N 
ATOM     12  C   UNL A   1      31.774  24.081  26.545  1.00  0.00     0.221 C 
ATOM     13  H   UNL A   1      31.303  26.003  26.497  1.00  0.00     0.164 HD
ATOM     14  O   UNL A   1      30.776  23.839  27.240  1.00  0.00    -0.275 OA
BRANCH  12  15
ATOM     15  C   UNL A   1      32.864  23.013  26.470  1.00  0.00     0.105 C 
BRANCH  15  16
ATOM     16  C   UNL A   1      32.704  21.504  26.453  1.00  0.00     0.045 C 
BRANCH  16  17
ATOM     17  C   UNL A   1      32.696  20.451  25.382  1.00  0.00    -0.046 A 
ATOM     18  C   UNL A   1      32.447  20.693  24.037  1.00  0.00     0.007 A 
ATOM     19  C   UNL A   1      32.811  19.104  25.811  1.00  0.00     0.023 A 
ATOM     20  C   UNL A   1      32.461  19.625  23.129  1.00  0.00     0.048 A 
ATOM     21  C   UNL A   1      32.807  18.040  24.919  1.00  0.00     0.060 A 
ATOM     22  C   UNL A   1      32.705  18.314  23.559  1.00  0.00     0.133 A 
ATOM     23  Br  UNL A   1      32.933  16.285  25.628  1.00  0.00    -0.047 Br
BRANCH  22  24
ATOM     24  O   UNL A   1      32.835  17.352  22.593  1.00  0.00    -0.496 OA
ATOM     25  C   UNL A   1      34.071  16.641  22.751  1.00  0.00     0.278 C 
ENDBRANCH  22  24
ENDBRANCH  16  17
ENDBRANCH  15  16
ENDBRANCH  12  15
ENDBRANCH   7  11
ENDBRANCH   5   7
ENDBRANCH   4   5
ENDBRANCH   3   4
ENDBRANCH   2   3
ENDBRANCH   1   2
BRANCH   1  26
ATOM     26  C   UNL A   1      37.649  21.440  25.336  1.00  0.00     0.188 C 
BRANCH  26  27
ATOM     27  C   UNL A   1      39.098  21.731  25.769  1.00  0.00     0.188 C 
BRANCH  27  28
ATOM     28  O   UNL A   1      39.954  20.588  25.731  1.00  0.00    -0.376 OA
BRANCH  28  29
ATOM     29  C   UNL A   1      40.945  20.615  26.764  1.00  0.00     0.202 C 
BRANCH  29  30
ATOM     30  C   UNL A   1      42.395  20.753  26.257  1.00  0.00     0.261 C 
BRANCH  30  31
ATOM     31  O   UNL A   1      43.002  21.992  26.662  1.00  0.00    -0.460 OA
BRANCH  31  32
ATOM     32  C   UNL A   1      42.818  23.018  25.785  1.00  0.00     0.338 C 
ATOM     33  O   UNL A   1      43.004  22.994  24.589  1.00  0.00    -0.246 OA
BRANCH  32  34
ATOM     34  C   UNL A   1      42.208  24.183  26.477  1.00  0.00     0.060 A 
ATOM     35  C   UNL A   1      42.767  25.444  26.223  1.00  0.00     0.016 A 
ATOM     36  C   UNL A   1      41.151  24.059  27.383  1.00  0.00     0.016 A 
ATOM     37  C   UNL A   1      42.316  26.572  26.914  1.00  0.00     0.010 A 
ATOM     38  C   UNL A   1      40.705  25.187  28.085  1.00  0.00     0.010 A 
ATOM     39  C   UNL A   1      41.317  26.439  27.886  1.00  0.00    -0.014 A 
BRANCH  39  40
ATOM     40  C   UNL A   1      41.104  27.518  28.885  1.00  0.00     0.031 A 
ATOM     41  C   UNL A   1      42.031  27.560  30.073  1.00  0.00     0.074 A 
ATOM     42  C   UNL A   1      40.129  28.435  28.765  1.00  0.00     0.049 A 
ATOM     43  N   UNL A   1      41.980  28.298  31.152  1.00  0.00    -0.248 NA
ATOM     44  C   UNL A   1      43.172  26.630  30.034  1.00  0.00     0.031 C 
ATOM     45  C   UNL A   1      39.214  28.560  27.635  1.00  0.00     0.029 A 
ATOM     46  N   UNL A   1      39.742  29.436  29.626  1.00  0.00    -0.354 N 
ATOM     47  C   UNL A   1      43.072  27.913  31.921  1.00  0.00     0.074 A 
ATOM     48  C   UNL A   1      43.758  26.869  31.195  1.00  0.00     0.031 C 
ATOM     49  C   UNL A   1      38.359  29.571  27.877  1.00  0.00     0.029 A 
ATOM     50  C   UNL A   1      38.636  30.132  29.200  1.00  0.00     0.049 A 
ATOM     51  H   UNL A   1      40.213  29.636  30.466  1.00  0.00     0.167 HD
ATOM     52  C   UNL A   1      43.464  28.382  33.129  1.00  0.00     0.037 A 
ATOM     53  C   UNL A   1      37.916  31.083  29.828  1.00  0.00     0.037 A 
ATOM     54  C   UNL A   1      42.770  29.404  33.863  1.00  0.00     0.049 A 
ATOM     55  C   UNL A   1      38.310  31.517  31.222  1.00  0.00     0.074 A 
ATOM     56  C   UNL A   1      43.066  29.925  35.110  1.00  0.00     0.029 A 
ATOM     57  N   UNL A   1      41.632  30.056  33.415  1.00  0.00    -0.354 N 
ATOM     58  N   UNL A   1      39.327  31.135  31.957  1.00  0.00    -0.248 NA
ATOM     59  C   UNL A   1      37.445  32.510  31.878  1.00  0.00     0.031 C 
ATOM     60  C   UNL A   1      42.080  30.862  35.436  1.00  0.00     0.029 A 
ATOM     61  C   UNL A   1      41.201  30.963  34.369  1.00  0.00     0.049 A 
ATOM     62  H   UNL A   1      41.195  29.898  32.547  1.00  0.00     0.167 HD
ATOM     63  C   UNL A   1      39.240  31.857  33.142  1.00  0.00     0.074 A 
ATOM     64  C   UNL A   1      38.077  32.710  33.027  1.00  0.00     0.031 C 
ATOM     65  C   UNL A   1      40.051  31.817  34.229  1.00  0.00     0.037 A 
BRANCH  52  66
ATOM     66  C   UNL A   1      44.676  27.750  33.745  1.00  0.00     0.064 A 
ATOM     67  C   UNL A   1      45.957  28.296  33.580  1.00  0.00     0.173 A 
ATOM     68  C   UNL A   1      44.553  26.579  34.509  1.00  0.00     0.173 A 
ATOM     69  F   UNL A   1      46.129  29.402  32.839  1.00  0.00    -0.203 F 
ATOM     70  C   UNL A   1      47.075  27.676  34.132  1.00  0.00     0.198 A 
ATOM     71  C   UNL A   1      45.669  25.978  35.083  1.00  0.00     0.198 A 
ATOM     72  F   UNL A   1      43.350  26.016  34.694  1.00  0.00    -0.203 F 
ATOM     73  F   UNL A   1      48.297  28.184  33.915  1.00  0.00    -0.200 F 
ATOM     74  C   UNL A   1      46.929  26.522  34.887  1.00  0.00     0.200 A 
ATOM     75  F   UNL A   1      45.526  24.866  35.818  1.00  0.00    -0.200 F 
ATOM     76  F   UNL A   1      48.007  25.925  35.416  1.00  0.00    -0.200 F 
ENDBRANCH  52  66
BRANCH  53  77
ATOM     77  C   UNL A   1      36.717  31.674  29.172  1.00  0.00     0.064 A 
ATOM     78  C   UNL A   1      36.675  33.036  28.838  1.00  0.00     0.173 A 
ATOM     79  C   UNL A   1      35.573  30.906  28.913  1.00  0.00     0.173 A 
ATOM     80  F   UNL A   1      37.727  33.823  29.103  1.00  0.00    -0.203 F 
ATOM     81  C   UNL A   1      35.530  33.607  28.286  1.00  0.00     0.198 A 
ATOM     82  C   UNL A   1      34.439  31.472  28.335  1.00  0.00     0.198 A 
ATOM     83  F   UNL A   1      35.553  29.603  29.232  1.00  0.00    -0.203 F 
ATOM     84  F   UNL A   1      35.495  34.923  28.031  1.00  0.00    -0.200 F 
ATOM     85  C   UNL A   1      34.414  32.824  28.029  1.00  0.00     0.200 A 
ATOM     86  F   UNL A   1      33.362  30.712  28.091  1.00  0.00    -0.200 F 
ATOM     87  F   UNL A   1      33.311  33.377  27.506  1.00  0.00    -0.200 F 
ENDBRANCH  53  77
BRANCH  65  88
ATOM     88  C   UNL A   1      39.744  32.753  35.363  1.00  0.00     0.064 A 
ATOM     89  C   UNL A   1      40.260  34.057  35.406  1.00  0.00     0.173 A 
ATOM     90  C   UNL A   1      38.869  32.358  36.387  1.00  0.00     0.173 A 
ATOM     91  F   UNL A   1      41.108  34.478  34.458  1.00  0.00    -0.203 F 
ATOM     92  C   UNL A   1      39.926  34.923  36.444  1.00  0.00     0.198 A 
ATOM     93  C   UNL A   1      38.515  33.237  37.408  1.00  0.00     0.198 A 
ATOM     94  F   UNL A   1      38.339  31.126  36.386  1.00  0.00    -0.203 F 
ATOM     95  F   UNL A   1      40.460  36.152  36.487  1.00  0.00    -0.200 F 
ATOM     96  C   UNL A   1      39.048  34.516  37.439  1.00  0.00     0.200 A 
ATOM     97  F   UNL A   1      37.654  32.847  38.358  1.00  0.00    -0.200 F 
ATOM     98  F   UNL A   1      38.719  35.357  38.429  1.00  0.00    -0.200 F 
ENDBRANCH  65  88
ENDBRANCH  39  40
ENDBRANCH  32  34
ENDBRANCH  31  32
ENDBRANCH  30  31
ENDBRANCH  29  30
ENDBRANCH  28  29
ENDBRANCH  27  28
ENDBRANCH  26  27
ENDBRANCH   1  26
TORSDOF 23
ENDMDL
MODEL 2
REMARK VINA RESULT:     -10.6      3.603      8.990
REMARK SMILES CC[C@@](C)(NC(=O)CCc1ccc(OC)c(Br)c1)C(=O)OCCOCCOCCOC(=O)c1ccc(-c2c3nc(c(-c4c(F)c(F)c(F)c(F)c4F)c4ccc([nH]4)c(-c4c(F)c(F)c(F)c(F)c4F)c4nc(c(-c5c(F)c(F)c(F)c(F)c5F)c5ccc2[nH]5)C=C4)C=C3)cc1
REMARK SMILES IDX 24 1 23 2 22 3 21 4 19 5 20 6 3 7 4 8 2 9 1 10 5 11 6 12
REMARK SMILES IDX 7 14 8 15 9 16 10 17 11 18 18 19 12 20 16 21 13 22 17 23
REMARK SMILES IDX 14 24 15 25 25 26 26 27 27 28 28 29 29 30 30 31 31 32 32 33
REMARK SMILES IDX 33 34 34 35 95 36 35 37 94 38 36 39 37 40 38 41 88 42 39 43
REMARK SMILES IDX 93 44 87 45 89 46 40 47 92 48 86 49 85 50 41 52 73 53 53 54
REMARK SMILES IDX 72 55 54 56 57 57 71 58 90 59 55 60 56 61 70 63 91 64 58 65
REMARK SMILES IDX 42 66 43 67 51 68 44 69 45 70 49 71 52 72 46 73 47 74 50 75
REMARK SMILES IDX 48 76 74 77 75 78 83 79 76 80 77 81 81 82 84 83 78 84 79 85
REMARK SMILES IDX 82 86 80 87 59 88 60 89 68 90 61 91 62 92 66 93 69 94 63 95
REMARK SMILES IDX 64 96 67 97 65 98
REMARK H PARENT 5 13 89 51 57 62
REMARK Flexibility Score: inf
ROOT
ATOM      1  O   UNL A   1      31.601  28.600  22.506  1.00  0.00    -0.376 OA
ENDROOT
BRANCH   1   2
ATOM      2  C   UNL A   1      33.009  28.863  22.609  1.00  0.00     0.202 C 
BRANCH   2   3
ATOM      3  C   UNL A   1      33.830  27.537  22.478  1.00  0.00     0.261 C 
BRANCH   3   4
ATOM      4  O   UNL A   1      33.530  26.571  23.538  1.00  0.00    -0.462 OA
BRANCH   4   5
ATOM      5  C   UNL A   1      33.371  25.242  23.202  1.00  0.00     0.331 C 
ATOM      6  O   UNL A   1      34.189  24.612  22.540  1.00  0.00    -0.249 OA
BRANCH   5   7
ATOM      7  C   UNL A   1      32.004  24.633  23.709  1.00  0.00     0.135 C 
ATOM      8  C   UNL A   1      30.938  25.230  22.762  1.00  0.00     0.047 C 
BRANCH   7   9
ATOM      9  C   UNL A   1      31.806  23.092  23.681  1.00  0.00     0.037 C 
ATOM     10  C   UNL A   1      32.711  22.240  22.818  1.00  0.00     0.007 C 
ENDBRANCH   7   9
BRANCH   7  11
ATOM     11  N   UNL A   1      31.673  25.032  25.094  1.00  0.00    -0.340 N 
ATOM     12  C   UNL A   1      31.943  24.420  26.271  1.00  0.00     0.221 C 
ATOM     13  H   UNL A   1      31.177  25.879  25.172  1.00  0.00     0.164 HD
ATOM     14  O   UNL A   1      31.152  24.679  27.190  1.00  0.00    -0.275 OA
BRANCH  12  15
ATOM     15  C   UNL A   1      33.148  23.541  26.597  1.00  0.00     0.105 C 
BRANCH  15  16
ATOM     16  C   UNL A   1      34.546  23.603  26.008  1.00  0.00     0.045 C 
BRANCH  16  17
ATOM     17  C   UNL A   1      35.590  22.585  25.649  1.00  0.00    -0.046 A 
ATOM     18  C   UNL A   1      36.933  22.871  25.438  1.00  0.00     0.007 A 
ATOM     19  C   UNL A   1      35.132  21.272  25.370  1.00  0.00     0.023 A 
ATOM     20  C   UNL A   1      37.815  21.834  25.101  1.00  0.00     0.048 A 
ATOM     21  C   UNL A   1      35.998  20.245  25.018  1.00  0.00     0.060 A 
ATOM     22  C   UNL A   1      37.360  20.517  24.956  1.00  0.00     0.133 A 
ATOM     23  Br  UNL A   1      35.249  18.544  24.636  1.00  0.00    -0.047 Br
BRANCH  22  24
ATOM     24  O   UNL A   1      38.306  19.546  24.759  1.00  0.00    -0.496 OA
ATOM     25  C   UNL A   1      39.386  19.698  25.691  1.00  0.00     0.278 C 
ENDBRANCH  22  24
ENDBRANCH  16  17
ENDBRANCH  15  16
ENDBRANCH  12  15
ENDBRANCH   7  11
ENDBRANCH   5   7
ENDBRANCH   4   5
ENDBRANCH   3   4
ENDBRANCH   2   3
ENDBRANCH   1   2
BRANCH   1  26
ATOM     26  C   UNL A   1      30.754  29.172  23.507  1.00  0.00     0.188 C 
BRANCH  26  27
ATOM     27  C   UNL A   1      31.212  29.080  24.974  1.00  0.00     0.188 C 
BRANCH  27  28
ATOM     28  O   UNL A   1      31.725  30.305  25.499  1.00  0.00    -0.376 OA
BRANCH  28  29
ATOM     29  C   UNL A   1      32.005  30.224  26.899  1.00  0.00     0.202 C 
BRANCH  29  30
ATOM     30  C   UNL A   1      33.485  29.957  27.243  1.00  0.00     0.261 C 
BRANCH  30  31
ATOM     31  O   UNL A   1      34.266  31.164  27.276  1.00  0.00    -0.460 OA
BRANCH  31  32
ATOM     32  C   UNL A   1      34.908  31.383  28.458  1.00  0.00     0.338 C 
ATOM     33  O   UNL A   1      34.535  32.091  29.366  1.00  0.00    -0.246 OA
BRANCH  32  34
ATOM     34  C   UNL A   1      36.106  30.512  28.562  1.00  0.00     0.060 A 
ATOM     35  C   UNL A   1      36.263  29.776  29.745  1.00  0.00     0.016 A 
ATOM     36  C   UNL A   1      37.080  30.439  27.562  1.00  0.00     0.016 A 
ATOM     37  C   UNL A   1      37.415  29.014  29.960  1.00  0.00     0.010 A 
ATOM     38  C   UNL A   1      38.241  29.685  27.780  1.00  0.00     0.010 A 
ATOM     39  C   UNL A   1      38.434  29.006  28.999  1.00  0.00    -0.014 A 
BRANCH  39  40
ATOM     40  C   UNL A   1      39.796  28.540  29.364  1.00  0.00     0.031 A 
ATOM     41  C   UNL A   1      40.618  29.429  30.262  1.00  0.00     0.074 A 
ATOM     42  C   UNL A   1      40.307  27.378  28.923  1.00  0.00     0.049 A 
ATOM     43  N   UNL A   1      41.874  29.332  30.615  1.00  0.00    -0.248 NA
ATOM     44  C   UNL A   1      39.919  30.591  30.835  1.00  0.00     0.031 C 
ATOM     45  C   UNL A   1      39.598  26.390  28.115  1.00  0.00     0.029 A 
ATOM     46  N   UNL A   1      41.562  26.840  29.091  1.00  0.00    -0.354 N 
ATOM     47  C   UNL A   1      42.116  30.425  31.439  1.00  0.00     0.074 A 
ATOM     48  C   UNL A   1      40.885  31.177  31.523  1.00  0.00     0.031 C 
ATOM     49  C   UNL A   1      40.433  25.370  27.844  1.00  0.00     0.029 A 
ATOM     50  C   UNL A   1      41.750  25.658  28.416  1.00  0.00     0.049 A 
ATOM     51  H   UNL A   1      42.259  27.262  29.642  1.00  0.00     0.167 HD
ATOM     52  C   UNL A   1      43.264  30.776  32.065  1.00  0.00     0.037 A 
ATOM     53  C   UNL A   1      42.866  24.920  28.254  1.00  0.00     0.037 A 
ATOM     54  C   UNL A   1      44.496  30.043  31.965  1.00  0.00     0.049 A 
ATOM     55  C   UNL A   1      44.163  25.387  28.875  1.00  0.00     0.074 A 
ATOM     56  C   UNL A   1      45.724  30.334  32.532  1.00  0.00     0.029 A 
ATOM     57  N   UNL A   1      44.655  28.872  31.240  1.00  0.00    -0.354 N 
ATOM     58  N   UNL A   1      44.396  26.432  29.633  1.00  0.00    -0.248 NA
ATOM     59  C   UNL A   1      45.360  24.573  28.607  1.00  0.00     0.031 C 
ATOM     60  C   UNL A   1      46.638  29.361  32.113  1.00  0.00     0.029 A 
ATOM     61  C   UNL A   1      45.966  28.436  31.330  1.00  0.00     0.049 A 
ATOM     62  H   UNL A   1      43.941  28.417  30.737  1.00  0.00     0.167 HD
ATOM     63  C   UNL A   1      45.748  26.385  29.952  1.00  0.00     0.074 A 
ATOM     64  C   UNL A   1      46.287  25.202  29.316  1.00  0.00     0.031 C 
ATOM     65  C   UNL A   1      46.480  27.244  30.705  1.00  0.00     0.037 A 
BRANCH  52  66
ATOM     66  C   UNL A   1      43.242  32.039  32.873  1.00  0.00     0.064 A 
ATOM     67  C   UNL A   1      42.717  32.075  34.172  1.00  0.00     0.173 A 
ATOM     68  C   UNL A   1      43.751  33.232  32.336  1.00  0.00     0.173 A 
ATOM     69  F   UNL A   1      42.197  30.966  34.721  1.00  0.00    -0.203 F 
ATOM     70  C   UNL A   1      42.674  33.264  34.894  1.00  0.00     0.198 A 
ATOM     71  C   UNL A   1      43.733  34.413  33.071  1.00  0.00     0.198 A 
ATOM     72  F   UNL A   1      44.263  33.251  31.096  1.00  0.00    -0.203 F 
ATOM     73  F   UNL A   1      42.117  33.287  36.113  1.00  0.00    -0.200 F 
ATOM     74  C   UNL A   1      43.187  34.430  34.346  1.00  0.00     0.200 A 
ATOM     75  F   UNL A   1      44.236  35.538  32.542  1.00  0.00    -0.200 F 
ATOM     76  F   UNL A   1      43.144  35.575  35.041  1.00  0.00    -0.200 F 
ENDBRANCH  52  66
BRANCH  53  77
ATOM     77  C   UNL A   1      42.834  23.676  27.438  1.00  0.00     0.064 A 
ATOM     78  C   UNL A   1      42.412  22.459  27.993  1.00  0.00     0.173 A 
ATOM     79  C   UNL A   1      43.270  23.666  26.105  1.00  0.00     0.173 A 
ATOM     80  F   UNL A   1      42.024  22.407  29.276  1.00  0.00    -0.203 F 
ATOM     81  C   UNL A   1      42.444  21.279  27.251  1.00  0.00     0.198 A 
ATOM     82  C   UNL A   1      43.275  22.491  25.355  1.00  0.00     0.198 A 
ATOM     83  F   UNL A   1      43.704  24.798  25.532  1.00  0.00    -0.203 F 
ATOM     84  F   UNL A   1      42.092  20.119  27.825  1.00  0.00    -0.200 F 
ATOM     85  C   UNL A   1      42.870  21.296  25.932  1.00  0.00     0.200 A 
ATOM     86  F   UNL A   1      43.690  22.511  24.082  1.00  0.00    -0.200 F 
ATOM     87  F   UNL A   1      42.908  20.159  25.223  1.00  0.00    -0.200 F 
ENDBRANCH  53  77
BRANCH  65  88
ATOM     88  C   UNL A   1      47.929  26.919  30.926  1.00  0.00     0.064 A 
ATOM     89  C   UNL A   1      48.346  26.067  31.960  1.00  0.00     0.173 A 
ATOM     90  C   UNL A   1      48.907  27.416  30.050  1.00  0.00     0.173 A 
ATOM     91  F   UNL A   1      47.452  25.575  32.830  1.00  0.00    -0.203 F 
ATOM     92  C   UNL A   1      49.691  25.742  32.120  1.00  0.00     0.198 A 
ATOM     93  C   UNL A   1      50.247  27.066  30.196  1.00  0.00     0.198 A 
ATOM     94  F   UNL A   1      48.559  28.225  29.038  1.00  0.00    -0.203 F 
ATOM     95  F   UNL A   1      50.072  24.958  33.138  1.00  0.00    -0.200 F 
ATOM     96  C   UNL A   1      50.639  26.235  31.234  1.00  0.00     0.200 A 
ATOM     97  F   UNL A   1      51.157  27.529  29.329  1.00  0.00    -0.200 F 
ATOM     98  F   UNL A   1      51.930  25.909  31.383  1.00  0.00    -0.200 F 
ENDBRANCH  65  88
ENDBRANCH  39  40
ENDBRANCH  32  34
ENDBRANCH  31  32
ENDBRANCH  30  31
ENDBRANCH  29  30
ENDBRANCH  28  29
ENDBRANCH  27  28
ENDBRANCH  26  27
ENDBRANCH   1  26
TORSDOF 23
ENDMDL
MODEL 3
REMARK VINA RESULT:     -10.3      5.422     10.190
REMARK SMILES CC[C@@](C)(NC(=O)CCc1ccc(OC)c(Br)c1)C(=O)OCCOCCOCCOC(=O)c1ccc(-c2c3nc(c(-c4c(F)c(F)c(F)c(F)c4F)c4ccc([nH]4)c(-c4c(F)c(F)c(F)c(F)c4F)c4nc(c(-c5c(F)c(F)c(F)c(F)c5F)c5ccc2[nH]5)C=C4)C=C3)cc1
REMARK SMILES IDX 24 1 23 2 22 3 21 4 19 5 20 6 3 7 4 8 2 9 1 10 5 11 6 12
REMARK SMILES IDX 7 14 8 15 9 16 10 17 11 18 18 19 12 20 16 21 13 22 17 23
REMARK SMILES IDX 14 24 15 25 25 26 26 27 27 28 28 29 29 30 30 31 31 32 32 33
REMARK SMILES IDX 33 34 34 35 95 36 35 37 94 38 36 39 37 40 38 41 88 42 39 43
REMARK SMILES IDX 93 44 87 45 89 46 40 47 92 48 86 49 85 50 41 52 73 53 53 54
REMARK SMILES IDX 72 55 54 56 57 57 71 58 90 59 55 60 56 61 70 63 91 64 58 65
REMARK SMILES IDX 42 66 43 67 51 68 44 69 45 70 49 71 52 72 46 73 47 74 50 75
REMARK SMILES IDX 48 76 74 77 75 78 83 79 76 80 77 81 81 82 84 83 78 84 79 85
REMARK SMILES IDX 82 86 80 87 59 88 60 89 68 90 61 91 62 92 66 93 69 94 63 95
REMARK SMILES IDX 64 96 67 97 65 98
REMARK H PARENT 5 13 89 51 57 62
REMARK Flexibility Score: inf
ROOT
ATOM      1  O   UNL A   1      33.765  31.557  27.980  1.00  0.00    -0.376 OA
ENDROOT
BRANCH   1   2
ATOM      2  C   UNL A   1      33.216  31.066  26.748  1.00  0.00     0.202 C 
BRANCH   2   3
ATOM      3  C   UNL A   1      32.134  29.968  27.025  1.00  0.00     0.261 C 
BRANCH   3   4
ATOM      4  O   UNL A   1      31.691  29.282  25.809  1.00  0.00    -0.462 OA
BRANCH   4   5
ATOM      5  C   UNL A   1      32.419  28.201  25.353  1.00  0.00     0.331 C 
ATOM      6  O   UNL A   1      32.869  27.332  26.092  1.00  0.00    -0.249 OA
BRANCH   5   7
ATOM      7  C   UNL A   1      32.659  28.229  23.792  1.00  0.00     0.135 C 
ATOM      8  C   UNL A   1      34.028  28.927  23.621  1.00  0.00     0.047 C 
BRANCH   7   9
ATOM      9  C   UNL A   1      32.750  26.886  23.016  1.00  0.00     0.037 C 
ATOM     10  C   UNL A   1      33.653  26.784  21.806  1.00  0.00     0.007 C 
ENDBRANCH   7   9
BRANCH   7  11
ATOM     11  N   UNL A   1      31.640  29.017  23.065  1.00  0.00    -0.340 N 
ATOM     12  C   UNL A   1      30.360  28.713  22.746  1.00  0.00     0.221 C 
ATOM     13  H   UNL A   1      31.942  29.905  22.765  1.00  0.00     0.164 HD
ATOM     14  O   UNL A   1      29.916  29.296  21.746  1.00  0.00    -0.275 OA
BRANCH  12  15
ATOM     15  C   UNL A   1      29.402  27.821  23.532  1.00  0.00     0.105 C 
BRANCH  15  16
ATOM     16  C   UNL A   1      29.326  26.305  23.549  1.00  0.00     0.045 C 
BRANCH  16  17
ATOM     17  C   UNL A   1      30.041  25.216  24.296  1.00  0.00    -0.046 A 
ATOM     18  C   UNL A   1      30.254  25.208  25.669  1.00  0.00     0.007 A 
ATOM     19  C   UNL A   1      30.658  24.206  23.515  1.00  0.00     0.023 A 
ATOM     20  C   UNL A   1      30.942  24.135  26.254  1.00  0.00     0.048 A 
ATOM     21  C   UNL A   1      31.357  23.152  24.088  1.00  0.00     0.060 A 
ATOM     22  C   UNL A   1      31.433  23.080  25.475  1.00  0.00     0.133 A 
ATOM     23  Br  UNL A   1      32.166  21.888  22.927  1.00  0.00    -0.047 Br
BRANCH  22  24
ATOM     24  O   UNL A   1      31.973  22.010  26.138  1.00  0.00    -0.496 OA
ATOM     25  C   UNL A   1      33.237  22.363  26.720  1.00  0.00     0.278 C 
ENDBRANCH  22  24
ENDBRANCH  16  17
ENDBRANCH  15  16
ENDBRANCH  12  15
ENDBRANCH   7  11
ENDBRANCH   5   7
ENDBRANCH   4   5
ENDBRANCH   3   4
ENDBRANCH   2   3
ENDBRANCH   1   2
BRANCH   1  26
ATOM     26  C   UNL A   1      34.187  32.925  28.008  1.00  0.00     0.188 C 
BRANCH  26  27
ATOM     27  C   UNL A   1      34.319  33.608  29.381  1.00  0.00     0.188 C 
BRANCH  27  28
ATOM     28  O   UNL A   1      34.200  32.712  30.488  1.00  0.00    -0.376 OA
BRANCH  28  29
ATOM     29  C   UNL A   1      34.658  33.294  31.712  1.00  0.00     0.202 C 
BRANCH  29  30
ATOM     30  C   UNL A   1      35.277  32.291  32.707  1.00  0.00     0.261 C 
BRANCH  30  31
ATOM     31  O   UNL A   1      36.287  32.893  33.534  1.00  0.00    -0.460 OA
BRANCH  31  32
ATOM     32  C   UNL A   1      37.271  33.532  32.841  1.00  0.00     0.338 C 
ATOM     33  O   UNL A   1      37.557  34.707  32.902  1.00  0.00    -0.246 OA
BRANCH  32  34
ATOM     34  C   UNL A   1      38.074  32.552  32.065  1.00  0.00     0.060 A 
ATOM     35  C   UNL A   1      38.905  31.686  32.791  1.00  0.00     0.016 A 
ATOM     36  C   UNL A   1      38.061  32.498  30.668  1.00  0.00     0.016 A 
ATOM     37  C   UNL A   1      39.766  30.807  32.128  1.00  0.00     0.010 A 
ATOM     38  C   UNL A   1      38.933  31.626  30.002  1.00  0.00     0.010 A 
ATOM     39  C   UNL A   1      39.821  30.810  30.729  1.00  0.00    -0.014 A 
BRANCH  39  40
ATOM     40  C   UNL A   1      40.976  30.190  30.030  1.00  0.00     0.031 A 
ATOM     41  C   UNL A   1      42.202  31.042  29.819  1.00  0.00     0.074 A 
ATOM     42  C   UNL A   1      40.959  28.922  29.586  1.00  0.00     0.049 A 
ATOM     43  N   UNL A   1      43.282  30.800  29.123  1.00  0.00    -0.248 NA
ATOM     44  C   UNL A   1      42.198  32.354  30.489  1.00  0.00     0.031 C 
ATOM     45  C   UNL A   1      39.875  27.965  29.788  1.00  0.00     0.029 A 
ATOM     46  N   UNL A   1      41.893  28.225  28.855  1.00  0.00    -0.354 N 
ATOM     47  C   UNL A   1      44.078  31.931  29.261  1.00  0.00     0.074 A 
ATOM     48  C   UNL A   1      43.353  32.864  30.094  1.00  0.00     0.031 C 
ATOM     49  C   UNL A   1      40.197  26.808  29.182  1.00  0.00     0.029 A 
ATOM     50  C   UNL A   1      41.488  26.959  28.508  1.00  0.00     0.049 A 
ATOM     51  H   UNL A   1      42.769  28.598  28.605  1.00  0.00     0.167 HD
ATOM     52  C   UNL A   1      45.301  32.176  28.735  1.00  0.00     0.037 A 
ATOM     53  C   UNL A   1      42.080  26.048  27.708  1.00  0.00     0.037 A 
ATOM     54  C   UNL A   1      46.014  31.259  27.887  1.00  0.00     0.049 A 
ATOM     55  C   UNL A   1      43.397  26.384  27.046  1.00  0.00     0.074 A 
ATOM     56  C   UNL A   1      47.244  31.426  27.276  1.00  0.00     0.029 A 
ATOM     57  N   UNL A   1      45.553  30.003  27.527  1.00  0.00    -0.354 N 
ATOM     58  N   UNL A   1      44.135  27.462  27.157  1.00  0.00    -0.248 NA
ATOM     59  C   UNL A   1      43.958  25.374  26.133  1.00  0.00     0.031 C 
ATOM     60  C   UNL A   1      47.506  30.286  26.508  1.00  0.00     0.029 A 
ATOM     61  C   UNL A   1      46.464  29.389  26.687  1.00  0.00     0.049 A 
ATOM     62  H   UNL A   1      44.703  29.606  27.827  1.00  0.00     0.167 HD
ATOM     63  C   UNL A   1      45.252  27.250  26.358  1.00  0.00     0.074 A 
ATOM     64  C   UNL A   1      45.104  25.935  25.772  1.00  0.00     0.031 C 
ATOM     65  C   UNL A   1      46.308  28.070  26.128  1.00  0.00     0.037 A 
BRANCH  52  66
ATOM     66  C   UNL A   1      45.915  33.512  29.027  1.00  0.00     0.064 A 
ATOM     67  C   UNL A   1      46.759  33.710  30.129  1.00  0.00     0.173 A 
ATOM     68  C   UNL A   1      45.651  34.610  28.195  1.00  0.00     0.173 A 
ATOM     69  F   UNL A   1      47.024  32.696  30.968  1.00  0.00    -0.203 F 
ATOM     70  C   UNL A   1      47.293  34.966  30.405  1.00  0.00     0.198 A 
ATOM     71  C   UNL A   1      46.209  35.858  28.457  1.00  0.00     0.198 A 
ATOM     72  F   UNL A   1      44.847  34.474  27.129  1.00  0.00    -0.203 F 
ATOM     73  F   UNL A   1      48.053  35.145  31.495  1.00  0.00    -0.200 F 
ATOM     74  C   UNL A   1      47.023  36.036  29.566  1.00  0.00     0.200 A 
ATOM     75  F   UNL A   1      45.952  36.890  27.641  1.00  0.00    -0.200 F 
ATOM     76  F   UNL A   1      47.536  37.245  29.832  1.00  0.00    -0.200 F 
ENDBRANCH  52  66
BRANCH  53  77
ATOM     77  C   UNL A   1      41.424  24.738  27.447  1.00  0.00     0.064 A 
ATOM     78  C   UNL A   1      40.268  24.654  26.655  1.00  0.00     0.173 A 
ATOM     79  C   UNL A   1      41.904  23.553  28.022  1.00  0.00     0.173 A 
ATOM     80  F   UNL A   1      39.745  25.765  26.115  1.00  0.00    -0.203 F 
ATOM     81  C   UNL A   1      39.613  23.439  26.463  1.00  0.00     0.198 A 
ATOM     82  C   UNL A   1      41.263  22.334  27.807  1.00  0.00     0.198 A 
ATOM     83  F   UNL A   1      42.993  23.580  28.805  1.00  0.00    -0.203 F 
ATOM     84  F   UNL A   1      38.478  23.398  25.751  1.00  0.00    -0.200 F 
ATOM     85  C   UNL A   1      40.113  22.279  27.035  1.00  0.00     0.200 A 
ATOM     86  F   UNL A   1      41.749  21.216  28.363  1.00  0.00    -0.200 F 
ATOM     87  F   UNL A   1      39.477  21.113  26.856  1.00  0.00    -0.200 F 
ENDBRANCH  53  77
BRANCH  65  88
ATOM     88  C   UNL A   1      47.411  27.559  25.246  1.00  0.00     0.064 A 
ATOM     89  C   UNL A   1      47.427  27.803  23.865  1.00  0.00     0.173 A 
ATOM     90  C   UNL A   1      48.500  26.871  25.804  1.00  0.00     0.173 A 
ATOM     91  F   UNL A   1      46.406  28.448  23.282  1.00  0.00    -0.203 F 
ATOM     92  C   UNL A   1      48.483  27.359  23.073  1.00  0.00     0.198 A 
ATOM     93  C   UNL A   1      49.567  26.453  25.013  1.00  0.00     0.198 A 
ATOM     94  F   UNL A   1      48.539  26.621  27.122  1.00  0.00    -0.203 F 
ATOM     95  F   UNL A   1      48.460  27.570  21.749  1.00  0.00    -0.200 F 
ATOM     96  C   UNL A   1      49.555  26.692  23.648  1.00  0.00     0.200 A 
ATOM     97  F   UNL A   1      50.609  25.824  25.574  1.00  0.00    -0.200 F 
ATOM     98  F   UNL A   1      50.575  26.277  22.884  1.00  0.00    -0.200 F 
ENDBRANCH  65  88
ENDBRANCH  39  40
ENDBRANCH  32  34
ENDBRANCH  31  32
ENDBRANCH  30  31
ENDBRANCH  29  30
ENDBRANCH  28  29
ENDBRANCH  27  28
ENDBRANCH  26  27
ENDBRANCH   1  26
TORSDOF 23
ENDMDL
