MODEL 1
REMARK VINA RESULT:     -12.3      0.000      0.000
REMARK SMILES CS(=O)(=O)c1ccc(-c2cc(Cl)cc3c2O[C@H](C(F)(F)F)C(C(=O)OCCOCCOCCOC(=O)c2ccc(-c4c5nc(c(-c6c(F)c(F)c(F)c(F)c6F)c6ccc([nH]6)c(-c6c(F)c(F)c(F)c(F)c6F)c6nc(c(-c7c(F)c(F)c(F)c(F)c7F)c7ccc4[nH]7)C=C6)C=C5)cc2)=C3)cc1
REMARK SMILES IDX 29 1 28 2 27 3 26 4 25 5 23 6 24 7 22 8 9 9 10 10 15 11
REMARK SMILES IDX 11 12 14 13 16 14 12 15 13 16 100 17 17 18 8 19 5 20 6 21
REMARK SMILES IDX 102 22 7 23 101 24 2 25 1 26 3 27 4 28 18 29 19 30 20 31
REMARK SMILES IDX 21 32 30 33 31 34 32 35 33 36 34 37 35 38 36 39 37 40 38 41
REMARK SMILES IDX 99 42 39 43 98 44 40 45 41 46 42 47 92 48 43 49 97 50 91 51
REMARK SMILES IDX 93 52 44 53 96 54 90 55 89 56 45 58 77 59 57 60 76 61 58 62
REMARK SMILES IDX 61 63 75 64 94 65 59 66 60 67 74 69 95 70 62 71 46 72 47 73
REMARK SMILES IDX 55 74 48 75 49 76 53 77 56 78 50 79 51 80 54 81 52 82 78 83
REMARK SMILES IDX 79 84 87 85 80 86 81 87 85 88 88 89 82 90 83 91 86 92 84 93
REMARK SMILES IDX 63 94 64 95 72 96 65 97 66 98 70 99 73 100 67 101 68 102
REMARK SMILES IDX 71 103 69 104
REMARK H PARENT 93 57 61 68
REMARK Flexibility Score: inf
ROOT
ATOM      1  C   UNL A   1      34.161  30.758  27.601  1.00  0.00     0.188 C 
ENDROOT
BRANCH   1   2
ATOM      2  O   UNL A   1      33.022  30.723  26.761  1.00  0.00    -0.376 OA
BRANCH   2   3
ATOM      3  C   UNL A   1      32.925  29.624  25.859  1.00  0.00     0.202 C 
BRANCH   3   4
ATOM      4  C   UNL A   1      31.509  29.284  25.371  1.00  0.00     0.261 C 
BRANCH   4   5
ATOM      5  O   UNL A   1      31.540  28.558  24.114  1.00  0.00    -0.460 OA
BRANCH   5   6
ATOM      6  C   UNL A   1      31.049  27.301  24.176  1.00  0.00     0.338 C 
ATOM      7  O   UNL A   1      29.863  27.031  24.317  1.00  0.00    -0.246 OA
BRANCH   6   8
ATOM      8  C   UNL A   1      32.084  26.266  23.902  1.00  0.00     0.087 C 
ATOM      9  C   UNL A   1      31.902  22.190  24.739  1.00  0.00     0.026 A 
ATOM     10  C   UNL A   1      30.924  22.067  25.752  1.00  0.00     0.033 A 
ATOM     11  C   UNL A   1      32.244  23.508  24.408  1.00  0.00     0.135 A 
ATOM     12  C   UNL A   1      30.467  23.152  26.503  1.00  0.00     0.042 A 
ATOM     13  C   UNL A   1      31.990  24.540  25.334  1.00  0.00     0.019 A 
ATOM     14  O   UNL A   1      32.671  23.928  23.150  1.00  0.00    -0.475 OA
ATOM     15  Cl  UNL A   1      29.224  22.945  27.667  1.00  0.00    -0.084 Cl
ATOM     16  C   UNL A   1      31.066  24.384  26.356  1.00  0.00     0.032 A 
ATOM     17  C   UNL A   1      32.605  25.856  25.070  1.00  0.00     0.027 C 
ATOM     18  C   UNL A   1      32.002  25.237  22.775  1.00  0.00     0.316 C 
BRANCH   9  19
ATOM     19  C   UNL A   1      32.636  20.924  24.416  1.00  0.00    -0.015 A 
ATOM     20  C   UNL A   1      33.390  18.161  24.270  1.00  0.00     0.067 A 
ATOM     21  C   UNL A   1      32.603  18.740  23.269  1.00  0.00     0.021 A 
ATOM     22  C   UNL A   1      33.828  18.952  25.331  1.00  0.00     0.021 A 
ATOM     23  C   UNL A   1      32.245  20.100  23.340  1.00  0.00     0.010 A 
ATOM     24  C   UNL A   1      33.459  20.319  25.392  1.00  0.00     0.010 A 
BRANCH  20  25
ATOM     25  S   UNL A   1      33.784  16.420  24.137  1.00  0.00     0.175 S 
ATOM     26  C   UNL A   1      35.239  16.070  25.088  1.00  0.00     0.163 C 
ATOM     27  O   UNL A   1      34.119  16.189  22.745  1.00  0.00    -0.224 OA
ATOM     28  O   UNL A   1      32.701  15.691  24.769  1.00  0.00    -0.224 OA
ENDBRANCH  20  25
ENDBRANCH   9  19
BRANCH  18  29
ATOM     29  C   UNL A   1      32.598  25.834  21.495  1.00  0.00     0.430 C 
ATOM     30  F   UNL A   1      33.278  24.918  20.772  1.00  0.00    -0.167 F 
ATOM     31  F   UNL A   1      31.641  26.366  20.700  1.00  0.00    -0.167 F 
ATOM     32  F   UNL A   1      33.463  26.839  21.787  1.00  0.00    -0.167 F 
ENDBRANCH  18  29
ENDBRANCH   6   8
ENDBRANCH   5   6
ENDBRANCH   4   5
ENDBRANCH   3   4
ENDBRANCH   2   3
ENDBRANCH   1   2
BRANCH   1  33
ATOM     33  C   UNL A   1      34.469  32.134  28.235  1.00  0.00     0.188 C 
BRANCH  33  34
ATOM     34  O   UNL A   1      33.581  33.227  28.059  1.00  0.00    -0.376 OA
BRANCH  34  35
ATOM     35  C   UNL A   1      34.038  34.557  28.265  1.00  0.00     0.202 C 
BRANCH  35  36
ATOM     36  C   UNL A   1      33.175  35.520  29.087  1.00  0.00     0.261 C 
BRANCH  36  37
ATOM     37  O   UNL A   1      32.561  34.940  30.251  1.00  0.00    -0.460 OA
BRANCH  37  38
ATOM     38  C   UNL A   1      32.743  35.634  31.401  1.00  0.00     0.338 C 
ATOM     39  O   UNL A   1      32.088  36.569  31.816  1.00  0.00    -0.246 OA
BRANCH  38  40
ATOM     40  C   UNL A   1      33.805  35.005  32.210  1.00  0.00     0.060 A 
ATOM     41  C   UNL A   1      35.051  35.640  32.268  1.00  0.00     0.016 A 
ATOM     42  C   UNL A   1      33.617  33.755  32.804  1.00  0.00     0.016 A 
ATOM     43  C   UNL A   1      36.126  35.007  32.892  1.00  0.00     0.010 A 
ATOM     44  C   UNL A   1      34.702  33.114  33.414  1.00  0.00     0.010 A 
ATOM     45  C   UNL A   1      35.967  33.724  33.436  1.00  0.00    -0.014 A 
BRANCH  45  46
ATOM     46  C   UNL A   1      37.165  32.984  33.901  1.00  0.00     0.031 A 
ATOM     47  C   UNL A   1      37.907  32.118  32.934  1.00  0.00     0.074 A 
ATOM     48  C   UNL A   1      37.572  33.051  35.178  1.00  0.00     0.049 A 
ATOM     49  N   UNL A   1      39.078  31.551  33.056  1.00  0.00    -0.248 NA
ATOM     50  C   UNL A   1      37.206  31.812  31.681  1.00  0.00     0.031 C 
ATOM     51  C   UNL A   1      36.849  33.745  36.231  1.00  0.00     0.029 A 
ATOM     52  N   UNL A   1      38.695  32.567  35.802  1.00  0.00    -0.354 N 
ATOM     53  C   UNL A   1      39.225  30.758  31.926  1.00  0.00     0.074 A 
ATOM     54  C   UNL A   1      38.039  30.950  31.119  1.00  0.00     0.031 C 
ATOM     55  C   UNL A   1      37.593  33.743  37.348  1.00  0.00     0.029 A 
ATOM     56  C   UNL A   1      38.838  33.027  37.090  1.00  0.00     0.049 A 
ATOM     57  H   UNL A   1      39.332  31.953  35.372  1.00  0.00     0.167 HD
ATOM     58  C   UNL A   1      40.237  29.910  31.625  1.00  0.00     0.037 A 
ATOM     59  C   UNL A   1      39.886  32.940  37.934  1.00  0.00     0.037 A 
ATOM     60  C   UNL A   1      41.405  29.727  32.447  1.00  0.00     0.049 A 
ATOM     61  C   UNL A   1      41.120  32.196  37.476  1.00  0.00     0.074 A 
ATOM     62  C   UNL A   1      42.514  28.935  32.210  1.00  0.00     0.029 A 
ATOM     63  N   UNL A   1      41.605  30.335  33.680  1.00  0.00    -0.354 N 
ATOM     64  N   UNL A   1      41.333  31.557  36.349  1.00  0.00    -0.248 NA
ATOM     65  C   UNL A   1      42.259  32.167  38.405  1.00  0.00     0.031 C 
ATOM     66  C   UNL A   1      43.349  29.007  33.331  1.00  0.00     0.029 A 
ATOM     67  C   UNL A   1      42.798  29.900  34.237  1.00  0.00     0.049 A 
ATOM     68  H   UNL A   1      40.990  30.980  34.098  1.00  0.00     0.167 HD
ATOM     69  C   UNL A   1      42.643  31.091  36.410  1.00  0.00     0.074 A 
ATOM     70  C   UNL A   1      43.175  31.530  37.686  1.00  0.00     0.031 C 
ATOM     71  C   UNL A   1      43.333  30.354  35.500  1.00  0.00     0.037 A 
BRANCH  58  72
ATOM     72  C   UNL A   1      40.058  29.041  30.413  1.00  0.00     0.064 A 
ATOM     73  C   UNL A   1      39.452  27.778  30.471  1.00  0.00     0.173 A 
ATOM     74  C   UNL A   1      40.549  29.475  29.171  1.00  0.00     0.173 A 
ATOM     75  F   UNL A   1      38.985  27.305  31.636  1.00  0.00    -0.203 F 
ATOM     76  C   UNL A   1      39.391  26.961  29.344  1.00  0.00     0.198 A 
ATOM     77  C   UNL A   1      40.454  28.670  28.039  1.00  0.00     0.198 A 
ATOM     78  F   UNL A   1      41.139  30.675  29.056  1.00  0.00    -0.203 F 
ATOM     79  F   UNL A   1      38.880  25.726  29.440  1.00  0.00    -0.200 F 
ATOM     80  C   UNL A   1      39.890  27.408  28.129  1.00  0.00     0.200 A 
ATOM     81  F   UNL A   1      40.931  29.109  26.866  1.00  0.00    -0.200 F 
ATOM     82  F   UNL A   1      39.844  26.615  27.049  1.00  0.00    -0.200 F 
ENDBRANCH  58  72
BRANCH  59  83
ATOM     83  C   UNL A   1      39.885  33.776  39.170  1.00  0.00     0.064 A 
ATOM     84  C   UNL A   1      39.360  33.229  40.347  1.00  0.00     0.173 A 
ATOM     85  C   UNL A   1      40.477  35.039  39.270  1.00  0.00     0.173 A 
ATOM     86  F   UNL A   1      38.812  32.014  40.309  1.00  0.00    -0.203 F 
ATOM     87  C   UNL A   1      39.399  33.901  41.565  1.00  0.00     0.198 A 
ATOM     88  C   UNL A   1      40.553  35.705  40.498  1.00  0.00     0.198 A 
ATOM     89  F   UNL A   1      41.036  35.606  38.191  1.00  0.00    -0.203 F 
ATOM     90  F   UNL A   1      38.861  33.336  42.655  1.00  0.00    -0.200 F 
ATOM     91  C   UNL A   1      40.008  35.140  41.642  1.00  0.00     0.200 A 
ATOM     92  F   UNL A   1      41.179  36.888  40.580  1.00  0.00    -0.200 F 
ATOM     93  F   UNL A   1      40.082  35.777  42.819  1.00  0.00    -0.200 F 
ENDBRANCH  59  83
BRANCH  71  94
ATOM     94  C   UNL A   1      44.750  29.955  35.831  1.00  0.00     0.064 A 
ATOM     95  C   UNL A   1      45.847  30.753  35.466  1.00  0.00     0.173 A 
ATOM     96  C   UNL A   1      45.011  28.810  36.601  1.00  0.00     0.173 A 
ATOM     97  F   UNL A   1      45.663  31.868  34.742  1.00  0.00    -0.203 F 
ATOM     98  C   UNL A   1      47.147  30.398  35.822  1.00  0.00     0.198 A 
ATOM     99  C   UNL A   1      46.308  28.480  36.988  1.00  0.00     0.198 A 
ATOM    100  F   UNL A   1      44.004  28.021  37.007  1.00  0.00    -0.203 F 
ATOM    101  F   UNL A   1      48.179  31.151  35.415  1.00  0.00    -0.200 F 
ATOM    102  C   UNL A   1      47.376  29.269  36.590  1.00  0.00     0.200 A 
ATOM    103  F   UNL A   1      46.525  27.404  37.758  1.00  0.00    -0.200 F 
ATOM    104  F   UNL A   1      48.626  28.940  36.946  1.00  0.00    -0.200 F 
ENDBRANCH  71  94
ENDBRANCH  45  46
ENDBRANCH  38  40
ENDBRANCH  37  38
ENDBRANCH  36  37
ENDBRANCH  35  36
ENDBRANCH  34  35
ENDBRANCH  33  34
ENDBRANCH   1  33
TORSDOF 20
ENDMDL
MODEL 2
REMARK VINA RESULT:     -12.2      1.091      6.998
REMARK SMILES CS(=O)(=O)c1ccc(-c2cc(Cl)cc3c2O[C@H](C(F)(F)F)C(C(=O)OCCOCCOCCOC(=O)c2ccc(-c4c5nc(c(-c6c(F)c(F)c(F)c(F)c6F)c6ccc([nH]6)c(-c6c(F)c(F)c(F)c(F)c6F)c6nc(c(-c7c(F)c(F)c(F)c(F)c7F)c7ccc4[nH]7)C=C6)C=C5)cc2)=C3)cc1
REMARK SMILES IDX 29 1 28 2 27 3 26 4 25 5 23 6 24 7 22 8 9 9 10 10 15 11
REMARK SMILES IDX 11 12 14 13 16 14 12 15 13 16 100 17 17 18 8 19 5 20 6 21
REMARK SMILES IDX 102 22 7 23 101 24 2 25 1 26 3 27 4 28 18 29 19 30 20 31
REMARK SMILES IDX 21 32 30 33 31 34 32 35 33 36 34 37 35 38 36 39 37 40 38 41
REMARK SMILES IDX 99 42 39 43 98 44 40 45 41 46 42 47 92 48 43 49 97 50 91 51
REMARK SMILES IDX 93 52 44 53 96 54 90 55 89 56 45 58 77 59 57 60 76 61 58 62
REMARK SMILES IDX 61 63 75 64 94 65 59 66 60 67 74 69 95 70 62 71 46 72 47 73
REMARK SMILES IDX 55 74 48 75 49 76 53 77 56 78 50 79 51 80 54 81 52 82 78 83
REMARK SMILES IDX 79 84 87 85 80 86 81 87 85 88 88 89 82 90 83 91 86 92 84 93
REMARK SMILES IDX 63 94 64 95 72 96 65 97 66 98 70 99 73 100 67 101 68 102
REMARK SMILES IDX 71 103 69 104
REMARK H PARENT 93 57 61 68
REMARK Flexibility Score: inf
ROOT
ATOM      1  C   UNL A   1      34.909  31.084  27.631  1.00  0.00     0.188 C 
ENDROOT
BRANCH   1   2
ATOM      2  O   UNL A   1      33.587  30.655  27.366  1.00  0.00    -0.376 OA
BRANCH   2   3
ATOM      3  C   UNL A   1      33.434  29.594  26.427  1.00  0.00     0.202 C 
BRANCH   3   4
ATOM      4  C   UNL A   1      31.987  29.229  26.061  1.00  0.00     0.261 C 
BRANCH   4   5
ATOM      5  O   UNL A   1      31.899  28.683  24.719  1.00  0.00    -0.460 OA
BRANCH   5   6
ATOM      6  C   UNL A   1      31.376  27.439  24.649  1.00  0.00     0.338 C 
ATOM      7  O   UNL A   1      30.178  27.191  24.713  1.00  0.00    -0.246 OA
BRANCH   6   8
ATOM      8  C   UNL A   1      32.397  26.404  24.331  1.00  0.00     0.087 C 
ATOM      9  C   UNL A   1      32.052  22.271  24.727  1.00  0.00     0.026 A 
ATOM     10  C   UNL A   1      31.009  22.079  25.661  1.00  0.00     0.033 A 
ATOM     11  C   UNL A   1      32.450  23.604  24.557  1.00  0.00     0.135 A 
ATOM     12  C   UNL A   1      30.535  23.096  26.492  1.00  0.00     0.042 A 
ATOM     13  C   UNL A   1      32.166  24.544  25.568  1.00  0.00     0.019 A 
ATOM     14  O   UNL A   1      32.967  24.136  23.377  1.00  0.00    -0.475 OA
ATOM     15  Cl  UNL A   1      29.215  22.813  27.552  1.00  0.00    -0.084 Cl
ATOM     16  C   UNL A   1      31.175  24.315  26.511  1.00  0.00     0.032 A 
ATOM     17  C   UNL A   1      32.832  25.858  25.479  1.00  0.00     0.027 C 
ATOM     18  C   UNL A   1      32.359  25.498  23.101  1.00  0.00     0.316 C 
BRANCH   9  19
ATOM     19  C   UNL A   1      32.770  21.021  24.319  1.00  0.00    -0.015 A 
ATOM     20  C   UNL A   1      33.714  18.315  24.230  1.00  0.00     0.067 A 
ATOM     21  C   UNL A   1      32.597  18.706  23.484  1.00  0.00     0.021 A 
ATOM     22  C   UNL A   1      34.382  19.265  25.000  1.00  0.00     0.021 A 
ATOM     23  C   UNL A   1      32.144  20.039  23.523  1.00  0.00     0.010 A 
ATOM     24  C   UNL A   1      33.915  20.602  25.033  1.00  0.00     0.010 A 
BRANCH  20  25
ATOM     25  S   UNL A   1      34.219  16.599  24.161  1.00  0.00     0.175 S 
ATOM     26  C   UNL A   1      33.004  15.593  24.972  1.00  0.00     0.163 C 
ATOM     27  O   UNL A   1      35.439  16.507  24.939  1.00  0.00    -0.224 OA
ATOM     28  O   UNL A   1      34.202  16.208  22.763  1.00  0.00    -0.224 OA
ENDBRANCH  20  25
ENDBRANCH   9  19
BRANCH  18  29
ATOM     29  C   UNL A   1      33.051  26.203  21.928  1.00  0.00     0.430 C 
ATOM     30  F   UNL A   1      34.397  26.125  22.008  1.00  0.00    -0.167 F 
ATOM     31  F   UNL A   1      32.672  25.680  20.739  1.00  0.00    -0.167 F 
ATOM     32  F   UNL A   1      32.726  27.520  21.895  1.00  0.00    -0.167 F 
ENDBRANCH  18  29
ENDBRANCH   6   8
ENDBRANCH   5   6
ENDBRANCH   4   5
ENDBRANCH   3   4
ENDBRANCH   2   3
ENDBRANCH   1   2
BRANCH   1  33
ATOM     33  C   UNL A   1      35.026  32.454  28.337  1.00  0.00     0.188 C 
BRANCH  33  34
ATOM     34  O   UNL A   1      33.970  33.400  28.263  1.00  0.00    -0.376 OA
BRANCH  34  35
ATOM     35  C   UNL A   1      34.242  34.785  28.427  1.00  0.00     0.202 C 
BRANCH  35  36
ATOM     36  C   UNL A   1      33.273  35.639  29.251  1.00  0.00     0.261 C 
BRANCH  36  37
ATOM     37  O   UNL A   1      32.630  34.949  30.337  1.00  0.00    -0.460 OA
BRANCH  37  38
ATOM     38  C   UNL A   1      32.865  35.471  31.566  1.00  0.00     0.338 C 
ATOM     39  O   UNL A   1      32.191  36.283  32.169  1.00  0.00    -0.246 OA
BRANCH  38  40
ATOM     40  C   UNL A   1      34.025  34.803  32.188  1.00  0.00     0.060 A 
ATOM     41  C   UNL A   1      35.158  35.577  32.464  1.00  0.00     0.016 A 
ATOM     42  C   UNL A   1      34.044  33.421  32.386  1.00  0.00     0.016 A 
ATOM     43  C   UNL A   1      36.329  34.962  32.907  1.00  0.00     0.010 A 
ATOM     44  C   UNL A   1      35.224  32.804  32.815  1.00  0.00     0.010 A 
ATOM     45  C   UNL A   1      36.380  33.568  33.050  1.00  0.00    -0.014 A 
BRANCH  45  46
ATOM     46  C   UNL A   1      37.686  32.916  33.314  1.00  0.00     0.031 A 
ATOM     47  C   UNL A   1      38.354  33.132  34.634  1.00  0.00     0.074 A 
ATOM     48  C   UNL A   1      38.292  32.168  32.379  1.00  0.00     0.049 A 
ATOM     49  N   UNL A   1      39.377  32.512  35.158  1.00  0.00    -0.248 NA
ATOM     50  C   UNL A   1      37.822  34.232  35.448  1.00  0.00     0.031 C 
ATOM     51  C   UNL A   1      37.804  32.006  31.019  1.00  0.00     0.029 A 
ATOM     52  N   UNL A   1      39.416  31.382  32.431  1.00  0.00    -0.354 N 
ATOM     53  C   UNL A   1      39.663  33.195  36.332  1.00  0.00     0.074 A 
ATOM     54  C   UNL A   1      38.679  34.250  36.457  1.00  0.00     0.031 C 
ATOM     55  C   UNL A   1      38.555  31.088  30.391  1.00  0.00     0.029 A 
ATOM     56  C   UNL A   1      39.589  30.612  31.304  1.00  0.00     0.049 A 
ATOM     57  H   UNL A   1      40.035  31.370  33.196  1.00  0.00     0.167 HD
ATOM     58  C   UNL A   1      40.686  32.985  37.195  1.00  0.00     0.037 A 
ATOM     59  C   UNL A   1      40.440  29.594  31.068  1.00  0.00     0.037 A 
ATOM     60  C   UNL A   1      41.659  31.934  37.049  1.00  0.00     0.049 A 
ATOM     61  C   UNL A   1      41.416  29.204  32.154  1.00  0.00     0.074 A 
ATOM     62  C   UNL A   1      42.703  31.599  37.891  1.00  0.00     0.029 A 
ATOM     63  N   UNL A   1      41.717  31.056  35.974  1.00  0.00    -0.354 N 
ATOM     64  N   UNL A   1      41.607  29.749  33.334  1.00  0.00    -0.248 NA
ATOM     65  C   UNL A   1      42.292  28.056  31.878  1.00  0.00     0.031 C 
ATOM     66  C   UNL A   1      43.435  30.568  37.291  1.00  0.00     0.029 A 
ATOM     67  C   UNL A   1      42.806  30.210  36.109  1.00  0.00     0.049 A 
ATOM     68  H   UNL A   1      41.077  31.038  35.225  1.00  0.00     0.167 HD
ATOM     69  C   UNL A   1      42.586  28.985  33.960  1.00  0.00     0.074 A 
ATOM     70  C   UNL A   1      42.944  27.933  33.028  1.00  0.00     0.031 C 
ATOM     71  C   UNL A   1      43.148  29.151  35.186  1.00  0.00     0.037 A 
BRANCH  58  72
ATOM     72  C   UNL A   1      40.858  33.987  38.301  1.00  0.00     0.064 A 
ATOM     73  C   UNL A   1      41.670  35.124  38.173  1.00  0.00     0.173 A 
ATOM     74  C   UNL A   1      40.224  33.772  39.536  1.00  0.00     0.173 A 
ATOM     75  F   UNL A   1      42.316  35.365  37.023  1.00  0.00    -0.203 F 
ATOM     76  C   UNL A   1      41.881  35.978  39.253  1.00  0.00     0.198 A 
ATOM     77  C   UNL A   1      40.410  34.647  40.602  1.00  0.00     0.198 A 
ATOM     78  F   UNL A   1      39.437  32.701  39.716  1.00  0.00    -0.203 F 
ATOM     79  F   UNL A   1      42.724  37.013  39.132  1.00  0.00    -0.200 F 
ATOM     80  C   UNL A   1      41.250  35.740  40.465  1.00  0.00     0.200 A 
ATOM     81  F   UNL A   1      39.792  34.418  41.769  1.00  0.00    -0.200 F 
ATOM     82  F   UNL A   1      41.466  36.555  41.508  1.00  0.00    -0.200 F 
ENDBRANCH  58  72
BRANCH  59  83
ATOM     83  C   UNL A   1      40.223  28.741  29.862  1.00  0.00     0.064 A 
ATOM     84  C   UNL A   1      40.848  29.107  28.664  1.00  0.00     0.173 A 
ATOM     85  C   UNL A   1      39.527  27.528  29.866  1.00  0.00     0.173 A 
ATOM     86  F   UNL A   1      41.550  30.240  28.619  1.00  0.00    -0.203 F 
ATOM     87  C   UNL A   1      40.776  28.325  27.515  1.00  0.00     0.198 A 
ATOM     88  C   UNL A   1      39.480  26.719  28.726  1.00  0.00     0.198 A 
ATOM     89  F   UNL A   1      38.939  27.096  30.991  1.00  0.00    -0.203 F 
ATOM     90  F   UNL A   1      41.376  28.738  26.389  1.00  0.00    -0.200 F 
ATOM     91  C   UNL A   1      40.099  27.121  27.550  1.00  0.00     0.200 A 
ATOM     92  F   UNL A   1      38.858  25.533  28.773  1.00  0.00    -0.200 F 
ATOM     93  F   UNL A   1      40.056  26.345  26.458  1.00  0.00    -0.200 F 
ENDBRANCH  59  83
BRANCH  71  94
ATOM     94  C   UNL A   1      44.221  28.183  35.618  1.00  0.00     0.064 A 
ATOM     95  C   UNL A   1      45.575  28.393  35.309  1.00  0.00     0.173 A 
ATOM     96  C   UNL A   1      43.907  27.079  36.428  1.00  0.00     0.173 A 
ATOM     97  F   UNL A   1      45.943  29.437  34.551  1.00  0.00    -0.203 F 
ATOM     98  C   UNL A   1      46.562  27.516  35.757  1.00  0.00     0.198 A 
ATOM     99  C   UNL A   1      44.901  26.227  36.907  1.00  0.00     0.198 A 
ATOM    100  F   UNL A   1      42.636  26.839  36.784  1.00  0.00    -0.203 F 
ATOM    101  F   UNL A   1      47.840  27.713  35.403  1.00  0.00    -0.200 F 
ATOM    102  C   UNL A   1      46.226  26.441  36.562  1.00  0.00     0.200 A 
ATOM    103  F   UNL A   1      44.577  25.205  37.713  1.00  0.00    -0.200 F 
ATOM    104  F   UNL A   1      47.179  25.610  37.007  1.00  0.00    -0.200 F 
ENDBRANCH  71  94
ENDBRANCH  45  46
ENDBRANCH  38  40
ENDBRANCH  37  38
ENDBRANCH  36  37
ENDBRANCH  35  36
ENDBRANCH  34  35
ENDBRANCH  33  34
ENDBRANCH   1  33
TORSDOF 20
ENDMDL
MODEL 3
REMARK VINA RESULT:     -11.3      7.187     12.468
REMARK SMILES CS(=O)(=O)c1ccc(-c2cc(Cl)cc3c2O[C@H](C(F)(F)F)C(C(=O)OCCOCCOCCOC(=O)c2ccc(-c4c5nc(c(-c6c(F)c(F)c(F)c(F)c6F)c6ccc([nH]6)c(-c6c(F)c(F)c(F)c(F)c6F)c6nc(c(-c7c(F)c(F)c(F)c(F)c7F)c7ccc4[nH]7)C=C6)C=C5)cc2)=C3)cc1
REMARK SMILES IDX 29 1 28 2 27 3 26 4 25 5 23 6 24 7 22 8 9 9 10 10 15 11
REMARK SMILES IDX 11 12 14 13 16 14 12 15 13 16 100 17 17 18 8 19 5 20 6 21
REMARK SMILES IDX 102 22 7 23 101 24 2 25 1 26 3 27 4 28 18 29 19 30 20 31
REMARK SMILES IDX 21 32 30 33 31 34 32 35 33 36 34 37 35 38 36 39 37 40 38 41
REMARK SMILES IDX 99 42 39 43 98 44 40 45 41 46 42 47 92 48 43 49 97 50 91 51
REMARK SMILES IDX 93 52 44 53 96 54 90 55 89 56 45 58 77 59 57 60 76 61 58 62
REMARK SMILES IDX 61 63 75 64 94 65 59 66 60 67 74 69 95 70 62 71 46 72 47 73
REMARK SMILES IDX 55 74 48 75 49 76 53 77 56 78 50 79 51 80 54 81 52 82 78 83
REMARK SMILES IDX 79 84 87 85 80 86 81 87 85 88 88 89 82 90 83 91 86 92 84 93
REMARK SMILES IDX 63 94 64 95 72 96 65 97 66 98 70 99 73 100 67 101 68 102
REMARK SMILES IDX 71 103 69 104
REMARK H PARENT 93 57 61 68
REMARK Flexibility Score: inf
ROOT
ATOM      1  C   UNL A   1      38.425  19.106  25.207  1.00  0.00     0.188 C 
ENDROOT
BRANCH   1   2
ATOM      2  O   UNL A   1      39.701  19.702  25.348  1.00  0.00    -0.376 OA
BRANCH   2   3
ATOM      3  C   UNL A   1      40.702  18.925  26.000  1.00  0.00     0.202 C 
BRANCH   3   4
ATOM      4  C   UNL A   1      42.128  19.492  25.947  1.00  0.00     0.261 C 
BRANCH   4   5
ATOM      5  O   UNL A   1      42.127  20.907  25.618  1.00  0.00    -0.460 OA
BRANCH   5   6
ATOM      6  C   UNL A   1      42.779  21.692  26.502  1.00  0.00     0.338 C 
ATOM      7  O   UNL A   1      42.554  21.709  27.705  1.00  0.00    -0.246 OA
BRANCH   6   8
ATOM      8  C   UNL A   1      43.915  22.432  25.885  1.00  0.00     0.087 C 
ATOM      9  C   UNL A   1      46.794  24.752  27.803  1.00  0.00     0.026 A 
ATOM     10  C   UNL A   1      46.214  25.104  29.043  1.00  0.00     0.033 A 
ATOM     11  C   UNL A   1      45.932  24.092  26.916  1.00  0.00     0.135 A 
ATOM     12  C   UNL A   1      44.848  24.984  29.304  1.00  0.00     0.042 A 
ATOM     13  C   UNL A   1      44.538  24.226  27.081  1.00  0.00     0.019 A 
ATOM     14  O   UNL A   1      46.332  23.159  25.962  1.00  0.00    -0.475 OA
ATOM     15  Cl  UNL A   1      44.221  25.360  30.857  1.00  0.00    -0.084 Cl
ATOM     16  C   UNL A   1      43.988  24.626  28.290  1.00  0.00     0.032 A 
ATOM     17  C   UNL A   1      43.676  23.750  25.982  1.00  0.00     0.027 C 
ATOM     18  C   UNL A   1      45.374  21.982  25.941  1.00  0.00     0.316 C 
BRANCH   9  19
ATOM     19  C   UNL A   1      48.109  25.410  27.513  1.00  0.00    -0.015 A 
ATOM     20  C   UNL A   1      50.717  25.964  26.458  1.00  0.00     0.067 A 
ATOM     21  C   UNL A   1      49.573  26.476  25.838  1.00  0.00     0.021 A 
ATOM     22  C   UNL A   1      50.576  25.200  27.616  1.00  0.00     0.021 A 
ATOM     23  C   UNL A   1      48.294  26.210  26.366  1.00  0.00     0.010 A 
ATOM     24  C   UNL A   1      49.285  24.938  28.136  1.00  0.00     0.010 A 
BRANCH  20  25
ATOM     25  S   UNL A   1      52.309  26.312  25.718  1.00  0.00     0.175 S 
ATOM     26  C   UNL A   1      53.552  26.347  26.982  1.00  0.00     0.163 C 
ATOM     27  O   UNL A   1      52.215  27.653  25.174  1.00  0.00    -0.224 OA
ATOM     28  O   UNL A   1      52.633  25.187  24.862  1.00  0.00    -0.224 OA
ENDBRANCH  20  25
ENDBRANCH   9  19
BRANCH  18  29
ATOM     29  C   UNL A   1      45.662  21.037  24.769  1.00  0.00     0.430 C 
ATOM     30  F   UNL A   1      45.526  19.738  25.115  1.00  0.00    -0.167 F 
ATOM     31  F   UNL A   1      44.841  21.277  23.721  1.00  0.00    -0.167 F 
ATOM     32  F   UNL A   1      46.930  21.201  24.315  1.00  0.00    -0.167 F 
ENDBRANCH  18  29
ENDBRANCH   6   8
ENDBRANCH   5   6
ENDBRANCH   4   5
ENDBRANCH   3   4
ENDBRANCH   2   3
ENDBRANCH   1   2
BRANCH   1  33
ATOM     33  C   UNL A   1      37.247  20.098  25.077  1.00  0.00     0.188 C 
BRANCH  33  34
ATOM     34  O   UNL A   1      37.386  21.294  24.325  1.00  0.00    -0.376 OA
BRANCH  34  35
ATOM     35  C   UNL A   1      36.648  22.453  24.686  1.00  0.00     0.202 C 
BRANCH  35  36
ATOM     36  C   UNL A   1      37.401  23.762  24.946  1.00  0.00     0.261 C 
BRANCH  36  37
ATOM     37  O   UNL A   1      37.782  23.980  26.315  1.00  0.00    -0.460 OA
BRANCH  37  38
ATOM     38  C   UNL A   1      39.024  23.545  26.640  1.00  0.00     0.338 C 
ATOM     39  O   UNL A   1      39.464  22.417  26.547  1.00  0.00    -0.246 OA
BRANCH  38  40
ATOM     40  C   UNL A   1      39.880  24.688  27.013  1.00  0.00     0.060 A 
ATOM     41  C   UNL A   1      40.114  24.918  28.374  1.00  0.00     0.016 A 
ATOM     42  C   UNL A   1      40.346  25.588  26.052  1.00  0.00     0.016 A 
ATOM     43  C   UNL A   1      40.787  26.070  28.780  1.00  0.00     0.010 A 
ATOM     44  C   UNL A   1      41.006  26.752  26.462  1.00  0.00     0.010 A 
ATOM     45  C   UNL A   1      41.204  27.012  27.828  1.00  0.00    -0.014 A 
BRANCH  45  46
ATOM     46  C   UNL A   1      41.723  28.323  28.290  1.00  0.00     0.031 A 
ATOM     47  C   UNL A   1      40.791  29.280  28.960  1.00  0.00     0.074 A 
ATOM     48  C   UNL A   1      43.001  28.676  28.084  1.00  0.00     0.049 A 
ATOM     49  N   UNL A   1      41.058  30.375  29.620  1.00  0.00    -0.248 NA
ATOM     50  C   UNL A   1      39.360  28.982  28.822  1.00  0.00     0.031 C 
ATOM     51  C   UNL A   1      43.955  27.887  27.322  1.00  0.00     0.029 A 
ATOM     52  N   UNL A   1      43.727  29.757  28.519  1.00  0.00    -0.354 N 
ATOM     53  C   UNL A   1      39.825  30.942  29.913  1.00  0.00     0.074 A 
ATOM     54  C   UNL A   1      38.815  30.046  29.391  1.00  0.00     0.031 C 
ATOM     55  C   UNL A   1      45.171  28.446  27.430  1.00  0.00     0.029 A 
ATOM     56  C   UNL A   1      45.073  29.645  28.256  1.00  0.00     0.049 A 
ATOM     57  H   UNL A   1      43.327  30.533  28.973  1.00  0.00     0.167 HD
ATOM     58  C   UNL A   1      39.572  32.127  30.518  1.00  0.00     0.037 A 
ATOM     59  C   UNL A   1      46.110  30.387  28.693  1.00  0.00     0.037 A 
ATOM     60  C   UNL A   1      40.592  33.008  31.023  1.00  0.00     0.049 A 
ATOM     61  C   UNL A   1      45.822  31.572  29.586  1.00  0.00     0.074 A 
ATOM     62  C   UNL A   1      40.445  34.205  31.699  1.00  0.00     0.029 A 
ATOM     63  N   UNL A   1      41.958  32.792  30.889  1.00  0.00    -0.354 N 
ATOM     64  N   UNL A   1      44.666  32.043  29.994  1.00  0.00    -0.248 NA
ATOM     65  C   UNL A   1      46.982  32.326  30.084  1.00  0.00     0.031 C 
ATOM     66  C   UNL A   1      41.718  34.748  31.909  1.00  0.00     0.029 A 
ATOM     67  C   UNL A   1      42.663  33.856  31.428  1.00  0.00     0.049 A 
ATOM     68  H   UNL A   1      42.366  31.999  30.471  1.00  0.00     0.167 HD
ATOM     69  C   UNL A   1      44.957  33.115  30.832  1.00  0.00     0.074 A 
ATOM     70  C   UNL A   1      46.403  33.217  30.878  1.00  0.00     0.031 C 
ATOM     71  C   UNL A   1      44.105  33.945  31.488  1.00  0.00     0.037 A 
BRANCH  58  72
ATOM     72  C   UNL A   1      38.139  32.578  30.554  1.00  0.00     0.064 A 
ATOM     73  C   UNL A   1      37.573  33.380  29.552  1.00  0.00     0.173 A 
ATOM     74  C   UNL A   1      37.331  32.229  31.648  1.00  0.00     0.173 A 
ATOM     75  F   UNL A   1      38.306  33.760  28.496  1.00  0.00    -0.203 F 
ATOM     76  C   UNL A   1      36.269  33.857  29.670  1.00  0.00     0.198 A 
ATOM     77  C   UNL A   1      36.017  32.680  31.745  1.00  0.00     0.198 A 
ATOM     78  F   UNL A   1      37.820  31.465  32.636  1.00  0.00    -0.203 F 
ATOM     79  F   UNL A   1      35.775  34.688  28.741  1.00  0.00    -0.200 F 
ATOM     80  C   UNL A   1      35.493  33.506  30.764  1.00  0.00     0.200 A 
ATOM     81  F   UNL A   1      35.268  32.332  32.800  1.00  0.00    -0.200 F 
ATOM     82  F   UNL A   1      34.244  33.979  30.883  1.00  0.00    -0.200 F 
ENDBRANCH  58  72
BRANCH  59  83
ATOM     83  C   UNL A   1      47.497  29.875  28.488  1.00  0.00     0.064 A 
ATOM     84  C   UNL A   1      48.301  30.493  27.523  1.00  0.00     0.173 A 
ATOM     85  C   UNL A   1      48.099  28.888  29.274  1.00  0.00     0.173 A 
ATOM     86  F   UNL A   1      47.780  31.462  26.768  1.00  0.00    -0.203 F 
ATOM     87  C   UNL A   1      49.633  30.142  27.326  1.00  0.00     0.198 A 
ATOM     88  C   UNL A   1      49.448  28.556  29.107  1.00  0.00     0.198 A 
ATOM     89  F   UNL A   1      47.400  28.284  30.246  1.00  0.00    -0.203 F 
ATOM     90  F   UNL A   1      50.348  30.752  26.370  1.00  0.00    -0.200 F 
ATOM     91  C   UNL A   1      50.212  29.177  28.129  1.00  0.00     0.200 A 
ATOM     92  F   UNL A   1      50.018  27.650  29.913  1.00  0.00    -0.200 F 
ATOM     93  F   UNL A   1      51.504  28.861  27.970  1.00  0.00    -0.200 F 
ENDBRANCH  59  83
BRANCH  71  94
ATOM     94  C   UNL A   1      44.691  35.057  32.322  1.00  0.00     0.064 A 
ATOM     95  C   UNL A   1      44.851  36.357  31.814  1.00  0.00     0.173 A 
ATOM     96  C   UNL A   1      45.012  34.846  33.674  1.00  0.00     0.173 A 
ATOM     97  F   UNL A   1      44.549  36.628  30.536  1.00  0.00    -0.203 F 
ATOM     98  C   UNL A   1      45.347  37.387  32.612  1.00  0.00     0.198 A 
ATOM     99  C   UNL A   1      45.471  35.888  34.478  1.00  0.00     0.198 A 
ATOM    100  F   UNL A   1      44.854  33.635  34.227  1.00  0.00    -0.203 F 
ATOM    101  F   UNL A   1      45.538  38.605  32.086  1.00  0.00    -0.200 F 
ATOM    102  C   UNL A   1      45.647  37.154  33.944  1.00  0.00     0.200 A 
ATOM    103  F   UNL A   1      45.731  35.668  35.775  1.00  0.00    -0.200 F 
ATOM    104  F   UNL A   1      46.107  38.151  34.714  1.00  0.00    -0.200 F 
ENDBRANCH  71  94
ENDBRANCH  45  46
ENDBRANCH  38  40
ENDBRANCH  37  38
ENDBRANCH  36  37
ENDBRANCH  35  36
ENDBRANCH  34  35
ENDBRANCH  33  34
ENDBRANCH   1  33
TORSDOF 20
ENDMDL
