MODEL 1
REMARK VINA RESULT:     -10.1      0.000      0.000
REMARK SMILES C[C@H]([NH3+])C(=O)N1CCC[C@H]1C(=O)OCCOCCOCCOC(=O)c1ccc(-c2c3nc(c(-c4c(F)c(F)c(F)c(F)c4F)c4ccc([nH]4)c(-c4c(F)c(F)c(F)c(F)c4F)c4nc(c(-c5c(F)c(F)c(F)c(F)c5F)c5ccc2[nH]5)C=C4)C=C3)cc1
REMARK SMILES IDX 17 1 16 2 15 3 14 4 13 5 11 6 12 7 10 8 6 9 7 10 8 11 9 12
REMARK SMILES IDX 4 13 5 14 2 15 1 16 3 17 18 21 19 22 20 23 21 24 22 25 23 26
REMARK SMILES IDX 24 27 25 28 26 29 87 30 27 31 86 32 28 33 29 34 30 35 80 36
REMARK SMILES IDX 31 37 85 38 79 39 81 40 32 41 84 42 78 43 77 44 33 46 65 47
REMARK SMILES IDX 45 48 64 49 46 50 49 51 63 52 82 53 47 54 48 55 62 57 83 58
REMARK SMILES IDX 50 59 34 60 35 61 43 62 36 63 37 64 41 65 44 66 38 67 39 68
REMARK SMILES IDX 42 69 40 70 66 71 67 72 75 73 68 74 69 75 73 76 76 77 70 78
REMARK SMILES IDX 71 79 74 80 72 81 51 82 52 83 60 84 53 85 54 86 58 87 61 88
REMARK SMILES IDX 55 89 56 90 59 91 57 92
REMARK H PARENT 3 18 3 19 3 20 81 45 49 56
REMARK Flexibility Score: inf
ROOT
ATOM      1  C   UNL A   1      31.092  27.924  23.366  1.00  0.00     0.188 C 
ENDROOT
BRANCH   1   2
ATOM      2  O   UNL A   1      29.984  27.184  23.864  1.00  0.00    -0.376 OA
BRANCH   2   3
ATOM      3  C   UNL A   1      30.171  25.854  24.310  1.00  0.00     0.202 C 
BRANCH   3   4
ATOM      4  C   UNL A   1      30.010  25.553  25.805  1.00  0.00     0.261 C 
BRANCH   4   5
ATOM      5  O   UNL A   1      31.222  25.394  26.562  1.00  0.00    -0.462 OA
BRANCH   5   6
ATOM      6  C   UNL A   1      31.557  24.105  26.880  1.00  0.00     0.328 C 
ATOM      7  O   UNL A   1      30.822  23.325  27.471  1.00  0.00    -0.250 OA
BRANCH   6   8
ATOM      8  C   UNL A   1      32.950  23.759  26.316  1.00  0.00     0.195 C 
ATOM      9  N   UNL A   1      32.853  22.912  25.127  1.00  0.00    -0.324 N 
ATOM     10  C   UNL A   1      33.184  23.671  23.938  1.00  0.00     0.121 C 
ATOM     11  C   UNL A   1      34.284  24.577  24.441  1.00  0.00     0.024 C 
ATOM     12  C   UNL A   1      33.770  24.965  25.825  1.00  0.00     0.039 C 
BRANCH   9  13
ATOM     13  C   UNL A   1      32.618  21.567  25.291  1.00  0.00     0.281 C 
ATOM     14  O   UNL A   1      31.479  21.114  25.123  1.00  0.00    -0.268 OA
BRANCH  13  15
ATOM     15  C   UNL A   1      33.684  20.683  25.957  1.00  0.00     0.268 C 
ATOM     16  C   UNL A   1      34.735  20.336  24.902  1.00  0.00     0.086 C 
BRANCH  15  17
ATOM     17  N   UNL A   1      33.154  19.490  26.639  1.00  0.00    -0.348 N 
ATOM     18  H   UNL A   1      33.648  18.661  26.307  1.00  0.00     0.345 HD
ATOM     19  H   UNL A   1      32.159  19.396  26.437  1.00  0.00     0.345 HD
ATOM     20  H   UNL A   1      33.288  19.585  27.646  1.00  0.00     0.345 HD
ENDBRANCH  15  17
ENDBRANCH  13  15
ENDBRANCH   9  13
ENDBRANCH   6   8
ENDBRANCH   5   6
ENDBRANCH   4   5
ENDBRANCH   3   4
ENDBRANCH   2   3
ENDBRANCH   1   2
BRANCH   1  21
ATOM     21  C   UNL A   1      32.426  27.938  24.147  1.00  0.00     0.188 C 
BRANCH  21  22
ATOM     22  O   UNL A   1      32.628  29.166  24.803  1.00  0.00    -0.376 OA
BRANCH  22  23
ATOM     23  C   UNL A   1      31.525  29.974  25.130  1.00  0.00     0.202 C 
BRANCH  23  24
ATOM     24  C   UNL A   1      31.592  31.011  26.264  1.00  0.00     0.261 C 
BRANCH  24  25
ATOM     25  O   UNL A   1      32.631  30.887  27.246  1.00  0.00    -0.460 OA
BRANCH  25  26
ATOM     26  C   UNL A   1      33.424  31.957  27.455  1.00  0.00     0.338 C 
ATOM     27  O   UNL A   1      33.101  33.140  27.358  1.00  0.00    -0.246 OA
BRANCH  26  28
ATOM     28  C   UNL A   1      34.738  31.516  27.972  1.00  0.00     0.060 A 
ATOM     29  C   UNL A   1      34.901  30.182  28.369  1.00  0.00     0.016 A 
ATOM     30  C   UNL A   1      35.791  32.422  28.122  1.00  0.00     0.016 A 
ATOM     31  C   UNL A   1      36.102  29.762  28.952  1.00  0.00     0.010 A 
ATOM     32  C   UNL A   1      36.989  32.003  28.718  1.00  0.00     0.010 A 
ATOM     33  C   UNL A   1      37.143  30.677  29.166  1.00  0.00    -0.014 A 
BRANCH  33  34
ATOM     34  C   UNL A   1      38.329  30.299  29.987  1.00  0.00     0.031 A 
ATOM     35  C   UNL A   1      39.320  29.310  29.428  1.00  0.00     0.074 A 
ATOM     36  C   UNL A   1      38.539  30.822  31.209  1.00  0.00     0.049 A 
ATOM     37  N   UNL A   1      40.378  28.777  29.988  1.00  0.00    -0.248 NA
ATOM     38  C   UNL A   1      39.082  28.861  28.048  1.00  0.00     0.031 C 
ATOM     39  C   UNL A   1      37.693  31.819  31.858  1.00  0.00     0.029 A 
ATOM     40  N   UNL A   1      39.531  30.570  32.128  1.00  0.00    -0.354 N 
ATOM     41  C   UNL A   1      40.925  27.926  29.036  1.00  0.00     0.074 A 
ATOM     42  C   UNL A   1      40.066  27.992  27.871  1.00  0.00     0.031 C 
ATOM     43  C   UNL A   1      38.193  32.085  33.078  1.00  0.00     0.029 A 
ATOM     44  C   UNL A   1      39.370  31.249  33.312  1.00  0.00     0.049 A 
ATOM     45  H   UNL A   1      40.285  29.962  31.955  1.00  0.00     0.167 HD
ATOM     46  C   UNL A   1      42.042  27.163  29.118  1.00  0.00     0.037 A 
ATOM     47  C   UNL A   1      40.072  31.181  34.462  1.00  0.00     0.037 A 
ATOM     48  C   UNL A   1      42.897  27.087  30.274  1.00  0.00     0.049 A 
ATOM     49  C   UNL A   1      41.262  30.257  34.560  1.00  0.00     0.074 A 
ATOM     50  C   UNL A   1      44.058  26.352  30.442  1.00  0.00     0.029 A 
ATOM     51  N   UNL A   1      42.679  27.763  31.466  1.00  0.00    -0.354 N 
ATOM     52  N   UNL A   1      41.784  29.473  33.648  1.00  0.00    -0.248 NA
ATOM     53  C   UNL A   1      41.962  30.212  35.854  1.00  0.00     0.031 C 
ATOM     54  C   UNL A   1      44.509  26.535  31.754  1.00  0.00     0.029 A 
ATOM     55  C   UNL A   1      43.668  27.438  32.382  1.00  0.00     0.049 A 
ATOM     56  H   UNL A   1      41.933  28.382  31.635  1.00  0.00     0.167 HD
ATOM     57  C   UNL A   1      42.886  28.869  34.245  1.00  0.00     0.074 A 
ATOM     58  C   UNL A   1      42.968  29.390  35.593  1.00  0.00     0.031 C 
ATOM     59  C   UNL A   1      43.751  27.964  33.721  1.00  0.00     0.037 A 
BRANCH  46  60
ATOM     60  C   UNL A   1      42.391  26.316  27.927  1.00  0.00     0.064 A 
ATOM     61  C   UNL A   1      41.785  25.070  27.703  1.00  0.00     0.173 A 
ATOM     62  C   UNL A   1      43.318  26.772  26.977  1.00  0.00     0.173 A 
ATOM     63  F   UNL A   1      40.900  24.580  28.585  1.00  0.00    -0.203 F 
ATOM     64  C   UNL A   1      42.119  24.300  26.590  1.00  0.00     0.198 A 
ATOM     65  C   UNL A   1      43.624  26.016  25.849  1.00  0.00     0.198 A 
ATOM     66  F   UNL A   1      43.921  27.960  27.138  1.00  0.00    -0.203 F 
ATOM     67  F   UNL A   1      41.565  23.091  26.424  1.00  0.00    -0.200 F 
ATOM     68  C   UNL A   1      43.031  24.777  25.661  1.00  0.00     0.200 A 
ATOM     69  F   UNL A   1      44.495  26.486  24.945  1.00  0.00    -0.200 F 
ATOM     70  F   UNL A   1      43.345  24.039  24.588  1.00  0.00    -0.200 F 
ENDBRANCH  46  60
BRANCH  47  71
ATOM     71  C   UNL A   1      39.662  31.998  35.637  1.00  0.00     0.064 A 
ATOM     72  C   UNL A   1      38.701  31.531  36.545  1.00  0.00     0.173 A 
ATOM     73  C   UNL A   1      40.189  33.280  35.853  1.00  0.00     0.173 A 
ATOM     74  F   UNL A   1      38.138  30.327  36.363  1.00  0.00    -0.203 F 
ATOM     75  C   UNL A   1      38.268  32.321  37.608  1.00  0.00     0.198 A 
ATOM     76  C   UNL A   1      39.781  34.057  36.934  1.00  0.00     0.198 A 
ATOM     77  F   UNL A   1      41.102  33.780  35.007  1.00  0.00    -0.203 F 
ATOM     78  F   UNL A   1      37.302  31.874  38.423  1.00  0.00    -0.200 F 
ATOM     79  C   UNL A   1      38.813  33.581  37.806  1.00  0.00     0.200 A 
ATOM     80  F   UNL A   1      40.313  35.271  37.124  1.00  0.00    -0.200 F 
ATOM     81  F   UNL A   1      38.394  34.341  38.826  1.00  0.00    -0.200 F 
ENDBRANCH  47  71
BRANCH  59  82
ATOM     82  C   UNL A   1      44.893  27.509  34.589  1.00  0.00     0.064 A 
ATOM     83  C   UNL A   1      44.806  26.360  35.390  1.00  0.00     0.173 A 
ATOM     84  C   UNL A   1      46.107  28.217  34.593  1.00  0.00     0.173 A 
ATOM     85  F   UNL A   1      43.668  25.653  35.434  1.00  0.00    -0.203 F 
ATOM     86  C   UNL A   1      45.876  25.957  36.185  1.00  0.00     0.198 A 
ATOM     87  C   UNL A   1      47.186  27.791  35.363  1.00  0.00     0.198 A 
ATOM     88  F   UNL A   1      46.250  29.318  33.840  1.00  0.00    -0.203 F 
ATOM     89  F   UNL A   1      45.750  24.888  36.984  1.00  0.00    -0.200 F 
ATOM     90  C   UNL A   1      47.067  26.668  36.166  1.00  0.00     0.200 A 
ATOM     91  F   UNL A   1      48.341  28.470  35.329  1.00  0.00    -0.200 F 
ATOM     92  F   UNL A   1      48.098  26.274  36.928  1.00  0.00    -0.200 F 
ENDBRANCH  59  82
ENDBRANCH  33  34
ENDBRANCH  26  28
ENDBRANCH  25  26
ENDBRANCH  24  25
ENDBRANCH  23  24
ENDBRANCH  22  23
ENDBRANCH  21  22
ENDBRANCH   1  21
TORSDOF 20
ENDMDL
MODEL 2
REMARK VINA RESULT:      -9.9      4.717      8.909
REMARK SMILES C[C@H]([NH3+])C(=O)N1CCC[C@H]1C(=O)OCCOCCOCCOC(=O)c1ccc(-c2c3nc(c(-c4c(F)c(F)c(F)c(F)c4F)c4ccc([nH]4)c(-c4c(F)c(F)c(F)c(F)c4F)c4nc(c(-c5c(F)c(F)c(F)c(F)c5F)c5ccc2[nH]5)C=C4)C=C3)cc1
REMARK SMILES IDX 17 1 16 2 15 3 14 4 13 5 11 6 12 7 10 8 6 9 7 10 8 11 9 12
REMARK SMILES IDX 4 13 5 14 2 15 1 16 3 17 18 21 19 22 20 23 21 24 22 25 23 26
REMARK SMILES IDX 24 27 25 28 26 29 87 30 27 31 86 32 28 33 29 34 30 35 80 36
REMARK SMILES IDX 31 37 85 38 79 39 81 40 32 41 84 42 78 43 77 44 33 46 65 47
REMARK SMILES IDX 45 48 64 49 46 50 49 51 63 52 82 53 47 54 48 55 62 57 83 58
REMARK SMILES IDX 50 59 34 60 35 61 43 62 36 63 37 64 41 65 44 66 38 67 39 68
REMARK SMILES IDX 42 69 40 70 66 71 67 72 75 73 68 74 69 75 73 76 76 77 70 78
REMARK SMILES IDX 71 79 74 80 72 81 51 82 52 83 60 84 53 85 54 86 58 87 61 88
REMARK SMILES IDX 55 89 56 90 59 91 57 92
REMARK H PARENT 3 18 3 19 3 20 81 45 49 56
REMARK Flexibility Score: inf
ROOT
ATOM      1  C   UNL A   1      33.658  31.846  28.076  1.00  0.00     0.188 C 
ENDROOT
BRANCH   1   2
ATOM      2  O   UNL A   1      34.552  30.913  27.481  1.00  0.00    -0.376 OA
BRANCH   2   3
ATOM      3  C   UNL A   1      34.229  29.534  27.478  1.00  0.00     0.202 C 
BRANCH   3   4
ATOM      4  C   UNL A   1      33.525  28.950  26.249  1.00  0.00     0.261 C 
BRANCH   4   5
ATOM      5  O   UNL A   1      33.977  27.661  25.801  1.00  0.00    -0.462 OA
BRANCH   5   6
ATOM      6  C   UNL A   1      33.307  27.140  24.726  1.00  0.00     0.328 C 
ATOM      7  O   UNL A   1      33.848  26.706  23.717  1.00  0.00    -0.250 OA
BRANCH   6   8
ATOM      8  C   UNL A   1      31.791  27.103  25.006  1.00  0.00     0.195 C 
ATOM      9  N   UNL A   1      31.047  26.574  23.863  1.00  0.00    -0.324 N 
ATOM     10  C   UNL A   1      30.559  25.240  24.151  1.00  0.00     0.121 C 
ATOM     11  C   UNL A   1      30.210  25.345  25.618  1.00  0.00     0.024 C 
ATOM     12  C   UNL A   1      31.365  26.181  26.162  1.00  0.00     0.039 C 
BRANCH   9  13
ATOM     13  C   UNL A   1      30.800  27.403  22.794  1.00  0.00     0.281 C 
ATOM     14  O   UNL A   1      30.825  26.951  21.642  1.00  0.00    -0.268 OA
BRANCH  13  15
ATOM     15  C   UNL A   1      30.781  28.926  22.999  1.00  0.00     0.268 C 
ATOM     16  C   UNL A   1      29.353  29.336  23.357  1.00  0.00     0.086 C 
BRANCH  15  17
ATOM     17  N   UNL A   1      31.326  29.704  21.873  1.00  0.00    -0.348 N 
ATOM     18  H   UNL A   1      31.562  30.644  22.192  1.00  0.00     0.345 HD
ATOM     19  H   UNL A   1      30.628  29.763  21.131  1.00  0.00     0.345 HD
ATOM     20  H   UNL A   1      32.164  29.245  21.516  1.00  0.00     0.345 HD
ENDBRANCH  15  17
ENDBRANCH  13  15
ENDBRANCH   9  13
ENDBRANCH   6   8
ENDBRANCH   5   6
ENDBRANCH   4   5
ENDBRANCH   3   4
ENDBRANCH   2   3
ENDBRANCH   1   2
BRANCH   1  21
ATOM     21  C   UNL A   1      33.979  33.358  28.035  1.00  0.00     0.188 C 
BRANCH  21  22
ATOM     22  O   UNL A   1      33.162  34.083  28.922  1.00  0.00    -0.376 OA
BRANCH  22  23
ATOM     23  C   UNL A   1      33.748  34.917  29.890  1.00  0.00     0.202 C 
BRANCH  23  24
ATOM     24  C   UNL A   1      34.452  34.343  31.131  1.00  0.00     0.261 C 
BRANCH  24  25
ATOM     25  O   UNL A   1      34.452  32.920  31.323  1.00  0.00    -0.460 OA
BRANCH  25  26
ATOM     26  C   UNL A   1      35.277  32.416  32.262  1.00  0.00     0.338 C 
ATOM     27  O   UNL A   1      35.120  32.467  33.481  1.00  0.00    -0.246 OA
BRANCH  26  28
ATOM     28  C   UNL A   1      36.362  31.645  31.617  1.00  0.00     0.060 A 
ATOM     29  C   UNL A   1      37.276  30.951  32.421  1.00  0.00     0.016 A 
ATOM     30  C   UNL A   1      36.517  31.649  30.228  1.00  0.00     0.016 A 
ATOM     31  C   UNL A   1      38.369  30.294  31.842  1.00  0.00     0.010 A 
ATOM     32  C   UNL A   1      37.619  31.002  29.651  1.00  0.00     0.010 A 
ATOM     33  C   UNL A   1      38.571  30.346  30.455  1.00  0.00    -0.014 A 
BRANCH  33  34
ATOM     34  C   UNL A   1      39.842  29.850  29.855  1.00  0.00     0.031 A 
ATOM     35  C   UNL A   1      40.999  30.803  29.700  1.00  0.00     0.074 A 
ATOM     36  C   UNL A   1      39.983  28.572  29.455  1.00  0.00     0.049 A 
ATOM     37  N   UNL A   1      42.169  30.617  29.139  1.00  0.00    -0.248 NA
ATOM     38  C   UNL A   1      40.808  32.153  30.253  1.00  0.00     0.031 C 
ATOM     39  C   UNL A   1      38.970  27.530  29.583  1.00  0.00     0.029 A 
ATOM     40  N   UNL A   1      41.042  27.941  28.844  1.00  0.00    -0.354 N 
ATOM     41  C   UNL A   1      42.847  31.823  29.263  1.00  0.00     0.074 A 
ATOM     42  C   UNL A   1      41.948  32.743  29.928  1.00  0.00     0.031 C 
ATOM     43  C   UNL A   1      39.449  26.390  29.053  1.00  0.00     0.029 A 
ATOM     44  C   UNL A   1      40.787  26.632  28.513  1.00  0.00     0.049 A 
ATOM     45  H   UNL A   1      41.902  28.385  28.662  1.00  0.00     0.167 HD
ATOM     46  C   UNL A   1      44.104  32.137  28.866  1.00  0.00     0.037 A 
ATOM     47  C   UNL A   1      41.533  25.741  27.827  1.00  0.00     0.037 A 
ATOM     48  C   UNL A   1      45.001  31.229  28.199  1.00  0.00     0.049 A 
ATOM     49  C   UNL A   1      42.897  26.142  27.317  1.00  0.00     0.074 A 
ATOM     50  C   UNL A   1      46.299  31.455  27.773  1.00  0.00     0.029 A 
ATOM     51  N   UNL A   1      44.692  29.923  27.850  1.00  0.00    -0.354 N 
ATOM     52  N   UNL A   1      43.538  27.276  27.459  1.00  0.00    -0.248 NA
ATOM     53  C   UNL A   1      43.641  25.129  26.552  1.00  0.00     0.031 C 
ATOM     54  C   UNL A   1      46.753  30.308  27.112  1.00  0.00     0.029 A 
ATOM     55  C   UNL A   1      45.763  29.342  27.187  1.00  0.00     0.049 A 
ATOM     56  H   UNL A   1      43.837  29.474  28.044  1.00  0.00     0.167 HD
ATOM     57  C   UNL A   1      44.767  27.104  26.830  1.00  0.00     0.074 A 
ATOM     58  C   UNL A   1      44.789  25.750  26.321  1.00  0.00     0.031 C 
ATOM     59  C   UNL A   1      45.784  27.991  26.688  1.00  0.00     0.037 A 
BRANCH  46  60
ATOM     60  C   UNL A   1      44.579  33.541  29.115  1.00  0.00     0.064 A 
ATOM     61  C   UNL A   1      44.343  34.575  28.197  1.00  0.00     0.173 A 
ATOM     62  C   UNL A   1      45.248  33.863  30.306  1.00  0.00     0.173 A 
ATOM     63  F   UNL A   1      43.718  34.320  27.037  1.00  0.00    -0.203 F 
ATOM     64  C   UNL A   1      44.788  35.872  28.448  1.00  0.00     0.198 A 
ATOM     65  C   UNL A   1      45.661  35.167  30.569  1.00  0.00     0.198 A 
ATOM     66  F   UNL A   1      45.492  32.914  31.223  1.00  0.00    -0.203 F 
ATOM     67  F   UNL A   1      44.596  36.832  27.533  1.00  0.00    -0.200 F 
ATOM     68  C   UNL A   1      45.438  36.167  29.636  1.00  0.00     0.200 A 
ATOM     69  F   UNL A   1      46.276  35.453  31.724  1.00  0.00    -0.200 F 
ATOM     70  F   UNL A   1      45.858  37.417  29.878  1.00  0.00    -0.200 F 
ENDBRANCH  46  60
BRANCH  47  71
ATOM     71  C   UNL A   1      41.004  24.377  27.556  1.00  0.00     0.064 A 
ATOM     72  C   UNL A   1      41.582  23.245  28.149  1.00  0.00     0.173 A 
ATOM     73  C   UNL A   1      39.939  24.171  26.667  1.00  0.00     0.173 A 
ATOM     74  F   UNL A   1      42.627  23.384  28.979  1.00  0.00    -0.203 F 
ATOM     75  C   UNL A   1      41.130  21.961  27.846  1.00  0.00     0.198 A 
ATOM     76  C   UNL A   1      39.467  22.891  26.389  1.00  0.00     0.198 A 
ATOM     77  F   UNL A   1      39.359  25.218  26.062  1.00  0.00    -0.203 F 
ATOM     78  F   UNL A   1      41.743  20.895  28.379  1.00  0.00    -0.200 F 
ATOM     79  C   UNL A   1      40.069  21.786  26.972  1.00  0.00     0.200 A 
ATOM     80  F   UNL A   1      38.438  22.726  25.547  1.00  0.00    -0.200 F 
ATOM     81  F   UNL A   1      39.638  20.552  26.677  1.00  0.00    -0.200 F 
ENDBRANCH  47  71
BRANCH  59  82
ATOM     82  C   UNL A   1      47.032  27.514  25.994  1.00  0.00     0.064 A 
ATOM     83  C   UNL A   1      48.089  26.915  26.694  1.00  0.00     0.173 A 
ATOM     84  C   UNL A   1      47.155  27.628  24.599  1.00  0.00     0.173 A 
ATOM     85  F   UNL A   1      48.031  26.791  28.028  1.00  0.00    -0.203 F 
ATOM     86  C   UNL A   1      49.235  26.480  26.031  1.00  0.00     0.198 A 
ATOM     87  C   UNL A   1      48.286  27.161  23.936  1.00  0.00     0.198 A 
ATOM     88  F   UNL A   1      46.170  28.184  23.877  1.00  0.00    -0.203 F 
ATOM     89  F   UNL A   1      50.256  25.963  26.729  1.00  0.00    -0.200 F 
ATOM     90  C   UNL A   1      49.329  26.597  24.652  1.00  0.00     0.200 A 
ATOM     91  F   UNL A   1      48.367  27.259  22.602  1.00  0.00    -0.200 F 
ATOM     92  F   UNL A   1      50.430  26.172  24.015  1.00  0.00    -0.200 F 
ENDBRANCH  59  82
ENDBRANCH  33  34
ENDBRANCH  26  28
ENDBRANCH  25  26
ENDBRANCH  24  25
ENDBRANCH  23  24
ENDBRANCH  22  23
ENDBRANCH  21  22
ENDBRANCH   1  21
TORSDOF 20
ENDMDL
MODEL 3
REMARK VINA RESULT:      -9.8      1.067      1.876
REMARK SMILES C[C@H]([NH3+])C(=O)N1CCC[C@H]1C(=O)OCCOCCOCCOC(=O)c1ccc(-c2c3nc(c(-c4c(F)c(F)c(F)c(F)c4F)c4ccc([nH]4)c(-c4c(F)c(F)c(F)c(F)c4F)c4nc(c(-c5c(F)c(F)c(F)c(F)c5F)c5ccc2[nH]5)C=C4)C=C3)cc1
REMARK SMILES IDX 17 1 16 2 15 3 14 4 13 5 11 6 12 7 10 8 6 9 7 10 8 11 9 12
REMARK SMILES IDX 4 13 5 14 2 15 1 16 3 17 18 21 19 22 20 23 21 24 22 25 23 26
REMARK SMILES IDX 24 27 25 28 26 29 87 30 27 31 86 32 28 33 29 34 30 35 80 36
REMARK SMILES IDX 31 37 85 38 79 39 81 40 32 41 84 42 78 43 77 44 33 46 65 47
REMARK SMILES IDX 45 48 64 49 46 50 49 51 63 52 82 53 47 54 48 55 62 57 83 58
REMARK SMILES IDX 50 59 34 60 35 61 43 62 36 63 37 64 41 65 44 66 38 67 39 68
REMARK SMILES IDX 42 69 40 70 66 71 67 72 75 73 68 74 69 75 73 76 76 77 70 78
REMARK SMILES IDX 71 79 74 80 72 81 51 82 52 83 60 84 53 85 54 86 58 87 61 88
REMARK SMILES IDX 55 89 56 90 59 91 57 92
REMARK H PARENT 3 18 3 19 3 20 81 45 49 56
REMARK Flexibility Score: inf
ROOT
ATOM      1  C   UNL A   1      32.464  27.464  22.916  1.00  0.00     0.188 C 
ENDROOT
BRANCH   1   2
ATOM      2  O   UNL A   1      31.702  26.265  22.847  1.00  0.00    -0.376 OA
BRANCH   2   3
ATOM      3  C   UNL A   1      32.105  25.133  23.596  1.00  0.00     0.202 C 
BRANCH   3   4
ATOM      4  C   UNL A   1      31.610  23.750  23.156  1.00  0.00     0.261 C 
BRANCH   4   5
ATOM      5  O   UNL A   1      31.470  22.760  24.188  1.00  0.00    -0.462 OA
BRANCH   5   6
ATOM      6  C   UNL A   1      32.178  21.603  23.998  1.00  0.00     0.328 C 
ATOM      7  O   UNL A   1      32.260  21.008  22.931  1.00  0.00    -0.250 OA
BRANCH   6   8
ATOM      8  C   UNL A   1      32.915  21.208  25.294  1.00  0.00     0.195 C 
ATOM      9  N   UNL A   1      33.891  20.145  25.053  1.00  0.00    -0.324 N 
ATOM     10  C   UNL A   1      35.239  20.673  25.117  1.00  0.00     0.121 C 
ATOM     11  C   UNL A   1      35.121  21.700  26.220  1.00  0.00     0.024 C 
ATOM     12  C   UNL A   1      33.761  22.327  25.927  1.00  0.00     0.039 C 
BRANCH   9  13
ATOM     13  C   UNL A   1      33.445  18.849  24.948  1.00  0.00     0.281 C 
ATOM     14  O   UNL A   1      32.430  18.493  25.561  1.00  0.00    -0.268 OA
BRANCH  13  15
ATOM     15  C   UNL A   1      34.350  17.779  24.317  1.00  0.00     0.268 C 
ATOM     16  C   UNL A   1      33.592  17.150  23.148  1.00  0.00     0.086 C 
BRANCH  15  17
ATOM     17  N   UNL A   1      34.864  16.774  25.263  1.00  0.00    -0.348 N 
ATOM     18  H   UNL A   1      35.825  16.534  25.016  1.00  0.00     0.345 HD
ATOM     19  H   UNL A   1      34.283  15.936  25.218  1.00  0.00     0.345 HD
ATOM     20  H   UNL A   1      34.841  17.154  26.210  1.00  0.00     0.345 HD
ENDBRANCH  15  17
ENDBRANCH  13  15
ENDBRANCH   9  13
ENDBRANCH   6   8
ENDBRANCH   5   6
ENDBRANCH   4   5
ENDBRANCH   3   4
ENDBRANCH   2   3
ENDBRANCH   1   2
BRANCH   1  21
ATOM     21  C   UNL A   1      33.624  27.586  23.930  1.00  0.00     0.188 C 
BRANCH  21  22
ATOM     22  O   UNL A   1      33.309  28.479  24.971  1.00  0.00    -0.376 OA
BRANCH  22  23
ATOM     23  C   UNL A   1      32.072  29.147  24.969  1.00  0.00     0.202 C 
BRANCH  23  24
ATOM     24  C   UNL A   1      31.837  30.414  25.809  1.00  0.00     0.261 C 
BRANCH  24  25
ATOM     25  O   UNL A   1      32.496  30.527  27.079  1.00  0.00    -0.460 OA
BRANCH  25  26
ATOM     26  C   UNL A   1      33.214  31.643  27.314  1.00  0.00     0.338 C 
ATOM     27  O   UNL A   1      32.813  32.803  27.239  1.00  0.00    -0.246 OA
BRANCH  26  28
ATOM     28  C   UNL A   1      34.552  31.281  27.829  1.00  0.00     0.060 A 
ATOM     29  C   UNL A   1      34.823  29.941  28.139  1.00  0.00     0.016 A 
ATOM     30  C   UNL A   1      35.522  32.260  28.061  1.00  0.00     0.016 A 
ATOM     31  C   UNL A   1      36.047  29.585  28.719  1.00  0.00     0.010 A 
ATOM     32  C   UNL A   1      36.742  31.904  28.654  1.00  0.00     0.010 A 
ATOM     33  C   UNL A   1      37.002  30.569  29.016  1.00  0.00    -0.014 A 
BRANCH  33  34
ATOM     34  C   UNL A   1      38.203  30.236  29.835  1.00  0.00     0.031 A 
ATOM     35  C   UNL A   1      39.221  29.272  29.283  1.00  0.00     0.074 A 
ATOM     36  C   UNL A   1      38.402  30.781  31.050  1.00  0.00     0.049 A 
ATOM     37  N   UNL A   1      40.298  28.779  29.844  1.00  0.00    -0.248 NA
ATOM     38  C   UNL A   1      38.990  28.799  27.909  1.00  0.00     0.031 C 
ATOM     39  C   UNL A   1      37.529  31.759  31.691  1.00  0.00     0.029 A 
ATOM     40  N   UNL A   1      39.406  30.571  31.967  1.00  0.00    -0.354 N 
ATOM     41  C   UNL A   1      40.866  27.933  28.899  1.00  0.00     0.074 A 
ATOM     42  C   UNL A   1      40.000  27.959  27.738  1.00  0.00     0.031 C 
ATOM     43  C   UNL A   1      38.026  32.055  32.905  1.00  0.00     0.029 A 
ATOM     44  C   UNL A   1      39.230  31.259  33.143  1.00  0.00     0.049 A 
ATOM     45  H   UNL A   1      40.177  29.984  31.797  1.00  0.00     0.167 HD
ATOM     46  C   UNL A   1      42.006  27.206  28.984  1.00  0.00     0.037 A 
ATOM     47  C   UNL A   1      39.939  31.226  34.291  1.00  0.00     0.037 A 
ATOM     48  C   UNL A   1      42.869  27.171  30.138  1.00  0.00     0.049 A 
ATOM     49  C   UNL A   1      41.157  30.340  34.393  1.00  0.00     0.074 A 
ATOM     50  C   UNL A   1      44.053  26.473  30.308  1.00  0.00     0.029 A 
ATOM     51  N   UNL A   1      42.636  27.853  31.322  1.00  0.00    -0.354 N 
ATOM     52  N   UNL A   1      41.699  29.562  33.488  1.00  0.00    -0.248 NA
ATOM     53  C   UNL A   1      41.864  30.332  35.684  1.00  0.00     0.031 C 
ATOM     54  C   UNL A   1      44.504  26.686  31.616  1.00  0.00     0.029 A 
ATOM     55  C   UNL A   1      43.638  27.570  32.237  1.00  0.00     0.049 A 
ATOM     56  H   UNL A   1      41.872  28.451  31.488  1.00  0.00     0.167 HD
ATOM     57  C   UNL A   1      42.821  28.999  34.086  1.00  0.00     0.074 A 
ATOM     58  C   UNL A   1      42.894  29.539  35.427  1.00  0.00     0.031 C 
ATOM     59  C   UNL A   1      43.712  28.115  33.569  1.00  0.00     0.037 A 
BRANCH  46  60
ATOM     60  C   UNL A   1      42.375  26.355  27.802  1.00  0.00     0.064 A 
ATOM     61  C   UNL A   1      43.321  26.775  26.855  1.00  0.00     0.173 A 
ATOM     62  C   UNL A   1      41.800  25.085  27.634  1.00  0.00     0.173 A 
ATOM     63  F   UNL A   1      43.893  27.985  26.961  1.00  0.00    -0.203 F 
ATOM     64  C   UNL A   1      43.652  25.970  25.767  1.00  0.00     0.198 A 
ATOM     65  C   UNL A   1      42.159  24.270  26.564  1.00  0.00     0.198 A 
ATOM     66  F   UNL A   1      40.896  24.631  28.515  1.00  0.00    -0.203 F 
ATOM     67  F   UNL A   1      44.520  26.414  24.847  1.00  0.00    -0.200 F 
ATOM     68  C   UNL A   1      43.078  24.716  25.627  1.00  0.00     0.200 A 
ATOM     69  F   UNL A   1      41.614  23.052  26.440  1.00  0.00    -0.200 F 
ATOM     70  F   UNL A   1      43.404  23.940  24.585  1.00  0.00    -0.200 F 
ENDBRANCH  46  60
BRANCH  47  71
ATOM     71  C   UNL A   1      39.510  32.045  35.457  1.00  0.00     0.064 A 
ATOM     72  C   UNL A   1      38.629  31.529  36.419  1.00  0.00     0.173 A 
ATOM     73  C   UNL A   1      39.936  33.372  35.613  1.00  0.00     0.173 A 
ATOM     74  F   UNL A   1      38.162  30.278  36.297  1.00  0.00    -0.203 F 
ATOM     75  C   UNL A   1      38.174  32.315  37.477  1.00  0.00     0.198 A 
ATOM     76  C   UNL A   1      39.508  34.147  36.688  1.00  0.00     0.198 A 
ATOM     77  F   UNL A   1      40.768  33.918  34.714  1.00  0.00    -0.203 F 
ATOM     78  F   UNL A   1      37.283  31.817  38.345  1.00  0.00    -0.200 F 
ATOM     79  C   UNL A   1      38.620  33.622  37.614  1.00  0.00     0.200 A 
ATOM     80  F   UNL A   1      39.944  35.407  36.819  1.00  0.00    -0.200 F 
ATOM     81  F   UNL A   1      38.179  34.378  38.628  1.00  0.00    -0.200 F 
ENDBRANCH  47  71
BRANCH  59  82
ATOM     82  C   UNL A   1      44.871  27.706  34.437  1.00  0.00     0.064 A 
ATOM     83  C   UNL A   1      44.795  26.613  35.313  1.00  0.00     0.173 A 
ATOM     84  C   UNL A   1      46.091  28.399  34.364  1.00  0.00     0.173 A 
ATOM     85  F   UNL A   1      43.651  25.922  35.432  1.00  0.00    -0.203 F 
ATOM     86  C   UNL A   1      45.881  26.251  36.107  1.00  0.00     0.198 A 
ATOM     87  C   UNL A   1      47.185  28.013  35.133  1.00  0.00     0.198 A 
ATOM     88  F   UNL A   1      46.225  29.447  33.537  1.00  0.00    -0.203 F 
ATOM     89  F   UNL A   1      45.765  25.238  36.978  1.00  0.00    -0.200 F 
ATOM     90  C   UNL A   1      47.077  26.947  36.012  1.00  0.00     0.200 A 
ATOM     91  F   UNL A   1      48.345  28.676  35.026  1.00  0.00    -0.200 F 
ATOM     92  F   UNL A   1      48.123  26.593  36.771  1.00  0.00    -0.200 F 
ENDBRANCH  59  82
ENDBRANCH  33  34
ENDBRANCH  26  28
ENDBRANCH  25  26
ENDBRANCH  24  25
ENDBRANCH  23  24
ENDBRANCH  22  23
ENDBRANCH  21  22
ENDBRANCH   1  21
TORSDOF 20
ENDMDL
