MODEL 1
REMARK VINA RESULT:     -10.1      0.000      0.000
REMARK SMILES N#Cc1cc([N+](=O)[O-])cnc1Oc1csc(C(=O)OCCOCCOCCOC(=O)c2ccc(-c3c4nc(c(-c5c(F)c(F)c(F)c(F)c5F)c5ccc([nH]5)c(-c5c(F)c(F)c(F)c(F)c5F)c5nc(c(-c6c(F)c(F)c(F)c(F)c6F)c6ccc3[nH]6)C=C5)C=C4)cc2)c1
REMARK SMILES IDX 23 1 22 2 21 3 20 4 19 5 17 6 18 7 16 8 13 9 14 10 94 11
REMARK SMILES IDX 15 12 12 13 11 14 3 15 4 16 5 17 10 18 9 19 2 20 1 21 6 22
REMARK SMILES IDX 7 23 8 24 24 25 25 26 26 27 27 28 28 29 29 30 30 31 31 32
REMARK SMILES IDX 32 33 93 34 33 35 92 36 34 37 35 38 36 39 86 40 37 41 91 42
REMARK SMILES IDX 85 43 87 44 38 45 90 46 84 47 83 48 39 50 71 51 51 52 70 53
REMARK SMILES IDX 52 54 55 55 69 56 88 57 53 58 54 59 68 61 89 62 56 63 40 64
REMARK SMILES IDX 41 65 49 66 42 67 43 68 47 69 50 70 44 71 45 72 48 73 46 74
REMARK SMILES IDX 72 75 73 76 81 77 74 78 75 79 79 80 82 81 76 82 77 83 80 84
REMARK SMILES IDX 78 85 57 86 58 87 66 88 59 89 60 90 64 91 67 92 61 93 62 94
REMARK SMILES IDX 65 95 63 96
REMARK H PARENT 87 49 55 60
REMARK Flexibility Score: inf
ROOT
ATOM      1  C   UNL A   1      41.441  20.571  26.971  1.00  0.00     0.188 C 
ENDROOT
BRANCH   1   2
ATOM      2  O   UNL A   1      40.035  20.565  26.807  1.00  0.00    -0.376 OA
BRANCH   2   3
ATOM      3  C   UNL A   1      39.379  21.613  26.110  1.00  0.00     0.202 C 
BRANCH   3   4
ATOM      4  C   UNL A   1      38.104  21.412  25.263  1.00  0.00     0.261 C 
BRANCH   4   5
ATOM      5  O   UNL A   1      36.844  21.464  25.946  1.00  0.00    -0.459 OA
BRANCH   5   6
ATOM      6  C   UNL A   1      35.818  20.758  25.382  1.00  0.00     0.348 C 
ATOM      7  O   UNL A   1      35.926  19.623  24.938  1.00  0.00    -0.245 OA
BRANCH   6   8
ATOM      8  C   UNL A   1      34.579  21.509  25.516  1.00  0.00     0.116 A 
ATOM      9  C   UNL A   1      33.008  23.192  25.943  1.00  0.00     0.141 A 
ATOM     10  C   UNL A   1      32.181  22.107  25.756  1.00  0.00     0.112 A 
ATOM     11  C   UNL A   1      34.382  22.853  25.774  1.00  0.00     0.074 A 
ATOM     12  S   UNL A   1      33.078  20.679  25.428  1.00  0.00    -0.133 S 
BRANCH   9  13
ATOM     13  O   UNL A   1      32.630  24.468  26.178  1.00  0.00    -0.437 OA
BRANCH  13  14
ATOM     14  C   UNL A   1      32.588  25.498  25.272  1.00  0.00     0.237 A 
ATOM     15  C   UNL A   1      32.285  26.825  25.574  1.00  0.00     0.121 A 
ATOM     16  C   UNL A   1      32.532  27.808  24.599  1.00  0.00     0.112 A 
ATOM     17  C   UNL A   1      33.094  27.436  23.376  1.00  0.00     0.289 A 
ATOM     18  N   UNL A   1      33.117  25.137  24.070  1.00  0.00    -0.213 NA
ATOM     19  C   UNL A   1      33.363  26.101  23.148  1.00  0.00     0.200 A 
BRANCH  15  20
ATOM     20  C   UNL A   1      31.787  27.247  26.845  1.00  0.00     0.105 C 
ATOM     21  N   UNL A   1      31.403  27.629  27.867  1.00  0.00    -0.192 NA
ENDBRANCH  15  20
BRANCH  17  22
ATOM     22  N   UNL A   1      33.432  28.430  22.367  1.00  0.00     0.064 N 
ATOM     23  O   UNL A   1      34.393  28.192  21.624  1.00  0.00    -0.258 OA
ATOM     24  O   UNL A   1      32.739  29.455  22.323  1.00  0.00    -0.258 OA
ENDBRANCH  17  22
ENDBRANCH  13  14
ENDBRANCH   9  13
ENDBRANCH   6   8
ENDBRANCH   5   6
ENDBRANCH   4   5
ENDBRANCH   3   4
ENDBRANCH   2   3
ENDBRANCH   1   2
BRANCH   1  25
ATOM     25  C   UNL A   1      42.296  21.643  26.264  1.00  0.00     0.188 C 
BRANCH  25  26
ATOM     26  O   UNL A   1      43.483  21.163  25.677  1.00  0.00    -0.376 OA
BRANCH  26  27
ATOM     27  C   UNL A   1      44.189  21.984  24.762  1.00  0.00     0.202 C 
BRANCH  27  28
ATOM     28  C   UNL A   1      44.735  23.403  25.051  1.00  0.00     0.261 C 
BRANCH  28  29
ATOM     29  O   UNL A   1      43.854  24.524  24.925  1.00  0.00    -0.460 OA
BRANCH  29  30
ATOM     30  C   UNL A   1      44.400  25.737  25.181  1.00  0.00     0.338 C 
ATOM     31  O   UNL A   1      45.367  26.240  24.636  1.00  0.00    -0.246 OA
BRANCH  30  32
ATOM     32  C   UNL A   1      43.539  26.470  26.127  1.00  0.00     0.060 A 
ATOM     33  C   UNL A   1      43.806  27.824  26.359  1.00  0.00     0.016 A 
ATOM     34  C   UNL A   1      42.540  25.817  26.847  1.00  0.00     0.016 A 
ATOM     35  C   UNL A   1      43.117  28.520  27.347  1.00  0.00     0.010 A 
ATOM     36  C   UNL A   1      41.858  26.511  27.854  1.00  0.00     0.010 A 
ATOM     37  C   UNL A   1      42.179  27.852  28.142  1.00  0.00    -0.014 A 
BRANCH  37  38
ATOM     38  C   UNL A   1      41.714  28.495  29.397  1.00  0.00     0.031 A 
ATOM     39  C   UNL A   1      40.422  29.270  29.372  1.00  0.00     0.074 A 
ATOM     40  C   UNL A   1      42.381  28.338  30.554  1.00  0.00     0.049 A 
ATOM     41  N   UNL A   1      39.824  29.929  30.333  1.00  0.00    -0.248 NA
ATOM     42  C   UNL A   1      39.710  29.310  28.084  1.00  0.00     0.031 C 
ATOM     43  C   UNL A   1      43.615  27.576  30.721  1.00  0.00     0.029 A 
ATOM     44  N   UNL A   1      42.109  28.819  31.811  1.00  0.00    -0.354 N 
ATOM     45  C   UNL A   1      38.671  30.458  29.766  1.00  0.00     0.074 A 
ATOM     46  C   UNL A   1      38.681  30.094  28.366  1.00  0.00     0.031 C 
ATOM     47  C   UNL A   1      44.004  27.651  32.005  1.00  0.00     0.029 A 
ATOM     48  C   UNL A   1      43.063  28.493  32.743  1.00  0.00     0.049 A 
ATOM     49  H   UNL A   1      41.305  29.348  32.024  1.00  0.00     0.167 HD
ATOM     50  C   UNL A   1      37.681  31.166  30.360  1.00  0.00     0.037 A 
ATOM     51  C   UNL A   1      43.174  28.857  34.035  1.00  0.00     0.037 A 
ATOM     52  C   UNL A   1      37.677  31.538  31.752  1.00  0.00     0.049 A 
ATOM     53  C   UNL A   1      42.099  29.715  34.655  1.00  0.00     0.074 A 
ATOM     54  C   UNL A   1      36.728  32.265  32.450  1.00  0.00     0.029 A 
ATOM     55  N   UNL A   1      38.676  31.213  32.659  1.00  0.00    -0.354 N 
ATOM     56  N   UNL A   1      41.007  30.205  34.118  1.00  0.00    -0.248 NA
ATOM     57  C   UNL A   1      42.266  30.059  36.075  1.00  0.00     0.031 C 
ATOM     58  C   UNL A   1      37.183  32.434  33.762  1.00  0.00     0.029 A 
ATOM     59  C   UNL A   1      38.373  31.741  33.905  1.00  0.00     0.049 A 
ATOM     60  H   UNL A   1      39.481  30.687  32.449  1.00  0.00     0.167 HD
ATOM     61  C   UNL A   1      40.342  30.874  35.137  1.00  0.00     0.074 A 
ATOM     62  C   UNL A   1      41.142  30.709  36.331  1.00  0.00     0.031 C 
ATOM     63  C   UNL A   1      39.173  31.564  35.091  1.00  0.00     0.037 A 
BRANCH  50  64
ATOM     64  C   UNL A   1      36.528  31.602  29.502  1.00  0.00     0.064 A 
ATOM     65  C   UNL A   1      35.554  30.694  29.054  1.00  0.00     0.173 A 
ATOM     66  C   UNL A   1      36.372  32.951  29.147  1.00  0.00     0.173 A 
ATOM     67  F   UNL A   1      35.660  29.390  29.352  1.00  0.00    -0.203 F 
ATOM     68  C   UNL A   1      34.490  31.113  28.261  1.00  0.00     0.198 A 
ATOM     69  C   UNL A   1      35.286  33.374  28.385  1.00  0.00     0.198 A 
ATOM     70  F   UNL A   1      37.269  33.865  29.549  1.00  0.00    -0.203 F 
ATOM     71  F   UNL A   1      33.606  30.218  27.800  1.00  0.00    -0.200 F 
ATOM     72  C   UNL A   1      34.352  32.454  27.935  1.00  0.00     0.200 A 
ATOM     73  F   UNL A   1      35.144  34.672  28.087  1.00  0.00    -0.200 F 
ATOM     74  F   UNL A   1      33.320  32.859  27.181  1.00  0.00    -0.200 F 
ENDBRANCH  50  64
BRANCH  51  75
ATOM     75  C   UNL A   1      44.358  28.432  34.834  1.00  0.00     0.064 A 
ATOM     76  C   UNL A   1      45.511  29.224  34.912  1.00  0.00     0.173 A 
ATOM     77  C   UNL A   1      44.376  27.194  35.494  1.00  0.00     0.173 A 
ATOM     78  F   UNL A   1      45.558  30.406  34.279  1.00  0.00    -0.203 F 
ATOM     79  C   UNL A   1      46.649  28.778  35.583  1.00  0.00     0.198 A 
ATOM     80  C   UNL A   1      45.498  26.766  36.199  1.00  0.00     0.198 A 
ATOM     81  F   UNL A   1      43.300  26.393  35.452  1.00  0.00    -0.203 F 
ATOM     82  F   UNL A   1      47.763  29.523  35.576  1.00  0.00    -0.200 F 
ATOM     83  C   UNL A   1      46.640  27.552  36.230  1.00  0.00     0.200 A 
ATOM     84  F   UNL A   1      45.478  25.587  36.835  1.00  0.00    -0.200 F 
ATOM     85  F   UNL A   1      47.734  27.121  36.871  1.00  0.00    -0.200 F 
ENDBRANCH  51  75
BRANCH  63  86
ATOM     86  C   UNL A   1      38.655  32.130  36.388  1.00  0.00     0.064 A 
ATOM     87  C   UNL A   1      38.925  33.446  36.793  1.00  0.00     0.173 A 
ATOM     88  C   UNL A   1      37.876  31.333  37.243  1.00  0.00     0.173 A 
ATOM     89  F   UNL A   1      39.667  34.253  36.018  1.00  0.00    -0.203 F 
ATOM     90  C   UNL A   1      38.492  33.922  38.028  1.00  0.00     0.198 A 
ATOM     91  C   UNL A   1      37.405  31.827  38.457  1.00  0.00     0.198 A 
ATOM     92  F   UNL A   1      37.569  30.072  36.905  1.00  0.00    -0.203 F 
ATOM     93  F   UNL A   1      38.840  35.152  38.430  1.00  0.00    -0.200 F 
ATOM     94  C   UNL A   1      37.730  33.113  38.858  1.00  0.00     0.200 A 
ATOM     95  F   UNL A   1      36.646  31.052  39.244  1.00  0.00    -0.200 F 
ATOM     96  F   UNL A   1      37.319  33.570  40.049  1.00  0.00    -0.200 F 
ENDBRANCH  63  86
ENDBRANCH  37  38
ENDBRANCH  30  32
ENDBRANCH  29  30
ENDBRANCH  28  29
ENDBRANCH  27  28
ENDBRANCH  26  27
ENDBRANCH  25  26
ENDBRANCH   1  25
TORSDOF 21
ENDMDL
MODEL 2
REMARK VINA RESULT:      -9.6      5.318     10.969
REMARK SMILES N#Cc1cc([N+](=O)[O-])cnc1Oc1csc(C(=O)OCCOCCOCCOC(=O)c2ccc(-c3c4nc(c(-c5c(F)c(F)c(F)c(F)c5F)c5ccc([nH]5)c(-c5c(F)c(F)c(F)c(F)c5F)c5nc(c(-c6c(F)c(F)c(F)c(F)c6F)c6ccc3[nH]6)C=C5)C=C4)cc2)c1
REMARK SMILES IDX 23 1 22 2 21 3 20 4 19 5 17 6 18 7 16 8 13 9 14 10 94 11
REMARK SMILES IDX 15 12 12 13 11 14 3 15 4 16 5 17 10 18 9 19 2 20 1 21 6 22
REMARK SMILES IDX 7 23 8 24 24 25 25 26 26 27 27 28 28 29 29 30 30 31 31 32
REMARK SMILES IDX 32 33 93 34 33 35 92 36 34 37 35 38 36 39 86 40 37 41 91 42
REMARK SMILES IDX 85 43 87 44 38 45 90 46 84 47 83 48 39 50 71 51 51 52 70 53
REMARK SMILES IDX 52 54 55 55 69 56 88 57 53 58 54 59 68 61 89 62 56 63 40 64
REMARK SMILES IDX 41 65 49 66 42 67 43 68 47 69 50 70 44 71 45 72 48 73 46 74
REMARK SMILES IDX 72 75 73 76 81 77 74 78 75 79 79 80 82 81 76 82 77 83 80 84
REMARK SMILES IDX 78 85 57 86 58 87 66 88 59 89 60 90 64 91 67 92 61 93 62 94
REMARK SMILES IDX 65 95 63 96
REMARK H PARENT 87 49 55 60
REMARK Flexibility Score: inf
ROOT
ATOM      1  C   UNL A   1      35.166  33.092  28.151  1.00  0.00     0.188 C 
ENDROOT
BRANCH   1   2
ATOM      2  O   UNL A   1      34.270  31.999  28.060  1.00  0.00    -0.376 OA
BRANCH   2   3
ATOM      3  C   UNL A   1      33.081  32.094  27.291  1.00  0.00     0.202 C 
BRANCH   3   4
ATOM      4  C   UNL A   1      32.309  30.871  26.754  1.00  0.00     0.261 C 
BRANCH   4   5
ATOM      5  O   UNL A   1      32.944  30.086  25.735  1.00  0.00    -0.459 OA
BRANCH   5   6
ATOM      6  C   UNL A   1      33.510  28.909  26.139  1.00  0.00     0.348 C 
ATOM      7  O   UNL A   1      34.599  28.822  26.689  1.00  0.00    -0.245 OA
BRANCH   6   8
ATOM      8  C   UNL A   1      32.567  27.820  25.934  1.00  0.00     0.116 A 
ATOM      9  C   UNL A   1      31.281  26.112  24.978  1.00  0.00     0.141 A 
ATOM     10  C   UNL A   1      30.663  26.247  26.201  1.00  0.00     0.112 A 
ATOM     11  C   UNL A   1      32.392  26.994  24.839  1.00  0.00     0.074 A 
ATOM     12  S   UNL A   1      31.402  27.475  27.149  1.00  0.00    -0.133 S 
BRANCH   9  13
ATOM     13  O   UNL A   1      30.977  25.217  24.011  1.00  0.00    -0.437 OA
BRANCH  13  14
ATOM     14  C   UNL A   1      31.504  23.960  23.855  1.00  0.00     0.237 A 
ATOM     15  C   UNL A   1      32.478  23.604  22.923  1.00  0.00     0.121 A 
ATOM     16  C   UNL A   1      33.103  22.350  23.051  1.00  0.00     0.112 A 
ATOM     17  C   UNL A   1      32.755  21.514  24.114  1.00  0.00     0.289 A 
ATOM     18  N   UNL A   1      31.152  23.133  24.878  1.00  0.00    -0.213 NA
ATOM     19  C   UNL A   1      31.777  21.934  24.994  1.00  0.00     0.200 A 
BRANCH  15  20
ATOM     20  C   UNL A   1      32.915  24.471  21.875  1.00  0.00     0.105 C 
ATOM     21  N   UNL A   1      33.269  25.137  20.998  1.00  0.00    -0.192 NA
ENDBRANCH  15  20
BRANCH  17  22
ATOM     22  N   UNL A   1      33.427  20.241  24.325  1.00  0.00     0.064 N 
ATOM     23  O   UNL A   1      34.501  20.251  24.941  1.00  0.00    -0.258 OA
ATOM     24  O   UNL A   1      32.883  19.227  23.866  1.00  0.00    -0.258 OA
ENDBRANCH  17  22
ENDBRANCH  13  14
ENDBRANCH   9  13
ENDBRANCH   6   8
ENDBRANCH   5   6
ENDBRANCH   4   5
ENDBRANCH   3   4
ENDBRANCH   2   3
ENDBRANCH   1   2
BRANCH   1  25
ATOM     25  C   UNL A   1      35.281  33.888  29.467  1.00  0.00     0.188 C 
BRANCH  25  26
ATOM     26  O   UNL A   1      34.060  34.119  30.129  1.00  0.00    -0.376 OA
BRANCH  26  27
ATOM     27  C   UNL A   1      34.067  34.439  31.511  1.00  0.00     0.202 C 
BRANCH  27  28
ATOM     28  C   UNL A   1      35.111  33.962  32.548  1.00  0.00     0.261 C 
BRANCH  28  29
ATOM     29  O   UNL A   1      36.318  33.346  32.085  1.00  0.00    -0.460 OA
BRANCH  29  30
ATOM     30  C   UNL A   1      36.770  32.305  32.822  1.00  0.00     0.338 C 
ATOM     31  O   UNL A   1      36.383  31.957  33.924  1.00  0.00    -0.246 OA
BRANCH  30  32
ATOM     32  C   UNL A   1      37.719  31.512  32.016  1.00  0.00     0.060 A 
ATOM     33  C   UNL A   1      38.837  30.963  32.654  1.00  0.00     0.016 A 
ATOM     34  C   UNL A   1      37.562  31.385  30.637  1.00  0.00     0.016 A 
ATOM     35  C   UNL A   1      39.831  30.332  31.913  1.00  0.00     0.010 A 
ATOM     36  C   UNL A   1      38.571  30.767  29.889  1.00  0.00     0.010 A 
ATOM     37  C   UNL A   1      39.733  30.282  30.518  1.00  0.00    -0.014 A 
BRANCH  37  38
ATOM     38  C   UNL A   1      40.939  29.929  29.726  1.00  0.00     0.031 A 
ATOM     39  C   UNL A   1      41.034  28.546  29.140  1.00  0.00     0.074 A 
ATOM     40  C   UNL A   1      41.898  30.836  29.469  1.00  0.00     0.049 A 
ATOM     41  N   UNL A   1      41.991  28.003  28.429  1.00  0.00    -0.248 NA
ATOM     42  C   UNL A   1      39.894  27.649  29.393  1.00  0.00     0.031 C 
ATOM     43  C   UNL A   1      41.902  32.219  29.938  1.00  0.00     0.029 A 
ATOM     44  N   UNL A   1      43.061  30.721  28.747  1.00  0.00    -0.354 N 
ATOM     45  C   UNL A   1      41.568  26.708  28.153  1.00  0.00     0.074 A 
ATOM     46  C   UNL A   1      40.297  26.526  28.818  1.00  0.00     0.031 C 
ATOM     47  C   UNL A   1      43.022  32.823  29.504  1.00  0.00     0.029 A 
ATOM     48  C   UNL A   1      43.826  31.861  28.754  1.00  0.00     0.049 A 
ATOM     49  H   UNL A   1      43.320  29.900  28.269  1.00  0.00     0.167 HD
ATOM     50  C   UNL A   1      42.172  25.761  27.396  1.00  0.00     0.037 A 
ATOM     51  C   UNL A   1      45.049  32.088  28.235  1.00  0.00     0.037 A 
ATOM     52  C   UNL A   1      43.443  25.939  26.742  1.00  0.00     0.049 A 
ATOM     53  C   UNL A   1      45.740  30.989  27.464  1.00  0.00     0.074 A 
ATOM     54  C   UNL A   1      44.148  25.038  25.962  1.00  0.00     0.029 A 
ATOM     55  N   UNL A   1      44.204  27.099  26.796  1.00  0.00    -0.354 N 
ATOM     56  N   UNL A   1      45.331  29.772  27.199  1.00  0.00    -0.248 NA
ATOM     57  C   UNL A   1      47.061  31.308  26.904  1.00  0.00     0.031 C 
ATOM     58  C   UNL A   1      45.362  25.629  25.597  1.00  0.00     0.029 A 
ATOM     59  C   UNL A   1      45.377  26.929  26.077  1.00  0.00     0.049 A 
ATOM     60  H   UNL A   1      43.948  27.921  27.274  1.00  0.00     0.167 HD
ATOM     61  C   UNL A   1      46.321  29.196  26.411  1.00  0.00     0.074 A 
ATOM     62  C   UNL A   1      47.339  30.207  26.223  1.00  0.00     0.031 C 
ATOM     63  C   UNL A   1      46.383  27.945  25.889  1.00  0.00     0.037 A 
BRANCH  50  64
ATOM     64  C   UNL A   1      41.473  24.439  27.250  1.00  0.00     0.064 A 
ATOM     65  C   UNL A   1      41.945  23.279  27.885  1.00  0.00     0.173 A 
ATOM     66  C   UNL A   1      40.297  24.334  26.491  1.00  0.00     0.173 A 
ATOM     67  F   UNL A   1      43.073  23.318  28.611  1.00  0.00    -0.203 F 
ATOM     68  C   UNL A   1      41.286  22.062  27.741  1.00  0.00     0.198 A 
ATOM     69  C   UNL A   1      39.618  23.123  26.381  1.00  0.00     0.198 A 
ATOM     70  F   UNL A   1      39.796  25.410  25.865  1.00  0.00    -0.203 F 
ATOM     71  F   UNL A   1      41.787  20.958  28.311  1.00  0.00    -0.200 F 
ATOM     72  C   UNL A   1      40.118  21.987  26.997  1.00  0.00     0.200 A 
ATOM     73  F   UNL A   1      38.480  23.058  25.677  1.00  0.00    -0.200 F 
ATOM     74  F   UNL A   1      39.476  20.817  26.870  1.00  0.00    -0.200 F 
ENDBRANCH  50  64
BRANCH  51  75
ATOM     75  C   UNL A   1      45.718  33.403  28.442  1.00  0.00     0.064 A 
ATOM     76  C   UNL A   1      45.694  34.399  27.456  1.00  0.00     0.173 A 
ATOM     77  C   UNL A   1      46.443  33.668  29.614  1.00  0.00     0.173 A 
ATOM     78  F   UNL A   1      45.037  34.190  26.306  1.00  0.00    -0.203 F 
ATOM     79  C   UNL A   1      46.400  35.591  27.617  1.00  0.00     0.198 A 
ATOM     80  C   UNL A   1      47.114  34.875  29.791  1.00  0.00     0.198 A 
ATOM     81  F   UNL A   1      46.502  32.749  30.590  1.00  0.00    -0.203 F 
ATOM     82  F   UNL A   1      46.421  36.493  26.626  1.00  0.00    -0.200 F 
ATOM     83  C   UNL A   1      47.106  35.829  28.787  1.00  0.00     0.200 A 
ATOM     84  F   UNL A   1      47.782  35.106  30.930  1.00  0.00    -0.200 F 
ATOM     85  F   UNL A   1      47.788  36.972  28.939  1.00  0.00    -0.200 F 
ENDBRANCH  51  75
BRANCH  63  86
ATOM     86  C   UNL A   1      47.559  27.624  25.004  1.00  0.00     0.064 A 
ATOM     87  C   UNL A   1      47.529  27.823  23.615  1.00  0.00     0.173 A 
ATOM     88  C   UNL A   1      48.738  27.102  25.560  1.00  0.00     0.173 A 
ATOM     89  F   UNL A   1      46.427  28.316  23.027  1.00  0.00    -0.203 F 
ATOM     90  C   UNL A   1      48.604  27.453  22.812  1.00  0.00     0.198 A 
ATOM     91  C   UNL A   1      49.830  26.777  24.760  1.00  0.00     0.198 A 
ATOM     92  F   UNL A   1      48.835  26.904  26.883  1.00  0.00    -0.203 F 
ATOM     93  F   UNL A   1      48.515  27.569  21.480  1.00  0.00    -0.200 F 
ATOM     94  C   UNL A   1      49.755  26.933  23.385  1.00  0.00     0.200 A 
ATOM     95  F   UNL A   1      50.950  26.299  25.319  1.00  0.00    -0.200 F 
ATOM     96  F   UNL A   1      50.788  26.572  22.610  1.00  0.00    -0.200 F 
ENDBRANCH  63  86
ENDBRANCH  37  38
ENDBRANCH  30  32
ENDBRANCH  29  30
ENDBRANCH  28  29
ENDBRANCH  27  28
ENDBRANCH  26  27
ENDBRANCH  25  26
ENDBRANCH   1  25
TORSDOF 21
ENDMDL
MODEL 3
REMARK VINA RESULT:      -9.5      5.160      9.811
REMARK SMILES N#Cc1cc([N+](=O)[O-])cnc1Oc1csc(C(=O)OCCOCCOCCOC(=O)c2ccc(-c3c4nc(c(-c5c(F)c(F)c(F)c(F)c5F)c5ccc([nH]5)c(-c5c(F)c(F)c(F)c(F)c5F)c5nc(c(-c6c(F)c(F)c(F)c(F)c6F)c6ccc3[nH]6)C=C5)C=C4)cc2)c1
REMARK SMILES IDX 23 1 22 2 21 3 20 4 19 5 17 6 18 7 16 8 13 9 14 10 94 11
REMARK SMILES IDX 15 12 12 13 11 14 3 15 4 16 5 17 10 18 9 19 2 20 1 21 6 22
REMARK SMILES IDX 7 23 8 24 24 25 25 26 26 27 27 28 28 29 29 30 30 31 31 32
REMARK SMILES IDX 32 33 93 34 33 35 92 36 34 37 35 38 36 39 86 40 37 41 91 42
REMARK SMILES IDX 85 43 87 44 38 45 90 46 84 47 83 48 39 50 71 51 51 52 70 53
REMARK SMILES IDX 52 54 55 55 69 56 88 57 53 58 54 59 68 61 89 62 56 63 40 64
REMARK SMILES IDX 41 65 49 66 42 67 43 68 47 69 50 70 44 71 45 72 48 73 46 74
REMARK SMILES IDX 72 75 73 76 81 77 74 78 75 79 79 80 82 81 76 82 77 83 80 84
REMARK SMILES IDX 78 85 57 86 58 87 66 88 59 89 60 90 64 91 67 92 61 93 62 94
REMARK SMILES IDX 65 95 63 96
REMARK H PARENT 87 49 55 60
REMARK Flexibility Score: inf
ROOT
ATOM      1  C   UNL A   1      46.740  28.171  24.365  1.00  0.00     0.188 C 
ENDROOT
BRANCH   1   2
ATOM      2  O   UNL A   1      45.455  27.665  24.681  1.00  0.00    -0.376 OA
BRANCH   2   3
ATOM      3  C   UNL A   1      45.014  27.590  26.027  1.00  0.00     0.202 C 
BRANCH   3   4
ATOM      4  C   UNL A   1      43.611  28.034  26.494  1.00  0.00     0.261 C 
BRANCH   4   5
ATOM      5  O   UNL A   1      43.352  28.027  27.905  1.00  0.00    -0.459 OA
BRANCH   5   6
ATOM      6  C   UNL A   1      42.052  27.838  28.283  1.00  0.00     0.348 C 
ATOM      7  O   UNL A   1      41.264  28.744  28.519  1.00  0.00    -0.245 OA
BRANCH   6   8
ATOM      8  C   UNL A   1      41.731  26.420  28.228  1.00  0.00     0.116 A 
ATOM      9  C   UNL A   1      41.881  24.086  28.095  1.00  0.00     0.141 A 
ATOM     10  C   UNL A   1      40.527  24.269  27.924  1.00  0.00     0.112 A 
ATOM     11  C   UNL A   1      42.566  25.320  28.300  1.00  0.00     0.074 A 
ATOM     12  S   UNL A   1      40.105  25.934  27.962  1.00  0.00    -0.133 S 
BRANCH   9  13
ATOM     13  O   UNL A   1      42.539  22.907  28.155  1.00  0.00    -0.437 OA
BRANCH  13  14
ATOM     14  C   UNL A   1      43.032  22.181  27.100  1.00  0.00     0.237 A 
ATOM     15  C   UNL A   1      44.305  22.323  26.548  1.00  0.00     0.121 A 
ATOM     16  C   UNL A   1      44.760  21.343  25.648  1.00  0.00     0.112 A 
ATOM     17  C   UNL A   1      43.944  20.249  25.355  1.00  0.00     0.289 A 
ATOM     18  N   UNL A   1      42.231  21.123  26.795  1.00  0.00    -0.213 NA
ATOM     19  C   UNL A   1      42.693  20.179  25.937  1.00  0.00     0.200 A 
BRANCH  15  20
ATOM     20  C   UNL A   1      45.194  23.388  26.893  1.00  0.00     0.105 C 
ATOM     21  N   UNL A   1      45.880  24.278  27.165  1.00  0.00    -0.192 NA
ENDBRANCH  15  20
BRANCH  17  22
ATOM     22  N   UNL A   1      44.404  19.175  24.485  1.00  0.00     0.064 N 
ATOM     23  O   UNL A   1      44.648  18.078  25.004  1.00  0.00    -0.258 OA
ATOM     24  O   UNL A   1      44.528  19.433  23.281  1.00  0.00    -0.258 OA
ENDBRANCH  17  22
ENDBRANCH  13  14
ENDBRANCH   9  13
ENDBRANCH   6   8
ENDBRANCH   5   6
ENDBRANCH   4   5
ENDBRANCH   3   4
ENDBRANCH   2   3
ENDBRANCH   1   2
BRANCH   1  25
ATOM     25  C   UNL A   1      47.991  27.301  24.602  1.00  0.00     0.188 C 
BRANCH  25  26
ATOM     26  O   UNL A   1      49.196  28.018  24.733  1.00  0.00    -0.376 OA
BRANCH  26  27
ATOM     27  C   UNL A   1      50.288  27.707  23.882  1.00  0.00     0.202 C 
BRANCH  27  28
ATOM     28  C   UNL A   1      51.583  26.972  24.300  1.00  0.00     0.261 C 
BRANCH  28  29
ATOM     29  O   UNL A   1      52.132  27.216  25.599  1.00  0.00    -0.460 OA
BRANCH  29  30
ATOM     30  C   UNL A   1      52.055  26.188  26.476  1.00  0.00     0.338 C 
ATOM     31  O   UNL A   1      52.822  25.247  26.579  1.00  0.00    -0.246 OA
BRANCH  30  32
ATOM     32  C   UNL A   1      50.971  26.450  27.442  1.00  0.00     0.060 A 
ATOM     33  C   UNL A   1      49.798  25.693  27.347  1.00  0.00     0.016 A 
ATOM     34  C   UNL A   1      51.067  27.487  28.369  1.00  0.00     0.016 A 
ATOM     35  C   UNL A   1      48.695  25.999  28.139  1.00  0.00     0.010 A 
ATOM     36  C   UNL A   1      49.952  27.808  29.153  1.00  0.00     0.010 A 
ATOM     37  C   UNL A   1      48.745  27.097  29.005  1.00  0.00    -0.014 A 
BRANCH  37  38
ATOM     38  C   UNL A   1      47.477  27.621  29.573  1.00  0.00     0.031 A 
ATOM     39  C   UNL A   1      46.848  26.885  30.726  1.00  0.00     0.074 A 
ATOM     40  C   UNL A   1      46.929  28.765  29.126  1.00  0.00     0.049 A 
ATOM     41  N   UNL A   1      45.739  27.139  31.376  1.00  0.00    -0.248 NA
ATOM     42  C   UNL A   1      47.566  25.695  31.211  1.00  0.00     0.031 C 
ATOM     43  C   UNL A   1      47.463  29.594  28.050  1.00  0.00     0.029 A 
ATOM     44  N   UNL A   1      45.793  29.425  29.529  1.00  0.00    -0.354 N 
ATOM     45  C   UNL A   1      45.630  26.145  32.340  1.00  0.00     0.074 A 
ATOM     46  C   UNL A   1      46.752  25.251  32.157  1.00  0.00     0.031 C 
ATOM     47  C   UNL A   1      46.648  30.647  27.865  1.00  0.00     0.029 A 
ATOM     48  C   UNL A   1      45.520  30.548  28.789  1.00  0.00     0.049 A 
ATOM     49  H   UNL A   1      45.229  29.120  30.276  1.00  0.00     0.167 HD
ATOM     50  C   UNL A   1      44.692  26.000  33.307  1.00  0.00     0.037 A 
ATOM     51  C   UNL A   1      44.463  31.383  28.837  1.00  0.00     0.037 A 
ATOM     52  C   UNL A   1      43.569  26.885  33.483  1.00  0.00     0.049 A 
ATOM     53  C   UNL A   1      43.388  31.154  29.871  1.00  0.00     0.074 A 
ATOM     54  C   UNL A   1      42.556  26.820  34.424  1.00  0.00     0.029 A 
ATOM     55  N   UNL A   1      43.310  27.998  32.695  1.00  0.00    -0.354 N 
ATOM     56  N   UNL A   1      43.295  30.219  30.786  1.00  0.00    -0.248 NA
ATOM     57  C   UNL A   1      42.274  32.113  29.887  1.00  0.00     0.031 C 
ATOM     58  C   UNL A   1      41.650  27.853  34.166  1.00  0.00     0.029 A 
ATOM     59  C   UNL A   1      42.143  28.615  33.119  1.00  0.00     0.049 A 
ATOM     60  H   UNL A   1      43.871  28.303  31.946  1.00  0.00     0.167 HD
ATOM     61  C   UNL A   1      42.143  30.500  31.509  1.00  0.00     0.074 A 
ATOM     62  C   UNL A   1      41.581  31.706  30.940  1.00  0.00     0.031 C 
ATOM     63  C   UNL A   1      41.596  29.822  32.551  1.00  0.00     0.037 A 
BRANCH  50  64
ATOM     64  C   UNL A   1      44.831  24.830  34.239  1.00  0.00     0.064 A 
ATOM     65  C   UNL A   1      44.439  23.535  33.862  1.00  0.00     0.173 A 
ATOM     66  C   UNL A   1      45.394  24.995  35.514  1.00  0.00     0.173 A 
ATOM     67  F   UNL A   1      43.883  23.320  32.660  1.00  0.00    -0.203 F 
ATOM     68  C   UNL A   1      44.576  22.460  34.736  1.00  0.00     0.198 A 
ATOM     69  C   UNL A   1      45.565  23.911  36.371  1.00  0.00     0.198 A 
ATOM     70  F   UNL A   1      45.791  26.209  35.927  1.00  0.00    -0.203 F 
ATOM     71  F   UNL A   1      44.142  21.245  34.374  1.00  0.00    -0.200 F 
ATOM     72  C   UNL A   1      45.147  22.647  35.986  1.00  0.00     0.200 A 
ATOM     73  F   UNL A   1      46.133  24.091  37.571  1.00  0.00    -0.200 F 
ATOM     74  F   UNL A   1      45.290  21.609  36.821  1.00  0.00    -0.200 F 
ENDBRANCH  50  64
BRANCH  51  75
ATOM     75  C   UNL A   1      44.351  32.507  27.865  1.00  0.00     0.064 A 
ATOM     76  C   UNL A   1      44.601  33.832  28.247  1.00  0.00     0.173 A 
ATOM     77  C   UNL A   1      43.938  32.279  26.544  1.00  0.00     0.173 A 
ATOM     78  F   UNL A   1      44.975  34.110  29.505  1.00  0.00    -0.203 F 
ATOM     79  C   UNL A   1      44.403  34.888  27.358  1.00  0.00     0.198 A 
ATOM     80  C   UNL A   1      43.780  33.331  25.644  1.00  0.00     0.198 A 
ATOM     81  F   UNL A   1      43.683  31.030  26.125  1.00  0.00    -0.203 F 
ATOM     82  F   UNL A   1      44.575  36.151  27.773  1.00  0.00    -0.200 F 
ATOM     83  C   UNL A   1      43.998  34.636  26.056  1.00  0.00     0.200 A 
ATOM     84  F   UNL A   1      43.403  33.079  24.384  1.00  0.00    -0.200 F 
ATOM     85  F   UNL A   1      43.803  35.651  25.204  1.00  0.00    -0.200 F 
ENDBRANCH  51  75
BRANCH  63  86
ATOM     86  C   UNL A   1      40.365  30.412  33.188  1.00  0.00     0.064 A 
ATOM     87  C   UNL A   1      39.068  30.056  32.785  1.00  0.00     0.173 A 
ATOM     88  C   UNL A   1      40.489  31.357  34.220  1.00  0.00     0.173 A 
ATOM     89  F   UNL A   1      38.888  29.162  31.801  1.00  0.00    -0.203 F 
ATOM     90  C   UNL A   1      37.949  30.669  33.343  1.00  0.00     0.198 A 
ATOM     91  C   UNL A   1      39.366  31.932  34.808  1.00  0.00     0.198 A 
ATOM     92  F   UNL A   1      41.700  31.725  34.661  1.00  0.00    -0.203 F 
ATOM     93  F   UNL A   1      36.726  30.378  32.877  1.00  0.00    -0.200 F 
ATOM     94  C   UNL A   1      38.098  31.604  34.356  1.00  0.00     0.200 A 
ATOM     95  F   UNL A   1      39.513  32.816  35.805  1.00  0.00    -0.200 F 
ATOM     96  F   UNL A   1      37.020  32.197  34.888  1.00  0.00    -0.200 F 
ENDBRANCH  63  86
ENDBRANCH  37  38
ENDBRANCH  30  32
ENDBRANCH  29  30
ENDBRANCH  28  29
ENDBRANCH  27  28
ENDBRANCH  26  27
ENDBRANCH  25  26
ENDBRANCH   1  25
TORSDOF 21
ENDMDL
