MODEL 1
REMARK VINA RESULT:     -10.9      0.000      0.000
REMARK SMILES C[C@H](Nc1ncccc1C(=O)OCCOCCOCCOC(=O)c1ccc(-c2c3nc(c(-c4c(F)c(F)c(F)c(F)c4F)c4ccc([nH]4)c(-c4c(F)c(F)c(F)c(F)c4F)c4nc(c(-c5c(F)c(F)c(F)c(F)c5F)c5ccc2[nH]5)C=C4)C=C3)cc1)c1ccc(Cl)cc1
REMARK SMILES IDX 16 1 15 2 14 3 13 4 12 5 10 6 11 7 9 8 4 9 5 10 6 11 8 12
REMARK SMILES IDX 7 13 3 14 2 16 1 17 87 18 88 19 93 20 89 21 92 22 90 23
REMARK SMILES IDX 91 24 17 25 18 26 19 27 20 28 21 29 22 30 23 31 24 32 25 33
REMARK SMILES IDX 86 34 26 35 85 36 27 37 28 38 29 39 79 40 30 41 84 42 78 43
REMARK SMILES IDX 80 44 31 45 83 46 77 47 76 48 32 50 64 51 44 52 63 53 45 54
REMARK SMILES IDX 48 55 62 56 81 57 46 58 47 59 61 61 82 62 49 63 33 64 34 65
REMARK SMILES IDX 42 66 35 67 36 68 40 69 43 70 37 71 38 72 41 73 39 74 65 75
REMARK SMILES IDX 66 76 74 77 67 78 68 79 72 80 75 81 69 82 70 83 73 84 71 85
REMARK SMILES IDX 50 86 51 87 59 88 52 89 53 90 57 91 60 92 54 93 55 94 58 95
REMARK SMILES IDX 56 96
REMARK H PARENT 3 15 80 49 48 60
REMARK Flexibility Score: inf
ROOT
ATOM      1  C   UNL A   1      31.765  27.703  23.337  1.00  0.00     0.188 C 
ENDROOT
BRANCH   1   2
ATOM      2  O   UNL A   1      32.935  27.913  22.546  1.00  0.00    -0.376 OA
BRANCH   2   3
ATOM      3  C   UNL A   1      33.506  26.721  22.010  1.00  0.00     0.202 C 
BRANCH   3   4
ATOM      4  C   UNL A   1      32.750  25.499  22.527  1.00  0.00     0.261 C 
BRANCH   4   5
ATOM      5  O   UNL A   1      33.650  24.558  23.138  1.00  0.00    -0.460 OA
BRANCH   5   6
ATOM      6  C   UNL A   1      33.860  24.709  24.473  1.00  0.00     0.341 C 
ATOM      7  O   UNL A   1      34.833  25.211  24.986  1.00  0.00    -0.246 OA
BRANCH   6   8
ATOM      8  C   UNL A   1      32.645  24.208  25.165  1.00  0.00     0.102 A 
ATOM      9  C   UNL A   1      32.223  22.883  25.035  1.00  0.00     0.141 A 
ATOM     10  N   UNL A   1      31.102  22.428  25.645  1.00  0.00    -0.239 NA
ATOM     11  C   UNL A   1      30.404  23.284  26.423  1.00  0.00     0.113 A 
ATOM     12  C   UNL A   1      31.890  25.076  25.967  1.00  0.00     0.021 A 
ATOM     13  C   UNL A   1      30.756  24.604  26.617  1.00  0.00     0.021 A 
BRANCH   9  14
ATOM     14  N   UNL A   1      32.956  21.900  24.372  1.00  0.00    -0.363 N 
ATOM     15  H   UNL A   1      33.940  21.892  24.339  1.00  0.00     0.162 HD
BRANCH  14  16
ATOM     16  C   UNL A   1      32.121  20.880  23.727  1.00  0.00     0.108 C 
ATOM     17  C   UNL A   1      32.154  21.101  22.215  1.00  0.00     0.036 C 
BRANCH  16  18
ATOM     18  C   UNL A   1      32.532  19.463  24.123  1.00  0.00    -0.026 A 
ATOM     19  C   UNL A   1      32.664  18.487  23.120  1.00  0.00     0.007 A 
ATOM     20  C   UNL A   1      32.690  19.049  25.452  1.00  0.00     0.007 A 
ATOM     21  C   UNL A   1      32.875  17.139  23.424  1.00  0.00     0.021 A 
ATOM     22  C   UNL A   1      32.901  17.698  25.765  1.00  0.00     0.021 A 
ATOM     23  C   UNL A   1      32.971  16.748  24.751  1.00  0.00     0.041 A 
ATOM     24  Cl  UNL A   1      33.124  15.080  25.141  1.00  0.00    -0.084 Cl
ENDBRANCH  16  18
ENDBRANCH  14  16
ENDBRANCH   9  14
ENDBRANCH   6   8
ENDBRANCH   5   6
ENDBRANCH   4   5
ENDBRANCH   3   4
ENDBRANCH   2   3
ENDBRANCH   1   2
BRANCH   1  25
ATOM     25  C   UNL A   1      30.786  28.881  23.257  1.00  0.00     0.188 C 
BRANCH  25  26
ATOM     26  O   UNL A   1      30.633  29.785  24.348  1.00  0.00    -0.376 OA
BRANCH  26  27
ATOM     27  C   UNL A   1      31.671  29.884  25.306  1.00  0.00     0.202 C 
BRANCH  27  28
ATOM     28  C   UNL A   1      31.633  31.180  26.125  1.00  0.00     0.261 C 
BRANCH  28  29
ATOM     29  O   UNL A   1      32.377  31.152  27.358  1.00  0.00    -0.460 OA
BRANCH  29  30
ATOM     30  C   UNL A   1      33.214  32.201  27.558  1.00  0.00     0.338 C 
ATOM     31  O   UNL A   1      32.954  33.387  27.462  1.00  0.00    -0.246 OA
BRANCH  30  32
ATOM     32  C   UNL A   1      34.552  31.711  27.964  1.00  0.00     0.060 A 
ATOM     33  C   UNL A   1      34.728  30.340  28.187  1.00  0.00     0.016 A 
ATOM     34  C   UNL A   1      35.609  32.597  28.207  1.00  0.00     0.016 A 
ATOM     35  C   UNL A   1      35.957  29.859  28.658  1.00  0.00     0.010 A 
ATOM     36  C   UNL A   1      36.838  32.112  28.685  1.00  0.00     0.010 A 
ATOM     37  C   UNL A   1      37.022  30.741  28.925  1.00  0.00    -0.014 A 
BRANCH  37  38
ATOM     38  C   UNL A   1      38.245  30.235  29.611  1.00  0.00     0.031 A 
ATOM     39  C   UNL A   1      38.474  30.628  31.043  1.00  0.00     0.074 A 
ATOM     40  C   UNL A   1      39.135  29.422  29.008  1.00  0.00     0.049 A 
ATOM     41  N   UNL A   1      39.433  30.274  31.861  1.00  0.00    -0.248 NA
ATOM     42  C   UNL A   1      37.505  31.572  31.619  1.00  0.00     0.031 C 
ATOM     43  C   UNL A   1      39.079  29.001  27.617  1.00  0.00     0.029 A 
ATOM     44  N   UNL A   1      40.247  28.777  29.501  1.00  0.00    -0.354 N 
ATOM     45  C   UNL A   1      39.197  30.967  33.039  1.00  0.00     0.074 A 
ATOM     46  C   UNL A   1      38.004  31.762  32.829  1.00  0.00     0.031 C 
ATOM     47  C   UNL A   1      40.040  28.090  27.387  1.00  0.00     0.029 A 
ATOM     48  C   UNL A   1      40.840  27.924  28.597  1.00  0.00     0.049 A 
ATOM     49  H   UNL A   1      40.587  28.914  30.415  1.00  0.00     0.167 HD
ATOM     50  C   UNL A   1      39.917  30.961  34.185  1.00  0.00     0.037 A 
ATOM     51  C   UNL A   1      41.911  27.112  28.726  1.00  0.00     0.037 A 
ATOM     52  C   UNL A   1      41.123  30.204  34.391  1.00  0.00     0.049 A 
ATOM     53  C   UNL A   1      42.695  27.125  30.015  1.00  0.00     0.074 A 
ATOM     54  C   UNL A   1      41.931  30.160  35.514  1.00  0.00     0.029 A 
ATOM     55  N   UNL A   1      41.703  29.369  33.448  1.00  0.00    -0.354 N 
ATOM     56  N   UNL A   1      42.447  27.765  31.132  1.00  0.00    -0.248 NA
ATOM     57  C   UNL A   1      43.931  26.326  30.048  1.00  0.00     0.031 C 
ATOM     58  C   UNL A   1      43.025  29.335  35.234  1.00  0.00     0.029 A 
ATOM     59  C   UNL A   1      42.870  28.821  33.958  1.00  0.00     0.049 A 
ATOM     60  H   UNL A   1      41.342  29.193  32.550  1.00  0.00     0.167 HD
ATOM     61  C   UNL A   1      43.489  27.447  31.995  1.00  0.00     0.074 A 
ATOM     62  C   UNL A   1      44.353  26.525  31.290  1.00  0.00     0.031 C 
ATOM     63  C   UNL A   1      43.719  27.896  33.253  1.00  0.00     0.037 A 
BRANCH  50  64
ATOM     64  C   UNL A   1      39.440  31.858  35.287  1.00  0.00     0.064 A 
ATOM     65  C   UNL A   1      39.851  33.195  35.377  1.00  0.00     0.173 A 
ATOM     66  C   UNL A   1      38.568  31.367  36.270  1.00  0.00     0.173 A 
ATOM     67  F   UNL A   1      40.702  33.702  34.473  1.00  0.00    -0.203 F 
ATOM     68  C   UNL A   1      39.430  34.001  36.431  1.00  0.00     0.198 A 
ATOM     69  C   UNL A   1      38.126  32.184  37.306  1.00  0.00     0.198 A 
ATOM     70  F   UNL A   1      38.149  30.093  36.227  1.00  0.00    -0.203 F 
ATOM     71  F   UNL A   1      39.881  35.260  36.531  1.00  0.00    -0.200 F 
ATOM     72  C   UNL A   1      38.565  33.497  37.391  1.00  0.00     0.200 A 
ATOM     73  F   UNL A   1      37.285  31.697  38.228  1.00  0.00    -0.200 F 
ATOM     74  F   UNL A   1      38.163  34.273  38.407  1.00  0.00    -0.200 F 
ENDBRANCH  50  64
BRANCH  51  75
ATOM     75  C   UNL A   1      42.341  26.226  27.606  1.00  0.00     0.064 A 
ATOM     76  C   UNL A   1      41.799  24.938  27.459  1.00  0.00     0.173 A 
ATOM     77  C   UNL A   1      43.339  26.612  26.700  1.00  0.00     0.173 A 
ATOM     78  F   UNL A   1      40.867  24.504  28.320  1.00  0.00    -0.203 F 
ATOM     79  C   UNL A   1      42.255  24.069  26.470  1.00  0.00     0.198 A 
ATOM     80  C   UNL A   1      43.768  25.756  25.688  1.00  0.00     0.198 A 
ATOM     81  F   UNL A   1      43.903  27.825  26.800  1.00  0.00    -0.203 F 
ATOM     82  F   UNL A   1      41.766  22.823  26.398  1.00  0.00    -0.200 F 
ATOM     83  C   UNL A   1      43.236  24.480  25.580  1.00  0.00     0.200 A 
ATOM     84  F   UNL A   1      44.710  26.161  24.826  1.00  0.00    -0.200 F 
ATOM     85  F   UNL A   1      43.679  23.644  24.633  1.00  0.00    -0.200 F 
ENDBRANCH  51  75
BRANCH  63  86
ATOM     86  C   UNL A   1      44.939  27.383  33.964  1.00  0.00     0.064 A 
ATOM     87  C   UNL A   1      46.179  28.033  33.861  1.00  0.00     0.173 A 
ATOM     88  C   UNL A   1      44.854  26.261  34.802  1.00  0.00     0.173 A 
ATOM     89  F   UNL A   1      46.318  29.101  33.063  1.00  0.00    -0.203 F 
ATOM     90  C   UNL A   1      47.292  27.565  34.557  1.00  0.00     0.198 A 
ATOM     91  C   UNL A   1      45.962  25.814  35.518  1.00  0.00     0.198 A 
ATOM     92  F   UNL A   1      43.691  25.607  34.940  1.00  0.00    -0.203 F 
ATOM     93  F   UNL A   1      48.476  28.177  34.412  1.00  0.00    -0.200 F 
ATOM     94  C   UNL A   1      47.181  26.462  35.390  1.00  0.00     0.200 A 
ATOM     95  F   UNL A   1      45.849  24.756  36.333  1.00  0.00    -0.200 F 
ATOM     96  F   UNL A   1      48.250  26.022  36.067  1.00  0.00    -0.200 F 
ENDBRANCH  63  86
ENDBRANCH  37  38
ENDBRANCH  30  32
ENDBRANCH  29  30
ENDBRANCH  28  29
ENDBRANCH  27  28
ENDBRANCH  26  27
ENDBRANCH  25  26
ENDBRANCH   1  25
TORSDOF 20
ENDMDL
MODEL 2
REMARK VINA RESULT:     -10.8      2.885      4.679
REMARK SMILES C[C@H](Nc1ncccc1C(=O)OCCOCCOCCOC(=O)c1ccc(-c2c3nc(c(-c4c(F)c(F)c(F)c(F)c4F)c4ccc([nH]4)c(-c4c(F)c(F)c(F)c(F)c4F)c4nc(c(-c5c(F)c(F)c(F)c(F)c5F)c5ccc2[nH]5)C=C4)C=C3)cc1)c1ccc(Cl)cc1
REMARK SMILES IDX 16 1 15 2 14 3 13 4 12 5 10 6 11 7 9 8 4 9 5 10 6 11 8 12
REMARK SMILES IDX 7 13 3 14 2 16 1 17 87 18 88 19 93 20 89 21 92 22 90 23
REMARK SMILES IDX 91 24 17 25 18 26 19 27 20 28 21 29 22 30 23 31 24 32 25 33
REMARK SMILES IDX 86 34 26 35 85 36 27 37 28 38 29 39 79 40 30 41 84 42 78 43
REMARK SMILES IDX 80 44 31 45 83 46 77 47 76 48 32 50 64 51 44 52 63 53 45 54
REMARK SMILES IDX 48 55 62 56 81 57 46 58 47 59 61 61 82 62 49 63 33 64 34 65
REMARK SMILES IDX 42 66 35 67 36 68 40 69 43 70 37 71 38 72 41 73 39 74 65 75
REMARK SMILES IDX 66 76 74 77 67 78 68 79 72 80 75 81 69 82 70 83 73 84 71 85
REMARK SMILES IDX 50 86 51 87 59 88 52 89 53 90 57 91 60 92 54 93 55 94 58 95
REMARK SMILES IDX 56 96
REMARK H PARENT 3 15 80 49 48 60
REMARK Flexibility Score: inf
ROOT
ATOM      1  C   UNL A   1      34.962  31.577  28.475  1.00  0.00     0.188 C 
ENDROOT
BRANCH   1   2
ATOM      2  O   UNL A   1      34.226  31.318  27.280  1.00  0.00    -0.376 OA
BRANCH   2   3
ATOM      3  C   UNL A   1      33.368  30.180  27.350  1.00  0.00     0.202 C 
BRANCH   3   4
ATOM      4  C   UNL A   1      33.900  29.067  26.450  1.00  0.00     0.261 C 
BRANCH   4   5
ATOM      5  O   UNL A   1      33.053  28.884  25.303  1.00  0.00    -0.460 OA
BRANCH   5   6
ATOM      6  C   UNL A   1      33.273  27.762  24.567  1.00  0.00     0.341 C 
ATOM      7  O   UNL A   1      34.046  27.662  23.642  1.00  0.00    -0.246 OA
BRANCH   6   8
ATOM      8  C   UNL A   1      32.444  26.682  25.159  1.00  0.00     0.102 A 
ATOM      9  C   UNL A   1      32.984  25.433  25.472  1.00  0.00     0.141 A 
ATOM     10  N   UNL A   1      32.226  24.437  25.991  1.00  0.00    -0.239 NA
ATOM     11  C   UNL A   1      30.920  24.687  26.235  1.00  0.00     0.113 A 
ATOM     12  C   UNL A   1      31.082  26.906  25.411  1.00  0.00     0.021 A 
ATOM     13  C   UNL A   1      30.309  25.896  25.969  1.00  0.00     0.021 A 
BRANCH   9  14
ATOM     14  N   UNL A   1      34.343  25.136  25.385  1.00  0.00    -0.363 N 
ATOM     15  H   UNL A   1      35.046  25.715  25.759  1.00  0.00     0.162 HD
BRANCH  14  16
ATOM     16  C   UNL A   1      34.624  23.877  24.685  1.00  0.00     0.108 C 
ATOM     17  C   UNL A   1      34.394  24.086  23.188  1.00  0.00     0.036 C 
BRANCH  16  18
ATOM     18  C   UNL A   1      36.022  23.344  24.996  1.00  0.00    -0.026 A 
ATOM     19  C   UNL A   1      36.375  22.059  24.547  1.00  0.00     0.007 A 
ATOM     20  C   UNL A   1      36.947  24.026  25.796  1.00  0.00     0.007 A 
ATOM     21  C   UNL A   1      37.570  21.444  24.934  1.00  0.00     0.021 A 
ATOM     22  C   UNL A   1      38.148  23.416  26.189  1.00  0.00     0.021 A 
ATOM     23  C   UNL A   1      38.443  22.121  25.773  1.00  0.00     0.041 A 
ATOM     24  Cl  UNL A   1      39.864  21.335  26.340  1.00  0.00    -0.084 Cl
ENDBRANCH  16  18
ENDBRANCH  14  16
ENDBRANCH   9  14
ENDBRANCH   6   8
ENDBRANCH   5   6
ENDBRANCH   4   5
ENDBRANCH   3   4
ENDBRANCH   2   3
ENDBRANCH   1   2
BRANCH   1  25
ATOM     25  C   UNL A   1      35.026  33.072  28.810  1.00  0.00     0.188 C 
BRANCH  25  26
ATOM     26  O   UNL A   1      33.837  33.837  28.989  1.00  0.00    -0.376 OA
BRANCH  26  27
ATOM     27  C   UNL A   1      33.884  35.236  28.781  1.00  0.00     0.202 C 
BRANCH  27  28
ATOM     28  C   UNL A   1      32.950  36.029  29.704  1.00  0.00     0.261 C 
BRANCH  28  29
ATOM     29  O   UNL A   1      32.316  35.261  30.744  1.00  0.00    -0.460 OA
BRANCH  29  30
ATOM     30  C   UNL A   1      32.576  35.670  32.011  1.00  0.00     0.338 C 
ATOM     31  O   UNL A   1      31.933  36.455  32.686  1.00  0.00    -0.246 OA
BRANCH  30  32
ATOM     32  C   UNL A   1      33.785  34.985  32.525  1.00  0.00     0.060 A 
ATOM     33  C   UNL A   1      35.013  35.655  32.472  1.00  0.00     0.016 A 
ATOM     34  C   UNL A   1      33.733  33.662  32.981  1.00  0.00     0.016 A 
ATOM     35  C   UNL A   1      36.186  35.000  32.869  1.00  0.00     0.010 A 
ATOM     36  C   UNL A   1      34.912  33.005  33.372  1.00  0.00     0.010 A 
ATOM     37  C   UNL A   1      36.151  33.663  33.310  1.00  0.00    -0.014 A 
BRANCH  37  38
ATOM     38  C   UNL A   1      37.428  32.926  33.534  1.00  0.00     0.031 A 
ATOM     39  C   UNL A   1      38.145  33.121  34.840  1.00  0.00     0.074 A 
ATOM     40  C   UNL A   1      37.948  32.078  32.626  1.00  0.00     0.049 A 
ATOM     41  N   UNL A   1      39.239  32.554  35.283  1.00  0.00    -0.248 NA
ATOM     42  C   UNL A   1      37.564  34.113  35.757  1.00  0.00     0.031 C 
ATOM     43  C   UNL A   1      37.402  31.828  31.300  1.00  0.00     0.029 A 
ATOM     44  N   UNL A   1      39.039  31.240  32.693  1.00  0.00    -0.354 N 
ATOM     45  C   UNL A   1      39.489  33.134  36.517  1.00  0.00     0.074 A 
ATOM     46  C   UNL A   1      38.434  34.097  36.754  1.00  0.00     0.031 C 
ATOM     47  C   UNL A   1      38.087  30.831  30.716  1.00  0.00     0.029 A 
ATOM     48  C   UNL A   1      39.182  30.425  31.592  1.00  0.00     0.049 A 
ATOM     49  H   UNL A   1      39.660  31.227  33.456  1.00  0.00     0.167 HD
ATOM     50  C   UNL A   1      40.516  32.903  37.369  1.00  0.00     0.037 A 
ATOM     51  C   UNL A   1      40.095  29.470  31.317  1.00  0.00     0.037 A 
ATOM     52  C   UNL A   1      41.588  31.976  37.128  1.00  0.00     0.049 A 
ATOM     53  C   UNL A   1      41.228  29.233  32.286  1.00  0.00     0.074 A 
ATOM     54  C   UNL A   1      42.684  31.698  37.928  1.00  0.00     0.029 A 
ATOM     55  N   UNL A   1      41.710  31.184  35.996  1.00  0.00    -0.354 N 
ATOM     56  N   UNL A   1      41.441  29.769  33.463  1.00  0.00    -0.248 NA
ATOM     57  C   UNL A   1      42.270  28.280  31.869  1.00  0.00     0.031 C 
ATOM     58  C   UNL A   1      43.493  30.774  37.259  1.00  0.00     0.029 A 
ATOM     59  C   UNL A   1      42.873  30.433  36.069  1.00  0.00     0.049 A 
ATOM     60  H   UNL A   1      41.067  31.160  35.252  1.00  0.00     0.167 HD
ATOM     61  C   UNL A   1      42.632  29.221  33.924  1.00  0.00     0.074 A 
ATOM     62  C   UNL A   1      43.078  28.280  32.920  1.00  0.00     0.031 C 
ATOM     63  C   UNL A   1      43.305  29.491  35.069  1.00  0.00     0.037 A 
BRANCH  50  64
ATOM     64  C   UNL A   1      40.550  33.724  38.623  1.00  0.00     0.064 A 
ATOM     65  C   UNL A   1      41.316  34.895  38.715  1.00  0.00     0.173 A 
ATOM     66  C   UNL A   1      39.813  33.326  39.748  1.00  0.00     0.173 A 
ATOM     67  F   UNL A   1      42.054  35.302  37.672  1.00  0.00    -0.203 F 
ATOM     68  C   UNL A   1      41.368  35.621  39.901  1.00  0.00     0.198 A 
ATOM     69  C   UNL A   1      39.844  34.071  40.923  1.00  0.00     0.198 A 
ATOM     70  F   UNL A   1      39.067  32.212  39.710  1.00  0.00    -0.203 F 
ATOM     71  F   UNL A   1      42.151  36.706  39.987  1.00  0.00    -0.200 F 
ATOM     72  C   UNL A   1      40.629  35.212  41.002  1.00  0.00     0.200 A 
ATOM     73  F   UNL A   1      39.125  33.678  41.982  1.00  0.00    -0.200 F 
ATOM     74  F   UNL A   1      40.682  35.911  42.144  1.00  0.00    -0.200 F 
ENDBRANCH  50  64
BRANCH  51  75
ATOM     75  C   UNL A   1      40.013  28.668  30.063  1.00  0.00     0.064 A 
ATOM     76  C   UNL A   1      39.385  27.412  30.052  1.00  0.00     0.173 A 
ATOM     77  C   UNL A   1      40.609  29.100  28.870  1.00  0.00     0.173 A 
ATOM     78  F   UNL A   1      38.830  26.933  31.175  1.00  0.00    -0.203 F 
ATOM     79  C   UNL A   1      39.378  26.614  28.909  1.00  0.00     0.198 A 
ATOM     80  C   UNL A   1      40.569  28.319  27.716  1.00  0.00     0.198 A 
ATOM     81  F   UNL A   1      41.236  30.286  28.823  1.00  0.00    -0.203 F 
ATOM     82  F   UNL A   1      38.829  25.393  28.949  1.00  0.00    -0.200 F 
ATOM     83  C   UNL A   1      39.965  27.071  27.739  1.00  0.00     0.200 A 
ATOM     84  F   UNL A   1      41.131  28.768  26.586  1.00  0.00    -0.200 F 
ATOM     85  F   UNL A   1      39.964  26.304  26.641  1.00  0.00    -0.200 F 
ENDBRANCH  51  75
BRANCH  63  86
ATOM     86  C   UNL A   1      44.586  28.745  35.316  1.00  0.00     0.064 A 
ATOM     87  C   UNL A   1      44.598  27.488  35.940  1.00  0.00     0.173 A 
ATOM     88  C   UNL A   1      45.810  29.269  34.874  1.00  0.00     0.173 A 
ATOM     89  F   UNL A   1      43.457  26.948  36.394  1.00  0.00    -0.203 F 
ATOM     90  C   UNL A   1      45.791  26.793  36.128  1.00  0.00     0.198 A 
ATOM     91  C   UNL A   1      46.997  28.558  35.039  1.00  0.00     0.198 A 
ATOM     92  F   UNL A   1      45.854  30.464  34.267  1.00  0.00    -0.203 F 
ATOM     93  F   UNL A   1      45.783  25.612  36.762  1.00  0.00    -0.200 F 
ATOM     94  C   UNL A   1      46.987  27.325  35.671  1.00  0.00     0.200 A 
ATOM     95  F   UNL A   1      48.149  29.068  34.583  1.00  0.00    -0.200 F 
ATOM     96  F   UNL A   1      48.132  26.649  35.842  1.00  0.00    -0.200 F 
ENDBRANCH  63  86
ENDBRANCH  37  38
ENDBRANCH  30  32
ENDBRANCH  29  30
ENDBRANCH  28  29
ENDBRANCH  27  28
ENDBRANCH  26  27
ENDBRANCH  25  26
ENDBRANCH   1  25
TORSDOF 20
ENDMDL
MODEL 3
REMARK VINA RESULT:     -10.8      1.968      2.686
REMARK SMILES C[C@H](Nc1ncccc1C(=O)OCCOCCOCCOC(=O)c1ccc(-c2c3nc(c(-c4c(F)c(F)c(F)c(F)c4F)c4ccc([nH]4)c(-c4c(F)c(F)c(F)c(F)c4F)c4nc(c(-c5c(F)c(F)c(F)c(F)c5F)c5ccc2[nH]5)C=C4)C=C3)cc1)c1ccc(Cl)cc1
REMARK SMILES IDX 16 1 15 2 14 3 13 4 12 5 10 6 11 7 9 8 4 9 5 10 6 11 8 12
REMARK SMILES IDX 7 13 3 14 2 16 1 17 87 18 88 19 93 20 89 21 92 22 90 23
REMARK SMILES IDX 91 24 17 25 18 26 19 27 20 28 21 29 22 30 23 31 24 32 25 33
REMARK SMILES IDX 86 34 26 35 85 36 27 37 28 38 29 39 79 40 30 41 84 42 78 43
REMARK SMILES IDX 80 44 31 45 83 46 77 47 76 48 32 50 64 51 44 52 63 53 45 54
REMARK SMILES IDX 48 55 62 56 81 57 46 58 47 59 61 61 82 62 49 63 33 64 34 65
REMARK SMILES IDX 42 66 35 67 36 68 40 69 43 70 37 71 38 72 41 73 39 74 65 75
REMARK SMILES IDX 66 76 74 77 67 78 68 79 72 80 75 81 69 82 70 83 73 84 71 85
REMARK SMILES IDX 50 86 51 87 59 88 52 89 53 90 57 91 60 92 54 93 55 94 58 95
REMARK SMILES IDX 56 96
REMARK H PARENT 3 15 80 49 48 60
REMARK Flexibility Score: inf
ROOT
ATOM      1  C   UNL A   1      31.469  27.639  22.740  1.00  0.00     0.188 C 
ENDROOT
BRANCH   1   2
ATOM      2  O   UNL A   1      32.892  27.696  22.649  1.00  0.00    -0.376 OA
BRANCH   2   3
ATOM      3  C   UNL A   1      33.506  26.479  22.230  1.00  0.00     0.202 C 
BRANCH   3   4
ATOM      4  C   UNL A   1      32.979  25.312  23.063  1.00  0.00     0.261 C 
BRANCH   4   5
ATOM      5  O   UNL A   1      34.009  24.781  23.914  1.00  0.00    -0.460 OA
BRANCH   5   6
ATOM      6  C   UNL A   1      34.001  25.206  25.205  1.00  0.00     0.341 C 
ATOM      7  O   UNL A   1      34.043  26.358  25.572  1.00  0.00    -0.246 OA
BRANCH   6   8
ATOM      8  C   UNL A   1      33.859  24.001  26.061  1.00  0.00     0.102 A 
ATOM      9  C   UNL A   1      34.902  23.085  26.212  1.00  0.00     0.141 A 
ATOM     10  N   UNL A   1      34.769  21.972  26.973  1.00  0.00    -0.239 NA
ATOM     11  C   UNL A   1      33.600  21.775  27.622  1.00  0.00     0.113 A 
ATOM     12  C   UNL A   1      32.653  23.762  26.736  1.00  0.00     0.021 A 
ATOM     13  C   UNL A   1      32.524  22.637  27.540  1.00  0.00     0.021 A 
BRANCH   9  14
ATOM     14  N   UNL A   1      36.182  23.279  25.696  1.00  0.00    -0.363 N 
ATOM     15  H   UNL A   1      36.708  24.096  25.854  1.00  0.00     0.162 HD
BRANCH  14  16
ATOM     16  C   UNL A   1      36.670  22.149  24.897  1.00  0.00     0.108 C 
ATOM     17  C   UNL A   1      36.678  22.557  23.424  1.00  0.00     0.036 C 
BRANCH  16  18
ATOM     18  C   UNL A   1      38.031  21.649  25.375  1.00  0.00    -0.026 A 
ATOM     19  C   UNL A   1      38.422  20.335  25.062  1.00  0.00     0.007 A 
ATOM     20  C   UNL A   1      38.881  22.395  26.201  1.00  0.00     0.007 A 
ATOM     21  C   UNL A   1      39.575  19.759  25.603  1.00  0.00     0.021 A 
ATOM     22  C   UNL A   1      40.039  21.825  26.749  1.00  0.00     0.021 A 
ATOM     23  C   UNL A   1      40.369  20.503  26.464  1.00  0.00     0.041 A 
ATOM     24  Cl  UNL A   1      41.730  19.771  27.218  1.00  0.00    -0.084 Cl
ENDBRANCH  16  18
ENDBRANCH  14  16
ENDBRANCH   9  14
ENDBRANCH   6   8
ENDBRANCH   5   6
ENDBRANCH   4   5
ENDBRANCH   3   4
ENDBRANCH   2   3
ENDBRANCH   1   2
BRANCH   1  25
ATOM     25  C   UNL A   1      30.832  29.031  22.827  1.00  0.00     0.188 C 
BRANCH  25  26
ATOM     26  O   UNL A   1      30.655  29.681  24.083  1.00  0.00    -0.376 OA
BRANCH  26  27
ATOM     27  C   UNL A   1      31.760  29.785  24.962  1.00  0.00     0.202 C 
BRANCH  27  28
ATOM     28  C   UNL A   1      31.531  30.754  26.129  1.00  0.00     0.261 C 
BRANCH  28  29
ATOM     29  O   UNL A   1      32.494  30.670  27.197  1.00  0.00    -0.460 OA
BRANCH  29  30
ATOM     30  C   UNL A   1      33.245  31.782  27.393  1.00  0.00     0.338 C 
ATOM     31  O   UNL A   1      32.897  32.944  27.279  1.00  0.00    -0.246 OA
BRANCH  30  32
ATOM     32  C   UNL A   1      34.611  31.401  27.823  1.00  0.00     0.060 A 
ATOM     33  C   UNL A   1      34.901  30.047  28.024  1.00  0.00     0.016 A 
ATOM     34  C   UNL A   1      35.581  32.370  28.109  1.00  0.00     0.016 A 
ATOM     35  C   UNL A   1      36.155  29.664  28.515  1.00  0.00     0.010 A 
ATOM     36  C   UNL A   1      36.837  31.984  28.608  1.00  0.00     0.010 A 
ATOM     37  C   UNL A   1      37.133  30.628  28.826  1.00  0.00    -0.014 A 
BRANCH  37  38
ATOM     38  C   UNL A   1      38.380  30.215  29.532  1.00  0.00     0.031 A 
ATOM     39  C   UNL A   1      38.554  30.622  30.968  1.00  0.00     0.074 A 
ATOM     40  C   UNL A   1      39.339  29.474  28.944  1.00  0.00     0.049 A 
ATOM     41  N   UNL A   1      39.523  30.340  31.802  1.00  0.00    -0.248 NA
ATOM     42  C   UNL A   1      37.507  31.489  31.528  1.00  0.00     0.031 C 
ATOM     43  C   UNL A   1      39.338  29.053  27.551  1.00  0.00     0.029 A 
ATOM     44  N   UNL A   1      40.488  28.914  29.455  1.00  0.00    -0.354 N 
ATOM     45  C   UNL A   1      39.215  31.011  32.976  1.00  0.00     0.074 A 
ATOM     46  C   UNL A   1      37.970  31.714  32.747  1.00  0.00     0.031 C 
ATOM     47  C   UNL A   1      40.369  28.217  27.338  1.00  0.00     0.029 A 
ATOM     48  C   UNL A   1      41.159  28.110  28.561  1.00  0.00     0.049 A 
ATOM     49  H   UNL A   1      40.802  29.075  30.374  1.00  0.00     0.167 HD
ATOM     50  C   UNL A   1      39.915  31.057  34.134  1.00  0.00     0.037 A 
ATOM     51  C   UNL A   1      42.286  27.382  28.706  1.00  0.00     0.037 A 
ATOM     52  C   UNL A   1      41.171  30.394  34.359  1.00  0.00     0.049 A 
ATOM     53  C   UNL A   1      43.045  27.451  30.009  1.00  0.00     0.074 A 
ATOM     54  C   UNL A   1      41.961  30.409  35.497  1.00  0.00     0.029 A 
ATOM     55  N   UNL A   1      41.829  29.607  33.426  1.00  0.00    -0.354 N 
ATOM     56  N   UNL A   1      42.732  28.068  31.122  1.00  0.00    -0.248 NA
ATOM     57  C   UNL A   1      44.338  26.749  30.063  1.00  0.00     0.031 C 
ATOM     58  C   UNL A   1      43.120  29.670  35.235  1.00  0.00     0.029 A 
ATOM     59  C   UNL A   1      43.025  29.148  33.956  1.00  0.00     0.049 A 
ATOM     60  H   UNL A   1      41.497  29.406  32.522  1.00  0.00     0.167 HD
ATOM     61  C   UNL A   1      43.780  27.829  32.002  1.00  0.00     0.074 A 
ATOM     62  C   UNL A   1      44.723  26.977  31.311  1.00  0.00     0.031 C 
ATOM     63  C   UNL A   1      43.954  28.292  33.264  1.00  0.00     0.037 A 
BRANCH  50  64
ATOM     64  C   UNL A   1      39.353  31.913  35.229  1.00  0.00     0.064 A 
ATOM     65  C   UNL A   1      39.678  33.273  35.339  1.00  0.00     0.173 A 
ATOM     66  C   UNL A   1      38.486  31.361  36.183  1.00  0.00     0.173 A 
ATOM     67  F   UNL A   1      40.520  33.839  34.463  1.00  0.00    -0.203 F 
ATOM     68  C   UNL A   1      39.178  34.042  36.387  1.00  0.00     0.198 A 
ATOM     69  C   UNL A   1      37.966  32.140  37.212  1.00  0.00     0.198 A 
ATOM     70  F   UNL A   1      38.148  30.064  36.120  1.00  0.00    -0.203 F 
ATOM     71  F   UNL A   1      39.547  35.325  36.508  1.00  0.00    -0.200 F 
ATOM     72  C   UNL A   1      38.320  33.476  37.319  1.00  0.00     0.200 A 
ATOM     73  F   UNL A   1      37.131  31.594  38.106  1.00  0.00    -0.200 F 
ATOM     74  F   UNL A   1      37.843  34.217  38.328  1.00  0.00    -0.200 F 
ENDBRANCH  50  64
BRANCH  51  75
ATOM     75  C   UNL A   1      42.801  26.533  27.593  1.00  0.00     0.064 A 
ATOM     76  C   UNL A   1      42.512  25.159  27.544  1.00  0.00     0.173 A 
ATOM     77  C   UNL A   1      43.639  27.052  26.596  1.00  0.00     0.173 A 
ATOM     78  F   UNL A   1      41.746  24.603  28.494  1.00  0.00    -0.203 F 
ATOM     79  C   UNL A   1      43.059  24.339  26.558  1.00  0.00     0.198 A 
ATOM     80  C   UNL A   1      44.154  26.238  25.589  1.00  0.00     0.198 A 
ATOM     81  F   UNL A   1      43.961  28.354  26.599  1.00  0.00    -0.203 F 
ATOM     82  F   UNL A   1      42.818  23.021  26.577  1.00  0.00    -0.200 F 
ATOM     83  C   UNL A   1      43.875  24.880  25.576  1.00  0.00     0.200 A 
ATOM     84  F   UNL A   1      44.936  26.767  24.638  1.00  0.00    -0.200 F 
ATOM     85  F   UNL A   1      44.405  24.092  24.632  1.00  0.00    -0.200 F 
ENDBRANCH  51  75
BRANCH  63  86
ATOM     86  C   UNL A   1      45.197  27.872  33.995  1.00  0.00     0.064 A 
ATOM     87  C   UNL A   1      45.238  26.702  34.768  1.00  0.00     0.173 A 
ATOM     88  C   UNL A   1      46.379  28.619  33.875  1.00  0.00     0.173 A 
ATOM     89  F   UNL A   1      44.133  25.958  34.927  1.00  0.00    -0.203 F 
ATOM     90  C   UNL A   1      46.411  26.307  35.409  1.00  0.00     0.198 A 
ATOM     91  C   UNL A   1      47.556  28.206  34.494  1.00  0.00     0.198 A 
ATOM     92  F   UNL A   1      46.396  29.744  33.143  1.00  0.00    -0.203 F 
ATOM     93  F   UNL A   1      46.415  25.208  36.176  1.00  0.00    -0.200 F 
ATOM     94  C   UNL A   1      47.569  27.055  35.266  1.00  0.00     0.200 A 
ATOM     95  F   UNL A   1      48.678  28.924  34.342  1.00  0.00    -0.200 F 
ATOM     96  F   UNL A   1      48.699  26.667  35.874  1.00  0.00    -0.200 F 
ENDBRANCH  63  86
ENDBRANCH  37  38
ENDBRANCH  30  32
ENDBRANCH  29  30
ENDBRANCH  28  29
ENDBRANCH  27  28
ENDBRANCH  26  27
ENDBRANCH  25  26
ENDBRANCH   1  25
TORSDOF 20
ENDMDL
