MODEL 1
REMARK VINA RESULT:     -12.2      0.000      0.000
REMARK SMILES Cc1ccccc1OCC(=O)N1C[C@H](O)C[C@H]1C(=O)OCCOCCOCCOC(=O)c1ccc(-c2c3nc(c(-c4c(F)c(F)c(F)c(F)c4F)c4ccc([nH]4)c(-c4c(F)c(F)c(F)c(F)c4F)c4nc(c(-c5c(F)c(F)c(F)c(F)c5F)c5ccc2[nH]5)C=C4)C=C3)cc1
REMARK SMILES IDX 24 1 23 2 22 3 21 4 20 5 18 6 19 7 17 8 12 9 13 10 14 11
REMARK SMILES IDX 16 12 10 13 11 14 9 15 8 16 7 17 1 18 2 19 3 20 4 21 6 22
REMARK SMILES IDX 5 23 15 24 25 26 26 27 27 28 28 29 29 30 30 31 31 32 32 33
REMARK SMILES IDX 33 34 94 35 34 36 93 37 35 38 36 39 37 40 87 41 38 42 92 43
REMARK SMILES IDX 86 44 88 45 39 46 91 47 85 48 84 49 40 51 72 52 52 53 71 54
REMARK SMILES IDX 53 55 56 56 70 57 89 58 54 59 55 60 69 62 90 63 57 64 41 65
REMARK SMILES IDX 42 66 50 67 43 68 44 69 48 70 51 71 45 72 46 73 49 74 47 75
REMARK SMILES IDX 73 76 74 77 82 78 75 79 76 80 80 81 83 82 77 83 78 84 81 85
REMARK SMILES IDX 79 86 58 87 59 88 67 89 60 90 61 91 65 92 68 93 62 94 63 95
REMARK SMILES IDX 66 96 64 97
REMARK H PARENT 15 25 88 50 56 61
REMARK Flexibility Score: inf
ROOT
ATOM      1  C   UNL A   1      33.655  21.566  26.332  1.00  0.00     0.188 C 
ENDROOT
BRANCH   1   2
ATOM      2  O   UNL A   1      32.848  22.610  26.902  1.00  0.00    -0.376 OA
BRANCH   2   3
ATOM      3  C   UNL A   1      32.416  23.819  26.255  1.00  0.00     0.202 C 
BRANCH   3   4
ATOM      4  C   UNL A   1      30.868  24.571  26.088  1.00  0.00     0.261 C 
BRANCH   4   5
ATOM      5  O   UNL A   1      29.910  25.223  24.725  1.00  0.00    -0.462 OA
BRANCH   5   6
ATOM      6  C   UNL A   1      29.869  26.278  23.718  1.00  0.00     0.329 C 
ATOM      7  O   UNL A   1      28.938  27.060  23.448  1.00  0.00    -0.250 OA
BRANCH   6   8
ATOM      8  C   UNL A   1      31.008  26.676  22.833  1.00  0.00     0.198 C 
ATOM      9  N   UNL A   1      31.924  27.718  23.112  1.00  0.00    -0.323 N 
ATOM     10  C   UNL A   1      33.260  27.370  22.633  1.00  0.00     0.152 C 
ATOM     11  C   UNL A   1      33.147  25.987  21.972  1.00  0.00     0.136 C 
ATOM     12  C   UNL A   1      31.892  25.415  22.590  1.00  0.00     0.070 C 
BRANCH   9  13
ATOM     13  C   UNL A   1      31.328  28.940  23.219  1.00  0.00     0.261 C 
ATOM     14  O   UNL A   1      30.945  29.508  22.195  1.00  0.00    -0.271 OA
BRANCH  13  15
ATOM     15  C   UNL A   1      31.394  29.672  24.573  1.00  0.00     0.329 C 
BRANCH  15  16
ATOM     16  O   UNL A   1      31.499  28.954  25.801  1.00  0.00    -0.484 OA
BRANCH  16  17
ATOM     17  C   UNL A   1      32.563  29.401  26.539  1.00  0.00     0.122 A 
ATOM     18  C   UNL A   1      33.802  27.209  26.177  1.00  0.00     0.048 C 
ATOM     19  C   UNL A   1      33.720  28.620  26.671  1.00  0.00    -0.009 A 
ATOM     20  C   UNL A   1      34.856  29.209  27.244  1.00  0.00     0.007 A 
ATOM     21  C   UNL A   1      34.818  30.527  27.703  1.00  0.00     0.001 A 
ATOM     22  C   UNL A   1      32.505  30.702  27.042  1.00  0.00     0.047 A 
ATOM     23  C   UNL A   1      33.637  31.264  27.622  1.00  0.00     0.004 A 
ENDBRANCH  16  17
ENDBRANCH  15  16
ENDBRANCH  13  15
ENDBRANCH   9  13
BRANCH  11  24
ATOM     24  O   UNL A   1      33.019  26.120  20.559  1.00  0.00    -0.391 OA
ATOM     25  H   UNL A   1      33.715  26.705  20.224  1.00  0.00     0.211 HD
ENDBRANCH  11  24
ENDBRANCH   6   8
ENDBRANCH   5   6
ENDBRANCH   4   5
ENDBRANCH   3   4
ENDBRANCH   2   3
ENDBRANCH   1   2
BRANCH   1  26
ATOM     26  C   UNL A   1      34.992  21.849  25.672  1.00  0.00     0.188 C 
BRANCH  26  27
ATOM     27  O   UNL A   1      35.642  20.626  25.434  1.00  0.00    -0.376 OA
BRANCH  27  28
ATOM     28  C   UNL A   1      36.962  20.665  24.951  1.00  0.00     0.202 C 
BRANCH  28  29
ATOM     29  C   UNL A   1      37.567  22.084  24.873  1.00  0.00     0.261 C 
BRANCH  29  30
ATOM     30  O   UNL A   1      38.132  22.528  26.142  1.00  0.00    -0.460 OA
BRANCH  30  31
ATOM     31  C   UNL A   1      39.416  22.162  26.520  1.00  0.00     0.338 C 
ATOM     32  O   UNL A   1      39.747  21.052  26.843  1.00  0.00    -0.246 OA
BRANCH  31  33
ATOM     33  C   UNL A   1      40.275  23.406  26.660  1.00  0.00     0.060 A 
ATOM     34  C   UNL A   1      41.500  23.594  27.324  1.00  0.00     0.016 A 
ATOM     35  C   UNL A   1      39.587  24.534  26.458  1.00  0.00     0.016 A 
ATOM     36  C   UNL A   1      41.825  24.865  27.997  1.00  0.00     0.010 A 
ATOM     37  C   UNL A   1      39.732  25.463  27.461  1.00  0.00     0.010 A 
ATOM     38  C   UNL A   1      40.855  25.847  28.218  1.00  0.00    -0.014 A 
BRANCH  38  39
ATOM     39  C   UNL A   1      40.925  27.302  29.157  1.00  0.00     0.031 A 
ATOM     40  C   UNL A   1      39.910  28.789  29.147  1.00  0.00     0.074 A 
ATOM     41  C   UNL A   1      41.973  27.338  29.999  1.00  0.00     0.049 A 
ATOM     42  N   UNL A   1      40.365  30.023  29.225  1.00  0.00    -0.248 NA
ATOM     43  C   UNL A   1      38.389  29.013  28.781  1.00  0.00     0.031 C 
ATOM     44  C   UNL A   1      42.206  28.224  31.128  1.00  0.00     0.029 A 
ATOM     45  N   UNL A   1      43.093  26.496  29.991  1.00  0.00    -0.354 N 
ATOM     46  C   UNL A   1      39.228  30.870  29.154  1.00  0.00     0.074 A 
ATOM     47  C   UNL A   1      38.285  30.251  28.337  1.00  0.00     0.031 C 
ATOM     48  C   UNL A   1      43.497  28.106  31.495  1.00  0.00     0.029 A 
ATOM     49  C   UNL A   1      44.145  27.271  30.494  1.00  0.00     0.049 A 
ATOM     50  H   UNL A   1      43.133  25.558  29.693  1.00  0.00     0.167 HD
ATOM     51  C   UNL A   1      38.911  31.765  30.136  1.00  0.00     0.037 A 
ATOM     52  C   UNL A   1      45.128  27.659  29.634  1.00  0.00     0.037 A 
ATOM     53  C   UNL A   1      40.127  32.003  30.856  1.00  0.00     0.049 A 
ATOM     54  C   UNL A   1      45.128  29.165  29.509  1.00  0.00     0.074 A 
ATOM     55  C   UNL A   1      40.630  31.530  32.047  1.00  0.00     0.029 A 
ATOM     56  N   UNL A   1      41.201  32.407  30.084  1.00  0.00    -0.354 N 
ATOM     57  N   UNL A   1      44.073  29.925  29.670  1.00  0.00    -0.248 NA
ATOM     58  C   UNL A   1      46.353  29.933  29.337  1.00  0.00     0.031 C 
ATOM     59  C   UNL A   1      42.054  31.515  31.905  1.00  0.00     0.029 A 
ATOM     60  C   UNL A   1      42.388  32.017  30.654  1.00  0.00     0.049 A 
ATOM     61  H   UNL A   1      41.125  32.908  29.239  1.00  0.00     0.167 HD
ATOM     62  C   UNL A   1      44.459  31.238  29.693  1.00  0.00     0.074 A 
ATOM     63  C   UNL A   1      45.892  31.187  29.472  1.00  0.00     0.031 C 
ATOM     64  C   UNL A   1      43.614  32.289  29.924  1.00  0.00     0.037 A 
BRANCH  51  65
ATOM     65  C   UNL A   1      37.507  32.256  30.556  1.00  0.00     0.064 A 
ATOM     66  C   UNL A   1      36.811  33.119  29.683  1.00  0.00     0.173 A 
ATOM     67  C   UNL A   1      36.817  32.031  31.786  1.00  0.00     0.173 A 
ATOM     68  F   UNL A   1      37.335  33.448  28.494  1.00  0.00    -0.203 F 
ATOM     69  C   UNL A   1      35.565  33.690  29.996  1.00  0.00     0.198 A 
ATOM     70  C   UNL A   1      35.548  32.560  32.073  1.00  0.00     0.198 A 
ATOM     71  F   UNL A   1      37.339  31.350  32.809  1.00  0.00    -0.203 F 
ATOM     72  F   UNL A   1      34.990  34.540  29.134  1.00  0.00    -0.200 F 
ATOM     73  C   UNL A   1      34.925  33.400  31.183  1.00  0.00     0.200 A 
ATOM     74  F   UNL A   1      34.953  32.269  33.242  1.00  0.00    -0.200 F 
ATOM     75  F   UNL A   1      33.734  33.940  31.477  1.00  0.00    -0.200 F 
ENDBRANCH  51  65
BRANCH  52  76
ATOM     76  C   UNL A   1      45.436  26.620  28.587  1.00  0.00     0.064 A 
ATOM     77  C   UNL A   1      44.854  26.797  27.304  1.00  0.00     0.173 A 
ATOM     78  C   UNL A   1      46.497  25.710  28.665  1.00  0.00     0.173 A 
ATOM     79  F   UNL A   1      43.809  27.628  27.151  1.00  0.00    -0.203 F 
ATOM     80  C   UNL A   1      45.409  26.241  26.150  1.00  0.00     0.198 A 
ATOM     81  C   UNL A   1      47.015  25.104  27.506  1.00  0.00     0.198 A 
ATOM     82  F   UNL A   1      47.123  25.494  29.830  1.00  0.00    -0.203 F 
ATOM     83  F   UNL A   1      44.939  26.591  24.944  1.00  0.00    -0.200 F 
ATOM     84  C   UNL A   1      46.501  25.405  26.250  1.00  0.00     0.200 A 
ATOM     85  F   UNL A   1      48.123  24.349  27.585  1.00  0.00    -0.200 F 
ATOM     86  F   UNL A   1      47.108  24.957  25.141  1.00  0.00    -0.200 F 
ENDBRANCH  52  76
BRANCH  64  87
ATOM     87  C   UNL A   1      43.877  33.712  29.464  1.00  0.00     0.064 A 
ATOM     88  C   UNL A   1      43.988  34.079  28.113  1.00  0.00     0.173 A 
ATOM     89  C   UNL A   1      43.841  34.800  30.378  1.00  0.00     0.173 A 
ATOM     90  F   UNL A   1      43.857  33.186  27.125  1.00  0.00    -0.203 F 
ATOM     91  C   UNL A   1      44.173  35.404  27.719  1.00  0.00     0.198 A 
ATOM     92  C   UNL A   1      43.907  36.128  29.968  1.00  0.00     0.198 A 
ATOM     93  F   UNL A   1      43.699  34.620  31.699  1.00  0.00    -0.203 F 
ATOM     94  F   UNL A   1      44.377  35.682  26.424  1.00  0.00    -0.200 F 
ATOM     95  C   UNL A   1      44.118  36.429  28.642  1.00  0.00     0.200 A 
ATOM     96  F   UNL A   1      43.748  37.109  30.867  1.00  0.00    -0.200 F 
ATOM     97  F   UNL A   1      44.245  37.703  28.252  1.00  0.00    -0.200 F 
ENDBRANCH  64  87
ENDBRANCH  38  39
ENDBRANCH  31  33
ENDBRANCH  30  31
ENDBRANCH  29  30
ENDBRANCH  28  29
ENDBRANCH  27  28
ENDBRANCH  26  27
ENDBRANCH   1  26
TORSDOF 22
ENDMDL
MODEL 2
REMARK VINA RESULT:     -12.1      3.954     10.014
REMARK SMILES Cc1ccccc1OCC(=O)N1C[C@H](O)C[C@H]1C(=O)OCCOCCOCCOC(=O)c1ccc(-c2c3nc(c(-c4c(F)c(F)c(F)c(F)c4F)c4ccc([nH]4)c(-c4c(F)c(F)c(F)c(F)c4F)c4nc(c(-c5c(F)c(F)c(F)c(F)c5F)c5ccc2[nH]5)C=C4)C=C3)cc1
REMARK SMILES IDX 24 1 23 2 22 3 21 4 20 5 18 6 19 7 17 8 12 9 13 10 14 11
REMARK SMILES IDX 16 12 10 13 11 14 9 15 8 16 7 17 1 18 2 19 3 20 4 21 6 22
REMARK SMILES IDX 5 23 15 24 25 26 26 27 27 28 28 29 29 30 30 31 31 32 32 33
REMARK SMILES IDX 33 34 94 35 34 36 93 37 35 38 36 39 37 40 87 41 38 42 92 43
REMARK SMILES IDX 86 44 88 45 39 46 91 47 85 48 84 49 40 51 72 52 52 53 71 54
REMARK SMILES IDX 53 55 56 56 70 57 89 58 54 59 55 60 69 62 90 63 57 64 41 65
REMARK SMILES IDX 42 66 50 67 43 68 44 69 48 70 51 71 45 72 46 73 49 74 47 75
REMARK SMILES IDX 73 76 74 77 82 78 75 79 76 80 80 81 83 82 77 83 78 84 81 85
REMARK SMILES IDX 79 86 58 87 59 88 67 89 60 90 61 91 65 92 68 93 62 94 63 95
REMARK SMILES IDX 66 96 64 97
REMARK H PARENT 15 25 88 50 56 61
REMARK Flexibility Score: inf
ROOT
ATOM      1  C   UNL A   1      33.650  34.071  28.209  1.00  0.00     0.188 C 
ENDROOT
BRANCH   1   2
ATOM      2  O   UNL A   1      34.628  33.187  27.639  1.00  0.00    -0.376 OA
BRANCH   2   3
ATOM      3  C   UNL A   1      34.857  31.810  27.986  1.00  0.00     0.202 C 
BRANCH   3   4
ATOM      4  C   UNL A   1      33.997  30.353  27.630  1.00  0.00     0.261 C 
BRANCH   4   5
ATOM      5  O   UNL A   1      33.189  29.671  26.188  1.00  0.00    -0.462 OA
BRANCH   5   6
ATOM      6  C   UNL A   1      31.943  29.678  25.427  1.00  0.00     0.329 C 
ATOM      7  O   UNL A   1      31.066  30.560  25.378  1.00  0.00    -0.250 OA
BRANCH   6   8
ATOM      8  C   UNL A   1      31.504  28.610  24.475  1.00  0.00     0.198 C 
ATOM      9  N   UNL A   1      30.652  27.530  24.807  1.00  0.00    -0.323 N 
ATOM     10  C   UNL A   1      29.781  27.198  23.681  1.00  0.00     0.152 C 
ATOM     11  C   UNL A   1      30.153  28.154  22.537  1.00  0.00     0.136 C 
ATOM     12  C   UNL A   1      30.824  29.302  23.255  1.00  0.00     0.070 C 
BRANCH   9  13
ATOM     13  C   UNL A   1      31.165  26.722  25.779  1.00  0.00     0.261 C 
ATOM     14  O   UNL A   1      31.085  27.080  26.954  1.00  0.00    -0.271 OA
BRANCH  13  15
ATOM     15  C   UNL A   1      32.049  25.534  25.354  1.00  0.00     0.329 C 
BRANCH  15  16
ATOM     16  O   UNL A   1      32.865  25.595  24.186  1.00  0.00    -0.484 OA
BRANCH  16  17
ATOM     17  C   UNL A   1      33.907  24.709  24.270  1.00  0.00     0.122 A 
ATOM     18  C   UNL A   1      33.266  23.663  22.041  1.00  0.00     0.048 C 
ATOM     19  C   UNL A   1      34.177  23.822  23.219  1.00  0.00    -0.009 A 
ATOM     20  C   UNL A   1      35.376  23.095  23.255  1.00  0.00     0.007 A 
ATOM     21  C   UNL A   1      36.254  23.228  24.332  1.00  0.00     0.001 A 
ATOM     22  C   UNL A   1      34.757  24.807  25.373  1.00  0.00     0.047 A 
ATOM     23  C   UNL A   1      35.934  24.066  25.400  1.00  0.00     0.004 A 
ENDBRANCH  16  17
ENDBRANCH  15  16
ENDBRANCH  13  15
ENDBRANCH   9  13
BRANCH  11  24
ATOM     24  O   UNL A   1      31.045  27.516  21.626  1.00  0.00    -0.391 OA
ATOM     25  H   UNL A   1      31.690  26.987  22.121  1.00  0.00     0.211 HD
ENDBRANCH  11  24
ENDBRANCH   6   8
ENDBRANCH   5   6
ENDBRANCH   4   5
ENDBRANCH   3   4
ENDBRANCH   2   3
ENDBRANCH   1   2
BRANCH   1  26
ATOM     26  C   UNL A   1      33.872  34.773  29.536  1.00  0.00     0.188 C 
BRANCH  26  27
ATOM     27  O   UNL A   1      32.878  35.754  29.696  1.00  0.00    -0.376 OA
BRANCH  27  28
ATOM     28  C   UNL A   1      32.435  36.034  31.001  1.00  0.00     0.202 C 
BRANCH  28  29
ATOM     29  C   UNL A   1      33.554  36.471  31.971  1.00  0.00     0.261 C 
BRANCH  29  30
ATOM     30  O   UNL A   1      33.606  35.653  33.178  1.00  0.00    -0.460 OA
BRANCH  30  31
ATOM     31  C   UNL A   1      34.122  34.365  33.147  1.00  0.00     0.338 C 
ATOM     32  O   UNL A   1      33.472  33.362  33.274  1.00  0.00    -0.246 OA
BRANCH  31  33
ATOM     33  C   UNL A   1      35.639  34.430  33.138  1.00  0.00     0.060 A 
ATOM     34  C   UNL A   1      36.520  34.948  32.172  1.00  0.00     0.016 A 
ATOM     35  C   UNL A   1      36.199  33.541  33.964  1.00  0.00     0.016 A 
ATOM     36  C   UNL A   1      37.834  34.329  31.917  1.00  0.00     0.010 A 
ATOM     37  C   UNL A   1      37.166  32.762  33.374  1.00  0.00     0.010 A 
ATOM     38  C   UNL A   1      38.167  33.074  32.436  1.00  0.00    -0.014 A 
BRANCH  38  39
ATOM     39  C   UNL A   1      39.529  32.052  32.113  1.00  0.00     0.031 A 
ATOM     40  C   UNL A   1      39.685  30.514  31.192  1.00  0.00     0.074 A 
ATOM     41  C   UNL A   1      40.655  32.465  32.720  1.00  0.00     0.049 A 
ATOM     42  N   UNL A   1      40.384  29.464  31.574  1.00  0.00    -0.248 NA
ATOM     43  C   UNL A   1      38.877  29.948  29.956  1.00  0.00     0.031 C 
ATOM     44  C   UNL A   1      42.029  32.061  32.467  1.00  0.00     0.029 A 
ATOM     45  N   UNL A   1      40.764  33.415  33.745  1.00  0.00    -0.354 N 
ATOM     46  C   UNL A   1      40.204  28.480  30.567  1.00  0.00     0.074 A 
ATOM     47  C   UNL A   1      38.923  28.634  30.045  1.00  0.00     0.031 C 
ATOM     48  C   UNL A   1      42.790  32.493  33.492  1.00  0.00     0.029 A 
ATOM     49  C   UNL A   1      41.880  33.028  34.495  1.00  0.00     0.049 A 
ATOM     50  H   UNL A   1      40.178  34.191  33.903  1.00  0.00     0.167 HD
ATOM     51  C   UNL A   1      41.247  27.933  29.873  1.00  0.00     0.037 A 
ATOM     52  C   UNL A   1      41.673  32.527  35.746  1.00  0.00     0.037 A 
ATOM     53  C   UNL A   1      42.409  28.142  30.684  1.00  0.00     0.049 A 
ATOM     54  C   UNL A   1      42.128  31.086  35.797  1.00  0.00     0.074 A 
ATOM     55  C   UNL A   1      43.433  29.062  30.652  1.00  0.00     0.029 A 
ATOM     56  N   UNL A   1      42.318  27.670  31.980  1.00  0.00    -0.354 N 
ATOM     57  N   UNL A   1      42.143  30.274  34.768  1.00  0.00    -0.248 NA
ATOM     58  C   UNL A   1      42.737  30.503  36.983  1.00  0.00     0.031 C 
ATOM     59  C   UNL A   1      43.852  29.246  32.008  1.00  0.00     0.029 A 
ATOM     60  C   UNL A   1      43.109  28.407  32.827  1.00  0.00     0.049 A 
ATOM     61  H   UNL A   1      41.760  26.907  32.259  1.00  0.00     0.167 HD
ATOM     62  C   UNL A   1      42.798  29.122  35.111  1.00  0.00     0.074 A 
ATOM     63  C   UNL A   1      43.141  29.313  36.508  1.00  0.00     0.031 C 
ATOM     64  C   UNL A   1      43.061  28.095  34.246  1.00  0.00     0.037 A 
BRANCH  51  65
ATOM     65  C   UNL A   1      41.246  27.405  28.420  1.00  0.00     0.064 A 
ATOM     66  C   UNL A   1      40.614  26.172  28.157  1.00  0.00     0.173 A 
ATOM     67  C   UNL A   1      41.896  27.955  27.274  1.00  0.00     0.173 A 
ATOM     68  F   UNL A   1      39.976  25.514  29.135  1.00  0.00    -0.203 F 
ATOM     69  C   UNL A   1      40.621  25.557  26.892  1.00  0.00     0.198 A 
ATOM     70  C   UNL A   1      41.857  27.365  26.000  1.00  0.00     0.198 A 
ATOM     71  F   UNL A   1      42.661  29.050  27.315  1.00  0.00    -0.203 F 
ATOM     72  F   UNL A   1      40.039  24.360  26.733  1.00  0.00    -0.200 F 
ATOM     73  C   UNL A   1      41.227  26.159  25.810  1.00  0.00     0.200 A 
ATOM     74  F   UNL A   1      42.466  27.969  24.966  1.00  0.00    -0.200 F 
ATOM     75  F   UNL A   1      41.228  25.575  24.604  1.00  0.00    -0.200 F 
ENDBRANCH  51  65
BRANCH  52  76
ATOM     76  C   UNL A   1      40.520  33.184  36.458  1.00  0.00     0.064 A 
ATOM     77  C   UNL A   1      39.321  32.432  36.583  1.00  0.00     0.173 A 
ATOM     78  C   UNL A   1      40.639  34.303  37.288  1.00  0.00     0.173 A 
ATOM     79  F   UNL A   1      39.115  31.362  35.798  1.00  0.00    -0.203 F 
ATOM     80  C   UNL A   1      38.388  32.679  37.593  1.00  0.00     0.198 A 
ATOM     81  C   UNL A   1      39.666  34.584  38.266  1.00  0.00     0.198 A 
ATOM     82  F   UNL A   1      41.744  35.060  37.256  1.00  0.00    -0.203 F 
ATOM     83  F   UNL A   1      37.372  31.827  37.790  1.00  0.00    -0.200 F 
ATOM     84  C   UNL A   1      38.570  33.748  38.445  1.00  0.00     0.200 A 
ATOM     85  F   UNL A   1      39.871  35.577  39.146  1.00  0.00    -0.200 F 
ATOM     86  F   UNL A   1      37.742  33.926  39.485  1.00  0.00    -0.200 F 
ENDBRANCH  52  76
BRANCH  64  87
ATOM     87  C   UNL A   1      43.302  26.659  34.674  1.00  0.00     0.064 A 
ATOM     88  C   UNL A   1      42.275  25.789  35.071  1.00  0.00     0.173 A 
ATOM     89  C   UNL A   1      44.576  26.048  34.519  1.00  0.00     0.173 A 
ATOM     90  F   UNL A   1      40.992  26.171  35.089  1.00  0.00    -0.203 F 
ATOM     91  C   UNL A   1      42.520  24.457  35.405  1.00  0.00     0.198 A 
ATOM     92  C   UNL A   1      44.790  24.690  34.740  1.00  0.00     0.198 A 
ATOM     93  F   UNL A   1      45.653  26.732  34.108  1.00  0.00    -0.203 F 
ATOM     94  F   UNL A   1      41.518  23.702  35.877  1.00  0.00    -0.200 F 
ATOM     95  C   UNL A   1      43.771  23.903  35.226  1.00  0.00     0.200 A 
ATOM     96  F   UNL A   1      45.986  24.153  34.461  1.00  0.00    -0.200 F 
ATOM     97  F   UNL A   1      43.989  22.612  35.499  1.00  0.00    -0.200 F 
ENDBRANCH  64  87
ENDBRANCH  38  39
ENDBRANCH  31  33
ENDBRANCH  30  31
ENDBRANCH  29  30
ENDBRANCH  28  29
ENDBRANCH  27  28
ENDBRANCH  26  27
ENDBRANCH   1  26
TORSDOF 22
ENDMDL
MODEL 3
REMARK VINA RESULT:     -12.0      3.433      6.423
REMARK SMILES Cc1ccccc1OCC(=O)N1C[C@H](O)C[C@H]1C(=O)OCCOCCOCCOC(=O)c1ccc(-c2c3nc(c(-c4c(F)c(F)c(F)c(F)c4F)c4ccc([nH]4)c(-c4c(F)c(F)c(F)c(F)c4F)c4nc(c(-c5c(F)c(F)c(F)c(F)c5F)c5ccc2[nH]5)C=C4)C=C3)cc1
REMARK SMILES IDX 24 1 23 2 22 3 21 4 20 5 18 6 19 7 17 8 12 9 13 10 14 11
REMARK SMILES IDX 16 12 10 13 11 14 9 15 8 16 7 17 1 18 2 19 3 20 4 21 6 22
REMARK SMILES IDX 5 23 15 24 25 26 26 27 27 28 28 29 29 30 30 31 31 32 32 33
REMARK SMILES IDX 33 34 94 35 34 36 93 37 35 38 36 39 37 40 87 41 38 42 92 43
REMARK SMILES IDX 86 44 88 45 39 46 91 47 85 48 84 49 40 51 72 52 52 53 71 54
REMARK SMILES IDX 53 55 56 56 70 57 89 58 54 59 55 60 69 62 90 63 57 64 41 65
REMARK SMILES IDX 42 66 50 67 43 68 44 69 48 70 51 71 45 72 46 73 49 74 47 75
REMARK SMILES IDX 73 76 74 77 82 78 75 79 76 80 80 81 83 82 77 83 78 84 81 85
REMARK SMILES IDX 79 86 58 87 59 88 67 89 60 90 61 91 65 92 68 93 62 94 63 95
REMARK SMILES IDX 66 96 64 97
REMARK H PARENT 15 25 88 50 56 61
REMARK Flexibility Score: inf
ROOT
ATOM      1  C   UNL A   1      40.004  21.789  26.878  1.00  0.00     0.188 C 
ENDROOT
BRANCH   1   2
ATOM      2  O   UNL A   1      39.092  21.907  25.775  1.00  0.00    -0.376 OA
BRANCH   2   3
ATOM      3  C   UNL A   1      38.136  20.928  25.334  1.00  0.00     0.202 C 
BRANCH   3   4
ATOM      4  C   UNL A   1      36.424  20.984  25.097  1.00  0.00     0.261 C 
BRANCH   4   5
ATOM      5  O   UNL A   1      35.256  22.219  24.542  1.00  0.00    -0.462 OA
BRANCH   5   6
ATOM      6  C   UNL A   1      34.619  23.481  24.907  1.00  0.00     0.329 C 
ATOM      7  O   UNL A   1      35.056  24.391  25.636  1.00  0.00    -0.250 OA
BRANCH   6   8
ATOM      8  C   UNL A   1      33.297  23.963  24.396  1.00  0.00     0.198 C 
ATOM      9  N   UNL A   1      32.201  24.332  25.211  1.00  0.00    -0.323 N 
ATOM     10  C   UNL A   1      31.470  25.449  24.614  1.00  0.00     0.152 C 
ATOM     11  C   UNL A   1      32.175  25.781  23.290  1.00  0.00     0.136 C 
ATOM     12  C   UNL A   1      33.556  25.199  23.481  1.00  0.00     0.070 C 
BRANCH   9  13
ATOM     13  C   UNL A   1      31.745  23.309  25.990  1.00  0.00     0.261 C 
ATOM     14  O   UNL A   1      31.758  23.442  27.215  1.00  0.00    -0.271 OA
BRANCH  13  15
ATOM     15  C   UNL A   1      31.481  21.943  25.328  1.00  0.00     0.329 C 
BRANCH  15  16
ATOM     16  O   UNL A   1      32.313  20.817  25.592  1.00  0.00    -0.484 OA
BRANCH  16  17
ATOM     17  C   UNL A   1      32.429  20.023  24.481  1.00  0.00     0.122 A 
ATOM     18  C   UNL A   1      32.844  17.970  25.926  1.00  0.00     0.048 C 
ATOM     19  C   UNL A   1      32.603  18.637  24.607  1.00  0.00    -0.009 A 
ATOM     20  C   UNL A   1      32.494  17.848  23.454  1.00  0.00     0.007 A 
ATOM     21  C   UNL A   1      32.256  18.435  22.210  1.00  0.00     0.001 A 
ATOM     22  C   UNL A   1      32.242  20.620  23.234  1.00  0.00     0.047 A 
ATOM     23  C   UNL A   1      32.153  19.821  22.098  1.00  0.00     0.004 A 
ENDBRANCH  16  17
ENDBRANCH  15  16
ENDBRANCH  13  15
ENDBRANCH   9  13
BRANCH  11  24
ATOM     24  O   UNL A   1      31.496  25.165  22.198  1.00  0.00    -0.391 OA
ATOM     25  H   UNL A   1      31.927  24.324  21.981  1.00  0.00     0.211 HD
ENDBRANCH  11  24
ENDBRANCH   6   8
ENDBRANCH   5   6
ENDBRANCH   4   5
ENDBRANCH   3   4
ENDBRANCH   2   3
ENDBRANCH   1   2
BRANCH   1  26
ATOM     26  C   UNL A   1      40.824  22.965  27.378  1.00  0.00     0.188 C 
BRANCH  26  27
ATOM     27  O   UNL A   1      42.116  22.877  26.831  1.00  0.00    -0.376 OA
BRANCH  27  28
ATOM     28  C   UNL A   1      42.524  23.886  25.941  1.00  0.00     0.202 C 
BRANCH  28  29
ATOM     29  C   UNL A   1      41.692  25.184  26.029  1.00  0.00     0.261 C 
BRANCH  29  30
ATOM     30  O   UNL A   1      42.506  26.358  26.327  1.00  0.00    -0.460 OA
BRANCH  30  31
ATOM     31  C   UNL A   1      42.526  27.449  25.470  1.00  0.00     0.338 C 
ATOM     32  O   UNL A   1      42.915  27.421  24.333  1.00  0.00    -0.246 OA
BRANCH  31  33
ATOM     33  C   UNL A   1      42.182  28.707  26.247  1.00  0.00     0.060 A 
ATOM     34  C   UNL A   1      42.918  29.401  27.223  1.00  0.00     0.016 A 
ATOM     35  C   UNL A   1      40.868  28.951  26.280  1.00  0.00     0.016 A 
ATOM     36  C   UNL A   1      42.254  30.075  28.354  1.00  0.00     0.010 A 
ATOM     37  C   UNL A   1      40.372  29.164  27.544  1.00  0.00     0.010 A 
ATOM     38  C   UNL A   1      40.903  29.859  28.647  1.00  0.00    -0.014 A 
BRANCH  38  39
ATOM     39  C   UNL A   1      39.960  30.348  30.016  1.00  0.00     0.031 A 
ATOM     40  C   UNL A   1      38.967  31.815  30.329  1.00  0.00     0.074 A 
ATOM     41  C   UNL A   1      40.048  29.492  31.050  1.00  0.00     0.049 A 
ATOM     42  N   UNL A   1      38.942  32.493  31.458  1.00  0.00    -0.248 NA
ATOM     43  C   UNL A   1      38.167  32.765  29.349  1.00  0.00     0.031 C 
ATOM     44  C   UNL A   1      39.202  29.397  32.229  1.00  0.00     0.029 A 
ATOM     45  N   UNL A   1      40.983  28.462  31.219  1.00  0.00    -0.354 N 
ATOM     46  C   UNL A   1      38.051  33.579  31.251  1.00  0.00     0.074 A 
ATOM     47  C   UNL A   1      38.144  33.956  29.913  1.00  0.00     0.031 C 
ATOM     48  C   UNL A   1      39.824  28.612  33.130  1.00  0.00     0.029 A 
ATOM     49  C   UNL A   1      41.153  28.337  32.603  1.00  0.00     0.049 A 
ATOM     50  H   UNL A   1      41.428  27.939  30.513  1.00  0.00     0.167 HD
ATOM     51  C   UNL A   1      36.942  33.783  32.022  1.00  0.00     0.037 A 
ATOM     52  C   UNL A   1      42.335  28.741  33.146  1.00  0.00     0.037 A 
ATOM     53  C   UNL A   1      37.184  33.081  33.248  1.00  0.00     0.049 A 
ATOM     54  C   UNL A   1      42.094  29.905  34.080  1.00  0.00     0.074 A 
ATOM     55  C   UNL A   1      36.772  31.862  33.739  1.00  0.00     0.029 A 
ATOM     56  N   UNL A   1      38.360  33.411  33.896  1.00  0.00    -0.354 N 
ATOM     57  N   UNL A   1      41.110  30.763  33.960  1.00  0.00    -0.248 NA
ATOM     58  C   UNL A   1      42.861  30.097  35.302  1.00  0.00     0.031 C 
ATOM     59  C   UNL A   1      37.823  31.394  34.589  1.00  0.00     0.029 A 
ATOM     60  C   UNL A   1      38.827  32.351  34.633  1.00  0.00     0.049 A 
ATOM     61  H   UNL A   1      38.803  34.289  33.837  1.00  0.00     0.167 HD
ATOM     62  C   UNL A   1      41.062  31.555  35.075  1.00  0.00     0.074 A 
ATOM     63  C   UNL A   1      42.184  31.103  35.877  1.00  0.00     0.031 C 
ATOM     64  C   UNL A   1      40.105  32.504  35.309  1.00  0.00     0.037 A 
BRANCH  51  65
ATOM     65  C   UNL A   1      35.601  34.428  31.605  1.00  0.00     0.064 A 
ATOM     66  C   UNL A   1      35.017  35.376  32.472  1.00  0.00     0.173 A 
ATOM     67  C   UNL A   1      34.785  34.130  30.472  1.00  0.00     0.173 A 
ATOM     68  F   UNL A   1      35.647  35.748  33.594  1.00  0.00    -0.203 F 
ATOM     69  C   UNL A   1      33.763  35.967  32.234  1.00  0.00     0.198 A 
ATOM     70  C   UNL A   1      33.557  34.761  30.210  1.00  0.00     0.198 A 
ATOM     71  F   UNL A   1      35.077  33.176  29.584  1.00  0.00    -0.203 F 
ATOM     72  F   UNL A   1      33.252  36.822  33.131  1.00  0.00    -0.200 F 
ATOM     73  C   UNL A   1      33.040  35.673  31.097  1.00  0.00     0.200 A 
ATOM     74  F   UNL A   1      32.870  34.447  29.100  1.00  0.00    -0.200 F 
ATOM     75  F   UNL A   1      31.848  36.241  30.869  1.00  0.00    -0.200 F 
ENDBRANCH  51  65
BRANCH  52  76
ATOM     76  C   UNL A   1      43.515  28.473  32.249  1.00  0.00     0.064 A 
ATOM     77  C   UNL A   1      44.074  29.583  31.561  1.00  0.00     0.173 A 
ATOM     78  C   UNL A   1      44.304  27.319  32.305  1.00  0.00     0.173 A 
ATOM     79  F   UNL A   1      43.367  30.719  31.435  1.00  0.00    -0.203 F 
ATOM     80  C   UNL A   1      45.398  29.596  31.118  1.00  0.00     0.198 A 
ATOM     81  C   UNL A   1      45.619  27.317  31.802  1.00  0.00     0.198 A 
ATOM     82  F   UNL A   1      43.870  26.228  32.952  1.00  0.00    -0.203 F 
ATOM     83  F   UNL A   1      45.937  30.731  30.649  1.00  0.00    -0.200 F 
ATOM     84  C   UNL A   1      46.176  28.465  31.254  1.00  0.00     0.200 A 
ATOM     85  F   UNL A   1      46.406  26.246  31.996  1.00  0.00    -0.200 F 
ATOM     86  F   UNL A   1      47.478  28.504  30.934  1.00  0.00    -0.200 F 
ENDBRANCH  52  76
BRANCH  64  87
ATOM     87  C   UNL A   1      40.295  33.701  36.224  1.00  0.00     0.064 A 
ATOM     88  C   UNL A   1      41.073  34.818  35.882  1.00  0.00     0.173 A 
ATOM     89  C   UNL A   1      39.537  33.843  37.418  1.00  0.00     0.173 A 
ATOM     90  F   UNL A   1      41.701  34.909  34.703  1.00  0.00    -0.203 F 
ATOM     91  C   UNL A   1      41.184  35.928  36.719  1.00  0.00     0.198 A 
ATOM     92  C   UNL A   1      39.560  35.002  38.188  1.00  0.00     0.198 A 
ATOM     93  F   UNL A   1      38.714  32.883  37.862  1.00  0.00    -0.203 F 
ATOM     94  F   UNL A   1      42.022  36.920  36.389  1.00  0.00    -0.200 F 
ATOM     95  C   UNL A   1      40.418  36.028  37.863  1.00  0.00     0.200 A 
ATOM     96  F   UNL A   1      38.733  35.118  39.236  1.00  0.00    -0.200 F 
ATOM     97  F   UNL A   1      40.489  37.118  38.636  1.00  0.00    -0.200 F 
ENDBRANCH  64  87
ENDBRANCH  38  39
ENDBRANCH  31  33
ENDBRANCH  30  31
ENDBRANCH  29  30
ENDBRANCH  28  29
ENDBRANCH  27  28
ENDBRANCH  26  27
ENDBRANCH   1  26
TORSDOF 22
ENDMDL
