MODEL 1
REMARK VINA RESULT:     -12.7      0.000      0.000
REMARK SMILES Cc1cccc(NC(=O)[C@H]2C=C[C@@H]([NH3+])C2)c1C(=O)OCCOCCOCCOC(=O)c1ccc(-c2c3nc(c(-c4c(F)c(F)c(F)c(F)c4F)c4ccc([nH]4)c(-c4c(F)c(F)c(F)c(F)c4F)c4nc(c(-c5c(F)c(F)c(F)c(F)c5F)c5ccc2[nH]5)C=C4)C=C3)cc1
REMARK SMILES IDX 23 1 22 2 21 3 20 4 19 5 17 6 18 7 16 8 1 9 2 10 3 11 4 12
REMARK SMILES IDX 6 13 5 14 7 15 8 16 9 18 10 19 11 20 15 21 12 22 13 23 14 24
REMARK SMILES IDX 24 28 25 29 26 30 27 31 28 32 29 33 30 34 31 35 32 36 93 37
REMARK SMILES IDX 33 38 92 39 34 40 35 41 36 42 86 43 37 44 91 45 85 46 87 47
REMARK SMILES IDX 38 48 90 49 84 50 83 51 39 53 71 54 51 55 70 56 52 57 55 58
REMARK SMILES IDX 69 59 88 60 53 61 54 62 68 64 89 65 56 66 40 67 41 68 49 69
REMARK SMILES IDX 42 70 43 71 47 72 50 73 44 74 45 75 48 76 46 77 72 78 73 79
REMARK SMILES IDX 81 80 74 81 75 82 79 83 82 84 76 85 77 86 80 87 78 88 57 89
REMARK SMILES IDX 58 90 66 91 59 92 60 93 64 94 67 95 61 96 62 97 65 98 63 99
REMARK H PARENT 7 17 14 25 14 26 14 27 87 52 55 63
REMARK Flexibility Score: inf
ROOT
ATOM      1  C   UNL A   1      35.477  23.559  23.914  1.00  0.00     0.188 C 
ENDROOT
BRANCH   1   2
ATOM      2  O   UNL A   1      34.165  24.164  24.031  1.00  0.00    -0.376 OA
BRANCH   2   3
ATOM      3  C   UNL A   1      32.977  23.520  24.542  1.00  0.00     0.202 C 
BRANCH   3   4
ATOM      4  C   UNL A   1      31.577  24.364  25.022  1.00  0.00     0.261 C 
BRANCH   4   5
ATOM      5  O   UNL A   1      30.875  25.764  24.370  1.00  0.00    -0.460 OA
BRANCH   5   6
ATOM      6  C   UNL A   1      30.824  26.454  23.105  1.00  0.00     0.340 C 
ATOM      7  O   UNL A   1      31.443  26.187  22.076  1.00  0.00    -0.246 OA
BRANCH   6   8
ATOM      8  C   UNL A   1      30.058  27.676  22.788  1.00  0.00     0.086 A 
ATOM      9  C   UNL A   1      28.079  26.570  23.934  1.00  0.00     0.045 C 
ATOM     10  C   UNL A   1      28.720  27.714  23.199  1.00  0.00    -0.034 A 
ATOM     11  C   UNL A   1      28.041  28.934  23.119  1.00  0.00     0.004 A 
ATOM     12  C   UNL A   1      28.663  30.085  22.636  1.00  0.00     0.002 A 
ATOM     13  C   UNL A   1      30.757  28.922  22.416  1.00  0.00     0.056 A 
ATOM     14  C   UNL A   1      30.006  30.071  22.280  1.00  0.00     0.027 A 
BRANCH  13  15
ATOM     15  N   UNL A   1      32.187  29.043  22.431  1.00  0.00    -0.325 N 
ATOM     16  C   UNL A   1      33.234  28.959  23.306  1.00  0.00     0.231 C 
ATOM     17  H   UNL A   1      32.517  29.251  21.527  1.00  0.00     0.169 HD
ATOM     18  O   UNL A   1      34.345  28.786  22.770  1.00  0.00    -0.274 OA
BRANCH  16  19
ATOM     19  C   UNL A   1      33.254  29.088  24.844  1.00  0.00     0.107 C 
ATOM     20  C   UNL A   1      32.227  29.973  25.471  1.00  0.00    -0.012 C 
ATOM     21  C   UNL A   1      33.240  27.809  25.693  1.00  0.00     0.087 C 
ATOM     22  C   UNL A   1      31.766  29.457  26.616  1.00  0.00     0.033 C 
ATOM     23  C   UNL A   1      32.369  28.125  26.929  1.00  0.00     0.205 C 
BRANCH  23  24
ATOM     24  N   UNL A   1      31.336  27.126  27.159  1.00  0.00    -0.352 N 
ATOM     25  H   UNL A   1      31.116  26.657  26.281  1.00  0.00     0.345 HD
ATOM     26  H   UNL A   1      30.497  27.581  27.521  1.00  0.00     0.345 HD
ATOM     27  H   UNL A   1      31.671  26.441  27.836  1.00  0.00     0.345 HD
ENDBRANCH  23  24
ENDBRANCH  16  19
ENDBRANCH  13  15
ENDBRANCH   6   8
ENDBRANCH   5   6
ENDBRANCH   4   5
ENDBRANCH   3   4
ENDBRANCH   2   3
ENDBRANCH   1   2
BRANCH   1  28
ATOM     28  C   UNL A   1      36.507  23.458  25.050  1.00  0.00     0.188 C 
BRANCH  28  29
ATOM     29  O   UNL A   1      37.550  22.561  24.717  1.00  0.00    -0.376 OA
BRANCH  29  30
ATOM     30  C   UNL A   1      37.458  21.268  25.304  1.00  0.00     0.202 C 
BRANCH  30  31
ATOM     31  C   UNL A   1      38.827  20.664  25.705  1.00  0.00     0.261 C 
BRANCH  31  32
ATOM     32  O   UNL A   1      39.878  21.663  25.671  1.00  0.00    -0.460 OA
BRANCH  32  33
ATOM     33  C   UNL A   1      40.317  22.176  26.869  1.00  0.00     0.338 C 
ATOM     34  O   UNL A   1      40.606  21.503  27.846  1.00  0.00    -0.246 OA
BRANCH  33  35
ATOM     35  C   UNL A   1      40.171  23.674  26.875  1.00  0.00     0.060 A 
ATOM     36  C   UNL A   1      41.116  24.649  26.506  1.00  0.00     0.016 A 
ATOM     37  C   UNL A   1      39.142  24.133  27.613  1.00  0.00     0.016 A 
ATOM     38  C   UNL A   1      41.079  26.016  27.047  1.00  0.00     0.010 A 
ATOM     39  C   UNL A   1      39.365  25.319  28.299  1.00  0.00     0.010 A 
ATOM     40  C   UNL A   1      40.213  26.403  28.071  1.00  0.00    -0.014 A 
BRANCH  40  41
ATOM     41  C   UNL A   1      40.212  27.747  28.996  1.00  0.00     0.031 A 
ATOM     42  C   UNL A   1      39.280  29.170  29.049  1.00  0.00     0.074 A 
ATOM     43  C   UNL A   1      41.188  27.750  29.933  1.00  0.00     0.049 A 
ATOM     44  N   UNL A   1      39.712  30.308  29.566  1.00  0.00    -0.248 NA
ATOM     45  C   UNL A   1      37.889  29.494  28.531  1.00  0.00     0.031 C 
ATOM     46  C   UNL A   1      41.364  28.663  31.059  1.00  0.00     0.029 A 
ATOM     47  N   UNL A   1      42.358  26.970  29.953  1.00  0.00    -0.354 N 
ATOM     48  C   UNL A   1      38.660  31.230  29.594  1.00  0.00     0.074 A 
ATOM     49  C   UNL A   1      37.684  30.784  28.697  1.00  0.00     0.031 C 
ATOM     50  C   UNL A   1      42.656  28.655  31.415  1.00  0.00     0.029 A 
ATOM     51  C   UNL A   1      43.359  27.816  30.466  1.00  0.00     0.049 A 
ATOM     52  H   UNL A   1      42.456  26.032  29.670  1.00  0.00     0.167 HD
ATOM     53  C   UNL A   1      38.551  32.260  30.470  1.00  0.00     0.037 A 
ATOM     54  C   UNL A   1      44.430  28.167  29.705  1.00  0.00     0.037 A 
ATOM     55  C   UNL A   1      39.859  32.593  30.953  1.00  0.00     0.049 A 
ATOM     56  C   UNL A   1      44.562  29.661  29.502  1.00  0.00     0.074 A 
ATOM     57  C   UNL A   1      40.548  32.357  32.121  1.00  0.00     0.029 A 
ATOM     58  N   UNL A   1      40.796  32.942  29.989  1.00  0.00    -0.354 N 
ATOM     59  N   UNL A   1      43.713  30.552  29.943  1.00  0.00    -0.248 NA
ATOM     60  C   UNL A   1      45.655  30.269  28.751  1.00  0.00     0.031 C 
ATOM     61  C   UNL A   1      41.937  32.391  31.790  1.00  0.00     0.029 A 
ATOM     62  C   UNL A   1      42.075  32.719  30.449  1.00  0.00     0.049 A 
ATOM     63  H   UNL A   1      40.576  33.299  29.099  1.00  0.00     0.167 HD
ATOM     64  C   UNL A   1      44.030  31.781  29.425  1.00  0.00     0.074 A 
ATOM     65  C   UNL A   1      45.301  31.564  28.761  1.00  0.00     0.031 C 
ATOM     66  C   UNL A   1      43.194  32.860  29.520  1.00  0.00     0.037 A 
BRANCH  53  67
ATOM     67  C   UNL A   1      37.222  32.900  30.877  1.00  0.00     0.064 A 
ATOM     68  C   UNL A   1      36.668  32.668  32.149  1.00  0.00     0.173 A 
ATOM     69  C   UNL A   1      36.385  33.668  30.018  1.00  0.00     0.173 A 
ATOM     70  F   UNL A   1      37.309  31.899  33.040  1.00  0.00    -0.203 F 
ATOM     71  C   UNL A   1      35.424  33.196  32.540  1.00  0.00     0.198 A 
ATOM     72  C   UNL A   1      35.187  34.261  30.435  1.00  0.00     0.198 A 
ATOM     73  F   UNL A   1      36.644  33.822  28.712  1.00  0.00    -0.203 F 
ATOM     74  F   UNL A   1      34.918  32.892  33.744  1.00  0.00    -0.200 F 
ATOM     75  C   UNL A   1      34.700  34.016  31.695  1.00  0.00     0.200 A 
ATOM     76  F   UNL A   1      34.499  35.041  29.586  1.00  0.00    -0.200 F 
ATOM     77  F   UNL A   1      33.523  34.535  32.076  1.00  0.00    -0.200 F 
ENDBRANCH  53  67
BRANCH  54  78
ATOM     78  C   UNL A   1      44.852  27.081  28.766  1.00  0.00     0.064 A 
ATOM     79  C   UNL A   1      44.482  27.206  27.408  1.00  0.00     0.173 A 
ATOM     80  C   UNL A   1      45.866  26.165  29.062  1.00  0.00     0.173 A 
ATOM     81  F   UNL A   1      43.508  28.062  27.056  1.00  0.00    -0.203 F 
ATOM     82  C   UNL A   1      45.181  26.556  26.392  1.00  0.00     0.198 A 
ATOM     83  C   UNL A   1      46.552  25.493  28.039  1.00  0.00     0.198 A 
ATOM     84  F   UNL A   1      46.292  26.017  30.322  1.00  0.00    -0.203 F 
ATOM     85  F   UNL A   1      44.881  26.803  25.109  1.00  0.00    -0.200 F 
ATOM     86  C   UNL A   1      46.234  25.720  26.707  1.00  0.00     0.200 A 
ATOM     87  F   UNL A   1      47.619  24.733  28.333  1.00  0.00    -0.200 F 
ATOM     88  F   UNL A   1      46.985  25.185  25.732  1.00  0.00    -0.200 F 
ENDBRANCH  54  78
BRANCH  66  89
ATOM     89  C   UNL A   1      43.336  34.143  28.718  1.00  0.00     0.064 A 
ATOM     90  C   UNL A   1      43.506  34.192  27.323  1.00  0.00     0.173 A 
ATOM     91  C   UNL A   1      43.150  35.401  29.344  1.00  0.00     0.173 A 
ATOM     92  F   UNL A   1      43.549  33.078  26.580  1.00  0.00    -0.203 F 
ATOM     93  C   UNL A   1      43.577  35.401  26.623  1.00  0.00     0.198 A 
ATOM     94  C   UNL A   1      43.140  36.600  28.630  1.00  0.00     0.198 A 
ATOM     95  F   UNL A   1      42.940  35.500  30.665  1.00  0.00    -0.203 F 
ATOM     96  F   UNL A   1      43.811  35.391  25.303  1.00  0.00    -0.200 F 
ATOM     97  C   UNL A   1      43.381  36.602  27.273  1.00  0.00     0.200 A 
ATOM     98  F   UNL A   1      42.876  37.751  29.265  1.00  0.00    -0.200 F 
ATOM     99  F   UNL A   1      43.402  37.756  26.591  1.00  0.00    -0.200 F 
ENDBRANCH  66  89
ENDBRANCH  40  41
ENDBRANCH  33  35
ENDBRANCH  32  33
ENDBRANCH  31  32
ENDBRANCH  30  31
ENDBRANCH  29  30
ENDBRANCH  28  29
ENDBRANCH   1  28
TORSDOF 20
ENDMDL
MODEL 2
REMARK VINA RESULT:     -12.5      3.758      9.891
REMARK SMILES Cc1cccc(NC(=O)[C@H]2C=C[C@@H]([NH3+])C2)c1C(=O)OCCOCCOCCOC(=O)c1ccc(-c2c3nc(c(-c4c(F)c(F)c(F)c(F)c4F)c4ccc([nH]4)c(-c4c(F)c(F)c(F)c(F)c4F)c4nc(c(-c5c(F)c(F)c(F)c(F)c5F)c5ccc2[nH]5)C=C4)C=C3)cc1
REMARK SMILES IDX 23 1 22 2 21 3 20 4 19 5 17 6 18 7 16 8 1 9 2 10 3 11 4 12
REMARK SMILES IDX 6 13 5 14 7 15 8 16 9 18 10 19 11 20 15 21 12 22 13 23 14 24
REMARK SMILES IDX 24 28 25 29 26 30 27 31 28 32 29 33 30 34 31 35 32 36 93 37
REMARK SMILES IDX 33 38 92 39 34 40 35 41 36 42 86 43 37 44 91 45 85 46 87 47
REMARK SMILES IDX 38 48 90 49 84 50 83 51 39 53 71 54 51 55 70 56 52 57 55 58
REMARK SMILES IDX 69 59 88 60 53 61 54 62 68 64 89 65 56 66 40 67 41 68 49 69
REMARK SMILES IDX 42 70 43 71 47 72 50 73 44 74 45 75 48 76 46 77 72 78 73 79
REMARK SMILES IDX 81 80 74 81 75 82 79 83 82 84 76 85 77 86 80 87 78 88 57 89
REMARK SMILES IDX 58 90 66 91 59 92 60 93 64 94 67 95 61 96 62 97 65 98 63 99
REMARK H PARENT 7 17 14 25 14 26 14 27 87 52 55 63
REMARK Flexibility Score: inf
ROOT
ATOM      1  C   UNL A   1      34.073  32.495  27.859  1.00  0.00     0.188 C 
ENDROOT
BRANCH   1   2
ATOM      2  O   UNL A   1      33.701  31.129  27.546  1.00  0.00    -0.376 OA
BRANCH   2   3
ATOM      3  C   UNL A   1      32.490  30.713  26.876  1.00  0.00     0.202 C 
BRANCH   3   4
ATOM      4  C   UNL A   1      31.783  29.176  27.074  1.00  0.00     0.261 C 
BRANCH   4   5
ATOM      5  O   UNL A   1      32.412  27.637  26.734  1.00  0.00    -0.460 OA
BRANCH   5   6
ATOM      6  C   UNL A   1      31.945  26.372  26.222  1.00  0.00     0.340 C 
ATOM      7  O   UNL A   1      31.309  25.507  26.821  1.00  0.00    -0.246 OA
BRANCH   6   8
ATOM      8  C   UNL A   1      32.187  25.814  24.877  1.00  0.00     0.086 A 
ATOM      9  C   UNL A   1      34.402  24.958  25.778  1.00  0.00     0.045 C 
ATOM     10  C   UNL A   1      33.392  25.129  24.678  1.00  0.00    -0.034 A 
ATOM     11  C   UNL A   1      33.546  24.399  23.495  1.00  0.00     0.004 A 
ATOM     12  C   UNL A   1      32.543  24.355  22.528  1.00  0.00     0.002 A 
ATOM     13  C   UNL A   1      31.072  25.650  23.924  1.00  0.00     0.056 A 
ATOM     14  C   UNL A   1      31.322  24.984  22.742  1.00  0.00     0.027 A 
BRANCH  13  15
ATOM     15  N   UNL A   1      29.707  25.926  24.272  1.00  0.00    -0.325 N 
ATOM     16  C   UNL A   1      28.666  26.718  23.875  1.00  0.00     0.231 C 
ATOM     17  H   UNL A   1      29.435  25.369  25.037  1.00  0.00     0.169 HD
ATOM     18  O   UNL A   1      27.547  26.339  24.265  1.00  0.00    -0.274 OA
BRANCH  16  19
ATOM     19  C   UNL A   1      28.673  28.027  23.057  1.00  0.00     0.107 C 
ATOM     20  C   UNL A   1      27.457  28.891  23.136  1.00  0.00    -0.012 C 
ATOM     21  C   UNL A   1      29.853  28.995  23.221  1.00  0.00     0.087 C 
ATOM     22  C   UNL A   1      27.777  30.190  23.155  1.00  0.00     0.033 C 
ATOM     23  C   UNL A   1      29.255  30.417  23.138  1.00  0.00     0.205 C 
BRANCH  23  24
ATOM     24  N   UNL A   1      29.665  31.265  24.248  1.00  0.00    -0.352 N 
ATOM     25  H   UNL A   1      30.650  31.099  24.456  1.00  0.00     0.345 HD
ATOM     26  H   UNL A   1      29.102  31.046  25.070  1.00  0.00     0.345 HD
ATOM     27  H   UNL A   1      29.532  32.244  23.995  1.00  0.00     0.345 HD
ENDBRANCH  23  24
ENDBRANCH  16  19
ENDBRANCH  13  15
ENDBRANCH   6   8
ENDBRANCH   5   6
ENDBRANCH   4   5
ENDBRANCH   3   4
ENDBRANCH   2   3
ENDBRANCH   1   2
BRANCH   1  28
ATOM     28  C   UNL A   1      33.090  33.665  28.011  1.00  0.00     0.188 C 
BRANCH  28  29
ATOM     29  O   UNL A   1      33.740  34.818  28.515  1.00  0.00    -0.376 OA
BRANCH  29  30
ATOM     30  C   UNL A   1      32.906  35.738  29.210  1.00  0.00     0.202 C 
BRANCH  30  31
ATOM     31  C   UNL A   1      33.241  35.872  30.716  1.00  0.00     0.261 C 
BRANCH  31  32
ATOM     32  O   UNL A   1      34.461  35.165  31.053  1.00  0.00    -0.460 OA
BRANCH  32  33
ATOM     33  C   UNL A   1      34.438  34.322  32.139  1.00  0.00     0.338 C 
ATOM     34  O   UNL A   1      34.035  34.635  33.249  1.00  0.00    -0.246 OA
BRANCH  33  35
ATOM     35  C   UNL A   1      35.184  33.053  31.826  1.00  0.00     0.060 A 
ATOM     36  C   UNL A   1      35.577  32.027  32.704  1.00  0.00     0.016 A 
ATOM     37  C   UNL A   1      35.817  33.055  30.637  1.00  0.00     0.016 A 
ATOM     38  C   UNL A   1      36.723  31.151  32.417  1.00  0.00     0.010 A 
ATOM     39  C   UNL A   1      37.045  32.409  30.599  1.00  0.00     0.010 A 
ATOM     40  C   UNL A   1      37.591  31.364  31.346  1.00  0.00    -0.014 A 
BRANCH  40  41
ATOM     41  C   UNL A   1      39.052  30.710  31.029  1.00  0.00     0.031 A 
ATOM     42  C   UNL A   1      39.592  29.246  30.347  1.00  0.00     0.074 A 
ATOM     43  C   UNL A   1      40.084  31.499  31.409  1.00  0.00     0.049 A 
ATOM     44  N   UNL A   1      40.784  28.726  30.584  1.00  0.00    -0.248 NA
ATOM     45  C   UNL A   1      38.914  28.238  29.437  1.00  0.00     0.031 C 
ATOM     46  C   UNL A   1      41.503  31.350  31.099  1.00  0.00     0.029 A 
ATOM     47  N   UNL A   1      40.054  32.564  32.326  1.00  0.00    -0.354 N 
ATOM     48  C   UNL A   1      40.973  27.612  29.759  1.00  0.00     0.074 A 
ATOM     49  C   UNL A   1      39.714  27.199  29.313  1.00  0.00     0.031 C 
ATOM     50  C   UNL A   1      42.212  31.993  32.038  1.00  0.00     0.029 A 
ATOM     51  C   UNL A   1      41.273  32.484  33.026  1.00  0.00     0.049 A 
ATOM     52  H   UNL A   1      39.334  33.225  32.452  1.00  0.00     0.167 HD
ATOM     53  C   UNL A   1      42.178  27.149  29.340  1.00  0.00     0.037 A 
ATOM     54  C   UNL A   1      41.292  32.237  34.363  1.00  0.00     0.037 A 
ATOM     55  C   UNL A   1      43.184  27.582  30.265  1.00  0.00     0.049 A 
ATOM     56  C   UNL A   1      42.058  30.986  34.734  1.00  0.00     0.074 A 
ATOM     57  C   UNL A   1      44.145  28.566  30.259  1.00  0.00     0.029 A 
ATOM     58  N   UNL A   1      43.006  27.193  31.587  1.00  0.00    -0.354 N 
ATOM     59  N   UNL A   1      42.603  30.162  33.876  1.00  0.00    -0.248 NA
ATOM     60  C   UNL A   1      42.243  30.545  36.112  1.00  0.00     0.031 C 
ATOM     61  C   UNL A   1      44.408  28.892  31.624  1.00  0.00     0.029 A 
ATOM     62  C   UNL A   1      43.662  28.053  32.440  1.00  0.00     0.049 A 
ATOM     63  H   UNL A   1      42.483  26.411  31.874  1.00  0.00     0.167 HD
ATOM     64  C   UNL A   1      43.048  29.046  34.535  1.00  0.00     0.074 A 
ATOM     65  C   UNL A   1      42.879  29.375  35.937  1.00  0.00     0.031 C 
ATOM     66  C   UNL A   1      43.453  27.915  33.879  1.00  0.00     0.037 A 
BRANCH  53  67
ATOM     67  C   UNL A   1      42.383  26.338  28.059  1.00  0.00     0.064 A 
ATOM     68  C   UNL A   1      42.134  24.953  28.033  1.00  0.00     0.173 A 
ATOM     69  C   UNL A   1      42.930  26.845  26.846  1.00  0.00     0.173 A 
ATOM     70  F   UNL A   1      41.689  24.322  29.128  1.00  0.00    -0.203 F 
ATOM     71  C   UNL A   1      42.362  24.166  26.890  1.00  0.00     0.198 A 
ATOM     72  C   UNL A   1      43.078  26.078  25.685  1.00  0.00     0.198 A 
ATOM     73  F   UNL A   1      43.420  28.089  26.745  1.00  0.00    -0.203 F 
ATOM     74  F   UNL A   1      42.164  22.841  26.942  1.00  0.00    -0.200 F 
ATOM     75  C   UNL A   1      42.804  24.733  25.709  1.00  0.00     0.200 A 
ATOM     76  F   UNL A   1      43.523  26.655  24.557  1.00  0.00    -0.200 F 
ATOM     77  F   UNL A   1      43.001  23.984  24.614  1.00  0.00    -0.200 F 
ENDBRANCH  53  67
BRANCH  54  78
ATOM     78  C   UNL A   1      40.119  32.830  35.077  1.00  0.00     0.064 A 
ATOM     79  C   UNL A   1      39.110  31.950  35.529  1.00  0.00     0.173 A 
ATOM     80  C   UNL A   1      40.129  34.115  35.630  1.00  0.00     0.173 A 
ATOM     81  F   UNL A   1      39.039  30.704  35.032  1.00  0.00    -0.203 F 
ATOM     82  C   UNL A   1      38.251  32.288  36.573  1.00  0.00     0.198 A 
ATOM     83  C   UNL A   1      39.247  34.461  36.665  1.00  0.00     0.198 A 
ATOM     84  F   UNL A   1      41.075  34.992  35.274  1.00  0.00    -0.203 F 
ATOM     85  F   UNL A   1      37.396  31.377  37.059  1.00  0.00    -0.200 F 
ATOM     86  C   UNL A   1      38.339  33.536  37.160  1.00  0.00     0.200 A 
ATOM     87  F   UNL A   1      39.371  35.646  37.284  1.00  0.00    -0.200 F 
ATOM     88  F   UNL A   1      37.598  33.826  38.239  1.00  0.00    -0.200 F 
ENDBRANCH  54  78
BRANCH  66  89
ATOM     89  C   UNL A   1      43.659  26.559  34.533  1.00  0.00     0.064 A 
ATOM     90  C   UNL A   1      42.617  25.709  34.945  1.00  0.00     0.173 A 
ATOM     91  C   UNL A   1      44.959  26.002  34.629  1.00  0.00     0.173 A 
ATOM     92  F   UNL A   1      41.331  26.042  34.777  1.00  0.00    -0.203 F 
ATOM     93  C   UNL A   1      42.859  24.444  35.492  1.00  0.00     0.198 A 
ATOM     94  C   UNL A   1      45.190  24.709  35.099  1.00  0.00     0.198 A 
ATOM     95  F   UNL A   1      46.043  26.688  34.237  1.00  0.00    -0.203 F 
ATOM     96  F   UNL A   1      41.831  23.705  35.932  1.00  0.00    -0.200 F 
ATOM     97  C   UNL A   1      44.142  23.940  35.557  1.00  0.00     0.200 A 
ATOM     98  F   UNL A   1      46.434  24.207  35.088  1.00  0.00    -0.200 F 
ATOM     99  F   UNL A   1      44.364  22.709  36.038  1.00  0.00    -0.200 F 
ENDBRANCH  66  89
ENDBRANCH  40  41
ENDBRANCH  33  35
ENDBRANCH  32  33
ENDBRANCH  31  32
ENDBRANCH  30  31
ENDBRANCH  29  30
ENDBRANCH  28  29
ENDBRANCH   1  28
TORSDOF 20
ENDMDL
MODEL 3
REMARK VINA RESULT:     -12.5      3.973     10.009
REMARK SMILES Cc1cccc(NC(=O)[C@H]2C=C[C@@H]([NH3+])C2)c1C(=O)OCCOCCOCCOC(=O)c1ccc(-c2c3nc(c(-c4c(F)c(F)c(F)c(F)c4F)c4ccc([nH]4)c(-c4c(F)c(F)c(F)c(F)c4F)c4nc(c(-c5c(F)c(F)c(F)c(F)c5F)c5ccc2[nH]5)C=C4)C=C3)cc1
REMARK SMILES IDX 23 1 22 2 21 3 20 4 19 5 17 6 18 7 16 8 1 9 2 10 3 11 4 12
REMARK SMILES IDX 6 13 5 14 7 15 8 16 9 18 10 19 11 20 15 21 12 22 13 23 14 24
REMARK SMILES IDX 24 28 25 29 26 30 27 31 28 32 29 33 30 34 31 35 32 36 93 37
REMARK SMILES IDX 33 38 92 39 34 40 35 41 36 42 86 43 37 44 91 45 85 46 87 47
REMARK SMILES IDX 38 48 90 49 84 50 83 51 39 53 71 54 51 55 70 56 52 57 55 58
REMARK SMILES IDX 69 59 88 60 53 61 54 62 68 64 89 65 56 66 40 67 41 68 49 69
REMARK SMILES IDX 42 70 43 71 47 72 50 73 44 74 45 75 48 76 46 77 72 78 73 79
REMARK SMILES IDX 81 80 74 81 75 82 79 83 82 84 76 85 77 86 80 87 78 88 57 89
REMARK SMILES IDX 58 90 66 91 59 92 60 93 64 94 67 95 61 96 62 97 65 98 63 99
REMARK H PARENT 7 17 14 25 14 26 14 27 87 52 55 63
REMARK Flexibility Score: inf
ROOT
ATOM      1  C   UNL A   1      34.841  33.392  28.072  1.00  0.00     0.188 C 
ENDROOT
BRANCH   1   2
ATOM      2  O   UNL A   1      35.161  31.995  27.859  1.00  0.00    -0.376 OA
BRANCH   2   3
ATOM      3  C   UNL A   1      34.226  30.960  27.480  1.00  0.00     0.202 C 
BRANCH   3   4
ATOM      4  C   UNL A   1      34.577  29.295  27.564  1.00  0.00     0.261 C 
BRANCH   4   5
ATOM      5  O   UNL A   1      34.136  28.036  26.515  1.00  0.00    -0.460 OA
BRANCH   5   6
ATOM      6  C   UNL A   1      33.660  27.879  25.163  1.00  0.00     0.340 C 
ATOM      7  O   UNL A   1      34.236  28.188  24.121  1.00  0.00    -0.246 OA
BRANCH   6   8
ATOM      8  C   UNL A   1      32.343  27.364  24.738  1.00  0.00     0.086 A 
ATOM      9  C   UNL A   1      31.456  29.716  25.109  1.00  0.00     0.045 C 
ATOM     10  C   UNL A   1      31.279  28.275  24.721  1.00  0.00    -0.034 A 
ATOM     11  C   UNL A   1      30.084  27.879  24.111  1.00  0.00     0.004 A 
ATOM     12  C   UNL A   1      29.939  26.613  23.543  1.00  0.00     0.002 A 
ATOM     13  C   UNL A   1      32.238  26.084  24.011  1.00  0.00     0.056 A 
ATOM     14  C   UNL A   1      31.006  25.725  23.505  1.00  0.00     0.027 A 
BRANCH  13  15
ATOM     15  N   UNL A   1      33.388  25.329  23.601  1.00  0.00    -0.325 N 
ATOM     16  C   UNL A   1      33.837  24.038  23.576  1.00  0.00     0.231 C 
ATOM     17  H   UNL A   1      34.066  25.931  23.216  1.00  0.00     0.169 HD
ATOM     18  O   UNL A   1      34.772  23.830  22.781  1.00  0.00    -0.274 OA
BRANCH  16  19
ATOM     19  C   UNL A   1      33.392  22.818  24.410  1.00  0.00     0.107 C 
ATOM     20  C   UNL A   1      34.186  21.561  24.264  1.00  0.00    -0.012 C 
ATOM     21  C   UNL A   1      33.202  22.986  25.924  1.00  0.00     0.087 C 
ATOM     22  C   UNL A   1      34.325  20.928  25.434  1.00  0.00     0.033 C 
ATOM     23  C   UNL A   1      33.691  21.669  26.566  1.00  0.00     0.205 C 
BRANCH  23  24
ATOM     24  N   UNL A   1      34.644  21.891  27.644  1.00  0.00    -0.352 N 
ATOM     25  H   UNL A   1      35.535  21.458  27.403  1.00  0.00     0.345 HD
ATOM     26  H   UNL A   1      34.286  21.476  28.505  1.00  0.00     0.345 HD
ATOM     27  H   UNL A   1      34.778  22.893  27.779  1.00  0.00     0.345 HD
ENDBRANCH  23  24
ENDBRANCH  16  19
ENDBRANCH  13  15
ENDBRANCH   6   8
ENDBRANCH   5   6
ENDBRANCH   4   5
ENDBRANCH   3   4
ENDBRANCH   2   3
ENDBRANCH   1   2
BRANCH   1  28
ATOM     28  C   UNL A   1      33.482  34.043  27.772  1.00  0.00     0.188 C 
BRANCH  28  29
ATOM     29  O   UNL A   1      32.787  34.350  28.966  1.00  0.00    -0.376 OA
BRANCH  29  30
ATOM     30  C   UNL A   1      32.917  35.692  29.424  1.00  0.00     0.202 C 
BRANCH  30  31
ATOM     31  C   UNL A   1      32.784  35.845  30.959  1.00  0.00     0.261 C 
BRANCH  31  32
ATOM     32  O   UNL A   1      33.131  34.616  31.647  1.00  0.00    -0.460 OA
BRANCH  32  33
ATOM     33  C   UNL A   1      34.077  34.681  32.643  1.00  0.00     0.338 C 
ATOM     34  O   UNL A   1      34.306  35.674  33.316  1.00  0.00    -0.246 OA
BRANCH  33  35
ATOM     35  C   UNL A   1      34.933  33.443  32.626  1.00  0.00     0.060 A 
ATOM     36  C   UNL A   1      35.659  32.864  33.682  1.00  0.00     0.016 A 
ATOM     37  C   UNL A   1      35.295  33.031  31.396  1.00  0.00     0.016 A 
ATOM     38  C   UNL A   1      36.843  32.024  33.447  1.00  0.00     0.010 A 
ATOM     39  C   UNL A   1      36.575  32.504  31.282  1.00  0.00     0.010 A 
ATOM     40  C   UNL A   1      37.424  31.868  32.188  1.00  0.00    -0.014 A 
BRANCH  40  41
ATOM     41  C   UNL A   1      38.871  31.243  31.767  1.00  0.00     0.031 A 
ATOM     42  C   UNL A   1      39.383  29.850  30.933  1.00  0.00     0.074 A 
ATOM     43  C   UNL A   1      39.918  31.990  32.189  1.00  0.00     0.049 A 
ATOM     44  N   UNL A   1      40.579  29.306  31.084  1.00  0.00    -0.248 NA
ATOM     45  C   UNL A   1      38.673  28.934  29.952  1.00  0.00     0.031 C 
ATOM     46  C   UNL A   1      41.326  31.867  31.825  1.00  0.00     0.029 A 
ATOM     47  N   UNL A   1      39.920  32.963  33.204  1.00  0.00    -0.354 N 
ATOM     48  C   UNL A   1      40.738  28.275  30.152  1.00  0.00     0.074 A 
ATOM     49  C   UNL A   1      39.463  27.910  29.706  1.00  0.00     0.031 C 
ATOM     50  C   UNL A   1      42.066  32.416  32.799  1.00  0.00     0.029 A 
ATOM     51  C   UNL A   1      41.159  32.814  33.856  1.00  0.00     0.049 A 
ATOM     52  H   UNL A   1      39.208  33.610  33.414  1.00  0.00     0.167 HD
ATOM     53  C   UNL A   1      41.927  27.851  29.655  1.00  0.00     0.037 A 
ATOM     54  C   UNL A   1      41.216  32.441  35.163  1.00  0.00     0.037 A 
ATOM     55  C   UNL A   1      42.962  28.192  30.587  1.00  0.00     0.049 A 
ATOM     56  C   UNL A   1      41.986  31.159  35.390  1.00  0.00     0.074 A 
ATOM     57  C   UNL A   1      43.928  29.170  30.645  1.00  0.00     0.029 A 
ATOM     58  N   UNL A   1      42.821  27.680  31.871  1.00  0.00    -0.354 N 
ATOM     59  N   UNL A   1      42.501  30.418  34.443  1.00  0.00    -0.248 NA
ATOM     60  C   UNL A   1      42.209  30.587  36.714  1.00  0.00     0.031 C 
ATOM     61  C   UNL A   1      44.233  29.363  32.027  1.00  0.00     0.029 A 
ATOM     62  C   UNL A   1      43.507  28.453  32.782  1.00  0.00     0.049 A 
ATOM     63  H   UNL A   1      42.302  26.874  32.098  1.00  0.00     0.167 HD
ATOM     64  C   UNL A   1      42.960  29.243  34.979  1.00  0.00     0.074 A 
ATOM     65  C   UNL A   1      42.833  29.438  36.410  1.00  0.00     0.031 C 
ATOM     66  C   UNL A   1      43.339  28.179  34.207  1.00  0.00     0.037 A 
BRANCH  53  67
ATOM     67  C   UNL A   1      42.091  27.165  28.298  1.00  0.00     0.064 A 
ATOM     68  C   UNL A   1      42.136  27.917  27.109  1.00  0.00     0.173 A 
ATOM     69  C   UNL A   1      42.100  25.757  28.086  1.00  0.00     0.173 A 
ATOM     70  F   UNL A   1      42.060  29.254  27.147  1.00  0.00    -0.203 F 
ATOM     71  C   UNL A   1      42.233  27.318  25.840  1.00  0.00     0.198 A 
ATOM     72  C   UNL A   1      42.280  25.165  26.831  1.00  0.00     0.198 A 
ATOM     73  F   UNL A   1      41.860  24.881  29.073  1.00  0.00    -0.203 F 
ATOM     74  F   UNL A   1      42.211  28.083  24.739  1.00  0.00    -0.200 F 
ATOM     75  C   UNL A   1      42.335  25.946  25.703  1.00  0.00     0.200 A 
ATOM     76  F   UNL A   1      42.361  23.828  26.729  1.00  0.00    -0.200 F 
ATOM     77  F   UNL A   1      42.448  25.379  24.493  1.00  0.00    -0.200 F 
ENDBRANCH  53  67
BRANCH  54  78
ATOM     78  C   UNL A   1      40.068  32.966  35.964  1.00  0.00     0.064 A 
ATOM     79  C   UNL A   1      39.052  32.056  36.334  1.00  0.00     0.173 A 
ATOM     80  C   UNL A   1      40.111  34.179  36.660  1.00  0.00     0.173 A 
ATOM     81  F   UNL A   1      38.949  30.877  35.699  1.00  0.00    -0.203 F 
ATOM     82  C   UNL A   1      38.220  32.286  37.428  1.00  0.00     0.198 A 
ATOM     83  C   UNL A   1      39.256  34.418  37.746  1.00  0.00     0.198 A 
ATOM     84  F   UNL A   1      41.065  35.076  36.388  1.00  0.00    -0.203 F 
ATOM     85  F   UNL A   1      37.358  31.337  37.824  1.00  0.00    -0.200 F 
ATOM     86  C   UNL A   1      38.341  33.456  38.151  1.00  0.00     0.200 A 
ATOM     87  F   UNL A   1      39.412  35.522  38.494  1.00  0.00    -0.200 F 
ATOM     88  F   UNL A   1      37.626  33.632  39.272  1.00  0.00    -0.200 F 
ENDBRANCH  54  78
BRANCH  66  89
ATOM     89  C   UNL A   1      43.557  26.766  34.722  1.00  0.00     0.064 A 
ATOM     90  C   UNL A   1      42.526  25.902  35.132  1.00  0.00     0.173 A 
ATOM     91  C   UNL A   1      44.846  26.180  34.674  1.00  0.00     0.173 A 
ATOM     92  F   UNL A   1      41.240  26.273  35.088  1.00  0.00    -0.203 F 
ATOM     93  C   UNL A   1      42.774  24.590  35.548  1.00  0.00     0.198 A 
ATOM     94  C   UNL A   1      45.078  24.846  35.012  1.00  0.00     0.198 A 
ATOM     95  F   UNL A   1      45.917  26.878  34.266  1.00  0.00    -0.203 F 
ATOM     96  F   UNL A   1      41.762  23.833  35.995  1.00  0.00    -0.200 F 
ATOM     97  C   UNL A   1      44.046  24.058  35.476  1.00  0.00     0.200 A 
ATOM     98  F   UNL A   1      46.305  24.324  34.867  1.00  0.00    -0.200 F 
ATOM     99  F   UNL A   1      44.271  22.785  35.829  1.00  0.00    -0.200 F 
ENDBRANCH  66  89
ENDBRANCH  40  41
ENDBRANCH  33  35
ENDBRANCH  32  33
ENDBRANCH  31  32
ENDBRANCH  30  31
ENDBRANCH  29  30
ENDBRANCH  28  29
ENDBRANCH   1  28
TORSDOF 20
ENDMDL
