MODEL 1
REMARK VINA RESULT:     -10.6      0.000      0.000
REMARK SMILES O=C(OCCOCCOCCOC(=O)c1nn(-c2ccc(Br)cc2F)cc1CCCO)c1ccc(-c2c3nc(c(-c4c(F)c(F)c(F)c(F)c4F)c4ccc([nH]4)c(-c4c(F)c(F)c(F)c(F)c4F)c4nc(c(-c5c(F)c(F)c(F)c(F)c5F)c5ccc2[nH]5)C=C4)C=C3)cc1
REMARK SMILES IDX 8 1 7 2 6 3 5 4 4 5 3 6 2 7 1 8 32 9 33 10 94 11 34 12 93 13
REMARK SMILES IDX 35 14 36 15 37 16 87 17 38 18 92 19 86 20 88 21 39 22 91 23
REMARK SMILES IDX 85 24 84 25 40 27 72 28 52 29 71 30 53 31 56 32 70 33 89 34
REMARK SMILES IDX 54 35 55 36 69 38 90 39 57 40 41 41 42 42 50 43 43 44 44 45
REMARK SMILES IDX 48 46 51 47 45 48 46 49 49 50 47 51 73 52 74 53 82 54 75 55
REMARK SMILES IDX 76 56 80 57 83 58 77 59 78 60 81 61 79 62 58 63 59 64 67 65
REMARK SMILES IDX 60 66 61 67 65 68 68 69 62 70 63 71 66 72 64 73 9 74 10 75
REMARK SMILES IDX 11 76 12 77 13 78 14 79 15 80 16 81 27 82 17 83 26 84 28 85
REMARK SMILES IDX 29 86 30 87 31 88 18 90 19 91 24 92 20 93 23 94 25 95 21 96
REMARK SMILES IDX 22 97
REMARK H PARENT 88 26 56 37 31 89
REMARK Flexibility Score: inf
ROOT
ATOM      1  C   UNL A   1      34.498  31.967  27.657  1.00  0.00     0.188 C 
ENDROOT
BRANCH   1   2
ATOM      2  C   UNL A   1      33.311  32.908  27.903  1.00  0.00     0.188 C 
BRANCH   2   3
ATOM      3  O   UNL A   1      33.240  33.812  28.985  1.00  0.00    -0.376 OA
BRANCH   3   4
ATOM      4  C   UNL A   1      33.817  35.102  28.928  1.00  0.00     0.202 C 
BRANCH   4   5
ATOM      5  C   UNL A   1      33.215  36.244  29.742  1.00  0.00     0.261 C 
BRANCH   5   6
ATOM      6  O   UNL A   1      33.495  36.159  31.145  1.00  0.00    -0.460 OA
BRANCH   6   7
ATOM      7  C   UNL A   1      33.545  35.140  32.020  1.00  0.00     0.338 C 
ATOM      8  O   UNL A   1      32.525  34.886  32.666  1.00  0.00    -0.246 OA
BRANCH   7   9
ATOM      9  C   UNL A   1      34.759  34.350  32.359  1.00  0.00     0.060 A 
ATOM     10  C   UNL A   1      35.995  34.862  32.746  1.00  0.00     0.016 A 
ATOM     11  C   UNL A   1      34.630  32.953  32.201  1.00  0.00     0.016 A 
ATOM     12  C   UNL A   1      37.116  34.056  32.712  1.00  0.00     0.010 A 
ATOM     13  C   UNL A   1      35.738  32.128  32.224  1.00  0.00     0.010 A 
ATOM     14  C   UNL A   1      36.986  32.713  32.369  1.00  0.00    -0.014 A 
BRANCH  14  15
ATOM     15  C   UNL A   1      38.211  31.972  32.149  1.00  0.00     0.031 A 
ATOM     16  C   UNL A   1      39.045  31.771  33.359  1.00  0.00     0.074 A 
ATOM     17  C   UNL A   1      38.538  31.520  30.924  1.00  0.00     0.049 A 
ATOM     18  N   UNL A   1      40.232  32.228  33.594  1.00  0.00    -0.248 NA
ATOM     19  C   UNL A   1      38.422  31.089  34.503  1.00  0.00     0.031 C 
ATOM     20  C   UNL A   1      37.706  31.459  29.719  1.00  0.00     0.029 A 
ATOM     21  N   UNL A   1      39.697  30.935  30.523  1.00  0.00    -0.354 N 
ATOM     22  C   UNL A   1      40.583  31.743  34.852  1.00  0.00     0.074 A 
ATOM     23  C   UNL A   1      39.386  31.179  35.419  1.00  0.00     0.031 C 
ATOM     24  C   UNL A   1      38.301  30.659  28.806  1.00  0.00     0.029 A 
ATOM     25  C   UNL A   1      39.608  30.276  29.307  1.00  0.00     0.049 A 
ATOM     26  H   UNL A   1      40.527  30.976  31.050  1.00  0.00     0.167 HD
ATOM     27  C   UNL A   1      41.888  31.636  35.225  1.00  0.00     0.037 A 
ATOM     28  C   UNL A   1      40.520  29.407  28.809  1.00  0.00     0.037 A 
ATOM     29  C   UNL A   1      42.724  32.521  34.453  1.00  0.00     0.049 A 
ATOM     30  C   UNL A   1      41.807  29.662  29.508  1.00  0.00     0.074 A 
ATOM     31  C   UNL A   1      42.791  33.891  34.287  1.00  0.00     0.029 A 
ATOM     32  N   UNL A   1      43.463  31.993  33.424  1.00  0.00    -0.354 N 
ATOM     33  N   UNL A   1      42.508  30.752  29.353  1.00  0.00    -0.248 NA
ATOM     34  C   UNL A   1      42.069  28.923  30.735  1.00  0.00     0.031 C 
ATOM     35  C   UNL A   1      43.129  34.081  32.914  1.00  0.00     0.029 A 
ATOM     36  C   UNL A   1      43.300  32.821  32.345  1.00  0.00     0.049 A 
ATOM     37  H   UNL A   1      44.010  31.174  33.457  1.00  0.00     0.167 HD
ATOM     38  C   UNL A   1      42.976  31.058  30.622  1.00  0.00     0.074 A 
ATOM     39  C   UNL A   1      42.738  29.857  31.418  1.00  0.00     0.031 C 
ATOM     40  C   UNL A   1      43.248  32.347  30.984  1.00  0.00     0.037 A 
BRANCH  27  41
ATOM     41  C   UNL A   1      42.447  30.452  35.984  1.00  0.00     0.064 A 
ATOM     42  C   UNL A   1      43.402  30.685  36.996  1.00  0.00     0.173 A 
ATOM     43  C   UNL A   1      42.346  29.113  35.546  1.00  0.00     0.173 A 
ATOM     44  F   UNL A   1      43.580  31.916  37.499  1.00  0.00    -0.203 F 
ATOM     45  C   UNL A   1      44.270  29.683  37.436  1.00  0.00     0.198 A 
ATOM     46  C   UNL A   1      43.182  28.106  36.025  1.00  0.00     0.198 A 
ATOM     47  F   UNL A   1      41.518  28.736  34.567  1.00  0.00    -0.203 F 
ATOM     48  F   UNL A   1      45.258  29.988  38.288  1.00  0.00    -0.200 F 
ATOM     49  C   UNL A   1      44.172  28.398  36.937  1.00  0.00     0.200 A 
ATOM     50  F   UNL A   1      43.073  26.868  35.521  1.00  0.00    -0.200 F 
ATOM     51  F   UNL A   1      45.052  27.457  37.295  1.00  0.00    -0.200 F 
ENDBRANCH  27  41
BRANCH  28  52
ATOM     52  C   UNL A   1      40.234  28.154  28.072  1.00  0.00     0.064 A 
ATOM     53  C   UNL A   1      40.842  27.880  26.837  1.00  0.00     0.173 A 
ATOM     54  C   UNL A   1      39.559  27.079  28.688  1.00  0.00     0.173 A 
ATOM     55  F   UNL A   1      41.549  28.831  26.211  1.00  0.00    -0.203 F 
ATOM     56  C   UNL A   1      40.787  26.606  26.260  1.00  0.00     0.198 A 
ATOM     57  C   UNL A   1      39.496  25.813  28.108  1.00  0.00     0.198 A 
ATOM     58  F   UNL A   1      39.025  27.211  29.911  1.00  0.00    -0.203 F 
ATOM     59  F   UNL A   1      41.426  26.366  25.107  1.00  0.00    -0.200 F 
ATOM     60  C   UNL A   1      40.121  25.573  26.899  1.00  0.00     0.200 A 
ATOM     61  F   UNL A   1      38.882  24.814  28.759  1.00  0.00    -0.200 F 
ATOM     62  F   UNL A   1      40.115  24.339  26.376  1.00  0.00    -0.200 F 
ENDBRANCH  28  52
BRANCH  40  63
ATOM     63  C   UNL A   1      43.245  33.390  29.903  1.00  0.00     0.064 A 
ATOM     64  C   UNL A   1      42.102  34.119  29.530  1.00  0.00     0.173 A 
ATOM     65  C   UNL A   1      44.465  33.767  29.330  1.00  0.00     0.173 A 
ATOM     66  F   UNL A   1      40.919  33.893  30.116  1.00  0.00    -0.203 F 
ATOM     67  C   UNL A   1      42.173  35.145  28.589  1.00  0.00     0.198 A 
ATOM     68  C   UNL A   1      44.540  34.817  28.418  1.00  0.00     0.198 A 
ATOM     69  F   UNL A   1      45.599  33.149  29.698  1.00  0.00    -0.203 F 
ATOM     70  F   UNL A   1      41.066  35.820  28.245  1.00  0.00    -0.200 F 
ATOM     71  C   UNL A   1      43.394  35.496  28.039  1.00  0.00     0.200 A 
ATOM     72  F   UNL A   1      45.731  35.188  27.928  1.00  0.00    -0.200 F 
ATOM     73  F   UNL A   1      43.472  36.512  27.167  1.00  0.00    -0.200 F 
ENDBRANCH  40  63
ENDBRANCH  14  15
ENDBRANCH   7   9
ENDBRANCH   6   7
ENDBRANCH   5   6
ENDBRANCH   4   5
ENDBRANCH   3   4
ENDBRANCH   2   3
ENDBRANCH   1   2
BRANCH   1  74
ATOM     74  O   UNL A   1      34.581  30.663  28.170  1.00  0.00    -0.376 OA
BRANCH  74  75
ATOM     75  C   UNL A   1      34.375  29.562  27.315  1.00  0.00     0.202 C 
BRANCH  75  76
ATOM     76  C   UNL A   1      33.383  29.632  26.146  1.00  0.00     0.261 C 
BRANCH  76  77
ATOM     77  O   UNL A   1      32.013  29.362  26.459  1.00  0.00    -0.458 OA
BRANCH  77  78
ATOM     78  C   UNL A   1      31.721  28.095  26.908  1.00  0.00     0.359 C 
ATOM     79  O   UNL A   1      31.259  27.830  28.006  1.00  0.00    -0.244 OA
BRANCH  78  80
ATOM     80  C   UNL A   1      31.978  27.093  25.862  1.00  0.00     0.173 A 
ATOM     81  N   UNL A   1      32.882  26.131  26.113  1.00  0.00    -0.160 NA
ATOM     82  C   UNL A   1      31.416  26.942  24.546  1.00  0.00     0.006 A 
ATOM     83  N   UNL A   1      32.985  25.424  24.973  1.00  0.00    -0.237 N 
ATOM     84  C   UNL A   1      32.185  25.934  23.986  1.00  0.00     0.119 A 
BRANCH  82  85
ATOM     85  C   UNL A   1      30.307  27.645  23.806  1.00  0.00     0.042 C 
BRANCH  85  86
ATOM     86  C   UNL A   1      30.759  28.668  22.759  1.00  0.00     0.033 C 
BRANCH  86  87
ATOM     87  C   UNL A   1      29.640  29.514  22.159  1.00  0.00     0.156 C 
BRANCH  87  88
ATOM     88  O   UNL A   1      30.170  30.378  21.162  1.00  0.00    -0.396 OA
ATOM     89  H   UNL A   1      29.650  30.289  20.347  1.00  0.00     0.210 HD
ENDBRANCH  87  88
ENDBRANCH  86  87
ENDBRANCH  85  86
ENDBRANCH  82  85
BRANCH  83  90
ATOM     90  C   UNL A   1      33.764  24.251  24.930  1.00  0.00     0.100 A 
ATOM     91  C   UNL A   1      35.005  24.290  24.278  1.00  0.00     0.032 A 
ATOM     92  C   UNL A   1      33.349  23.081  25.565  1.00  0.00     0.149 A 
ATOM     93  C   UNL A   1      35.842  23.174  24.315  1.00  0.00     0.018 A 
ATOM     94  C   UNL A   1      34.162  21.951  25.562  1.00  0.00     0.057 A 
ATOM     95  F   UNL A   1      32.141  22.991  26.141  1.00  0.00    -0.205 F 
ATOM     96  C   UNL A   1      35.415  22.010  24.953  1.00  0.00     0.021 A 
ATOM     97  Br  UNL A   1      36.550  20.500  24.997  1.00  0.00    -0.051 Br
ENDBRANCH  83  90
ENDBRANCH  78  80
ENDBRANCH  77  78
ENDBRANCH  76  77
ENDBRANCH  75  76
ENDBRANCH  74  75
ENDBRANCH   1  74
TORSDOF 22
ENDMDL
MODEL 2
REMARK VINA RESULT:     -10.6      3.864      8.662
REMARK SMILES O=C(OCCOCCOCCOC(=O)c1nn(-c2ccc(Br)cc2F)cc1CCCO)c1ccc(-c2c3nc(c(-c4c(F)c(F)c(F)c(F)c4F)c4ccc([nH]4)c(-c4c(F)c(F)c(F)c(F)c4F)c4nc(c(-c5c(F)c(F)c(F)c(F)c5F)c5ccc2[nH]5)C=C4)C=C3)cc1
REMARK SMILES IDX 8 1 7 2 6 3 5 4 4 5 3 6 2 7 1 8 32 9 33 10 94 11 34 12 93 13
REMARK SMILES IDX 35 14 36 15 37 16 87 17 38 18 92 19 86 20 88 21 39 22 91 23
REMARK SMILES IDX 85 24 84 25 40 27 72 28 52 29 71 30 53 31 56 32 70 33 89 34
REMARK SMILES IDX 54 35 55 36 69 38 90 39 57 40 41 41 42 42 50 43 43 44 44 45
REMARK SMILES IDX 48 46 51 47 45 48 46 49 49 50 47 51 73 52 74 53 82 54 75 55
REMARK SMILES IDX 76 56 80 57 83 58 77 59 78 60 81 61 79 62 58 63 59 64 67 65
REMARK SMILES IDX 60 66 61 67 65 68 68 69 62 70 63 71 66 72 64 73 9 74 10 75
REMARK SMILES IDX 11 76 12 77 13 78 14 79 15 80 16 81 27 82 17 83 26 84 28 85
REMARK SMILES IDX 29 86 30 87 31 88 18 90 19 91 24 92 20 93 23 94 25 95 21 96
REMARK SMILES IDX 22 97
REMARK H PARENT 88 26 56 37 31 89
REMARK Flexibility Score: inf
ROOT
ATOM      1  C   UNL A   1      35.517  21.148  25.062  1.00  0.00     0.188 C 
ENDROOT
BRANCH   1   2
ATOM      2  C   UNL A   1      36.384  22.044  24.168  1.00  0.00     0.188 C 
BRANCH   2   3
ATOM      3  O   UNL A   1      37.057  23.196  24.631  1.00  0.00    -0.376 OA
BRANCH   3   4
ATOM      4  C   UNL A   1      37.823  23.194  25.819  1.00  0.00     0.202 C 
BRANCH   4   5
ATOM      5  C   UNL A   1      38.812  22.064  26.088  1.00  0.00     0.261 C 
BRANCH   5   6
ATOM      6  O   UNL A   1      39.949  22.468  26.861  1.00  0.00    -0.460 OA
BRANCH   6   7
ATOM      7  C   UNL A   1      41.103  23.088  26.559  1.00  0.00     0.338 C 
ATOM      8  O   UNL A   1      41.983  22.427  26.003  1.00  0.00    -0.246 OA
BRANCH   7   9
ATOM      9  C   UNL A   1      41.457  24.484  26.933  1.00  0.00     0.060 A 
ATOM     10  C   UNL A   1      42.295  24.872  27.975  1.00  0.00     0.016 A 
ATOM     11  C   UNL A   1      40.813  25.489  26.179  1.00  0.00     0.016 A 
ATOM     12  C   UNL A   1      42.281  26.179  28.420  1.00  0.00     0.010 A 
ATOM     13  C   UNL A   1      40.841  26.810  26.581  1.00  0.00     0.010 A 
ATOM     14  C   UNL A   1      41.487  27.119  27.768  1.00  0.00    -0.014 A 
BRANCH  14  15
ATOM     15  C   UNL A   1      41.353  28.415  28.401  1.00  0.00     0.031 A 
ATOM     16  C   UNL A   1      42.470  29.355  28.141  1.00  0.00     0.074 A 
ATOM     17  C   UNL A   1      40.283  28.707  29.164  1.00  0.00     0.049 A 
ATOM     18  N   UNL A   1      43.311  29.848  28.991  1.00  0.00    -0.248 NA
ATOM     19  C   UNL A   1      42.770  29.677  26.738  1.00  0.00     0.031 C 
ATOM     20  C   UNL A   1      39.031  27.959  29.307  1.00  0.00     0.029 A 
ATOM     21  N   UNL A   1      40.069  29.809  29.928  1.00  0.00    -0.354 N 
ATOM     22  C   UNL A   1      44.145  30.689  28.256  1.00  0.00     0.074 A 
ATOM     23  C   UNL A   1      43.861  30.431  26.868  1.00  0.00     0.031 C 
ATOM     24  C   UNL A   1      38.110  28.744  29.911  1.00  0.00     0.029 A 
ATOM     25  C   UNL A   1      38.751  29.981  30.318  1.00  0.00     0.049 A 
ATOM     26  H   UNL A   1      40.788  30.431  30.183  1.00  0.00     0.167 HD
ATOM     27  C   UNL A   1      44.832  31.697  28.858  1.00  0.00     0.037 A 
ATOM     28  C   UNL A   1      38.223  31.109  30.853  1.00  0.00     0.037 A 
ATOM     29  C   UNL A   1      45.003  31.443  30.266  1.00  0.00     0.049 A 
ATOM     30  C   UNL A   1      39.350  31.909  31.403  1.00  0.00     0.074 A 
ATOM     31  C   UNL A   1      45.628  30.456  31.005  1.00  0.00     0.029 A 
ATOM     32  N   UNL A   1      44.188  32.101  31.155  1.00  0.00    -0.354 N 
ATOM     33  N   UNL A   1      40.056  31.544  32.438  1.00  0.00    -0.248 NA
ATOM     34  C   UNL A   1      39.993  32.870  30.518  1.00  0.00     0.031 C 
ATOM     35  C   UNL A   1      44.791  30.258  32.143  1.00  0.00     0.029 A 
ATOM     36  C   UNL A   1      43.740  31.170  32.055  1.00  0.00     0.049 A 
ATOM     37  H   UNL A   1      43.969  33.061  31.146  1.00  0.00     0.167 HD
ATOM     38  C   UNL A   1      41.361  31.887  32.117  1.00  0.00     0.074 A 
ATOM     39  C   UNL A   1      41.250  32.768  30.957  1.00  0.00     0.031 C 
ATOM     40  C   UNL A   1      42.421  31.202  32.638  1.00  0.00     0.037 A 
BRANCH  27  41
ATOM     41  C   UNL A   1      44.983  33.081  28.262  1.00  0.00     0.064 A 
ATOM     42  C   UNL A   1      46.281  33.576  28.016  1.00  0.00     0.173 A 
ATOM     43  C   UNL A   1      43.953  34.047  28.237  1.00  0.00     0.173 A 
ATOM     44  F   UNL A   1      47.338  32.750  28.005  1.00  0.00    -0.203 F 
ATOM     45  C   UNL A   1      46.536  34.944  27.889  1.00  0.00     0.198 A 
ATOM     46  C   UNL A   1      44.208  35.405  28.060  1.00  0.00     0.198 A 
ATOM     47  F   UNL A   1      42.675  33.745  28.490  1.00  0.00    -0.203 F 
ATOM     48  F   UNL A   1      47.801  35.377  27.808  1.00  0.00    -0.200 F 
ATOM     49  C   UNL A   1      45.501  35.859  27.929  1.00  0.00     0.200 A 
ATOM     50  F   UNL A   1      43.189  36.275  28.108  1.00  0.00    -0.200 F 
ATOM     51  F   UNL A   1      45.750  37.173  27.888  1.00  0.00    -0.200 F 
ENDBRANCH  27  41
BRANCH  28  52
ATOM     52  C   UNL A   1      36.888  31.682  30.565  1.00  0.00     0.064 A 
ATOM     53  C   UNL A   1      35.982  31.973  31.596  1.00  0.00     0.173 A 
ATOM     54  C   UNL A   1      36.573  32.201  29.291  1.00  0.00     0.173 A 
ATOM     55  F   UNL A   1      36.234  31.563  32.847  1.00  0.00    -0.203 F 
ATOM     56  C   UNL A   1      34.837  32.744  31.369  1.00  0.00     0.198 A 
ATOM     57  C   UNL A   1      35.427  32.961  29.063  1.00  0.00     0.198 A 
ATOM     58  F   UNL A   1      37.419  32.059  28.261  1.00  0.00    -0.203 F 
ATOM     59  F   UNL A   1      34.023  33.050  32.388  1.00  0.00    -0.200 F 
ATOM     60  C   UNL A   1      34.564  33.244  30.105  1.00  0.00     0.200 A 
ATOM     61  F   UNL A   1      35.199  33.471  27.844  1.00  0.00    -0.200 F 
ATOM     62  F   UNL A   1      33.499  34.030  29.899  1.00  0.00    -0.200 F 
ENDBRANCH  28  52
BRANCH  40  63
ATOM     63  C   UNL A   1      42.143  30.220  33.740  1.00  0.00     0.064 A 
ATOM     64  C   UNL A   1      41.740  28.892  33.513  1.00  0.00     0.173 A 
ATOM     65  C   UNL A   1      42.436  30.589  35.058  1.00  0.00     0.173 A 
ATOM     66  F   UNL A   1      41.549  28.432  32.270  1.00  0.00    -0.203 F 
ATOM     67  C   UNL A   1      41.590  27.992  34.567  1.00  0.00     0.198 A 
ATOM     68  C   UNL A   1      42.321  29.678  36.105  1.00  0.00     0.198 A 
ATOM     69  F   UNL A   1      42.889  31.824  35.324  1.00  0.00    -0.203 F 
ATOM     70  F   UNL A   1      41.196  26.733  34.325  1.00  0.00    -0.200 F 
ATOM     71  C   UNL A   1      41.887  28.385  35.861  1.00  0.00     0.200 A 
ATOM     72  F   UNL A   1      42.661  30.047  37.347  1.00  0.00    -0.200 F 
ATOM     73  F   UNL A   1      41.785  27.509  36.870  1.00  0.00    -0.200 F 
ENDBRANCH  40  63
ENDBRANCH  14  15
ENDBRANCH   7   9
ENDBRANCH   6   7
ENDBRANCH   5   6
ENDBRANCH   4   5
ENDBRANCH   3   4
ENDBRANCH   2   3
ENDBRANCH   1   2
BRANCH   1  74
ATOM     74  O   UNL A   1      34.956  21.568  26.278  1.00  0.00    -0.376 OA
BRANCH  74  75
ATOM     75  C   UNL A   1      33.590  21.332  26.535  1.00  0.00     0.202 C 
BRANCH  75  76
ATOM     76  C   UNL A   1      32.616  22.488  26.805  1.00  0.00     0.261 C 
BRANCH  76  77
ATOM     77  O   UNL A   1      31.262  22.288  26.387  1.00  0.00    -0.458 OA
BRANCH  77  78
ATOM     78  C   UNL A   1      30.378  23.309  26.649  1.00  0.00     0.359 C 
ATOM     79  O   UNL A   1      29.502  23.276  27.498  1.00  0.00    -0.244 OA
BRANCH  78  80
ATOM     80  C   UNL A   1      30.667  24.484  25.813  1.00  0.00     0.173 A 
ATOM     81  N   UNL A   1      30.806  25.675  26.420  1.00  0.00    -0.160 NA
ATOM     82  C   UNL A   1      30.835  24.607  24.389  1.00  0.00     0.006 A 
ATOM     83  N   UNL A   1      30.966  26.570  25.428  1.00  0.00    -0.237 N 
ATOM     84  C   UNL A   1      30.904  25.977  24.195  1.00  0.00     0.119 A 
BRANCH  82  85
ATOM     85  C   UNL A   1      30.900  23.608  23.263  1.00  0.00     0.042 C 
BRANCH  85  86
ATOM     86  C   UNL A   1      32.259  22.927  23.066  1.00  0.00     0.033 C 
BRANCH  86  87
ATOM     87  C   UNL A   1      32.202  21.413  22.888  1.00  0.00     0.156 C 
BRANCH  87  88
ATOM     88  O   UNL A   1      31.692  21.098  21.599  1.00  0.00    -0.396 OA
ATOM     89  H   UNL A   1      31.875  20.166  21.398  1.00  0.00     0.210 HD
ENDBRANCH  87  88
ENDBRANCH  86  87
ENDBRANCH  85  86
ENDBRANCH  82  85
BRANCH  83  90
ATOM     90  C   UNL A   1      31.268  27.915  25.723  1.00  0.00     0.100 A 
ATOM     91  C   UNL A   1      31.016  28.891  24.749  1.00  0.00     0.032 A 
ATOM     92  C   UNL A   1      31.756  28.291  26.974  1.00  0.00     0.149 A 
ATOM     93  C   UNL A   1      31.203  30.239  25.054  1.00  0.00     0.018 A 
ATOM     94  C   UNL A   1      31.989  29.632  27.264  1.00  0.00     0.057 A 
ATOM     95  F   UNL A   1      32.069  27.378  27.904  1.00  0.00    -0.205 F 
ATOM     96  C   UNL A   1      31.693  30.603  26.308  1.00  0.00     0.021 A 
ATOM     97  Br  UNL A   1      31.949  32.430  26.715  1.00  0.00    -0.051 Br
ENDBRANCH  83  90
ENDBRANCH  78  80
ENDBRANCH  77  78
ENDBRANCH  76  77
ENDBRANCH  75  76
ENDBRANCH  74  75
ENDBRANCH   1  74
TORSDOF 22
ENDMDL
MODEL 3
REMARK VINA RESULT:     -10.5      4.755      9.921
REMARK SMILES O=C(OCCOCCOCCOC(=O)c1nn(-c2ccc(Br)cc2F)cc1CCCO)c1ccc(-c2c3nc(c(-c4c(F)c(F)c(F)c(F)c4F)c4ccc([nH]4)c(-c4c(F)c(F)c(F)c(F)c4F)c4nc(c(-c5c(F)c(F)c(F)c(F)c5F)c5ccc2[nH]5)C=C4)C=C3)cc1
REMARK SMILES IDX 8 1 7 2 6 3 5 4 4 5 3 6 2 7 1 8 32 9 33 10 94 11 34 12 93 13
REMARK SMILES IDX 35 14 36 15 37 16 87 17 38 18 92 19 86 20 88 21 39 22 91 23
REMARK SMILES IDX 85 24 84 25 40 27 72 28 52 29 71 30 53 31 56 32 70 33 89 34
REMARK SMILES IDX 54 35 55 36 69 38 90 39 57 40 41 41 42 42 50 43 43 44 44 45
REMARK SMILES IDX 48 46 51 47 45 48 46 49 49 50 47 51 73 52 74 53 82 54 75 55
REMARK SMILES IDX 76 56 80 57 83 58 77 59 78 60 81 61 79 62 58 63 59 64 67 65
REMARK SMILES IDX 60 66 61 67 65 68 68 69 62 70 63 71 66 72 64 73 9 74 10 75
REMARK SMILES IDX 11 76 12 77 13 78 14 79 15 80 16 81 27 82 17 83 26 84 28 85
REMARK SMILES IDX 29 86 30 87 31 88 18 90 19 91 24 92 20 93 23 94 25 95 21 96
REMARK SMILES IDX 22 97
REMARK H PARENT 88 26 56 37 31 89
REMARK Flexibility Score: inf
ROOT
ATOM      1  C   UNL A   1      38.883  22.494  26.508  1.00  0.00     0.188 C 
ENDROOT
BRANCH   1   2
ATOM      2  C   UNL A   1      39.868  21.347  26.246  1.00  0.00     0.188 C 
BRANCH   2   3
ATOM      3  O   UNL A   1      40.372  20.501  27.258  1.00  0.00    -0.376 OA
BRANCH   3   4
ATOM      4  C   UNL A   1      41.634  19.872  27.155  1.00  0.00     0.202 C 
BRANCH   4   5
ATOM      5  C   UNL A   1      42.152  19.419  25.793  1.00  0.00     0.261 C 
BRANCH   5   6
ATOM      6  O   UNL A   1      43.570  19.567  25.640  1.00  0.00    -0.460 OA
BRANCH   6   7
ATOM      7  C   UNL A   1      44.344  20.453  24.989  1.00  0.00     0.338 C 
ATOM      8  O   UNL A   1      45.093  20.024  24.109  1.00  0.00    -0.246 OA
BRANCH   7   9
ATOM      9  C   UNL A   1      44.455  21.902  25.309  1.00  0.00     0.060 A 
ATOM     10  C   UNL A   1      45.429  22.498  26.105  1.00  0.00     0.016 A 
ATOM     11  C   UNL A   1      43.420  22.712  24.792  1.00  0.00     0.016 A 
ATOM     12  C   UNL A   1      45.236  23.778  26.588  1.00  0.00     0.010 A 
ATOM     13  C   UNL A   1      43.251  24.013  25.224  1.00  0.00     0.010 A 
ATOM     14  C   UNL A   1      44.103  24.492  26.207  1.00  0.00    -0.014 A 
BRANCH  14  15
ATOM     15  C   UNL A   1      43.849  25.737  26.902  1.00  0.00     0.031 A 
ATOM     16  C   UNL A   1      44.834  26.813  26.634  1.00  0.00     0.074 A 
ATOM     17  C   UNL A   1      42.792  25.870  27.725  1.00  0.00     0.049 A 
ATOM     18  N   UNL A   1      45.653  27.369  27.467  1.00  0.00    -0.248 NA
ATOM     19  C   UNL A   1      45.024  27.223  25.236  1.00  0.00     0.031 C 
ATOM     20  C   UNL A   1      41.645  24.974  27.891  1.00  0.00     0.029 A 
ATOM     21  N   UNL A   1      42.489  26.908  28.546  1.00  0.00    -0.354 N 
ATOM     22  C   UNL A   1      46.345  28.331  26.734  1.00  0.00     0.074 A 
ATOM     23  C   UNL A   1      46.025  28.095  25.350  1.00  0.00     0.031 C 
ATOM     24  C   UNL A   1      40.670  25.619  28.570  1.00  0.00     0.029 A 
ATOM     25  C   UNL A   1      41.181  26.907  29.002  1.00  0.00     0.049 A 
ATOM     26  H   UNL A   1      43.142  27.601  28.796  1.00  0.00     0.167 HD
ATOM     27  C   UNL A   1      46.940  29.390  27.349  1.00  0.00     0.037 A 
ATOM     28  C   UNL A   1      40.553  27.943  29.610  1.00  0.00     0.037 A 
ATOM     29  C   UNL A   1      47.209  29.103  28.735  1.00  0.00     0.049 A 
ATOM     30  C   UNL A   1      41.604  28.849  30.144  1.00  0.00     0.074 A 
ATOM     31  C   UNL A   1      47.981  28.170  29.400  1.00  0.00     0.029 A 
ATOM     32  N   UNL A   1      46.368  29.624  29.688  1.00  0.00    -0.354 N 
ATOM     33  N   UNL A   1      42.399  28.530  31.129  1.00  0.00    -0.248 NA
ATOM     34  C   UNL A   1      42.085  29.913  29.274  1.00  0.00     0.031 C 
ATOM     35  C   UNL A   1      47.230  27.829  30.564  1.00  0.00     0.029 A 
ATOM     36  C   UNL A   1      46.077  28.613  30.565  1.00  0.00     0.049 A 
ATOM     37  H   UNL A   1      46.038  30.551  29.732  1.00  0.00     0.167 HD
ATOM     38  C   UNL A   1      43.637  29.039  30.765  1.00  0.00     0.074 A 
ATOM     39  C   UNL A   1      43.366  29.945  29.652  1.00  0.00     0.031 C 
ATOM     40  C   UNL A   1      44.794  28.465  31.207  1.00  0.00     0.037 A 
BRANCH  27  41
ATOM     41  C   UNL A   1      46.898  30.804  26.809  1.00  0.00     0.064 A 
ATOM     42  C   UNL A   1      48.074  31.581  26.851  1.00  0.00     0.173 A 
ATOM     43  C   UNL A   1      45.706  31.523  26.571  1.00  0.00     0.173 A 
ATOM     44  F   UNL A   1      49.267  31.006  27.060  1.00  0.00    -0.203 F 
ATOM     45  C   UNL A   1      48.038  32.977  26.791  1.00  0.00     0.198 A 
ATOM     46  C   UNL A   1      45.682  32.912  26.461  1.00  0.00     0.198 A 
ATOM     47  F   UNL A   1      44.504  30.938  26.541  1.00  0.00    -0.203 F 
ATOM     48  F   UNL A   1      49.163  33.678  26.986  1.00  0.00    -0.200 F 
ATOM     49  C   UNL A   1      46.840  33.642  26.614  1.00  0.00     0.200 A 
ATOM     50  F   UNL A   1      44.507  33.537  26.297  1.00  0.00    -0.200 F 
ATOM     51  F   UNL A   1      46.791  34.979  26.637  1.00  0.00    -0.200 F 
ENDBRANCH  27  41
BRANCH  28  52
ATOM     52  C   UNL A   1      39.147  28.364  29.408  1.00  0.00     0.064 A 
ATOM     53  C   UNL A   1      38.272  28.528  30.493  1.00  0.00     0.173 A 
ATOM     54  C   UNL A   1      38.704  28.867  28.167  1.00  0.00     0.173 A 
ATOM     55  F   UNL A   1      38.638  28.125  31.718  1.00  0.00    -0.203 F 
ATOM     56  C   UNL A   1      37.036  29.166  30.347  1.00  0.00     0.198 A 
ATOM     57  C   UNL A   1      37.468  29.495  28.019  1.00  0.00     0.198 A 
ATOM     58  F   UNL A   1      39.502  28.844  27.090  1.00  0.00    -0.203 F 
ATOM     59  F   UNL A   1      36.250  29.356  31.416  1.00  0.00    -0.200 F 
ATOM     60  C   UNL A   1      36.638  29.656  29.113  1.00  0.00     0.200 A 
ATOM     61  F   UNL A   1      37.116  29.999  26.828  1.00  0.00    -0.200 F 
ATOM     62  F   UNL A   1      35.480  30.318  28.983  1.00  0.00    -0.200 F 
ENDBRANCH  28  52
BRANCH  40  63
ATOM     63  C   UNL A   1      44.688  27.414  32.275  1.00  0.00     0.064 A 
ATOM     64  C   UNL A   1      44.580  27.708  33.646  1.00  0.00     0.173 A 
ATOM     65  C   UNL A   1      44.542  26.077  31.890  1.00  0.00     0.173 A 
ATOM     66  F   UNL A   1      44.598  28.974  34.083  1.00  0.00    -0.203 F 
ATOM     67  C   UNL A   1      44.385  26.701  34.589  1.00  0.00     0.198 A 
ATOM     68  C   UNL A   1      44.310  25.076  32.830  1.00  0.00     0.198 A 
ATOM     69  F   UNL A   1      44.570  25.746  30.589  1.00  0.00    -0.203 F 
ATOM     70  F   UNL A   1      44.294  27.007  35.892  1.00  0.00    -0.200 F 
ATOM     71  C   UNL A   1      44.244  25.386  34.178  1.00  0.00     0.200 A 
ATOM     72  F   UNL A   1      44.121  23.813  32.423  1.00  0.00    -0.200 F 
ATOM     73  F   UNL A   1      44.013  24.421  35.080  1.00  0.00    -0.200 F 
ENDBRANCH  40  63
ENDBRANCH  14  15
ENDBRANCH   7   9
ENDBRANCH   6   7
ENDBRANCH   5   6
ENDBRANCH   4   5
ENDBRANCH   3   4
ENDBRANCH   2   3
ENDBRANCH   1   2
BRANCH   1  74
ATOM     74  O   UNL A   1      38.163  23.152  25.498  1.00  0.00    -0.376 OA
BRANCH  74  75
ATOM     75  C   UNL A   1      36.910  22.649  25.094  1.00  0.00     0.202 C 
BRANCH  75  76
ATOM     76  C   UNL A   1      36.247  23.110  23.788  1.00  0.00     0.261 C 
BRANCH  76  77
ATOM     77  O   UNL A   1      35.172  24.046  23.917  1.00  0.00    -0.458 OA
BRANCH  77  78
ATOM     78  C   UNL A   1      34.031  23.779  23.197  1.00  0.00     0.359 C 
ATOM     79  O   UNL A   1      33.971  23.038  22.230  1.00  0.00    -0.244 OA
BRANCH  78  80
ATOM     80  C   UNL A   1      32.866  24.455  23.786  1.00  0.00     0.173 A 
ATOM     81  N   UNL A   1      32.608  25.719  23.408  1.00  0.00    -0.160 NA
ATOM     82  C   UNL A   1      31.898  23.997  24.748  1.00  0.00     0.006 A 
ATOM     83  N   UNL A   1      31.565  26.116  24.160  1.00  0.00    -0.237 N 
ATOM     84  C   UNL A   1      31.168  25.139  25.033  1.00  0.00     0.119 A 
BRANCH  82  85
ATOM     85  C   UNL A   1      31.640  22.664  25.401  1.00  0.00     0.042 C 
BRANCH  85  86
ATOM     86  C   UNL A   1      32.880  21.796  25.639  1.00  0.00     0.033 C 
BRANCH  86  87
ATOM     87  C   UNL A   1      32.940  20.516  24.811  1.00  0.00     0.156 C 
BRANCH  87  88
ATOM     88  O   UNL A   1      32.120  19.518  25.405  1.00  0.00    -0.396 OA
ATOM     89  H   UNL A   1      31.676  19.008  24.708  1.00  0.00     0.210 HD
ENDBRANCH  87  88
ENDBRANCH  86  87
ENDBRANCH  85  86
ENDBRANCH  82  85
BRANCH  83  90
ATOM     90  C   UNL A   1      30.951  27.363  23.926  1.00  0.00     0.100 A 
ATOM     91  C   UNL A   1      29.747  27.397  23.208  1.00  0.00     0.032 A 
ATOM     92  C   UNL A   1      31.487  28.543  24.441  1.00  0.00     0.149 A 
ATOM     93  C   UNL A   1      29.065  28.604  23.057  1.00  0.00     0.018 A 
ATOM     94  C   UNL A   1      30.831  29.756  24.250  1.00  0.00     0.057 A 
ATOM     95  F   UNL A   1      32.668  28.554  25.076  1.00  0.00    -0.205 F 
ATOM     96  C   UNL A   1      29.612  29.778  23.575  1.00  0.00     0.021 A 
ATOM     97  Br  UNL A   1      28.685  31.411  23.365  1.00  0.00    -0.051 Br
ENDBRANCH  83  90
ENDBRANCH  78  80
ENDBRANCH  77  78
ENDBRANCH  76  77
ENDBRANCH  75  76
ENDBRANCH  74  75
ENDBRANCH   1  74
TORSDOF 22
ENDMDL
