MODEL 1
REMARK VINA RESULT:     -11.6      0.000      0.000
REMARK SMILES Cc1ccc(N)cc1S(=O)(=O)Nc1cccc(C(=O)OCCOCCOCCOC(=O)c2ccc(-c3c4nc(c(-c5c(F)c(F)c(F)c(F)c5F)c5ccc([nH]5)c(-c5c(F)c(F)c(F)c(F)c5F)c5nc(c(-c6c(F)c(F)c(F)c(F)c6F)c6ccc3[nH]6)C=C5)C=C4)cc2)c1
REMARK SMILES IDX 24 1 23 2 22 3 21 4 20 5 18 6 19 7 17 8 13 9 14 10 95 11
REMARK SMILES IDX 15 12 16 13 12 14 9 16 10 17 11 18 8 19 1 20 2 21 3 22 4 23
REMARK SMILES IDX 7 24 5 25 6 26 25 29 26 30 27 31 28 32 29 33 30 34 31 35
REMARK SMILES IDX 32 36 33 37 94 38 34 39 93 40 35 41 36 42 37 43 87 44 38 45
REMARK SMILES IDX 92 46 86 47 88 48 39 49 91 50 85 51 84 52 40 54 72 55 52 56
REMARK SMILES IDX 71 57 53 58 56 59 70 60 89 61 54 62 55 63 69 65 90 66 57 67
REMARK SMILES IDX 41 68 42 69 50 70 43 71 44 72 48 73 51 74 45 75 46 76 49 77
REMARK SMILES IDX 47 78 73 79 74 80 82 81 75 82 76 83 80 84 83 85 77 86 78 87
REMARK SMILES IDX 81 88 79 89 58 90 59 91 67 92 60 93 61 94 65 95 68 96 62 97
REMARK SMILES IDX 63 98 66 99 64 100
REMARK H PARENT 12 15 6 27 6 28 88 53 56 64
REMARK Flexibility Score: inf
ROOT
ATOM      1  C   UNL A   1      39.683  19.659  25.778  1.00  0.00     0.188 C 
ENDROOT
BRANCH   1   2
ATOM      2  O   UNL A   1      38.890  20.829  25.776  1.00  0.00    -0.376 OA
BRANCH   2   3
ATOM      3  C   UNL A   1      37.731  20.921  24.960  1.00  0.00     0.202 C 
BRANCH   3   4
ATOM      4  C   UNL A   1      36.453  21.630  25.425  1.00  0.00     0.261 C 
BRANCH   4   5
ATOM      5  O   UNL A   1      35.347  21.489  24.529  1.00  0.00    -0.460 OA
BRANCH   5   6
ATOM      6  C   UNL A   1      35.009  22.608  23.852  1.00  0.00     0.338 C 
ATOM      7  O   UNL A   1      35.733  23.297  23.148  1.00  0.00    -0.246 OA
BRANCH   6   8
ATOM      8  C   UNL A   1      33.549  22.824  23.922  1.00  0.00     0.062 A 
ATOM      9  C   UNL A   1      31.668  23.735  25.062  1.00  0.00     0.050 A 
ATOM     10  C   UNL A   1      30.900  23.611  23.893  1.00  0.00     0.027 A 
ATOM     11  C   UNL A   1      32.937  23.176  25.126  1.00  0.00     0.042 A 
ATOM     12  C   UNL A   1      31.470  23.110  22.726  1.00  0.00     0.003 A 
ATOM     13  C   UNL A   1      32.817  22.773  22.724  1.00  0.00     0.016 A 
BRANCH   9  14
ATOM     14  N   UNL A   1      31.156  24.607  26.055  1.00  0.00    -0.280 N 
ATOM     15  H   UNL A   1      31.020  24.229  26.953  1.00  0.00     0.180 HD
BRANCH  14  16
ATOM     16  S   UNL A   1      30.761  26.222  25.844  1.00  0.00     0.262 S 
ATOM     17  O   UNL A   1      30.884  26.832  27.153  1.00  0.00    -0.201 OA
ATOM     18  O   UNL A   1      29.485  26.208  25.156  1.00  0.00    -0.201 OA
BRANCH  16  19
ATOM     19  C   UNL A   1      31.901  27.090  24.765  1.00  0.00     0.092 A 
ATOM     20  C   UNL A   1      34.176  26.219  25.641  1.00  0.00     0.046 C 
ATOM     21  C   UNL A   1      33.296  27.172  24.889  1.00  0.00    -0.030 A 
ATOM     22  C   UNL A   1      33.954  28.209  24.199  1.00  0.00     0.007 A 
ATOM     23  C   UNL A   1      33.286  28.993  23.257  1.00  0.00     0.026 A 
ATOM     24  C   UNL A   1      31.258  27.849  23.764  1.00  0.00     0.048 A 
ATOM     25  C   UNL A   1      31.962  28.724  22.940  1.00  0.00     0.033 A 
BRANCH  25  26
ATOM     26  N   UNL A   1      31.314  29.425  21.935  1.00  0.00    -0.399 N 
ATOM     27  H   UNL A   1      31.457  29.180  20.993  1.00  0.00     0.156 HD
ATOM     28  H   UNL A   1      30.708  30.166  22.164  1.00  0.00     0.156 HD
ENDBRANCH  25  26
ENDBRANCH  16  19
ENDBRANCH  14  16
ENDBRANCH   9  14
ENDBRANCH   6   8
ENDBRANCH   5   6
ENDBRANCH   4   5
ENDBRANCH   3   4
ENDBRANCH   2   3
ENDBRANCH   1   2
BRANCH   1  29
ATOM     29  C   UNL A   1      41.151  19.703  26.253  1.00  0.00     0.188 C 
BRANCH  29  30
ATOM     30  O   UNL A   1      42.197  19.550  25.329  1.00  0.00    -0.376 OA
BRANCH  30  31
ATOM     31  C   UNL A   1      43.500  19.981  25.678  1.00  0.00     0.202 C 
BRANCH  31  32
ATOM     32  C   UNL A   1      44.030  21.412  25.454  1.00  0.00     0.261 C 
BRANCH  32  33
ATOM     33  O   UNL A   1      43.090  22.493  25.538  1.00  0.00    -0.460 OA
BRANCH  33  34
ATOM     34  C   UNL A   1      43.581  23.721  25.217  1.00  0.00     0.338 C 
ATOM     35  O   UNL A   1      44.302  24.011  24.285  1.00  0.00    -0.246 OA
BRANCH  34  36
ATOM     36  C   UNL A   1      42.928  24.738  26.072  1.00  0.00     0.060 A 
ATOM     37  C   UNL A   1      43.320  26.083  25.961  1.00  0.00     0.016 A 
ATOM     38  C   UNL A   1      41.966  24.358  27.006  1.00  0.00     0.016 A 
ATOM     39  C   UNL A   1      42.764  27.051  26.800  1.00  0.00     0.010 A 
ATOM     40  C   UNL A   1      41.434  25.322  27.865  1.00  0.00     0.010 A 
ATOM     41  C   UNL A   1      41.851  26.665  27.788  1.00  0.00    -0.014 A 
BRANCH  41  42
ATOM     42  C   UNL A   1      41.489  27.597  28.885  1.00  0.00     0.031 A 
ATOM     43  C   UNL A   1      42.286  27.532  30.158  1.00  0.00     0.074 A 
ATOM     44  C   UNL A   1      40.466  28.461  28.776  1.00  0.00     0.049 A 
ATOM     45  N   UNL A   1      42.082  28.128  31.305  1.00  0.00    -0.248 NA
ATOM     46  C   UNL A   1      43.473  26.663  30.132  1.00  0.00     0.031 C 
ATOM     47  C   UNL A   1      39.655  28.668  27.580  1.00  0.00     0.029 A 
ATOM     48  N   UNL A   1      39.924  29.314  29.706  1.00  0.00    -0.354 N 
ATOM     49  C   UNL A   1      43.104  27.692  32.140  1.00  0.00     0.074 A 
ATOM     50  C   UNL A   1      43.906  26.760  31.378  1.00  0.00     0.031 C 
ATOM     51  C   UNL A   1      38.703  29.577  27.854  1.00  0.00     0.029 A 
ATOM     52  C   UNL A   1      38.810  29.980  29.257  1.00  0.00     0.049 A 
ATOM     53  H   UNL A   1      40.298  29.437  30.608  1.00  0.00     0.167 HD
ATOM     54  C   UNL A   1      43.353  28.042  33.425  1.00  0.00     0.037 A 
ATOM     55  C   UNL A   1      37.960  30.793  29.916  1.00  0.00     0.037 A 
ATOM     56  C   UNL A   1      42.542  28.957  34.185  1.00  0.00     0.049 A 
ATOM     57  C   UNL A   1      38.192  31.084  31.379  1.00  0.00     0.074 A 
ATOM     58  C   UNL A   1      42.709  29.377  35.492  1.00  0.00     0.029 A 
ATOM     59  N   UNL A   1      41.400  29.583  33.705  1.00  0.00    -0.354 N 
ATOM     60  N   UNL A   1      39.162  30.679  32.163  1.00  0.00    -0.248 NA
ATOM     61  C   UNL A   1      37.205  31.943  32.049  1.00  0.00     0.031 C 
ATOM     62  C   UNL A   1      41.633  30.208  35.824  1.00  0.00     0.029 A 
ATOM     63  C   UNL A   1      40.837  30.365  34.700  1.00  0.00     0.049 A 
ATOM     64  H   UNL A   1      41.043  29.486  32.793  1.00  0.00     0.167 HD
ATOM     65  C   UNL A   1      38.927  31.268  33.402  1.00  0.00     0.074 A 
ATOM     66  C   UNL A   1      37.723  32.060  33.263  1.00  0.00     0.031 C 
ATOM     67  C   UNL A   1      39.647  31.166  34.546  1.00  0.00     0.037 A 
BRANCH  54  68
ATOM     68  C   UNL A   1      44.530  27.395  34.096  1.00  0.00     0.064 A 
ATOM     69  C   UNL A   1      45.820  27.941  34.017  1.00  0.00     0.173 A 
ATOM     70  C   UNL A   1      44.367  26.208  34.828  1.00  0.00     0.173 A 
ATOM     71  F   UNL A   1      46.036  29.066  33.318  1.00  0.00    -0.203 F 
ATOM     72  C   UNL A   1      46.908  27.303  34.609  1.00  0.00     0.198 A 
ATOM     73  C   UNL A   1      45.450  25.593  35.450  1.00  0.00     0.198 A 
ATOM     74  F   UNL A   1      43.155  25.644  34.941  1.00  0.00    -0.203 F 
ATOM     75  F   UNL A   1      48.140  27.808  34.461  1.00  0.00    -0.200 F 
ATOM     76  C   UNL A   1      46.721  26.133  35.329  1.00  0.00     0.200 A 
ATOM     77  F   UNL A   1      45.264  24.471  36.159  1.00  0.00    -0.200 F 
ATOM     78  F   UNL A   1      47.767  25.520  35.897  1.00  0.00    -0.200 F 
ENDBRANCH  54  68
BRANCH  55  79
ATOM     79  C   UNL A   1      36.800  31.394  29.203  1.00  0.00     0.064 A 
ATOM     80  C   UNL A   1      36.780  32.761  28.891  1.00  0.00     0.173 A 
ATOM     81  C   UNL A   1      35.685  30.626  28.838  1.00  0.00     0.173 A 
ATOM     82  F   UNL A   1      37.810  33.542  29.246  1.00  0.00    -0.203 F 
ATOM     83  C   UNL A   1      35.683  33.338  28.256  1.00  0.00     0.198 A 
ATOM     84  C   UNL A   1      34.602  31.199  28.175  1.00  0.00     0.198 A 
ATOM     85  F   UNL A   1      35.650  29.315  29.119  1.00  0.00    -0.203 F 
ATOM     86  F   UNL A   1      35.671  34.657  28.013  1.00  0.00    -0.200 F 
ATOM     87  C   UNL A   1      34.598  32.557  27.891  1.00  0.00     0.200 A 
ATOM     88  F   UNL A   1      33.559  30.438  27.814  1.00  0.00    -0.200 F 
ATOM     89  F   UNL A   1      33.546  33.113  27.275  1.00  0.00    -0.200 F 
ENDBRANCH  55  79
BRANCH  67  90
ATOM     90  C   UNL A   1      39.199  31.978  35.731  1.00  0.00     0.064 A 
ATOM     91  C   UNL A   1      39.569  33.321  35.898  1.00  0.00     0.173 A 
ATOM     92  C   UNL A   1      38.338  31.413  36.686  1.00  0.00     0.173 A 
ATOM     93  F   UNL A   1      40.399  33.907  35.022  1.00  0.00    -0.203 F 
ATOM     94  C   UNL A   1      39.111  34.059  36.987  1.00  0.00     0.198 A 
ATOM     95  C   UNL A   1      37.855  32.165  37.753  1.00  0.00     0.198 A 
ATOM     96  F   UNL A   1      37.946  30.135  36.572  1.00  0.00    -0.203 F 
ATOM     97  F   UNL A   1      39.514  35.327  37.150  1.00  0.00    -0.200 F 
ATOM     98  C   UNL A   1      38.247  33.486  37.907  1.00  0.00     0.200 A 
ATOM     99  F   UNL A   1      37.006  31.612  38.631  1.00  0.00    -0.200 F 
ATOM    100  F   UNL A   1      37.797  34.202  38.946  1.00  0.00    -0.200 F 
ENDBRANCH  67  90
ENDBRANCH  41  42
ENDBRANCH  34  36
ENDBRANCH  33  34
ENDBRANCH  32  33
ENDBRANCH  31  32
ENDBRANCH  30  31
ENDBRANCH  29  30
ENDBRANCH   1  29
TORSDOF 21
ENDMDL
MODEL 2
REMARK VINA RESULT:     -11.5      3.227      8.574
REMARK SMILES Cc1ccc(N)cc1S(=O)(=O)Nc1cccc(C(=O)OCCOCCOCCOC(=O)c2ccc(-c3c4nc(c(-c5c(F)c(F)c(F)c(F)c5F)c5ccc([nH]5)c(-c5c(F)c(F)c(F)c(F)c5F)c5nc(c(-c6c(F)c(F)c(F)c(F)c6F)c6ccc3[nH]6)C=C5)C=C4)cc2)c1
REMARK SMILES IDX 24 1 23 2 22 3 21 4 20 5 18 6 19 7 17 8 13 9 14 10 95 11
REMARK SMILES IDX 15 12 16 13 12 14 9 16 10 17 11 18 8 19 1 20 2 21 3 22 4 23
REMARK SMILES IDX 7 24 5 25 6 26 25 29 26 30 27 31 28 32 29 33 30 34 31 35
REMARK SMILES IDX 32 36 33 37 94 38 34 39 93 40 35 41 36 42 37 43 87 44 38 45
REMARK SMILES IDX 92 46 86 47 88 48 39 49 91 50 85 51 84 52 40 54 72 55 52 56
REMARK SMILES IDX 71 57 53 58 56 59 70 60 89 61 54 62 55 63 69 65 90 66 57 67
REMARK SMILES IDX 41 68 42 69 50 70 43 71 44 72 48 73 51 74 45 75 46 76 49 77
REMARK SMILES IDX 47 78 73 79 74 80 82 81 75 82 76 83 80 84 83 85 77 86 78 87
REMARK SMILES IDX 81 88 79 89 58 90 59 91 67 92 60 93 61 94 65 95 68 96 62 97
REMARK SMILES IDX 63 98 66 99 64 100
REMARK H PARENT 12 15 6 27 6 28 88 53 56 64
REMARK Flexibility Score: inf
ROOT
ATOM      1  C   UNL A   1      29.609  25.946  25.207  1.00  0.00     0.188 C 
ENDROOT
BRANCH   1   2
ATOM      2  O   UNL A   1      29.355  26.586  23.973  1.00  0.00    -0.376 OA
BRANCH   2   3
ATOM      3  C   UNL A   1      30.105  27.726  23.577  1.00  0.00     0.202 C 
BRANCH   3   4
ATOM      4  C   UNL A   1      31.188  27.660  22.494  1.00  0.00     0.261 C 
BRANCH   4   5
ATOM      5  O   UNL A   1      31.514  26.333  22.073  1.00  0.00    -0.460 OA
BRANCH   5   6
ATOM      6  C   UNL A   1      32.831  26.031  22.091  1.00  0.00     0.338 C 
ATOM      7  O   UNL A   1      33.689  26.404  21.303  1.00  0.00    -0.246 OA
BRANCH   6   8
ATOM      8  C   UNL A   1      33.169  25.302  23.330  1.00  0.00     0.062 A 
ATOM      9  C   UNL A   1      33.476  23.233  24.468  1.00  0.00     0.050 A 
ATOM     10  C   UNL A   1      34.187  23.896  25.480  1.00  0.00     0.027 A 
ATOM     11  C   UNL A   1      32.815  23.961  23.489  1.00  0.00     0.042 A 
ATOM     12  C   UNL A   1      34.409  25.268  25.404  1.00  0.00     0.003 A 
ATOM     13  C   UNL A   1      33.950  25.963  24.292  1.00  0.00     0.016 A 
BRANCH   9  14
ATOM     14  N   UNL A   1      33.643  21.827  24.406  1.00  0.00    -0.280 N 
ATOM     15  H   UNL A   1      34.152  21.473  23.642  1.00  0.00     0.180 HD
BRANCH  14  16
ATOM     16  S   UNL A   1      33.056  20.711  25.509  1.00  0.00     0.262 S 
ATOM     17  O   UNL A   1      31.619  20.684  25.314  1.00  0.00    -0.201 OA
ATOM     18  O   UNL A   1      33.617  21.112  26.783  1.00  0.00    -0.201 OA
BRANCH  16  19
ATOM     19  C   UNL A   1      33.645  19.044  25.205  1.00  0.00     0.092 A 
ATOM     20  C   UNL A   1      36.158  19.478  24.763  1.00  0.00     0.046 C 
ATOM     21  C   UNL A   1      34.902  18.662  24.713  1.00  0.00    -0.030 A 
ATOM     22  C   UNL A   1      35.026  17.368  24.170  1.00  0.00     0.007 A 
ATOM     23  C   UNL A   1      34.008  16.422  24.308  1.00  0.00     0.026 A 
ATOM     24  C   UNL A   1      32.654  18.057  25.391  1.00  0.00     0.048 A 
ATOM     25  C   UNL A   1      32.869  16.726  25.039  1.00  0.00     0.033 A 
BRANCH  25  26
ATOM     26  N   UNL A   1      31.896  15.767  25.274  1.00  0.00    -0.399 N 
ATOM     27  H   UNL A   1      31.194  15.932  25.943  1.00  0.00     0.156 HD
ATOM     28  H   UNL A   1      31.907  14.923  24.770  1.00  0.00     0.156 HD
ENDBRANCH  25  26
ENDBRANCH  16  19
ENDBRANCH  14  16
ENDBRANCH   9  14
ENDBRANCH   6   8
ENDBRANCH   5   6
ENDBRANCH   4   5
ENDBRANCH   3   4
ENDBRANCH   2   3
ENDBRANCH   1   2
BRANCH   1  29
ATOM     29  C   UNL A   1      30.901  26.243  25.998  1.00  0.00     0.188 C 
BRANCH  29  30
ATOM     30  O   UNL A   1      30.899  27.207  27.018  1.00  0.00    -0.376 OA
BRANCH  30  31
ATOM     31  C   UNL A   1      31.972  28.125  27.108  1.00  0.00     0.202 C 
BRANCH  31  32
ATOM     32  C   UNL A   1      31.842  29.641  26.856  1.00  0.00     0.261 C 
BRANCH  32  33
ATOM     33  O   UNL A   1      33.003  30.343  26.389  1.00  0.00    -0.460 OA
BRANCH  33  34
ATOM     34  C   UNL A   1      33.423  31.369  27.178  1.00  0.00     0.338 C 
ATOM     35  O   UNL A   1      32.773  32.315  27.573  1.00  0.00    -0.246 OA
BRANCH  34  36
ATOM     36  C   UNL A   1      34.781  31.064  27.681  1.00  0.00     0.060 A 
ATOM     37  C   UNL A   1      35.138  29.727  27.925  1.00  0.00     0.016 A 
ATOM     38  C   UNL A   1      35.679  32.095  27.952  1.00  0.00     0.016 A 
ATOM     39  C   UNL A   1      36.391  29.418  28.458  1.00  0.00     0.010 A 
ATOM     40  C   UNL A   1      36.920  31.786  28.514  1.00  0.00     0.010 A 
ATOM     41  C   UNL A   1      37.271  30.453  28.799  1.00  0.00    -0.014 A 
BRANCH  41  42
ATOM     42  C   UNL A   1      38.458  30.184  29.648  1.00  0.00     0.031 A 
ATOM     43  C   UNL A   1      39.504  29.241  29.120  1.00  0.00     0.074 A 
ATOM     44  C   UNL A   1      38.601  30.735  30.864  1.00  0.00     0.049 A 
ATOM     45  N   UNL A   1      40.549  28.732  29.719  1.00  0.00    -0.248 NA
ATOM     46  C   UNL A   1      39.334  28.805  27.726  1.00  0.00     0.031 C 
ATOM     47  C   UNL A   1      37.696  31.710  31.466  1.00  0.00     0.029 A 
ATOM     48  N   UNL A   1      39.563  30.527  31.823  1.00  0.00    -0.354 N 
ATOM     49  C   UNL A   1      41.152  27.904  28.781  1.00  0.00     0.074 A 
ATOM     50  C   UNL A   1      40.339  27.955  27.585  1.00  0.00     0.031 C 
ATOM     51  C   UNL A   1      38.134  32.003  32.703  1.00  0.00     0.029 A 
ATOM     52  C   UNL A   1      39.324  31.202  32.995  1.00  0.00     0.049 A 
ATOM     53  H   UNL A   1      40.349  29.951  31.683  1.00  0.00     0.167 HD
ATOM     54  C   UNL A   1      42.285  27.171  28.903  1.00  0.00     0.037 A 
ATOM     55  C   UNL A   1      39.974  31.149  34.175  1.00  0.00     0.037 A 
ATOM     56  C   UNL A   1      43.083  27.110  30.099  1.00  0.00     0.049 A 
ATOM     57  C   UNL A   1      41.171  30.241  34.325  1.00  0.00     0.074 A 
ATOM     58  C   UNL A   1      44.247  26.399  30.325  1.00  0.00     0.029 A 
ATOM     59  N   UNL A   1      42.787  27.780  31.278  1.00  0.00    -0.354 N 
ATOM     60  N   UNL A   1      41.744  29.466  33.435  1.00  0.00    -0.248 NA
ATOM     61  C   UNL A   1      41.809  30.198  35.650  1.00  0.00     0.031 C 
ATOM     62  C   UNL A   1      44.622  26.587  31.660  1.00  0.00     0.029 A 
ATOM     63  C   UNL A   1      43.733  27.475  32.244  1.00  0.00     0.049 A 
ATOM     64  H   UNL A   1      42.020  28.382  31.409  1.00  0.00     0.167 HD
ATOM     65  C   UNL A   1      42.830  28.880  34.077  1.00  0.00     0.074 A 
ATOM     66  C   UNL A   1      42.838  29.392  35.432  1.00  0.00     0.031 C 
ATOM     67  C   UNL A   1      43.742  28.005  33.585  1.00  0.00     0.037 A 
BRANCH  54  68
ATOM     68  C   UNL A   1      42.698  26.345  27.719  1.00  0.00     0.064 A 
ATOM     69  C   UNL A   1      42.161  25.070  27.481  1.00  0.00     0.173 A 
ATOM     70  C   UNL A   1      43.647  26.834  26.807  1.00  0.00     0.173 A 
ATOM     71  F   UNL A   1      41.261  24.548  28.329  1.00  0.00    -0.203 F 
ATOM     72  C   UNL A   1      42.589  24.300  26.402  1.00  0.00     0.198 A 
ATOM     73  C   UNL A   1      44.044  26.076  25.709  1.00  0.00     0.198 A 
ATOM     74  F   UNL A   1      44.190  28.048  26.981  1.00  0.00    -0.203 F 
ATOM     75  F   UNL A   1      42.112  23.059  26.236  1.00  0.00    -0.200 F 
ATOM     76  C   UNL A   1      43.525  24.806  25.515  1.00  0.00     0.200 A 
ATOM     77  F   UNL A   1      44.938  26.574  24.843  1.00  0.00    -0.200 F 
ATOM     78  F   UNL A   1      43.937  24.064  24.477  1.00  0.00    -0.200 F 
ENDBRANCH  54  68
BRANCH  55  79
ATOM     79  C   UNL A   1      39.510  31.978  35.320  1.00  0.00     0.064 A 
ATOM     80  C   UNL A   1      38.615  31.458  36.265  1.00  0.00     0.173 A 
ATOM     81  C   UNL A   1      39.932  33.306  35.484  1.00  0.00     0.173 A 
ATOM     82  F   UNL A   1      38.160  30.203  36.134  1.00  0.00    -0.203 F 
ATOM     83  C   UNL A   1      38.147  32.238  37.320  1.00  0.00     0.198 A 
ATOM     84  C   UNL A   1      39.487  34.075  36.558  1.00  0.00     0.198 A 
ATOM     85  F   UNL A   1      40.782  33.855  34.605  1.00  0.00    -0.203 F 
ATOM     86  F   UNL A   1      37.254  31.729  38.181  1.00  0.00    -0.200 F 
ATOM     87  C   UNL A   1      38.588  33.543  37.471  1.00  0.00     0.200 A 
ATOM     88  F   UNL A   1      39.924  35.333  36.705  1.00  0.00    -0.200 F 
ATOM     89  F   UNL A   1      38.142  34.290  38.490  1.00  0.00    -0.200 F 
ENDBRANCH  55  79
BRANCH  67  90
ATOM     90  C   UNL A   1      44.869  27.585  34.489  1.00  0.00     0.064 A 
ATOM     91  C   UNL A   1      46.059  28.321  34.589  1.00  0.00     0.173 A 
ATOM     92  C   UNL A   1      44.728  26.455  35.311  1.00  0.00     0.173 A 
ATOM     93  F   UNL A   1      46.252  29.402  33.818  1.00  0.00    -0.203 F 
ATOM     94  C   UNL A   1      47.073  27.929  35.460  1.00  0.00     0.198 A 
ATOM     95  C   UNL A   1      45.729  26.086  36.206  1.00  0.00     0.198 A 
ATOM     96  F   UNL A   1      43.607  25.719  35.263  1.00  0.00    -0.203 F 
ATOM     97  F   UNL A   1      48.220  28.621  35.505  1.00  0.00    -0.200 F 
ATOM     98  C   UNL A   1      46.904  26.819  36.275  1.00  0.00     0.200 A 
ATOM     99  F   UNL A   1      45.554  25.024  37.005  1.00  0.00    -0.200 F 
ATOM    100  F   UNL A   1      47.875  26.452  37.122  1.00  0.00    -0.200 F 
ENDBRANCH  67  90
ENDBRANCH  41  42
ENDBRANCH  34  36
ENDBRANCH  33  34
ENDBRANCH  32  33
ENDBRANCH  31  32
ENDBRANCH  30  31
ENDBRANCH  29  30
ENDBRANCH   1  29
TORSDOF 21
ENDMDL
MODEL 3
REMARK VINA RESULT:     -11.2      1.366      7.316
REMARK SMILES Cc1ccc(N)cc1S(=O)(=O)Nc1cccc(C(=O)OCCOCCOCCOC(=O)c2ccc(-c3c4nc(c(-c5c(F)c(F)c(F)c(F)c5F)c5ccc([nH]5)c(-c5c(F)c(F)c(F)c(F)c5F)c5nc(c(-c6c(F)c(F)c(F)c(F)c6F)c6ccc3[nH]6)C=C5)C=C4)cc2)c1
REMARK SMILES IDX 24 1 23 2 22 3 21 4 20 5 18 6 19 7 17 8 13 9 14 10 95 11
REMARK SMILES IDX 15 12 16 13 12 14 9 16 10 17 11 18 8 19 1 20 2 21 3 22 4 23
REMARK SMILES IDX 7 24 5 25 6 26 25 29 26 30 27 31 28 32 29 33 30 34 31 35
REMARK SMILES IDX 32 36 33 37 94 38 34 39 93 40 35 41 36 42 37 43 87 44 38 45
REMARK SMILES IDX 92 46 86 47 88 48 39 49 91 50 85 51 84 52 40 54 72 55 52 56
REMARK SMILES IDX 71 57 53 58 56 59 70 60 89 61 54 62 55 63 69 65 90 66 57 67
REMARK SMILES IDX 41 68 42 69 50 70 43 71 44 72 48 73 51 74 45 75 46 76 49 77
REMARK SMILES IDX 47 78 73 79 74 80 82 81 75 82 76 83 80 84 83 85 77 86 78 87
REMARK SMILES IDX 81 88 79 89 58 90 59 91 67 92 60 93 61 94 65 95 68 96 62 97
REMARK SMILES IDX 63 98 66 99 64 100
REMARK H PARENT 12 15 6 27 6 28 88 53 56 64
REMARK Flexibility Score: inf
ROOT
ATOM      1  C   UNL A   1      41.909  19.755  26.793  1.00  0.00     0.188 C 
ENDROOT
BRANCH   1   2
ATOM      2  O   UNL A   1      40.806  20.360  26.148  1.00  0.00    -0.376 OA
BRANCH   2   3
ATOM      3  C   UNL A   1      40.562  21.753  26.279  1.00  0.00     0.202 C 
BRANCH   3   4
ATOM      4  C   UNL A   1      39.155  22.323  26.496  1.00  0.00     0.261 C 
BRANCH   4   5
ATOM      5  O   UNL A   1      38.173  21.818  25.586  1.00  0.00    -0.460 OA
BRANCH   5   6
ATOM      6  C   UNL A   1      37.059  22.573  25.467  1.00  0.00     0.338 C 
ATOM      7  O   UNL A   1      36.983  23.727  25.070  1.00  0.00    -0.246 OA
BRANCH   6   8
ATOM      8  C   UNL A   1      35.858  21.751  25.721  1.00  0.00     0.062 A 
ATOM      9  C   UNL A   1      33.665  21.559  26.628  1.00  0.00     0.050 A 
ATOM     10  C   UNL A   1      33.447  20.406  25.856  1.00  0.00     0.027 A 
ATOM     11  C   UNL A   1      34.930  22.125  26.694  1.00  0.00     0.042 A 
ATOM     12  C   UNL A   1      34.436  19.937  24.995  1.00  0.00     0.003 A 
ATOM     13  C   UNL A   1      35.623  20.650  24.882  1.00  0.00     0.016 A 
BRANCH   9  14
ATOM     14  N   UNL A   1      32.506  22.189  27.147  1.00  0.00    -0.280 N 
ATOM     15  H   UNL A   1      32.291  22.017  28.091  1.00  0.00     0.180 HD
BRANCH  14  16
ATOM     16  S   UNL A   1      31.468  23.200  26.304  1.00  0.00     0.262 S 
ATOM     17  O   UNL A   1      31.055  24.217  27.251  1.00  0.00    -0.201 OA
ATOM     18  O   UNL A   1      30.492  22.315  25.702  1.00  0.00    -0.201 OA
BRANCH  16  19
ATOM     19  C   UNL A   1      32.270  24.057  24.948  1.00  0.00     0.092 A 
ATOM     20  C   UNL A   1      32.200  22.245  23.102  1.00  0.00     0.046 C 
ATOM     21  C   UNL A   1      32.700  23.511  23.730  1.00  0.00    -0.030 A 
ATOM     22  C   UNL A   1      33.649  24.239  22.985  1.00  0.00     0.007 A 
ATOM     23  C   UNL A   1      33.992  25.548  23.327  1.00  0.00     0.026 A 
ATOM     24  C   UNL A   1      32.579  25.403  25.241  1.00  0.00     0.048 A 
ATOM     25  C   UNL A   1      33.353  26.182  24.384  1.00  0.00     0.033 A 
BRANCH  25  26
ATOM     26  N   UNL A   1      33.605  27.514  24.672  1.00  0.00    -0.399 N 
ATOM     27  H   UNL A   1      34.330  27.755  25.292  1.00  0.00     0.156 HD
ATOM     28  H   UNL A   1      33.059  28.219  24.255  1.00  0.00     0.156 HD
ENDBRANCH  25  26
ENDBRANCH  16  19
ENDBRANCH  14  16
ENDBRANCH   9  14
ENDBRANCH   6   8
ENDBRANCH   5   6
ENDBRANCH   4   5
ENDBRANCH   3   4
ENDBRANCH   2   3
ENDBRANCH   1   2
BRANCH   1  29
ATOM     29  C   UNL A   1      43.166  19.352  25.994  1.00  0.00     0.188 C 
BRANCH  29  30
ATOM     30  O   UNL A   1      43.493  20.024  24.806  1.00  0.00    -0.376 OA
BRANCH  30  31
ATOM     31  C   UNL A   1      44.484  21.035  24.830  1.00  0.00     0.202 C 
BRANCH  31  32
ATOM     32  C   UNL A   1      44.426  22.286  25.729  1.00  0.00     0.261 C 
BRANCH  32  33
ATOM     33  O   UNL A   1      43.592  23.375  25.305  1.00  0.00    -0.460 OA
BRANCH  33  34
ATOM     34  C   UNL A   1      44.166  24.608  25.361  1.00  0.00     0.338 C 
ATOM     35  O   UNL A   1      45.025  25.059  24.632  1.00  0.00    -0.246 OA
BRANCH  34  36
ATOM     36  C   UNL A   1      43.432  25.436  26.343  1.00  0.00     0.060 A 
ATOM     37  C   UNL A   1      43.875  26.744  26.606  1.00  0.00     0.016 A 
ATOM     38  C   UNL A   1      42.341  24.908  27.032  1.00  0.00     0.016 A 
ATOM     39  C   UNL A   1      43.237  27.522  27.574  1.00  0.00     0.010 A 
ATOM     40  C   UNL A   1      41.724  25.677  28.021  1.00  0.00     0.010 A 
ATOM     41  C   UNL A   1      42.186  26.973  28.319  1.00  0.00    -0.014 A 
BRANCH  41  42
ATOM     42  C   UNL A   1      41.704  27.646  29.552  1.00  0.00     0.031 A 
ATOM     43  C   UNL A   1      40.460  28.485  29.457  1.00  0.00     0.074 A 
ATOM     44  C   UNL A   1      42.359  27.544  30.720  1.00  0.00     0.049 A 
ATOM     45  N   UNL A   1      39.921  29.283  30.342  1.00  0.00    -0.248 NA
ATOM     46  C   UNL A   1      39.733  28.418  28.180  1.00  0.00     0.031 C 
ATOM     47  C   UNL A   1      43.538  26.717  30.961  1.00  0.00     0.029 A 
ATOM     48  N   UNL A   1      42.129  28.167  31.922  1.00  0.00    -0.354 N 
ATOM     49  C   UNL A   1      38.801  29.826  29.722  1.00  0.00     0.074 A 
ATOM     50  C   UNL A   1      38.758  29.291  28.379  1.00  0.00     0.031 C 
ATOM     51  C   UNL A   1      43.942  26.898  32.231  1.00  0.00     0.029 A 
ATOM     52  C   UNL A   1      43.077  27.888  32.875  1.00  0.00     0.049 A 
ATOM     53  H   UNL A   1      41.358  28.757  32.085  1.00  0.00     0.167 HD
ATOM     54  C   UNL A   1      37.890  30.690  30.230  1.00  0.00     0.037 A 
ATOM     55  C   UNL A   1      43.243  28.401  34.111  1.00  0.00     0.037 A 
ATOM     56  C   UNL A   1      37.946  31.234  31.561  1.00  0.00     0.049 A 
ATOM     57  C   UNL A   1      42.278  29.447  34.618  1.00  0.00     0.074 A 
ATOM     58  C   UNL A   1      37.072  32.116  32.171  1.00  0.00     0.029 A 
ATOM     59  N   UNL A   1      38.943  30.955  32.485  1.00  0.00    -0.354 N 
ATOM     60  N   UNL A   1      41.218  29.951  34.035  1.00  0.00    -0.248 NA
ATOM     61  C   UNL A   1      42.540  29.996  35.957  1.00  0.00     0.031 C 
ATOM     62  C   UNL A   1      37.573  32.420  33.441  1.00  0.00     0.029 A 
ATOM     63  C   UNL A   1      38.720  31.670  33.650  1.00  0.00     0.049 A 
ATOM     64  H   UNL A   1      39.697  30.340  32.335  1.00  0.00     0.167 HD
ATOM     65  C   UNL A   1      40.663  30.841  34.950  1.00  0.00     0.074 A 
ATOM     66  C   UNL A   1      41.504  30.805  36.128  1.00  0.00     0.031 C 
ATOM     67  C   UNL A   1      39.554  31.612  34.826  1.00  0.00     0.037 A 
BRANCH  54  68
ATOM     68  C   UNL A   1      36.779  31.128  29.319  1.00  0.00     0.064 A 
ATOM     69  C   UNL A   1      36.701  32.439  28.822  1.00  0.00     0.173 A 
ATOM     70  C   UNL A   1      35.776  30.225  28.936  1.00  0.00     0.173 A 
ATOM     71  F   UNL A   1      37.626  33.348  29.168  1.00  0.00    -0.203 F 
ATOM     72  C   UNL A   1      35.640  32.839  28.014  1.00  0.00     0.198 A 
ATOM     73  C   UNL A   1      34.736  30.619  28.097  1.00  0.00     0.198 A 
ATOM     74  F   UNL A   1      35.802  28.958  29.376  1.00  0.00    -0.203 F 
ATOM     75  F   UNL A   1      35.552  34.114  27.610  1.00  0.00    -0.200 F 
ATOM     76  C   UNL A   1      34.662  31.928  27.648  1.00  0.00     0.200 A 
ATOM     77  F   UNL A   1      33.800  29.731  27.732  1.00  0.00    -0.200 F 
ATOM     78  F   UNL A   1      33.641  32.314  26.871  1.00  0.00    -0.200 F 
ENDBRANCH  54  68
BRANCH  55  79
ATOM     79  C   UNL A   1      44.372  27.941  34.964  1.00  0.00     0.064 A 
ATOM     80  C   UNL A   1      45.604  28.610  34.944  1.00  0.00     0.173 A 
ATOM     81  C   UNL A   1      44.253  26.819  35.797  1.00  0.00     0.173 A 
ATOM     82  F   UNL A   1      45.776  29.670  34.141  1.00  0.00    -0.203 F 
ATOM     83  C   UNL A   1      46.678  28.166  35.713  1.00  0.00     0.198 A 
ATOM     84  C   UNL A   1      45.318  26.394  36.589  1.00  0.00     0.198 A 
ATOM     85  F   UNL A   1      43.099  26.139  35.849  1.00  0.00    -0.203 F 
ATOM     86  F   UNL A   1      47.858  28.796  35.638  1.00  0.00    -0.200 F 
ATOM     87  C   UNL A   1      46.533  27.063  36.540  1.00  0.00     0.200 A 
ATOM     88  F   UNL A   1      45.171  25.334  37.396  1.00  0.00    -0.200 F 
ATOM     89  F   UNL A   1      47.564  26.641  37.284  1.00  0.00    -0.200 F 
ENDBRANCH  55  79
BRANCH  67  90
ATOM     90  C   UNL A   1      39.138  32.437  36.013  1.00  0.00     0.064 A 
ATOM     91  C   UNL A   1      38.308  31.925  37.023  1.00  0.00     0.173 A 
ATOM     92  C   UNL A   1      39.626  33.745  36.168  1.00  0.00     0.173 A 
ATOM     93  F   UNL A   1      37.804  30.686  36.920  1.00  0.00    -0.203 F 
ATOM     94  C   UNL A   1      37.966  32.700  38.129  1.00  0.00     0.198 A 
ATOM     95  C   UNL A   1      39.310  34.503  37.292  1.00  0.00     0.198 A 
ATOM     96  F   UNL A   1      40.429  34.281  35.237  1.00  0.00    -0.203 F 
ATOM     97  F   UNL A   1      37.136  32.207  39.058  1.00  0.00    -0.200 F 
ATOM     98  C   UNL A   1      38.475  33.982  38.269  1.00  0.00     0.200 A 
ATOM     99  F   UNL A   1      39.818  35.735  37.432  1.00  0.00    -0.200 F 
ATOM    100  F   UNL A   1      38.155  34.720  39.341  1.00  0.00    -0.200 F 
ENDBRANCH  67  90
ENDBRANCH  41  42
ENDBRANCH  34  36
ENDBRANCH  33  34
ENDBRANCH  32  33
ENDBRANCH  31  32
ENDBRANCH  30  31
ENDBRANCH  29  30
ENDBRANCH   1  29
TORSDOF 21
ENDMDL
