MODEL 1
REMARK VINA RESULT:     -13.0      0.000      0.000
REMARK SMILES O=C(OCCOCCOCCOC(=O)c1ccc(-c2c3nc(c(-c4c(F)c(F)c(F)c(F)c4F)c4ccc([nH]4)c(-c4c(F)c(F)c(F)c(F)c4F)c4nc(c(-c5c(F)c(F)c(F)c(F)c5F)c5ccc2[nH]5)C=C4)C=C3)cc1)C1=Cc2c(Cl)cc(Cl)cc2O[C@@H]1C(F)(F)F
REMARK SMILES IDX 8 1 7 2 6 3 5 4 4 5 3 6 2 7 1 8 78 9 79 10 89 11 80 12 88 13
REMARK SMILES IDX 81 14 87 15 82 16 83 17 86 18 84 19 85 20 90 21 91 22 92 23
REMARK SMILES IDX 93 24 9 25 10 26 11 27 12 28 13 29 14 30 15 31 16 32 77 33
REMARK SMILES IDX 17 34 76 35 18 36 19 37 20 38 70 39 21 40 75 41 69 42 71 43
REMARK SMILES IDX 22 44 74 45 68 46 67 47 23 49 55 50 35 51 54 52 36 53 39 54
REMARK SMILES IDX 53 55 72 56 37 57 38 58 52 60 73 61 40 62 24 63 25 64 33 65
REMARK SMILES IDX 26 66 27 67 31 68 34 69 28 70 29 71 32 72 30 73 56 74 57 75
REMARK SMILES IDX 65 76 58 77 59 78 63 79 66 80 60 81 61 82 64 83 62 84 41 85
REMARK SMILES IDX 42 86 50 87 43 88 44 89 48 90 51 91 45 92 46 93 49 94 47 95
REMARK H PARENT 71 48 39 59
REMARK Flexibility Score: inf
ROOT
ATOM      1  C   UNL A   1      41.300  21.233  26.586  1.00  0.00     0.188 C 
ENDROOT
BRANCH   1   2
ATOM      2  C   UNL A   1      40.000  22.050  26.642  1.00  0.00     0.188 C 
BRANCH   2   3
ATOM      3  O   UNL A   1      38.810  21.838  25.755  1.00  0.00    -0.376 OA
BRANCH   3   4
ATOM      4  C   UNL A   1      37.440  22.876  25.533  1.00  0.00     0.202 C 
BRANCH   4   5
ATOM      5  C   UNL A   1      36.139  22.844  23.794  1.00  0.00     0.261 C 
BRANCH   5   6
ATOM      6  O   UNL A   1      34.691  22.404  23.759  1.00  0.00    -0.460 OA
BRANCH   6   7
ATOM      7  C   UNL A   1      33.924  23.278  23.093  1.00  0.00     0.338 C 
ATOM      8  O   UNL A   1      33.825  23.415  21.899  1.00  0.00    -0.246 OA
BRANCH   7   9
ATOM      9  C   UNL A   1      33.756  24.243  24.174  1.00  0.00     0.087 C 
ATOM     10  C   UNL A   1      33.872  25.649  23.798  1.00  0.00     0.029 C 
ATOM     11  C   UNL A   1      32.137  23.411  24.765  1.00  0.00     0.316 C 
ATOM     12  C   UNL A   1      32.478  26.767  23.542  1.00  0.00     0.036 A 
ATOM     13  O   UNL A   1      30.586  24.527  24.352  1.00  0.00    -0.475 OA
ATOM     14  C   UNL A   1      32.658  28.035  23.047  1.00  0.00     0.053 A 
ATOM     15  C   UNL A   1      30.843  26.235  23.741  1.00  0.00     0.130 A 
ATOM     16  Cl  UNL A   1      34.197  28.689  22.671  1.00  0.00    -0.083 Cl
ATOM     17  C   UNL A   1      31.487  28.774  22.799  1.00  0.00     0.042 A 
ATOM     18  C   UNL A   1      29.748  27.019  23.502  1.00  0.00     0.067 A 
ATOM     19  C   UNL A   1      30.126  28.298  23.027  1.00  0.00     0.046 A 
ATOM     20  Cl  UNL A   1      28.864  29.430  22.654  1.00  0.00    -0.084 Cl
BRANCH  11  21
ATOM     21  C   UNL A   1      32.857  22.946  26.215  1.00  0.00     0.430 C 
ATOM     22  F   UNL A   1      33.935  23.562  26.691  1.00  0.00    -0.167 F 
ATOM     23  F   UNL A   1      31.914  23.096  27.193  1.00  0.00    -0.167 F 
ATOM     24  F   UNL A   1      33.166  21.615  26.258  1.00  0.00    -0.167 F 
ENDBRANCH  11  21
ENDBRANCH   7   9
ENDBRANCH   6   7
ENDBRANCH   5   6
ENDBRANCH   4   5
ENDBRANCH   3   4
ENDBRANCH   2   3
ENDBRANCH   1   2
BRANCH   1  25
ATOM     25  O   UNL A   1      42.157  21.397  25.488  1.00  0.00    -0.376 OA
BRANCH  25  26
ATOM     26  C   UNL A   1      43.430  20.786  25.628  1.00  0.00     0.202 C 
BRANCH  26  27
ATOM     27  C   UNL A   1      44.682  21.656  25.404  1.00  0.00     0.261 C 
BRANCH  27  28
ATOM     28  O   UNL A   1      44.712  22.872  26.192  1.00  0.00    -0.460 OA
BRANCH  28  29
ATOM     29  C   UNL A   1      44.559  24.049  25.532  1.00  0.00     0.338 C 
ATOM     30  O   UNL A   1      44.894  24.302  24.388  1.00  0.00    -0.246 OA
BRANCH  29  31
ATOM     31  C   UNL A   1      43.770  24.995  26.352  1.00  0.00     0.060 A 
ATOM     32  C   UNL A   1      44.210  26.322  26.496  1.00  0.00     0.016 A 
ATOM     33  C   UNL A   1      42.640  24.556  27.040  1.00  0.00     0.016 A 
ATOM     34  C   UNL A   1      43.503  27.218  27.302  1.00  0.00     0.010 A 
ATOM     35  C   UNL A   1      41.962  25.439  27.889  1.00  0.00     0.010 A 
ATOM     36  C   UNL A   1      42.399  26.769  28.039  1.00  0.00    -0.014 A 
BRANCH  36  37
ATOM     37  C   UNL A   1      41.875  27.606  29.147  1.00  0.00     0.031 A 
ATOM     38  C   UNL A   1      42.580  27.530  30.474  1.00  0.00     0.074 A 
ATOM     39  C   UNL A   1      40.825  28.432  28.987  1.00  0.00     0.049 A 
ATOM     40  N   UNL A   1      42.314  28.140  31.601  1.00  0.00    -0.248 NA
ATOM     41  C   UNL A   1      43.747  26.635  30.535  1.00  0.00     0.031 C 
ATOM     42  C   UNL A   1      40.081  28.624  27.747  1.00  0.00     0.029 A 
ATOM     43  N   UNL A   1      40.199  29.263  29.888  1.00  0.00    -0.354 N 
ATOM     44  C   UNL A   1      43.288  27.714  32.495  1.00  0.00     0.074 A 
ATOM     45  C   UNL A   1      44.115  26.754  31.801  1.00  0.00     0.031 C 
ATOM     46  C   UNL A   1      39.088  29.507  27.967  1.00  0.00     0.029 A 
ATOM     47  C   UNL A   1      39.110  29.920  29.370  1.00  0.00     0.049 A 
ATOM     48  H   UNL A   1      40.504  29.376  30.817  1.00  0.00     0.167 HD
ATOM     49  C   UNL A   1      43.487  28.103  33.777  1.00  0.00     0.037 A 
ATOM     50  C   UNL A   1      38.223  30.740  29.970  1.00  0.00     0.037 A 
ATOM     51  C   UNL A   1      42.641  29.032  34.477  1.00  0.00     0.049 A 
ATOM     52  C   UNL A   1      38.405  31.075  31.435  1.00  0.00     0.074 A 
ATOM     53  C   UNL A   1      42.745  29.479  35.781  1.00  0.00     0.029 A 
ATOM     54  N   UNL A   1      41.522  29.644  33.932  1.00  0.00    -0.354 N 
ATOM     55  N   UNL A   1      39.346  30.695  32.267  1.00  0.00    -0.248 NA
ATOM     56  C   UNL A   1      37.402  31.962  32.041  1.00  0.00     0.031 C 
ATOM     57  C   UNL A   1      41.652  30.309  36.047  1.00  0.00     0.029 A 
ATOM     58  C   UNL A   1      40.913  30.447  34.883  1.00  0.00     0.049 A 
ATOM     59  H   UNL A   1      41.208  29.528  33.006  1.00  0.00     0.167 HD
ATOM     60  C   UNL A   1      39.073  31.328  33.474  1.00  0.00     0.074 A 
ATOM     61  C   UNL A   1      37.890  32.133  33.262  1.00  0.00     0.031 C 
ATOM     62  C   UNL A   1      39.740  31.252  34.653  1.00  0.00     0.037 A 
BRANCH  49  63
ATOM     63  C   UNL A   1      44.653  27.500  34.508  1.00  0.00     0.064 A 
ATOM     64  C   UNL A   1      44.539  26.282  35.198  1.00  0.00     0.173 A 
ATOM     65  C   UNL A   1      45.904  28.133  34.502  1.00  0.00     0.173 A 
ATOM     66  F   UNL A   1      43.362  25.641  35.250  1.00  0.00    -0.203 F 
ATOM     67  C   UNL A   1      45.625  25.740  35.881  1.00  0.00     0.198 A 
ATOM     68  C   UNL A   1      46.998  27.568  35.153  1.00  0.00     0.198 A 
ATOM     69  F   UNL A   1      46.071  29.297  33.856  1.00  0.00    -0.203 F 
ATOM     70  F   UNL A   1      45.475  24.608  36.583  1.00  0.00    -0.200 F 
ATOM     71  C   UNL A   1      46.855  26.379  35.850  1.00  0.00     0.200 A 
ATOM     72  F   UNL A   1      48.190  28.179  35.106  1.00  0.00    -0.200 F 
ATOM     73  F   UNL A   1      47.902  25.851  36.500  1.00  0.00    -0.200 F 
ENDBRANCH  49  63
BRANCH  50  74
ATOM     74  C   UNL A   1      37.065  31.293  29.211  1.00  0.00     0.064 A 
ATOM     75  C   UNL A   1      37.008  32.647  28.846  1.00  0.00     0.173 A 
ATOM     76  C   UNL A   1      35.955  30.493  28.896  1.00  0.00     0.173 A 
ATOM     77  F   UNL A   1      38.027  33.467  29.149  1.00  0.00    -0.203 F 
ATOM     78  C   UNL A   1      35.875  33.186  28.236  1.00  0.00     0.198 A 
ATOM     79  C   UNL A   1      34.841  31.023  28.248  1.00  0.00     0.198 A 
ATOM     80  F   UNL A   1      35.948  29.194  29.226  1.00  0.00    -0.203 F 
ATOM     81  F   UNL A   1      35.817  34.499  27.976  1.00  0.00    -0.200 F 
ATOM     82  C   UNL A   1      34.795  32.372  27.933  1.00  0.00     0.200 A 
ATOM     83  F   UNL A   1      33.804  30.230  27.947  1.00  0.00    -0.200 F 
ATOM     84  F   UNL A   1      33.702  32.891  27.356  1.00  0.00    -0.200 F 
ENDBRANCH  50  74
BRANCH  62  85
ATOM     85  C   UNL A   1      39.241  32.105  35.791  1.00  0.00     0.064 A 
ATOM     86  C   UNL A   1      38.347  31.617  36.755  1.00  0.00     0.173 A 
ATOM     87  C   UNL A   1      39.691  33.428  35.930  1.00  0.00     0.173 A 
ATOM     88  F   UNL A   1      37.880  30.362  36.671  1.00  0.00    -0.203 F 
ATOM     89  C   UNL A   1      37.885  32.434  37.784  1.00  0.00     0.198 A 
ATOM     90  C   UNL A   1      39.263  34.227  36.986  1.00  0.00     0.198 A 
ATOM     91  F   UNL A   1      40.560  33.946  35.047  1.00  0.00    -0.203 F 
ATOM     92  F   UNL A   1      36.974  31.968  38.650  1.00  0.00    -0.200 F 
ATOM     93  C   UNL A   1      38.349  33.736  37.904  1.00  0.00     0.200 A 
ATOM     94  F   UNL A   1      39.734  35.476  37.113  1.00  0.00    -0.200 F 
ATOM     95  F   UNL A   1      37.907  34.519  38.897  1.00  0.00    -0.200 F 
ENDBRANCH  62  85
ENDBRANCH  36  37
ENDBRANCH  29  31
ENDBRANCH  28  29
ENDBRANCH  27  28
ENDBRANCH  26  27
ENDBRANCH  25  26
ENDBRANCH   1  25
TORSDOF 18
ENDMDL
MODEL 2
REMARK VINA RESULT:     -12.9      5.152     10.350
REMARK SMILES O=C(OCCOCCOCCOC(=O)c1ccc(-c2c3nc(c(-c4c(F)c(F)c(F)c(F)c4F)c4ccc([nH]4)c(-c4c(F)c(F)c(F)c(F)c4F)c4nc(c(-c5c(F)c(F)c(F)c(F)c5F)c5ccc2[nH]5)C=C4)C=C3)cc1)C1=Cc2c(Cl)cc(Cl)cc2O[C@@H]1C(F)(F)F
REMARK SMILES IDX 8 1 7 2 6 3 5 4 4 5 3 6 2 7 1 8 78 9 79 10 89 11 80 12 88 13
REMARK SMILES IDX 81 14 87 15 82 16 83 17 86 18 84 19 85 20 90 21 91 22 92 23
REMARK SMILES IDX 93 24 9 25 10 26 11 27 12 28 13 29 14 30 15 31 16 32 77 33
REMARK SMILES IDX 17 34 76 35 18 36 19 37 20 38 70 39 21 40 75 41 69 42 71 43
REMARK SMILES IDX 22 44 74 45 68 46 67 47 23 49 55 50 35 51 54 52 36 53 39 54
REMARK SMILES IDX 53 55 72 56 37 57 38 58 52 60 73 61 40 62 24 63 25 64 33 65
REMARK SMILES IDX 26 66 27 67 31 68 34 69 28 70 29 71 32 72 30 73 56 74 57 75
REMARK SMILES IDX 65 76 58 77 59 78 63 79 66 80 60 81 61 82 64 83 62 84 41 85
REMARK SMILES IDX 42 86 50 87 43 88 44 89 48 90 51 91 45 92 46 93 49 94 47 95
REMARK H PARENT 71 48 39 59
REMARK Flexibility Score: inf
ROOT
ATOM      1  C   UNL A   1      34.890  33.545  28.032  1.00  0.00     0.188 C 
ENDROOT
BRANCH   1   2
ATOM      2  C   UNL A   1      33.733  32.579  27.738  1.00  0.00     0.188 C 
BRANCH   2   3
ATOM      3  O   UNL A   1      33.718  31.120  28.084  1.00  0.00    -0.376 OA
BRANCH   3   4
ATOM      4  C   UNL A   1      34.430  29.803  27.211  1.00  0.00     0.202 C 
BRANCH   4   5
ATOM      5  C   UNL A   1      33.368  28.008  26.606  1.00  0.00     0.261 C 
BRANCH   5   6
ATOM      6  O   UNL A   1      33.986  26.710  26.133  1.00  0.00    -0.460 OA
BRANCH   6   7
ATOM      7  C   UNL A   1      33.053  25.813  25.789  1.00  0.00     0.338 C 
ATOM      8  O   UNL A   1      32.170  25.363  26.477  1.00  0.00    -0.246 OA
BRANCH   7   9
ATOM      9  C   UNL A   1      33.762  25.227  24.657  1.00  0.00     0.087 C 
ATOM     10  C   UNL A   1      34.538  24.024  24.943  1.00  0.00     0.029 C 
ATOM     11  C   UNL A   1      32.194  25.267  23.560  1.00  0.00     0.316 C 
ATOM     12  C   UNL A   1      34.009  22.340  24.567  1.00  0.00     0.036 A 
ATOM     13  O   UNL A   1      31.498  23.464  23.270  1.00  0.00    -0.475 OA
ATOM     14  C   UNL A   1      34.726  21.252  24.998  1.00  0.00     0.053 A 
ATOM     15  C   UNL A   1      32.490  22.018  23.804  1.00  0.00     0.130 A 
ATOM     16  Cl  UNL A   1      36.190  21.377  25.879  1.00  0.00    -0.083 Cl
ATOM     17  C   UNL A   1      34.159  19.992  24.727  1.00  0.00     0.042 A 
ATOM     18  C   UNL A   1      32.010  20.763  23.550  1.00  0.00     0.067 A 
ATOM     19  C   UNL A   1      32.892  19.769  24.037  1.00  0.00     0.046 A 
ATOM     20  Cl  UNL A   1      32.442  18.107  23.818  1.00  0.00    -0.084 Cl
BRANCH  11  21
ATOM     21  C   UNL A   1      32.893  26.402  22.529  1.00  0.00     0.430 C 
ATOM     22  F   UNL A   1      34.100  26.218  22.003  1.00  0.00    -0.167 F 
ATOM     23  F   UNL A   1      32.062  26.527  21.453  1.00  0.00    -0.167 F 
ATOM     24  F   UNL A   1      32.931  27.660  23.064  1.00  0.00    -0.167 F 
ENDBRANCH  11  21
ENDBRANCH   7   9
ENDBRANCH   6   7
ENDBRANCH   5   6
ENDBRANCH   4   5
ENDBRANCH   3   4
ENDBRANCH   2   3
ENDBRANCH   1   2
BRANCH   1  25
ATOM     25  O   UNL A   1      34.626  34.721  28.749  1.00  0.00    -0.376 OA
BRANCH  25  26
ATOM     26  C   UNL A   1      33.733  34.567  29.840  1.00  0.00     0.202 C 
BRANCH  26  27
ATOM     27  C   UNL A   1      34.327  34.260  31.229  1.00  0.00     0.261 C 
BRANCH  27  28
ATOM     28  O   UNL A   1      34.413  32.848  31.542  1.00  0.00    -0.460 OA
BRANCH  28  29
ATOM     29  C   UNL A   1      35.312  32.469  32.486  1.00  0.00     0.338 C 
ATOM     30  O   UNL A   1      35.239  32.653  33.689  1.00  0.00    -0.246 OA
BRANCH  29  31
ATOM     31  C   UNL A   1      36.374  31.639  31.876  1.00  0.00     0.060 A 
ATOM     32  C   UNL A   1      37.446  31.195  32.667  1.00  0.00     0.016 A 
ATOM     33  C   UNL A   1      36.353  31.362  30.510  1.00  0.00     0.016 A 
ATOM     34  C   UNL A   1      38.482  30.448  32.099  1.00  0.00     0.010 A 
ATOM     35  C   UNL A   1      37.416  30.659  29.931  1.00  0.00     0.010 A 
ATOM     36  C   UNL A   1      38.495  30.214  30.718  1.00  0.00    -0.014 A 
BRANCH  36  37
ATOM     37  C   UNL A   1      39.745  29.742  30.071  1.00  0.00     0.031 A 
ATOM     38  C   UNL A   1      40.875  30.726  29.934  1.00  0.00     0.074 A 
ATOM     39  C   UNL A   1      39.897  28.476  29.641  1.00  0.00     0.049 A 
ATOM     40  N   UNL A   1      42.058  30.575  29.395  1.00  0.00    -0.248 NA
ATOM     41  C   UNL A   1      40.630  32.071  30.480  1.00  0.00     0.031 C 
ATOM     42  C   UNL A   1      38.895  27.420  29.748  1.00  0.00     0.029 A 
ATOM     43  N   UNL A   1      40.961  27.869  29.016  1.00  0.00    -0.354 N 
ATOM     44  C   UNL A   1      42.699  31.797  29.551  1.00  0.00     0.074 A 
ATOM     45  C   UNL A   1      41.759  32.695  30.183  1.00  0.00     0.031 C 
ATOM     46  C   UNL A   1      39.386  26.296  29.195  1.00  0.00     0.029 A 
ATOM     47  C   UNL A   1      40.725  26.561  28.669  1.00  0.00     0.049 A 
ATOM     48  H   UNL A   1      41.812  28.329  28.834  1.00  0.00     0.167 HD
ATOM     49  C   UNL A   1      43.966  32.136  29.215  1.00  0.00     0.037 A 
ATOM     50  C   UNL A   1      41.497  25.690  27.986  1.00  0.00     0.037 A 
ATOM     51  C   UNL A   1      44.888  31.251  28.555  1.00  0.00     0.049 A 
ATOM     52  C   UNL A   1      42.871  26.129  27.525  1.00  0.00     0.074 A 
ATOM     53  C   UNL A   1      46.188  31.502  28.156  1.00  0.00     0.029 A 
ATOM     54  N   UNL A   1      44.599  29.947  28.182  1.00  0.00    -0.354 N 
ATOM     55  N   UNL A   1      43.484  27.275  27.704  1.00  0.00    -0.248 NA
ATOM     56  C   UNL A   1      43.662  25.145  26.772  1.00  0.00     0.031 C 
ATOM     57  C   UNL A   1      46.662  30.373  27.480  1.00  0.00     0.029 A 
ATOM     58  C   UNL A   1      45.689  29.389  27.534  1.00  0.00     0.049 A 
ATOM     59  H   UNL A   1      43.746  29.485  28.353  1.00  0.00     0.167 HD
ATOM     60  C   UNL A   1      44.741  27.134  27.127  1.00  0.00     0.074 A 
ATOM     61  C   UNL A   1      44.811  25.785  26.610  1.00  0.00     0.031 C 
ATOM     62  C   UNL A   1      45.748  28.038  27.033  1.00  0.00     0.037 A 
BRANCH  49  63
ATOM     63  C   UNL A   1      44.415  33.534  29.536  1.00  0.00     0.064 A 
ATOM     64  C   UNL A   1      44.228  34.593  28.633  1.00  0.00     0.173 A 
ATOM     65  C   UNL A   1      45.019  33.824  30.769  1.00  0.00     0.173 A 
ATOM     66  F   UNL A   1      43.669  34.369  27.434  1.00  0.00    -0.203 F 
ATOM     67  C   UNL A   1      44.658  35.881  28.939  1.00  0.00     0.198 A 
ATOM     68  C   UNL A   1      45.412  35.121  31.087  1.00  0.00     0.198 A 
ATOM     69  F   UNL A   1      45.220  32.851  31.671  1.00  0.00    -0.203 F 
ATOM     70  F   UNL A   1      44.524  36.863  28.036  1.00  0.00    -0.200 F 
ATOM     71  C   UNL A   1      45.242  36.146  30.169  1.00  0.00     0.200 A 
ATOM     72  F   UNL A   1      45.960  35.377  32.283  1.00  0.00    -0.200 F 
ATOM     73  F   UNL A   1      45.647  37.388  30.466  1.00  0.00    -0.200 F 
ENDBRANCH  49  63
BRANCH  50  74
ATOM     74  C   UNL A   1      40.998  24.322  27.666  1.00  0.00     0.064 A 
ATOM     75  C   UNL A   1      41.541  23.182  28.280  1.00  0.00     0.173 A 
ATOM     76  C   UNL A   1      40.016  24.119  26.684  1.00  0.00     0.173 A 
ATOM     77  F   UNL A   1      42.505  23.314  29.203  1.00  0.00    -0.203 F 
ATOM     78  C   UNL A   1      41.152  21.899  27.897  1.00  0.00     0.198 A 
ATOM     79  C   UNL A   1      39.597  22.837  26.333  1.00  0.00     0.198 A 
ATOM     80  F   UNL A   1      39.466  25.168  26.057  1.00  0.00    -0.203 F 
ATOM     81  F   UNL A   1      41.748  20.830  28.443  1.00  0.00    -0.200 F 
ATOM     82  C   UNL A   1      40.176  21.728  26.928  1.00  0.00     0.200 A 
ATOM     83  F   UNL A   1      38.645  22.677  25.403  1.00  0.00    -0.200 F 
ATOM     84  F   UNL A   1      39.809  20.494  26.553  1.00  0.00    -0.200 F 
ENDBRANCH  50  74
BRANCH  62  85
ATOM     85  C   UNL A   1      47.036  27.582  26.399  1.00  0.00     0.064 A 
ATOM     86  C   UNL A   1      47.248  27.639  25.013  1.00  0.00     0.173 A 
ATOM     87  C   UNL A   1      48.087  27.104  27.199  1.00  0.00     0.173 A 
ATOM     88  F   UNL A   1      46.279  28.083  24.199  1.00  0.00    -0.203 F 
ATOM     89  C   UNL A   1      48.440  27.190  24.450  1.00  0.00     0.198 A 
ATOM     90  C   UNL A   1      49.294  26.699  26.637  1.00  0.00     0.198 A 
ATOM     91  F   UNL A   1      47.948  27.040  28.533  1.00  0.00    -0.203 F 
ATOM     92  F   UNL A   1      48.590  27.186  23.118  1.00  0.00    -0.200 F 
ATOM     93  C   UNL A   1      49.465  26.728  25.262  1.00  0.00     0.200 A 
ATOM     94  F   UNL A   1      50.291  26.277  27.427  1.00  0.00    -0.200 F 
ATOM     95  F   UNL A   1      50.613  26.301  24.720  1.00  0.00    -0.200 F 
ENDBRANCH  62  85
ENDBRANCH  36  37
ENDBRANCH  29  31
ENDBRANCH  28  29
ENDBRANCH  27  28
ENDBRANCH  26  27
ENDBRANCH  25  26
ENDBRANCH   1  25
TORSDOF 18
ENDMDL
MODEL 3
REMARK VINA RESULT:     -12.6      4.969      7.384
REMARK SMILES O=C(OCCOCCOCCOC(=O)c1ccc(-c2c3nc(c(-c4c(F)c(F)c(F)c(F)c4F)c4ccc([nH]4)c(-c4c(F)c(F)c(F)c(F)c4F)c4nc(c(-c5c(F)c(F)c(F)c(F)c5F)c5ccc2[nH]5)C=C4)C=C3)cc1)C1=Cc2c(Cl)cc(Cl)cc2O[C@@H]1C(F)(F)F
REMARK SMILES IDX 8 1 7 2 6 3 5 4 4 5 3 6 2 7 1 8 78 9 79 10 89 11 80 12 88 13
REMARK SMILES IDX 81 14 87 15 82 16 83 17 86 18 84 19 85 20 90 21 91 22 92 23
REMARK SMILES IDX 93 24 9 25 10 26 11 27 12 28 13 29 14 30 15 31 16 32 77 33
REMARK SMILES IDX 17 34 76 35 18 36 19 37 20 38 70 39 21 40 75 41 69 42 71 43
REMARK SMILES IDX 22 44 74 45 68 46 67 47 23 49 55 50 35 51 54 52 36 53 39 54
REMARK SMILES IDX 53 55 72 56 37 57 38 58 52 60 73 61 40 62 24 63 25 64 33 65
REMARK SMILES IDX 26 66 27 67 31 68 34 69 28 70 29 71 32 72 30 73 56 74 57 75
REMARK SMILES IDX 65 76 58 77 59 78 63 79 66 80 60 81 61 82 64 83 62 84 41 85
REMARK SMILES IDX 42 86 50 87 43 88 44 89 48 90 51 91 45 92 46 93 49 94 47 95
REMARK H PARENT 71 48 39 59
REMARK Flexibility Score: inf
ROOT
ATOM      1  C   UNL A   1      40.979  21.163  27.610  1.00  0.00     0.188 C 
ENDROOT
BRANCH   1   2
ATOM      2  C   UNL A   1      40.310  22.030  26.532  1.00  0.00     0.188 C 
BRANCH   2   3
ATOM      3  O   UNL A   1      38.831  22.134  26.306  1.00  0.00    -0.376 OA
BRANCH   3   4
ATOM      4  C   UNL A   1      37.891  23.558  26.001  1.00  0.00     0.202 C 
BRANCH   4   5
ATOM      5  C   UNL A   1      36.319  23.701  24.509  1.00  0.00     0.261 C 
BRANCH   5   6
ATOM      6  O   UNL A   1      34.941  23.080  24.588  1.00  0.00    -0.460 OA
BRANCH   6   7
ATOM      7  C   UNL A   1      34.043  23.775  23.878  1.00  0.00     0.338 C 
ATOM      8  O   UNL A   1      34.158  24.202  22.756  1.00  0.00    -0.246 OA
BRANCH   7   9
ATOM      9  C   UNL A   1      33.253  24.266  25.001  1.00  0.00     0.087 C 
ATOM     10  C   UNL A   1      33.417  25.680  25.326  1.00  0.00     0.029 C 
ATOM     11  C   UNL A   1      31.646  23.496  24.304  1.00  0.00     0.316 C 
ATOM     12  C   UNL A   1      32.260  26.986  24.865  1.00  0.00     0.036 A 
ATOM     13  O   UNL A   1      30.437  24.882  23.641  1.00  0.00    -0.475 OA
ATOM     14  C   UNL A   1      32.553  28.311  25.077  1.00  0.00     0.053 A 
ATOM     15  C   UNL A   1      30.814  26.643  23.977  1.00  0.00     0.130 A 
ATOM     16  Cl  UNL A   1      33.998  28.847  25.828  1.00  0.00    -0.083 Cl
ATOM     17  C   UNL A   1      31.616  29.238  24.584  1.00  0.00     0.042 A 
ATOM     18  C   UNL A   1      29.934  27.597  23.547  1.00  0.00     0.067 A 
ATOM     19  C   UNL A   1      30.384  28.898  23.879  1.00  0.00     0.046 A 
ATOM     20  Cl  UNL A   1      29.399  30.244  23.400  1.00  0.00    -0.084 Cl
BRANCH  11  21
ATOM     21  C   UNL A   1      31.551  22.420  25.597  1.00  0.00     0.430 C 
ATOM     22  F   UNL A   1      32.197  22.639  26.738  1.00  0.00    -0.167 F 
ATOM     23  F   UNL A   1      30.235  22.342  25.954  1.00  0.00    -0.167 F 
ATOM     24  F   UNL A   1      31.874  21.137  25.251  1.00  0.00    -0.167 F 
ENDBRANCH  11  21
ENDBRANCH   7   9
ENDBRANCH   6   7
ENDBRANCH   5   6
ENDBRANCH   4   5
ENDBRANCH   3   4
ENDBRANCH   2   3
ENDBRANCH   1   2
BRANCH   1  25
ATOM     25  O   UNL A   1      42.232  20.594  27.340  1.00  0.00    -0.376 OA
BRANCH  25  26
ATOM     26  C   UNL A   1      42.256  19.175  27.339  1.00  0.00     0.202 C 
BRANCH  26  27
ATOM     27  C   UNL A   1      42.878  18.458  26.125  1.00  0.00     0.261 C 
BRANCH  27  28
ATOM     28  O   UNL A   1      43.048  19.301  24.959  1.00  0.00    -0.460 OA
BRANCH  28  29
ATOM     29  C   UNL A   1      44.316  19.512  24.519  1.00  0.00     0.338 C 
ATOM     30  O   UNL A   1      45.004  18.751  23.861  1.00  0.00    -0.246 OA
BRANCH  29  31
ATOM     31  C   UNL A   1      44.737  20.899  24.821  1.00  0.00     0.060 A 
ATOM     32  C   UNL A   1      45.277  21.200  26.082  1.00  0.00     0.016 A 
ATOM     33  C   UNL A   1      44.530  21.915  23.888  1.00  0.00     0.016 A 
ATOM     34  C   UNL A   1      45.639  22.511  26.401  1.00  0.00     0.010 A 
ATOM     35  C   UNL A   1      44.844  23.236  24.227  1.00  0.00     0.010 A 
ATOM     36  C   UNL A   1      45.382  23.545  25.491  1.00  0.00    -0.014 A 
BRANCH  36  37
ATOM     37  C   UNL A   1      45.434  24.954  25.956  1.00  0.00     0.031 A 
ATOM     38  C   UNL A   1      46.763  25.657  25.908  1.00  0.00     0.074 A 
ATOM     39  C   UNL A   1      44.339  25.608  26.384  1.00  0.00     0.049 A 
ATOM     40  N   UNL A   1      47.081  26.873  26.271  1.00  0.00    -0.248 NA
ATOM     41  C   UNL A   1      47.890  24.873  25.378  1.00  0.00     0.031 C 
ATOM     42  C   UNL A   1      42.991  25.053  26.445  1.00  0.00     0.029 A 
ATOM     43  N   UNL A   1      44.196  26.892  26.858  1.00  0.00    -0.354 N 
ATOM     44  C   UNL A   1      48.437  27.002  26.000  1.00  0.00     0.074 A 
ATOM     45  C   UNL A   1      48.895  25.727  25.495  1.00  0.00     0.031 C 
ATOM     46  C   UNL A   1      42.157  25.986  26.942  1.00  0.00     0.029 A 
ATOM     47  C   UNL A   1      42.918  27.194  27.261  1.00  0.00     0.049 A 
ATOM     48  H   UNL A   1      44.941  27.534  26.904  1.00  0.00     0.167 HD
ATOM     49  C   UNL A   1      49.229  28.092  26.140  1.00  0.00     0.037 A 
ATOM     50  C   UNL A   1      42.430  28.310  27.840  1.00  0.00     0.037 A 
ATOM     51  C   UNL A   1      48.780  29.349  26.675  1.00  0.00     0.049 A 
ATOM     52  C   UNL A   1      43.361  29.479  28.087  1.00  0.00     0.074 A 
ATOM     53  C   UNL A   1      49.504  30.510  26.874  1.00  0.00     0.029 A 
ATOM     54  N   UNL A   1      47.488  29.604  27.111  1.00  0.00    -0.354 N 
ATOM     55  N   UNL A   1      44.634  29.605  27.798  1.00  0.00    -0.248 NA
ATOM     56  C   UNL A   1      42.780  30.663  28.734  1.00  0.00     0.031 C 
ATOM     57  C   UNL A   1      48.669  31.444  27.495  1.00  0.00     0.029 A 
ATOM     58  C   UNL A   1      47.402  30.896  27.603  1.00  0.00     0.049 A 
ATOM     59  H   UNL A   1      46.741  28.962  27.075  1.00  0.00     0.167 HD
ATOM     60  C   UNL A   1      44.992  30.892  28.187  1.00  0.00     0.074 A 
ATOM     61  C   UNL A   1      43.797  31.512  28.714  1.00  0.00     0.031 C 
ATOM     62  C   UNL A   1      46.200  31.505  28.115  1.00  0.00     0.037 A 
BRANCH  49  63
ATOM     63  C   UNL A   1      50.668  27.957  25.730  1.00  0.00     0.064 A 
ATOM     64  C   UNL A   1      51.686  27.752  26.674  1.00  0.00     0.173 A 
ATOM     65  C   UNL A   1      51.032  28.012  24.376  1.00  0.00     0.173 A 
ATOM     66  F   UNL A   1      51.396  27.707  27.983  1.00  0.00    -0.203 F 
ATOM     67  C   UNL A   1      53.017  27.641  26.281  1.00  0.00     0.198 A 
ATOM     68  C   UNL A   1      52.360  27.860  23.984  1.00  0.00     0.198 A 
ATOM     69  F   UNL A   1      50.100  28.203  23.430  1.00  0.00    -0.203 F 
ATOM     70  F   UNL A   1      53.978  27.506  27.206  1.00  0.00    -0.200 F 
ATOM     71  C   UNL A   1      53.352  27.686  24.937  1.00  0.00     0.200 A 
ATOM     72  F   UNL A   1      52.678  27.887  22.682  1.00  0.00    -0.200 F 
ATOM     73  F   UNL A   1      54.633  27.568  24.559  1.00  0.00    -0.200 F 
ENDBRANCH  49  63
BRANCH  50  74
ATOM     74  C   UNL A   1      41.000  28.388  28.256  1.00  0.00     0.064 A 
ATOM     75  C   UNL A   1      40.018  28.919  27.405  1.00  0.00     0.173 A 
ATOM     76  C   UNL A   1      40.596  27.997  29.542  1.00  0.00     0.173 A 
ATOM     77  F   UNL A   1      40.353  29.338  26.175  1.00  0.00    -0.203 F 
ATOM     78  C   UNL A   1      38.704  29.094  27.837  1.00  0.00     0.198 A 
ATOM     79  C   UNL A   1      39.273  28.133  29.958  1.00  0.00     0.198 A 
ATOM     80  F   UNL A   1      41.491  27.490  30.402  1.00  0.00    -0.203 F 
ATOM     81  F   UNL A   1      37.808  29.681  27.032  1.00  0.00    -0.200 F 
ATOM     82  C   UNL A   1      38.332  28.696  29.112  1.00  0.00     0.200 A 
ATOM     83  F   UNL A   1      38.916  27.736  31.187  1.00  0.00    -0.200 F 
ATOM     84  F   UNL A   1      37.071  28.873  29.531  1.00  0.00    -0.200 F 
ENDBRANCH  50  74
BRANCH  62  85
ATOM     85  C   UNL A   1      46.278  32.941  28.563  1.00  0.00     0.064 A 
ATOM     86  C   UNL A   1      46.597  33.297  29.883  1.00  0.00     0.173 A 
ATOM     87  C   UNL A   1      46.057  33.980  27.644  1.00  0.00     0.173 A 
ATOM     88  F   UNL A   1      46.815  32.347  30.805  1.00  0.00    -0.203 F 
ATOM     89  C   UNL A   1      46.641  34.632  30.276  1.00  0.00     0.198 A 
ATOM     90  C   UNL A   1      46.147  35.315  28.030  1.00  0.00     0.198 A 
ATOM     91  F   UNL A   1      45.763  33.703  26.364  1.00  0.00    -0.203 F 
ATOM     92  F   UNL A   1      46.874  34.944  31.558  1.00  0.00    -0.200 F 
ATOM     93  C   UNL A   1      46.424  35.640  29.348  1.00  0.00     0.200 A 
ATOM     94  F   UNL A   1      45.962  36.286  27.125  1.00  0.00    -0.200 F 
ATOM     95  F   UNL A   1      46.472  36.924  29.727  1.00  0.00    -0.200 F 
ENDBRANCH  62  85
ENDBRANCH  36  37
ENDBRANCH  29  31
ENDBRANCH  28  29
ENDBRANCH  27  28
ENDBRANCH  26  27
ENDBRANCH  25  26
ENDBRANCH   1  25
TORSDOF 18
ENDMDL
