MODEL 1
REMARK VINA RESULT:     -11.5      0.000      0.000
REMARK SMILES O=C(NC1(C(=O)OCCOCCOCCOC(=O)c2ccc(-c3c4nc(c(-c5c(F)c(F)c(F)c(F)c5F)c5ccc([nH]5)c(-c5c(F)c(F)c(F)c(F)c5F)c5nc(c(-c6c(F)c(F)c(F)c(F)c6F)c6ccc3[nH]6)C=C5)C=C4)cc2)Cc2ccccc2C1)OCC1c2ccccc2-c2ccccc21
REMARK SMILES IDX 11 1 10 2 9 3 8 4 7 5 5 6 6 7 4 8 82 9 89 10 83 11 88 12
REMARK SMILES IDX 84 13 87 14 85 15 86 16 3 17 1 18 2 19 90 21 91 22 92 23
REMARK SMILES IDX 93 24 104 25 94 26 98 27 99 28 103 29 95 30 97 31 100 32
REMARK SMILES IDX 102 33 96 34 101 35 12 36 13 37 14 38 15 39 16 40 17 41
REMARK SMILES IDX 18 42 19 43 20 44 81 45 21 46 80 47 22 48 23 49 24 50 74 51
REMARK SMILES IDX 25 52 79 53 73 54 75 55 26 56 78 57 72 58 71 59 27 61 59 62
REMARK SMILES IDX 39 63 58 64 40 65 43 66 57 67 76 68 41 69 42 70 56 72 77 73
REMARK SMILES IDX 44 74 28 75 29 76 37 77 30 78 31 79 35 80 38 81 32 82 33 83
REMARK SMILES IDX 36 84 34 85 60 86 61 87 69 88 62 89 63 90 67 91 70 92 64 93
REMARK SMILES IDX 65 94 68 95 66 96 45 97 46 98 54 99 47 100 48 101 52 102
REMARK SMILES IDX 55 103 49 104 50 105 53 106 51 107
REMARK H PARENT 3 20 75 60 43 71
REMARK Flexibility Score: inf
ROOT
ATOM      1  C   UNL A   1      35.892  22.979  26.032  1.00  0.00     0.188 C 
ENDROOT
BRANCH   1   2
ATOM      2  O   UNL A   1      34.957  21.929  25.854  1.00  0.00    -0.376 OA
BRANCH   2   3
ATOM      3  C   UNL A   1      34.663  21.661  24.481  1.00  0.00     0.202 C 
BRANCH   3   4
ATOM      4  C   UNL A   1      33.264  21.011  24.253  1.00  0.00     0.261 C 
BRANCH   4   5
ATOM      5  O   UNL A   1      32.234  21.944  23.765  1.00  0.00    -0.461 OA
BRANCH   5   6
ATOM      6  C   UNL A   1      32.496  22.736  22.675  1.00  0.00     0.332 C 
ATOM      7  O   UNL A   1      32.903  22.231  21.624  1.00  0.00    -0.249 OA
BRANCH   6   8
ATOM      8  C   UNL A   1      32.199  24.378  22.763  1.00  0.00     0.149 C 
ATOM      9  C   UNL A   1      33.209  24.909  23.861  1.00  0.00     0.076 C 
ATOM     10  C   UNL A   1      31.215  25.590  22.883  1.00  0.00     0.076 C 
ATOM     11  C   UNL A   1      32.220  25.401  24.938  1.00  0.00    -0.042 A 
ATOM     12  C   UNL A   1      31.029  25.783  24.323  1.00  0.00    -0.042 A 
ATOM     13  C   UNL A   1      32.273  25.440  26.318  1.00  0.00     0.004 A 
ATOM     14  C   UNL A   1      29.903  26.233  24.992  1.00  0.00     0.004 A 
ATOM     15  C   UNL A   1      31.121  25.838  27.033  1.00  0.00     0.000 A 
ATOM     16  C   UNL A   1      29.946  26.238  26.376  1.00  0.00     0.000 A 
BRANCH   8  17
ATOM     17  N   UNL A   1      32.297  24.430  21.343  1.00  0.00    -0.305 N 
ATOM     18  O   UNL A   1      33.129  25.578  19.612  1.00  0.00    -0.225 OA
ATOM     19  C   UNL A   1      33.078  25.457  20.832  1.00  0.00     0.408 C 
ATOM     20  H   UNL A   1      31.840  23.780  20.762  1.00  0.00     0.168 HD
BRANCH  19  21
ATOM     21  O   UNL A   1      33.653  26.393  21.683  1.00  0.00    -0.449 OA
BRANCH  21  22
ATOM     22  C   UNL A   1      33.700  27.903  21.939  1.00  0.00     0.248 C 
BRANCH  22  23
ATOM     23  C   UNL A   1      32.625  28.853  22.704  1.00  0.00     0.088 C 
ATOM     24  C   UNL A   1      32.899  28.850  24.232  1.00  0.00    -0.029 A 
ATOM     25  C   UNL A   1      31.071  29.196  22.738  1.00  0.00    -0.029 A 
ATOM     26  C   UNL A   1      34.010  28.415  24.940  1.00  0.00     0.005 A 
ATOM     27  C   UNL A   1      31.823  29.451  24.914  1.00  0.00    -0.014 A 
ATOM     28  C   UNL A   1      30.760  29.747  23.995  1.00  0.00    -0.014 A 
ATOM     29  C   UNL A   1      30.017  29.271  21.827  1.00  0.00     0.005 A 
ATOM     30  C   UNL A   1      34.027  28.592  26.326  1.00  0.00     0.000 A 
ATOM     31  C   UNL A   1      31.835  29.623  26.286  1.00  0.00     0.009 A 
ATOM     32  C   UNL A   1      29.579  30.465  24.252  1.00  0.00     0.009 A 
ATOM     33  C   UNL A   1      28.826  29.979  22.053  1.00  0.00     0.000 A 
ATOM     34  C   UNL A   1      32.951  29.194  26.993  1.00  0.00     0.001 A 
ATOM     35  C   UNL A   1      28.624  30.617  23.256  1.00  0.00     0.001 A 
ENDBRANCH  22  23
ENDBRANCH  21  22
ENDBRANCH  19  21
ENDBRANCH   8  17
ENDBRANCH   6   8
ENDBRANCH   5   6
ENDBRANCH   4   5
ENDBRANCH   3   4
ENDBRANCH   2   3
ENDBRANCH   1   2
BRANCH   1  36
ATOM     36  C   UNL A   1      36.957  23.083  24.947  1.00  0.00     0.188 C 
BRANCH  36  37
ATOM     37  O   UNL A   1      37.689  21.906  24.614  1.00  0.00    -0.376 OA
BRANCH  37  38
ATOM     38  C   UNL A   1      38.512  21.445  25.698  1.00  0.00     0.202 C 
BRANCH  38  39
ATOM     39  C   UNL A   1      39.179  20.056  25.561  1.00  0.00     0.261 C 
BRANCH  39  40
ATOM     40  O   UNL A   1      40.068  19.741  26.647  1.00  0.00    -0.460 OA
BRANCH  40  41
ATOM     41  C   UNL A   1      41.378  19.613  26.301  1.00  0.00     0.338 C 
ATOM     42  O   UNL A   1      41.893  18.653  25.751  1.00  0.00    -0.246 OA
BRANCH  41  43
ATOM     43  C   UNL A   1      42.066  20.926  26.454  1.00  0.00     0.060 A 
ATOM     44  C   UNL A   1      42.322  21.354  27.762  1.00  0.00     0.016 A 
ATOM     45  C   UNL A   1      42.578  21.659  25.378  1.00  0.00     0.016 A 
ATOM     46  C   UNL A   1      43.057  22.517  27.996  1.00  0.00     0.010 A 
ATOM     47  C   UNL A   1      43.316  22.831  25.617  1.00  0.00     0.010 A 
ATOM     48  C   UNL A   1      43.546  23.274  26.931  1.00  0.00    -0.014 A 
BRANCH  48  49
ATOM     49  C   UNL A   1      44.038  24.647  27.207  1.00  0.00     0.031 A 
ATOM     50  C   UNL A   1      43.031  25.642  27.712  1.00  0.00     0.074 A 
ATOM     51  C   UNL A   1      45.333  25.001  27.106  1.00  0.00     0.049 A 
ATOM     52  N   UNL A   1      43.153  26.925  27.930  1.00  0.00    -0.248 NA
ATOM     53  C   UNL A   1      41.696  25.101  28.018  1.00  0.00     0.031 C 
ATOM     54  C   UNL A   1      46.437  24.109  26.763  1.00  0.00     0.029 A 
ATOM     55  N   UNL A   1      45.936  26.224  27.292  1.00  0.00    -0.354 N 
ATOM     56  C   UNL A   1      41.908  27.345  28.377  1.00  0.00     0.074 A 
ATOM     57  C   UNL A   1      41.040  26.190  28.381  1.00  0.00     0.031 C 
ATOM     58  C   UNL A   1      47.580  24.820  26.736  1.00  0.00     0.029 A 
ATOM     59  C   UNL A   1      47.283  26.224  27.020  1.00  0.00     0.049 A 
ATOM     60  H   UNL A   1      45.447  27.025  27.591  1.00  0.00     0.167 HD
ATOM     61  C   UNL A   1      41.521  28.586  28.749  1.00  0.00     0.037 A 
ATOM     62  C   UNL A   1      48.160  27.248  26.975  1.00  0.00     0.037 A 
ATOM     63  C   UNL A   1      42.385  29.733  28.751  1.00  0.00     0.049 A 
ATOM     64  C   UNL A   1      47.679  28.650  27.282  1.00  0.00     0.074 A 
ATOM     65  C   UNL A   1      42.082  31.041  29.081  1.00  0.00     0.029 A 
ATOM     66  N   UNL A   1      43.728  29.705  28.404  1.00  0.00    -0.354 N 
ATOM     67  N   UNL A   1      46.489  29.057  27.655  1.00  0.00    -0.248 NA
ATOM     68  C   UNL A   1      48.663  29.735  27.153  1.00  0.00     0.031 C 
ATOM     69  C   UNL A   1      43.228  31.816  28.883  1.00  0.00     0.029 A 
ATOM     70  C   UNL A   1      44.262  30.981  28.490  1.00  0.00     0.049 A 
ATOM     71  H   UNL A   1      44.227  28.900  28.138  1.00  0.00     0.167 HD
ATOM     72  C   UNL A   1      46.591  30.431  27.836  1.00  0.00     0.074 A 
ATOM     73  C   UNL A   1      47.962  30.790  27.544  1.00  0.00     0.031 C 
ATOM     74  C   UNL A   1      45.635  31.318  28.211  1.00  0.00     0.037 A 
BRANCH  61  75
ATOM     75  C   UNL A   1      40.081  28.766  29.124  1.00  0.00     0.064 A 
ATOM     76  C   UNL A   1      39.103  29.120  28.182  1.00  0.00     0.173 A 
ATOM     77  C   UNL A   1      39.676  28.589  30.457  1.00  0.00     0.173 A 
ATOM     78  F   UNL A   1      39.444  29.328  26.901  1.00  0.00    -0.203 F 
ATOM     79  C   UNL A   1      37.781  29.324  28.566  1.00  0.00     0.198 A 
ATOM     80  C   UNL A   1      38.347  28.758  30.830  1.00  0.00     0.198 A 
ATOM     81  F   UNL A   1      40.572  28.255  31.396  1.00  0.00    -0.203 F 
ATOM     82  F   UNL A   1      36.876  29.724  27.662  1.00  0.00    -0.200 F 
ATOM     83  C   UNL A   1      37.403  29.135  29.887  1.00  0.00     0.200 A 
ATOM     84  F   UNL A   1      37.982  28.568  32.105  1.00  0.00    -0.200 F 
ATOM     85  F   UNL A   1      36.128  29.329  30.254  1.00  0.00    -0.200 F 
ENDBRANCH  61  75
BRANCH  62  86
ATOM     86  C   UNL A   1      49.576  27.014  26.575  1.00  0.00     0.064 A 
ATOM     87  C   UNL A   1      49.969  27.036  25.228  1.00  0.00     0.173 A 
ATOM     88  C   UNL A   1      50.557  26.704  27.530  1.00  0.00     0.173 A 
ATOM     89  F   UNL A   1      49.064  27.285  24.271  1.00  0.00    -0.203 F 
ATOM     90  C   UNL A   1      51.279  26.739  24.854  1.00  0.00     0.198 A 
ATOM     91  C   UNL A   1      51.874  26.440  27.157  1.00  0.00     0.198 A 
ATOM     92  F   UNL A   1      50.235  26.649  28.831  1.00  0.00    -0.203 F 
ATOM     93  F   UNL A   1      51.612  26.706  23.555  1.00  0.00    -0.200 F 
ATOM     94  C   UNL A   1      52.231  26.446  25.818  1.00  0.00     0.200 A 
ATOM     95  F   UNL A   1      52.791  26.161  28.093  1.00  0.00    -0.200 F 
ATOM     96  F   UNL A   1      53.489  26.156  25.456  1.00  0.00    -0.200 F 
ENDBRANCH  62  86
BRANCH  74  97
ATOM     97  C   UNL A   1      46.041  32.756  28.377  1.00  0.00     0.064 A 
ATOM     98  C   UNL A   1      46.559  33.244  29.585  1.00  0.00     0.173 A 
ATOM     99  C   UNL A   1      45.965  33.642  27.291  1.00  0.00     0.173 A 
ATOM    100  F   UNL A   1      46.644  32.441  30.657  1.00  0.00    -0.203 F 
ATOM    101  C   UNL A   1      46.964  34.571  29.706  1.00  0.00     0.198 A 
ATOM    102  C   UNL A   1      46.402  34.959  27.405  1.00  0.00     0.198 A 
ATOM    103  F   UNL A   1      45.488  33.224  26.109  1.00  0.00    -0.203 F 
ATOM    104  F   UNL A   1      47.415  35.027  30.884  1.00  0.00    -0.200 F 
ATOM    105  C   UNL A   1      46.894  35.424  28.614  1.00  0.00     0.200 A 
ATOM    106  F   UNL A   1      46.351  35.775  26.345  1.00  0.00    -0.200 F 
ATOM    107  F   UNL A   1      47.297  36.697  28.730  1.00  0.00    -0.200 F 
ENDBRANCH  74  97
ENDBRANCH  48  49
ENDBRANCH  41  43
ENDBRANCH  40  41
ENDBRANCH  39  40
ENDBRANCH  38  39
ENDBRANCH  37  38
ENDBRANCH  36  37
ENDBRANCH   1  36
TORSDOF 21
ENDMDL
MODEL 2
REMARK VINA RESULT:     -11.4      1.300      2.851
REMARK SMILES O=C(NC1(C(=O)OCCOCCOCCOC(=O)c2ccc(-c3c4nc(c(-c5c(F)c(F)c(F)c(F)c5F)c5ccc([nH]5)c(-c5c(F)c(F)c(F)c(F)c5F)c5nc(c(-c6c(F)c(F)c(F)c(F)c6F)c6ccc3[nH]6)C=C5)C=C4)cc2)Cc2ccccc2C1)OCC1c2ccccc2-c2ccccc21
REMARK SMILES IDX 11 1 10 2 9 3 8 4 7 5 5 6 6 7 4 8 82 9 89 10 83 11 88 12
REMARK SMILES IDX 84 13 87 14 85 15 86 16 3 17 1 18 2 19 90 21 91 22 92 23
REMARK SMILES IDX 93 24 104 25 94 26 98 27 99 28 103 29 95 30 97 31 100 32
REMARK SMILES IDX 102 33 96 34 101 35 12 36 13 37 14 38 15 39 16 40 17 41
REMARK SMILES IDX 18 42 19 43 20 44 81 45 21 46 80 47 22 48 23 49 24 50 74 51
REMARK SMILES IDX 25 52 79 53 73 54 75 55 26 56 78 57 72 58 71 59 27 61 59 62
REMARK SMILES IDX 39 63 58 64 40 65 43 66 57 67 76 68 41 69 42 70 56 72 77 73
REMARK SMILES IDX 44 74 28 75 29 76 37 77 30 78 31 79 35 80 38 81 32 82 33 83
REMARK SMILES IDX 36 84 34 85 60 86 61 87 69 88 62 89 63 90 67 91 70 92 64 93
REMARK SMILES IDX 65 94 68 95 66 96 45 97 46 98 54 99 47 100 48 101 52 102
REMARK SMILES IDX 55 103 49 104 50 105 53 106 51 107
REMARK H PARENT 3 20 75 60 43 71
REMARK Flexibility Score: inf
ROOT
ATOM      1  C   UNL A   1      35.952  22.845  26.085  1.00  0.00     0.188 C 
ENDROOT
BRANCH   1   2
ATOM      2  O   UNL A   1      35.225  21.629  26.053  1.00  0.00    -0.376 OA
BRANCH   2   3
ATOM      3  C   UNL A   1      35.056  21.106  24.732  1.00  0.00     0.202 C 
BRANCH   3   4
ATOM      4  C   UNL A   1      33.930  20.034  24.620  1.00  0.00     0.261 C 
BRANCH   4   5
ATOM      5  O   UNL A   1      32.568  20.589  24.558  1.00  0.00    -0.461 OA
BRANCH   5   6
ATOM      6  C   UNL A   1      32.305  21.654  23.734  1.00  0.00     0.332 C 
ATOM      7  O   UNL A   1      32.137  21.476  22.523  1.00  0.00    -0.249 OA
BRANCH   6   8
ATOM      8  C   UNL A   1      32.150  23.182  24.392  1.00  0.00     0.149 C 
ATOM      9  C   UNL A   1      31.029  23.881  23.519  1.00  0.00     0.076 C 
ATOM     10  C   UNL A   1      32.771  24.520  24.916  1.00  0.00     0.076 C 
ATOM     11  C   UNL A   1      31.845  25.023  22.878  1.00  0.00    -0.042 A 
ATOM     12  C   UNL A   1      32.892  25.369  23.729  1.00  0.00    -0.042 A 
ATOM     13  C   UNL A   1      31.776  25.655  21.650  1.00  0.00     0.004 A 
ATOM     14  C   UNL A   1      33.853  26.327  23.451  1.00  0.00     0.004 A 
ATOM     15  C   UNL A   1      32.776  26.596  21.312  1.00  0.00     0.000 A 
ATOM     16  C   UNL A   1      33.803  26.934  22.208  1.00  0.00     0.000 A 
BRANCH   8  17
ATOM     17  N   UNL A   1      32.048  22.574  25.675  1.00  0.00    -0.305 N 
ATOM     18  O   UNL A   1      30.957  22.607  27.629  1.00  0.00    -0.225 OA
ATOM     19  C   UNL A   1      31.032  23.055  26.489  1.00  0.00     0.408 C 
ATOM     20  H   UNL A   1      32.659  21.859  25.967  1.00  0.00     0.168 HD
BRANCH  19  21
ATOM     21  O   UNL A   1      30.233  24.111  26.066  1.00  0.00    -0.449 OA
BRANCH  21  22
ATOM     22  C   UNL A   1      29.803  25.522  26.479  1.00  0.00     0.248 C 
BRANCH  22  23
ATOM     23  C   UNL A   1      30.520  26.949  26.172  1.00  0.00     0.088 C 
ATOM     24  C   UNL A   1      30.106  27.465  24.768  1.00  0.00    -0.029 A 
ATOM     25  C   UNL A   1      31.925  27.687  26.297  1.00  0.00    -0.029 A 
ATOM     26  C   UNL A   1      29.078  27.056  23.932  1.00  0.00     0.005 A 
ATOM     27  C   UNL A   1      30.920  28.553  24.397  1.00  0.00    -0.014 A 
ATOM     28  C   UNL A   1      31.959  28.746  25.370  1.00  0.00    -0.014 A 
ATOM     29  C   UNL A   1      33.009  27.686  27.174  1.00  0.00     0.005 A 
ATOM     30  C   UNL A   1      28.879  27.745  22.733  1.00  0.00     0.000 A 
ATOM     31  C   UNL A   1      30.729  29.235  23.209  1.00  0.00     0.009 A 
ATOM     32  C   UNL A   1      32.887  29.800  25.436  1.00  0.00     0.009 A 
ATOM     33  C   UNL A   1      33.953  28.722  27.265  1.00  0.00     0.000 A 
ATOM     34  C   UNL A   1      29.695  28.828  22.376  1.00  0.00     0.001 A 
ATOM     35  C   UNL A   1      33.866  29.807  26.420  1.00  0.00     0.001 A 
ENDBRANCH  22  23
ENDBRANCH  21  22
ENDBRANCH  19  21
ENDBRANCH   8  17
ENDBRANCH   6   8
ENDBRANCH   5   6
ENDBRANCH   4   5
ENDBRANCH   3   4
ENDBRANCH   2   3
ENDBRANCH   1   2
BRANCH   1  36
ATOM     36  C   UNL A   1      36.975  23.013  24.969  1.00  0.00     0.188 C 
BRANCH  36  37
ATOM     37  O   UNL A   1      37.760  21.880  24.603  1.00  0.00    -0.376 OA
BRANCH  37  38
ATOM     38  C   UNL A   1      38.673  21.487  25.641  1.00  0.00     0.202 C 
BRANCH  38  39
ATOM     39  C   UNL A   1      39.358  20.105  25.516  1.00  0.00     0.261 C 
BRANCH  39  40
ATOM     40  O   UNL A   1      40.277  19.826  26.587  1.00  0.00    -0.460 OA
BRANCH  40  41
ATOM     41  C   UNL A   1      41.586  19.757  26.221  1.00  0.00     0.338 C 
ATOM     42  O   UNL A   1      42.111  18.868  25.570  1.00  0.00    -0.246 OA
BRANCH  41  43
ATOM     43  C   UNL A   1      42.254  21.059  26.505  1.00  0.00     0.060 A 
ATOM     44  C   UNL A   1      42.415  21.402  27.853  1.00  0.00     0.016 A 
ATOM     45  C   UNL A   1      42.835  21.861  25.517  1.00  0.00     0.016 A 
ATOM     46  C   UNL A   1      43.125  22.549  28.212  1.00  0.00     0.010 A 
ATOM     47  C   UNL A   1      43.547  23.016  25.881  1.00  0.00     0.010 A 
ATOM     48  C   UNL A   1      43.682  23.374  27.234  1.00  0.00    -0.014 A 
BRANCH  48  49
ATOM     49  C   UNL A   1      44.146  24.727  27.631  1.00  0.00     0.031 A 
ATOM     50  C   UNL A   1      43.089  25.720  28.025  1.00  0.00     0.074 A 
ATOM     51  C   UNL A   1      45.446  25.061  27.731  1.00  0.00     0.049 A 
ATOM     52  N   UNL A   1      43.193  26.991  28.308  1.00  0.00    -0.248 NA
ATOM     53  C   UNL A   1      41.717  25.191  28.116  1.00  0.00     0.031 C 
ATOM     54  C   UNL A   1      46.578  24.164  27.514  1.00  0.00     0.029 A 
ATOM     55  N   UNL A   1      46.030  26.266  28.048  1.00  0.00    -0.354 N 
ATOM     56  C   UNL A   1      41.902  27.416  28.588  1.00  0.00     0.074 A 
ATOM     57  C   UNL A   1      41.028  26.276  28.423  1.00  0.00     0.031 C 
ATOM     58  C   UNL A   1      47.720  24.856  27.678  1.00  0.00     0.029 A 
ATOM     59  C   UNL A   1      47.402  26.254  27.972  1.00  0.00     0.049 A 
ATOM     60  H   UNL A   1      45.513  27.065  28.305  1.00  0.00     0.167 HD
ATOM     61  C   UNL A   1      41.480  28.649  28.950  1.00  0.00     0.037 A 
ATOM     62  C   UNL A   1      48.288  27.264  28.093  1.00  0.00     0.037 A 
ATOM     63  C   UNL A   1      42.348  29.779  29.121  1.00  0.00     0.049 A 
ATOM     64  C   UNL A   1      47.785  28.661  28.383  1.00  0.00     0.074 A 
ATOM     65  C   UNL A   1      42.016  31.080  29.454  1.00  0.00     0.029 A 
ATOM     66  N   UNL A   1      43.727  29.742  28.969  1.00  0.00    -0.354 N 
ATOM     67  N   UNL A   1      46.559  29.074  28.597  1.00  0.00    -0.248 NA
ATOM     68  C   UNL A   1      48.790  29.733  28.439  1.00  0.00     0.031 C 
ATOM     69  C   UNL A   1      43.188  31.842  29.452  1.00  0.00     0.029 A 
ATOM     70  C   UNL A   1      44.257  31.004  29.180  1.00  0.00     0.049 A 
ATOM     71  H   UNL A   1      44.249  28.939  28.745  1.00  0.00     0.167 HD
ATOM     72  C   UNL A   1      46.649  30.439  28.845  1.00  0.00     0.074 A 
ATOM     73  C   UNL A   1      48.052  30.785  28.766  1.00  0.00     0.031 C 
ATOM     74  C   UNL A   1      45.660  31.328  29.113  1.00  0.00     0.037 A 
BRANCH  61  75
ATOM     75  C   UNL A   1      40.003  28.839  29.122  1.00  0.00     0.064 A 
ATOM     76  C   UNL A   1      39.174  29.240  28.063  1.00  0.00     0.173 A 
ATOM     77  C   UNL A   1      39.409  28.625  30.376  1.00  0.00     0.173 A 
ATOM     78  F   UNL A   1      39.697  29.485  26.851  1.00  0.00    -0.203 F 
ATOM     79  C   UNL A   1      37.813  29.452  28.261  1.00  0.00     0.198 A 
ATOM     80  C   UNL A   1      38.042  28.804  30.562  1.00  0.00     0.198 A 
ATOM     81  F   UNL A   1      40.158  28.246  31.422  1.00  0.00    -0.203 F 
ATOM     82  F   UNL A   1      37.051  29.897  27.251  1.00  0.00    -0.200 F 
ATOM     83  C   UNL A   1      37.247  29.226  29.507  1.00  0.00     0.200 A 
ATOM     84  F   UNL A   1      37.497  28.577  31.764  1.00  0.00    -0.200 F 
ATOM     85  F   UNL A   1      35.935  29.428  29.695  1.00  0.00    -0.200 F 
ENDBRANCH  61  75
BRANCH  62  86
ATOM     86  C   UNL A   1      49.744  27.020  27.891  1.00  0.00     0.064 A 
ATOM     87  C   UNL A   1      50.317  27.028  26.610  1.00  0.00     0.173 A 
ATOM     88  C   UNL A   1      50.585  26.715  28.973  1.00  0.00     0.173 A 
ATOM     89  F   UNL A   1      49.552  27.272  25.536  1.00  0.00    -0.203 F 
ATOM     90  C   UNL A   1      51.664  26.723  26.419  1.00  0.00     0.198 A 
ATOM     91  C   UNL A   1      51.939  26.441  28.784  1.00  0.00     0.198 A 
ATOM     92  F   UNL A   1      50.089  26.673  30.219  1.00  0.00    -0.203 F 
ATOM     93  F   UNL A   1      52.169  26.676  25.178  1.00  0.00    -0.200 F 
ATOM     94  C   UNL A   1      52.475  26.435  27.507  1.00  0.00     0.200 A 
ATOM     95  F   UNL A   1      52.719  26.167  29.839  1.00  0.00    -0.200 F 
ATOM     96  F   UNL A   1      53.768  26.136  27.321  1.00  0.00    -0.200 F 
ENDBRANCH  62  86
BRANCH  74  97
ATOM     97  C   UNL A   1      46.055  32.751  29.392  1.00  0.00     0.064 A 
ATOM     98  C   UNL A   1      46.078  33.724  28.383  1.00  0.00     0.173 A 
ATOM     99  C   UNL A   1      46.355  33.157  30.702  1.00  0.00     0.173 A 
ATOM    100  F   UNL A   1      45.808  33.387  27.113  1.00  0.00    -0.203 F 
ATOM    101  C   UNL A   1      46.410  35.046  28.671  1.00  0.00     0.198 A 
ATOM    102  C   UNL A   1      46.654  34.486  30.992  1.00  0.00     0.198 A 
ATOM    103  F   UNL A   1      46.336  32.269  31.707  1.00  0.00    -0.203 F 
ATOM    104  F   UNL A   1      46.470  35.951  27.683  1.00  0.00    -0.200 F 
ATOM    105  C   UNL A   1      46.689  35.427  29.976  1.00  0.00     0.200 A 
ATOM    106  F   UNL A   1      46.905  34.854  32.255  1.00  0.00    -0.200 F 
ATOM    107  F   UNL A   1      46.996  36.702  30.251  1.00  0.00    -0.200 F 
ENDBRANCH  74  97
ENDBRANCH  48  49
ENDBRANCH  41  43
ENDBRANCH  40  41
ENDBRANCH  39  40
ENDBRANCH  38  39
ENDBRANCH  37  38
ENDBRANCH  36  37
ENDBRANCH   1  36
TORSDOF 21
ENDMDL
MODEL 3
REMARK VINA RESULT:     -11.2      1.381      7.315
REMARK SMILES O=C(NC1(C(=O)OCCOCCOCCOC(=O)c2ccc(-c3c4nc(c(-c5c(F)c(F)c(F)c(F)c5F)c5ccc([nH]5)c(-c5c(F)c(F)c(F)c(F)c5F)c5nc(c(-c6c(F)c(F)c(F)c(F)c6F)c6ccc3[nH]6)C=C5)C=C4)cc2)Cc2ccccc2C1)OCC1c2ccccc2-c2ccccc21
REMARK SMILES IDX 11 1 10 2 9 3 8 4 7 5 5 6 6 7 4 8 82 9 89 10 83 11 88 12
REMARK SMILES IDX 84 13 87 14 85 15 86 16 3 17 1 18 2 19 90 21 91 22 92 23
REMARK SMILES IDX 93 24 104 25 94 26 98 27 99 28 103 29 95 30 97 31 100 32
REMARK SMILES IDX 102 33 96 34 101 35 12 36 13 37 14 38 15 39 16 40 17 41
REMARK SMILES IDX 18 42 19 43 20 44 81 45 21 46 80 47 22 48 23 49 24 50 74 51
REMARK SMILES IDX 25 52 79 53 73 54 75 55 26 56 78 57 72 58 71 59 27 61 59 62
REMARK SMILES IDX 39 63 58 64 40 65 43 66 57 67 76 68 41 69 42 70 56 72 77 73
REMARK SMILES IDX 44 74 28 75 29 76 37 77 30 78 31 79 35 80 38 81 32 82 33 83
REMARK SMILES IDX 36 84 34 85 60 86 61 87 69 88 62 89 63 90 67 91 70 92 64 93
REMARK SMILES IDX 65 94 68 95 66 96 45 97 46 98 54 99 47 100 48 101 52 102
REMARK SMILES IDX 55 103 49 104 50 105 53 106 51 107
REMARK H PARENT 3 20 75 60 43 71
REMARK Flexibility Score: inf
ROOT
ATOM      1  C   UNL A   1      36.024  22.758  25.807  1.00  0.00     0.188 C 
ENDROOT
BRANCH   1   2
ATOM      2  O   UNL A   1      35.093  21.700  25.954  1.00  0.00    -0.376 OA
BRANCH   2   3
ATOM      3  C   UNL A   1      34.823  21.009  24.731  1.00  0.00     0.202 C 
BRANCH   3   4
ATOM      4  C   UNL A   1      33.668  19.968  24.838  1.00  0.00     0.261 C 
BRANCH   4   5
ATOM      5  O   UNL A   1      32.329  20.517  24.564  1.00  0.00    -0.461 OA
BRANCH   5   6
ATOM      6  C   UNL A   1      32.196  21.603  23.736  1.00  0.00     0.332 C 
ATOM      7  O   UNL A   1      32.135  21.448  22.512  1.00  0.00    -0.249 OA
BRANCH   6   8
ATOM      8  C   UNL A   1      32.053  23.129  24.401  1.00  0.00     0.149 C 
ATOM      9  C   UNL A   1      30.976  23.859  23.499  1.00  0.00     0.076 C 
ATOM     10  C   UNL A   1      32.687  24.450  24.955  1.00  0.00     0.076 C 
ATOM     11  C   UNL A   1      31.835  24.988  22.893  1.00  0.00    -0.042 A 
ATOM     12  C   UNL A   1      32.862  25.305  23.779  1.00  0.00    -0.042 A 
ATOM     13  C   UNL A   1      31.819  25.630  21.670  1.00  0.00     0.004 A 
ATOM     14  C   UNL A   1      33.852  26.244  23.539  1.00  0.00     0.004 A 
ATOM     15  C   UNL A   1      32.848  26.551  21.370  1.00  0.00     0.000 A 
ATOM     16  C   UNL A   1      33.854  26.861  22.300  1.00  0.00     0.000 A 
BRANCH   8  17
ATOM     17  N   UNL A   1      31.899  22.514  25.676  1.00  0.00    -0.305 N 
ATOM     18  O   UNL A   1      30.797  22.599  27.622  1.00  0.00    -0.225 OA
ATOM     19  C   UNL A   1      30.912  23.055  26.488  1.00  0.00     0.408 C 
ATOM     20  H   UNL A   1      32.456  21.755  25.963  1.00  0.00     0.168 HD
BRANCH  19  21
ATOM     21  O   UNL A   1      30.192  24.169  26.073  1.00  0.00    -0.449 OA
BRANCH  21  22
ATOM     22  C   UNL A   1      29.830  25.590  26.516  1.00  0.00     0.248 C 
BRANCH  22  23
ATOM     23  C   UNL A   1      30.585  26.993  26.192  1.00  0.00     0.088 C 
ATOM     24  C   UNL A   1      30.183  27.505  24.783  1.00  0.00    -0.029 A 
ATOM     25  C   UNL A   1      32.010  27.695  26.307  1.00  0.00    -0.029 A 
ATOM     26  C   UNL A   1      29.142  27.114  23.953  1.00  0.00     0.005 A 
ATOM     27  C   UNL A   1      31.026  28.566  24.399  1.00  0.00    -0.014 A 
ATOM     28  C   UNL A   1      32.070  28.742  25.369  1.00  0.00    -0.014 A 
ATOM     29  C   UNL A   1      33.095  27.675  27.183  1.00  0.00     0.005 A 
ATOM     30  C   UNL A   1      28.960  27.795  22.747  1.00  0.00     0.000 A 
ATOM     31  C   UNL A   1      30.851  29.240  23.204  1.00  0.00     0.009 A 
ATOM     32  C   UNL A   1      33.026  29.771  25.422  1.00  0.00     0.009 A 
ATOM     33  C   UNL A   1      34.067  28.686  27.261  1.00  0.00     0.000 A 
ATOM     34  C   UNL A   1      29.804  28.852  22.377  1.00  0.00     0.001 A 
ATOM     35  C   UNL A   1      34.007  29.763  26.404  1.00  0.00     0.001 A 
ENDBRANCH  22  23
ENDBRANCH  21  22
ENDBRANCH  19  21
ENDBRANCH   8  17
ENDBRANCH   6   8
ENDBRANCH   5   6
ENDBRANCH   4   5
ENDBRANCH   3   4
ENDBRANCH   2   3
ENDBRANCH   1   2
BRANCH   1  36
ATOM     36  C   UNL A   1      37.046  22.565  24.694  1.00  0.00     0.188 C 
BRANCH  36  37
ATOM     37  O   UNL A   1      37.653  21.281  24.558  1.00  0.00    -0.376 OA
BRANCH  37  38
ATOM     38  C   UNL A   1      38.572  20.993  25.624  1.00  0.00     0.202 C 
BRANCH  38  39
ATOM     39  C   UNL A   1      39.317  19.636  25.590  1.00  0.00     0.261 C 
BRANCH  39  40
ATOM     40  O   UNL A   1      40.249  19.472  26.673  1.00  0.00    -0.460 OA
BRANCH  40  41
ATOM     41  C   UNL A   1      41.560  19.589  26.328  1.00  0.00     0.338 C 
ATOM     42  O   UNL A   1      42.249  18.736  25.792  1.00  0.00    -0.246 OA
BRANCH  41  43
ATOM     43  C   UNL A   1      41.986  21.011  26.460  1.00  0.00     0.060 A 
ATOM     44  C   UNL A   1      42.261  21.468  27.754  1.00  0.00     0.016 A 
ATOM     45  C   UNL A   1      42.252  21.842  25.366  1.00  0.00     0.016 A 
ATOM     46  C   UNL A   1      42.770  22.752  27.960  1.00  0.00     0.010 A 
ATOM     47  C   UNL A   1      42.761  23.135  25.576  1.00  0.00     0.010 A 
ATOM     48  C   UNL A   1      43.008  23.602  26.879  1.00  0.00    -0.014 A 
BRANCH  48  49
ATOM     49  C   UNL A   1      43.241  25.042  27.151  1.00  0.00     0.031 A 
ATOM     50  C   UNL A   1      44.578  25.602  26.753  1.00  0.00     0.074 A 
ATOM     51  C   UNL A   1      42.294  25.862  27.646  1.00  0.00     0.049 A 
ATOM     52  N   UNL A   1      45.091  26.785  26.966  1.00  0.00    -0.248 NA
ATOM     53  C   UNL A   1      45.456  24.688  26.002  1.00  0.00     0.031 C 
ATOM     54  C   UNL A   1      40.915  25.490  27.946  1.00  0.00     0.029 A 
ATOM     55  N   UNL A   1      42.362  27.196  27.980  1.00  0.00    -0.354 N 
ATOM     56  C   UNL A   1      46.355  26.748  26.395  1.00  0.00     0.074 A 
ATOM     57  C   UNL A   1      46.542  25.425  25.844  1.00  0.00     0.031 C 
ATOM     58  C   UNL A   1      40.274  26.563  28.447  1.00  0.00     0.029 A 
ATOM     59  C   UNL A   1      41.207  27.686  28.539  1.00  0.00     0.049 A 
ATOM     60  H   UNL A   1      43.166  27.747  27.833  1.00  0.00     0.167 HD
ATOM     61  C   UNL A   1      47.282  27.732  26.335  1.00  0.00     0.037 A 
ATOM     62  C   UNL A   1      40.951  28.891  29.089  1.00  0.00     0.037 A 
ATOM     63  C   UNL A   1      47.095  29.048  26.876  1.00  0.00     0.049 A 
ATOM     64  C   UNL A   1      42.042  29.939  29.117  1.00  0.00     0.074 A 
ATOM     65  C   UNL A   1      47.985  30.108  26.896  1.00  0.00     0.029 A 
ATOM     66  N   UNL A   1      45.933  29.486  27.495  1.00  0.00    -0.354 N 
ATOM     67  N   UNL A   1      43.256  29.888  28.624  1.00  0.00    -0.248 NA
ATOM     68  C   UNL A   1      41.727  31.209  29.788  1.00  0.00     0.031 C 
ATOM     69  C   UNL A   1      47.381  31.170  27.574  1.00  0.00     0.029 A 
ATOM     70  C   UNL A   1      46.093  30.795  27.922  1.00  0.00     0.049 A 
ATOM     71  H   UNL A   1      45.119  28.947  27.613  1.00  0.00     0.167 HD
ATOM     72  C   UNL A   1      43.834  31.124  28.893  1.00  0.00     0.074 A 
ATOM     73  C   UNL A   1      42.835  31.909  29.585  1.00  0.00     0.031 C 
ATOM     74  C   UNL A   1      45.081  31.568  28.595  1.00  0.00     0.037 A 
BRANCH  61  75
ATOM     75  C   UNL A   1      48.602  27.386  25.713  1.00  0.00     0.064 A 
ATOM     76  C   UNL A   1      48.814  27.454  24.328  1.00  0.00     0.173 A 
ATOM     77  C   UNL A   1      49.671  26.969  26.522  1.00  0.00     0.173 A 
ATOM     78  F   UNL A   1      47.815  27.820  23.509  1.00  0.00    -0.203 F 
ATOM     79  C   UNL A   1      50.036  27.086  23.772  1.00  0.00     0.198 A 
ATOM     80  C   UNL A   1      50.902  26.636  25.967  1.00  0.00     0.198 A 
ATOM     81  F   UNL A   1      49.519  26.883  27.851  1.00  0.00    -0.203 F 
ATOM     82  F   UNL A   1      50.196  27.097  22.442  1.00  0.00    -0.200 F 
ATOM     83  C   UNL A   1      51.080  26.685  24.592  1.00  0.00     0.200 A 
ATOM     84  F   UNL A   1      51.912  26.256  26.760  1.00  0.00    -0.200 F 
ATOM     85  F   UNL A   1      52.258  26.333  24.056  1.00  0.00    -0.200 F 
ENDBRANCH  61  75
BRANCH  62  86
ATOM     86  C   UNL A   1      39.627  29.171  29.712  1.00  0.00     0.064 A 
ATOM     87  C   UNL A   1      39.360  28.833  31.047  1.00  0.00     0.173 A 
ATOM     88  C   UNL A   1      38.579  29.733  28.965  1.00  0.00     0.173 A 
ATOM     89  F   UNL A   1      40.311  28.256  31.795  1.00  0.00    -0.203 F 
ATOM     90  C   UNL A   1      38.095  29.026  31.602  1.00  0.00     0.198 A 
ATOM     91  C   UNL A   1      37.324  29.955  29.530  1.00  0.00     0.198 A 
ATOM     92  F   UNL A   1      38.771  30.058  27.678  1.00  0.00    -0.203 F 
ATOM     93  F   UNL A   1      37.851  28.635  32.861  1.00  0.00    -0.200 F 
ATOM     94  C   UNL A   1      37.080  29.592  30.845  1.00  0.00     0.200 A 
ATOM     95  F   UNL A   1      36.348  30.506  28.795  1.00  0.00    -0.200 F 
ATOM     96  F   UNL A   1      35.864  29.773  31.378  1.00  0.00    -0.200 F 
ENDBRANCH  62  86
BRANCH  74  97
ATOM     97  C   UNL A   1      45.426  32.983  28.967  1.00  0.00     0.064 A 
ATOM     98  C   UNL A   1      45.163  34.060  28.108  1.00  0.00     0.173 A 
ATOM     99  C   UNL A   1      45.972  33.269  30.229  1.00  0.00     0.173 A 
ATOM    100  F   UNL A   1      44.651  33.841  26.887  1.00  0.00    -0.203 F 
ATOM    101  C   UNL A   1      45.457  35.367  28.488  1.00  0.00     0.198 A 
ATOM    102  C   UNL A   1      46.234  34.580  30.618  1.00  0.00     0.198 A 
ATOM    103  F   UNL A   1      46.233  32.277  31.094  1.00  0.00    -0.203 F 
ATOM    104  F   UNL A   1      45.239  36.377  27.633  1.00  0.00    -0.200 F 
ATOM    105  C   UNL A   1      45.983  35.627  29.745  1.00  0.00     0.200 A 
ATOM    106  F   UNL A   1      46.724  34.829  31.839  1.00  0.00    -0.200 F 
ATOM    107  F   UNL A   1      46.253  36.887  30.113  1.00  0.00    -0.200 F 
ENDBRANCH  74  97
ENDBRANCH  48  49
ENDBRANCH  41  43
ENDBRANCH  40  41
ENDBRANCH  39  40
ENDBRANCH  38  39
ENDBRANCH  37  38
ENDBRANCH  36  37
ENDBRANCH   1  36
TORSDOF 21
ENDMDL
