MODEL 1
REMARK VINA RESULT:     -12.1      0.000      0.000
REMARK SMILES C[C@]12CC[C@@H]3[C@@H](CCC4=C/C(=N\OCC(=O)N5CCC[C@@H]5C(=O)OCCOCCOCCOC(=O)c5ccc(-c6c7nc(c(-c8c(F)c(F)c(F)c(F)c8F)c8ccc([nH]8)c(-c8c(F)c(F)c(F)c(F)c8F)c8nc(c(-c9c(F)c(F)c(F)c(F)c9F)c9ccc6[nH]9)C=C8)C=C7)cc5)CC[C@@]43C)[C@@H]1CC[C@@H]2O
REMARK SMILES IDX 27 1 26 2 25 3 24 4 22 5 23 6 21 7 17 8 18 9 19 10 20 11
REMARK SMILES IDX 15 12 16 13 14 14 13 15 12 16 1 17 2 18 3 19 103 20 106 21
REMARK SMILES IDX 4 22 6 23 104 24 105 25 5 26 7 27 101 28 8 29 9 30 100 31
REMARK SMILES IDX 102 32 10 33 99 34 11 35 107 36 28 38 29 39 30 40 31 41
REMARK SMILES IDX 32 42 33 43 34 44 35 45 36 46 37 47 98 48 38 49 97 50 39 51
REMARK SMILES IDX 40 52 41 53 91 54 42 55 96 56 90 57 92 58 43 59 95 60 89 61
REMARK SMILES IDX 88 62 44 64 76 65 56 66 75 67 57 68 60 69 74 70 93 71 58 72
REMARK SMILES IDX 59 73 73 75 94 76 61 77 45 78 46 79 54 80 47 81 48 82 52 83
REMARK SMILES IDX 55 84 49 85 50 86 53 87 51 88 77 89 78 90 86 91 79 92 80 93
REMARK SMILES IDX 84 94 87 95 81 96 82 97 85 98 83 99 62 100 63 101 71 102
REMARK SMILES IDX 64 103 65 104 69 105 72 106 66 107 67 108 70 109 68 110
REMARK H PARENT 107 37 92 63 60 74
REMARK Flexibility Score: inf
ROOT
ATOM      1  O   UNL A   1      32.757  37.571  31.381  1.00  0.00    -0.376 OA
ENDROOT
BRANCH   1   2
ATOM      2  C   UNL A   1      33.266  36.934  30.231  1.00  0.00     0.202 C 
BRANCH   2   3
ATOM      3  C   UNL A   1      33.000  35.441  30.009  1.00  0.00     0.261 C 
BRANCH   3   4
ATOM      4  O   UNL A   1      33.754  34.679  29.067  1.00  0.00    -0.462 OA
BRANCH   4   5
ATOM      5  C   UNL A   1      34.251  33.459  29.376  1.00  0.00     0.328 C 
ATOM      6  O   UNL A   1      34.282  32.951  30.488  1.00  0.00    -0.250 OA
BRANCH   5   7
ATOM      7  C   UNL A   1      34.716  32.738  28.105  1.00  0.00     0.195 C 
ATOM      8  N   UNL A   1      33.816  31.703  27.591  1.00  0.00    -0.326 N 
ATOM      9  C   UNL A   1      34.501  30.433  27.415  1.00  0.00     0.120 C 
ATOM     10  C   UNL A   1      35.709  30.500  28.324  1.00  0.00     0.024 C 
ATOM     11  C   UNL A   1      36.029  31.990  28.419  1.00  0.00     0.039 C 
BRANCH   8  12
ATOM     12  C   UNL A   1      32.516  31.851  27.154  1.00  0.00     0.264 C 
ATOM     13  O   UNL A   1      32.025  32.988  27.093  1.00  0.00    -0.271 OA
BRANCH  12  14
ATOM     14  C   UNL A   1      31.597  30.629  26.842  1.00  0.00     0.363 C 
BRANCH  14  15
ATOM     15  O   UNL A   1      31.861  29.578  25.913  1.00  0.00    -0.385 OA
BRANCH  15  16
ATOM     16  N   UNL A   1      31.901  28.372  26.629  1.00  0.00    -0.091 NA
ATOM     17  C   UNL A   1      33.672  20.260  24.634  1.00  0.00     0.014 C 
ATOM     18  C   UNL A   1      33.668  21.696  25.249  1.00  0.00    -0.003 C 
ATOM     19  C   UNL A   1      32.228  21.866  25.731  1.00  0.00     0.010 C 
ATOM     20  C   UNL A   1      34.230  22.798  24.292  1.00  0.00     0.001 C 
ATOM     21  C   UNL A   1      34.749  21.895  26.324  1.00  0.00     0.120 C 
ATOM     22  C   UNL A   1      31.322  22.294  24.576  1.00  0.00     0.005 C 
ATOM     23  C   UNL A   1      33.312  23.125  23.129  1.00  0.00    -0.003 C 
ATOM     24  C   UNL A   1      35.685  22.314  24.108  1.00  0.00     0.007 C 
ATOM     25  C   UNL A   1      36.033  21.698  25.504  1.00  0.00     0.032 C 
ATOM     26  C   UNL A   1      31.902  23.415  23.674  1.00  0.00     0.002 C 
ATOM     27  C   UNL A   1      33.704  24.292  22.197  1.00  0.00     0.008 C 
ATOM     28  C   UNL A   1      31.682  24.882  24.277  1.00  0.00    -0.008 C 
ATOM     29  C   UNL A   1      33.564  25.737  22.712  1.00  0.00     0.032 C 
ATOM     30  C   UNL A   1      32.682  25.976  23.904  1.00  0.00    -0.062 C 
ATOM     31  C   UNL A   1      31.709  24.824  25.834  1.00  0.00     0.018 C 
ATOM     32  C   UNL A   1      30.314  25.218  23.618  1.00  0.00     0.016 C 
ATOM     33  C   UNL A   1      32.828  27.129  24.613  1.00  0.00     0.027 C 
ATOM     34  C   UNL A   1      31.974  26.028  26.723  1.00  0.00     0.061 C 
ATOM     35  C   UNL A   1      32.227  27.305  25.968  1.00  0.00     0.080 C 
BRANCH  21  36
ATOM     36  O   UNL A   1      34.605  21.082  27.457  1.00  0.00    -0.393 OA
ATOM     37  H   UNL A   1      33.673  21.064  27.726  1.00  0.00     0.210 HD
ENDBRANCH  21  36
ENDBRANCH  15  16
ENDBRANCH  14  15
ENDBRANCH  12  14
ENDBRANCH   8  12
ENDBRANCH   5   7
ENDBRANCH   4   5
ENDBRANCH   3   4
ENDBRANCH   2   3
ENDBRANCH   1   2
BRANCH   1  38
ATOM     38  C   UNL A   1      33.680  37.816  32.426  1.00  0.00     0.188 C 
BRANCH  38  39
ATOM     39  C   UNL A   1      33.929  36.719  33.503  1.00  0.00     0.188 C 
BRANCH  39  40
ATOM     40  O   UNL A   1      35.166  36.043  33.375  1.00  0.00    -0.376 OA
BRANCH  40  41
ATOM     41  C   UNL A   1      35.270  34.731  33.888  1.00  0.00     0.202 C 
BRANCH  41  42
ATOM     42  C   UNL A   1      36.615  34.291  34.491  1.00  0.00     0.261 C 
BRANCH  42  43
ATOM     43  O   UNL A   1      37.499  33.555  33.630  1.00  0.00    -0.460 OA
BRANCH  43  44
ATOM     44  C   UNL A   1      37.698  32.241  33.908  1.00  0.00     0.338 C 
ATOM     45  O   UNL A   1      37.084  31.557  34.690  1.00  0.00    -0.246 OA
BRANCH  44  46
ATOM     46  C   UNL A   1      38.641  31.722  32.882  1.00  0.00     0.060 A 
ATOM     47  C   UNL A   1      39.856  31.149  33.298  1.00  0.00     0.016 A 
ATOM     48  C   UNL A   1      38.280  31.703  31.534  1.00  0.00     0.016 A 
ATOM     49  C   UNL A   1      40.692  30.520  32.372  1.00  0.00     0.010 A 
ATOM     50  C   UNL A   1      39.154  31.148  30.598  1.00  0.00     0.010 A 
ATOM     51  C   UNL A   1      40.369  30.568  31.011  1.00  0.00    -0.014 A 
BRANCH  51  52
ATOM     52  C   UNL A   1      41.423  30.317  30.002  1.00  0.00     0.031 A 
ATOM     53  C   UNL A   1      41.414  28.964  29.348  1.00  0.00     0.074 A 
ATOM     54  C   UNL A   1      42.364  31.224  29.689  1.00  0.00     0.049 A 
ATOM     55  N   UNL A   1      42.296  28.410  28.561  1.00  0.00    -0.248 NA
ATOM     56  C   UNL A   1      40.243  28.117  29.634  1.00  0.00     0.031 C 
ATOM     57  C   UNL A   1      42.432  32.591  30.194  1.00  0.00     0.029 A 
ATOM     58  N   UNL A   1      43.464  31.109  28.873  1.00  0.00    -0.354 N 
ATOM     59  C   UNL A   1      41.795  27.147  28.276  1.00  0.00     0.074 A 
ATOM     60  C   UNL A   1      40.542  27.008  28.980  1.00  0.00     0.031 C 
ATOM     61  C   UNL A   1      43.536  33.181  29.701  1.00  0.00     0.029 A 
ATOM     62  C   UNL A   1      44.275  32.217  28.886  1.00  0.00     0.049 A 
ATOM     63  H   UNL A   1      43.652  30.308  28.331  1.00  0.00     0.167 HD
ATOM     64  C   UNL A   1      42.336  26.183  27.498  1.00  0.00     0.037 A 
ATOM     65  C   UNL A   1      45.493  32.403  28.336  1.00  0.00     0.037 A 
ATOM     66  C   UNL A   1      43.594  26.320  26.819  1.00  0.00     0.049 A 
ATOM     67  C   UNL A   1      46.132  31.273  27.561  1.00  0.00     0.074 A 
ATOM     68  C   UNL A   1      44.241  25.404  26.012  1.00  0.00     0.029 A 
ATOM     69  N   UNL A   1      44.401  27.446  26.882  1.00  0.00    -0.354 N 
ATOM     70  N   UNL A   1      45.659  30.080  27.290  1.00  0.00    -0.248 NA
ATOM     71  C   UNL A   1      47.480  31.514  27.021  1.00  0.00     0.031 C 
ATOM     72  C   UNL A   1      45.470  25.952  25.636  1.00  0.00     0.029 A 
ATOM     73  C   UNL A   1      45.555  27.237  26.149  1.00  0.00     0.049 A 
ATOM     74  H   UNL A   1      44.185  28.271  27.376  1.00  0.00     0.167 HD
ATOM     75  C   UNL A   1      46.628  29.446  26.519  1.00  0.00     0.074 A 
ATOM     76  C   UNL A   1      47.716  30.387  26.363  1.00  0.00     0.031 C 
ATOM     77  C   UNL A   1      46.615  28.200  25.985  1.00  0.00     0.037 A 
BRANCH  64  78
ATOM     78  C   UNL A   1      41.594  24.884  27.394  1.00  0.00     0.064 A 
ATOM     79  C   UNL A   1      42.014  23.733  28.077  1.00  0.00     0.173 A 
ATOM     80  C   UNL A   1      40.442  24.793  26.597  1.00  0.00     0.173 A 
ATOM     81  F   UNL A   1      43.123  23.762  28.831  1.00  0.00    -0.203 F 
ATOM     82  C   UNL A   1      41.323  22.531  27.945  1.00  0.00     0.198 A 
ATOM     83  C   UNL A   1      39.735  23.599  26.496  1.00  0.00     0.198 A 
ATOM     84  F   UNL A   1      40.002  25.863  25.918  1.00  0.00    -0.203 F 
ATOM     85  F   UNL A   1      41.775  21.430  28.560  1.00  0.00    -0.200 F 
ATOM     86  C   UNL A   1      40.180  22.468  27.162  1.00  0.00     0.200 A 
ATOM     87  F   UNL A   1      38.624  23.542  25.747  1.00  0.00    -0.200 F 
ATOM     88  F   UNL A   1      39.513  21.312  27.041  1.00  0.00    -0.200 F 
ENDBRANCH  64  78
BRANCH  65  89
ATOM     89  C   UNL A   1      46.215  33.693  28.524  1.00  0.00     0.064 A 
ATOM     90  C   UNL A   1      47.167  33.849  29.541  1.00  0.00     0.173 A 
ATOM     91  C   UNL A   1      45.942  34.807  27.716  1.00  0.00     0.173 A 
ATOM     92  F   UNL A   1      47.441  32.823  30.363  1.00  0.00    -0.203 F 
ATOM     93  C   UNL A   1      47.802  35.070  29.755  1.00  0.00     0.198 A 
ATOM     94  C   UNL A   1      46.602  36.020  27.910  1.00  0.00     0.198 A 
ATOM     95  F   UNL A   1      45.032  34.719  26.734  1.00  0.00    -0.203 F 
ATOM     96  F   UNL A   1      48.667  35.205  30.770  1.00  0.00    -0.200 F 
ATOM     97  C   UNL A   1      47.525  36.153  28.935  1.00  0.00     0.200 A 
ATOM     98  F   UNL A   1      46.336  37.061  27.109  1.00  0.00    -0.200 F 
ATOM     99  F   UNL A   1      48.136  37.327  29.141  1.00  0.00    -0.200 F 
ENDBRANCH  65  89
BRANCH  77 100
ATOM    100  C   UNL A   1      47.776  27.791  25.123  1.00  0.00     0.064 A 
ATOM    101  C   UNL A   1      48.939  27.227  25.662  1.00  0.00     0.173 A 
ATOM    102  C   UNL A   1      47.676  27.883  23.725  1.00  0.00     0.173 A 
ATOM    103  F   UNL A   1      49.089  27.127  26.991  1.00  0.00    -0.203 F 
ATOM    104  C   UNL A   1      49.967  26.780  24.834  1.00  0.00     0.198 A 
ATOM    105  C   UNL A   1      48.690  27.404  22.900  1.00  0.00     0.198 A 
ATOM    106  F   UNL A   1      46.578  28.404  23.157  1.00  0.00    -0.203 F 
ATOM    107  F   UNL A   1      51.085  26.274  25.372  1.00  0.00    -0.200 F 
ATOM    108  C   UNL A   1      49.836  26.858  23.456  1.00  0.00     0.200 A 
ATOM    109  F   UNL A   1      48.551  27.461  21.569  1.00  0.00    -0.200 F 
ATOM    110  F   UNL A   1      50.817  26.405  22.661  1.00  0.00    -0.200 F 
ENDBRANCH  77 100
ENDBRANCH  51  52
ENDBRANCH  44  46
ENDBRANCH  43  44
ENDBRANCH  42  43
ENDBRANCH  41  42
ENDBRANCH  40  41
ENDBRANCH  39  40
ENDBRANCH  38  39
ENDBRANCH   1  38
TORSDOF 22
ENDMDL
MODEL 2
REMARK VINA RESULT:     -12.1      4.314      6.453
REMARK SMILES C[C@]12CC[C@@H]3[C@@H](CCC4=C/C(=N\OCC(=O)N5CCC[C@@H]5C(=O)OCCOCCOCCOC(=O)c5ccc(-c6c7nc(c(-c8c(F)c(F)c(F)c(F)c8F)c8ccc([nH]8)c(-c8c(F)c(F)c(F)c(F)c8F)c8nc(c(-c9c(F)c(F)c(F)c(F)c9F)c9ccc6[nH]9)C=C8)C=C7)cc5)CC[C@@]43C)[C@@H]1CC[C@@H]2O
REMARK SMILES IDX 27 1 26 2 25 3 24 4 22 5 23 6 21 7 17 8 18 9 19 10 20 11
REMARK SMILES IDX 15 12 16 13 14 14 13 15 12 16 1 17 2 18 3 19 103 20 106 21
REMARK SMILES IDX 4 22 6 23 104 24 105 25 5 26 7 27 101 28 8 29 9 30 100 31
REMARK SMILES IDX 102 32 10 33 99 34 11 35 107 36 28 38 29 39 30 40 31 41
REMARK SMILES IDX 32 42 33 43 34 44 35 45 36 46 37 47 98 48 38 49 97 50 39 51
REMARK SMILES IDX 40 52 41 53 91 54 42 55 96 56 90 57 92 58 43 59 95 60 89 61
REMARK SMILES IDX 88 62 44 64 76 65 56 66 75 67 57 68 60 69 74 70 93 71 58 72
REMARK SMILES IDX 59 73 73 75 94 76 61 77 45 78 46 79 54 80 47 81 48 82 52 83
REMARK SMILES IDX 55 84 49 85 50 86 53 87 51 88 77 89 78 90 86 91 79 92 80 93
REMARK SMILES IDX 84 94 87 95 81 96 82 97 85 98 83 99 62 100 63 101 71 102
REMARK SMILES IDX 64 103 65 104 69 105 72 106 66 107 67 108 70 109 68 110
REMARK H PARENT 107 37 92 63 60 74
REMARK Flexibility Score: inf
ROOT
ATOM      1  O   UNL A   1      32.900  37.538  31.503  1.00  0.00    -0.376 OA
ENDROOT
BRANCH   1   2
ATOM      2  C   UNL A   1      33.202  36.797  30.342  1.00  0.00     0.202 C 
BRANCH   2   3
ATOM      3  C   UNL A   1      33.126  35.266  30.376  1.00  0.00     0.261 C 
BRANCH   3   4
ATOM      4  O   UNL A   1      34.074  34.455  29.684  1.00  0.00    -0.462 OA
BRANCH   4   5
ATOM      5  C   UNL A   1      34.820  33.528  30.328  1.00  0.00     0.328 C 
ATOM      6  O   UNL A   1      34.414  32.710  31.140  1.00  0.00    -0.250 OA
BRANCH   5   7
ATOM      7  C   UNL A   1      36.273  33.584  29.839  1.00  0.00     0.195 C 
ATOM      8  N   UNL A   1      36.892  32.294  29.525  1.00  0.00    -0.326 N 
ATOM      9  C   UNL A   1      38.143  32.109  30.240  1.00  0.00     0.120 C 
ATOM     10  C   UNL A   1      38.067  33.042  31.430  1.00  0.00     0.024 C 
ATOM     11  C   UNL A   1      37.148  34.170  30.967  1.00  0.00     0.039 C 
BRANCH   8  12
ATOM     12  C   UNL A   1      36.499  31.376  28.574  1.00  0.00     0.264 C 
ATOM     13  O   UNL A   1      35.578  31.666  27.797  1.00  0.00    -0.271 OA
BRANCH  12  14
ATOM     14  C   UNL A   1      37.094  29.934  28.512  1.00  0.00     0.363 C 
BRANCH  14  15
ATOM     15  O   UNL A   1      38.476  29.583  28.439  1.00  0.00    -0.385 OA
BRANCH  15  16
ATOM     16  N   UNL A   1      38.557  28.203  28.198  1.00  0.00    -0.091 NA
ATOM     17  C   UNL A   1      44.944  22.732  26.718  1.00  0.00     0.014 C 
ATOM     18  C   UNL A   1      43.716  23.491  27.314  1.00  0.00    -0.003 C 
ATOM     19  C   UNL A   1      42.752  23.580  26.132  1.00  0.00     0.010 C 
ATOM     20  C   UNL A   1      44.085  24.832  28.030  1.00  0.00     0.001 C 
ATOM     21  C   UNL A   1      43.147  22.823  28.576  1.00  0.00     0.120 C 
ATOM     22  C   UNL A   1      43.118  24.758  25.228  1.00  0.00     0.005 C 
ATOM     23  C   UNL A   1      44.505  25.938  27.080  1.00  0.00    -0.003 C 
ATOM     24  C   UNL A   1      44.985  24.316  29.174  1.00  0.00     0.007 C 
ATOM     25  C   UNL A   1      44.335  22.942  29.543  1.00  0.00     0.032 C 
ATOM     26  C   UNL A   1      43.441  26.078  25.977  1.00  0.00     0.002 C 
ATOM     27  C   UNL A   1      44.763  27.343  27.665  1.00  0.00     0.008 C 
ATOM     28  C   UNL A   1      42.132  26.907  26.382  1.00  0.00    -0.008 C 
ATOM     29  C   UNL A   1      43.561  28.193  28.120  1.00  0.00     0.032 C 
ATOM     30  C   UNL A   1      42.201  27.818  27.606  1.00  0.00    -0.062 C 
ATOM     31  C   UNL A   1      40.955  25.927  26.673  1.00  0.00     0.018 C 
ATOM     32  C   UNL A   1      41.998  27.794  25.112  1.00  0.00     0.016 C 
ATOM     33  C   UNL A   1      41.098  28.275  28.262  1.00  0.00     0.027 C 
ATOM     34  C   UNL A   1      39.727  26.296  27.489  1.00  0.00     0.061 C 
ATOM     35  C   UNL A   1      39.741  27.706  28.017  1.00  0.00     0.080 C 
BRANCH  21  36
ATOM     36  O   UNL A   1      42.634  21.534  28.377  1.00  0.00    -0.393 OA
ATOM     37  H   UNL A   1      42.630  21.054  29.220  1.00  0.00     0.210 HD
ENDBRANCH  21  36
ENDBRANCH  15  16
ENDBRANCH  14  15
ENDBRANCH  12  14
ENDBRANCH   8  12
ENDBRANCH   5   7
ENDBRANCH   4   5
ENDBRANCH   3   4
ENDBRANCH   2   3
ENDBRANCH   1   2
BRANCH   1  38
ATOM     38  C   UNL A   1      33.938  37.665  32.457  1.00  0.00     0.188 C 
BRANCH  38  39
ATOM     39  C   UNL A   1      34.063  36.614  33.600  1.00  0.00     0.188 C 
BRANCH  39  40
ATOM     40  O   UNL A   1      35.076  35.647  33.397  1.00  0.00    -0.376 OA
BRANCH  40  41
ATOM     41  C   UNL A   1      35.161  34.565  34.302  1.00  0.00     0.202 C 
BRANCH  41  42
ATOM     42  C   UNL A   1      36.557  34.107  34.757  1.00  0.00     0.261 C 
BRANCH  42  43
ATOM     43  O   UNL A   1      36.843  32.704  34.651  1.00  0.00    -0.460 OA
BRANCH  43  44
ATOM     44  C   UNL A   1      37.629  32.148  35.608  1.00  0.00     0.338 C 
ATOM     45  O   UNL A   1      37.364  31.996  36.776  1.00  0.00    -0.246 OA
BRANCH  44  46
ATOM     46  C   UNL A   1      38.779  31.515  34.908  1.00  0.00     0.060 A 
ATOM     47  C   UNL A   1      40.087  31.884  35.270  1.00  0.00     0.016 A 
ATOM     48  C   UNL A   1      38.567  30.491  33.983  1.00  0.00     0.016 A 
ATOM     49  C   UNL A   1      41.184  31.202  34.738  1.00  0.00     0.010 A 
ATOM     50  C   UNL A   1      39.666  29.866  33.390  1.00  0.00     0.010 A 
ATOM     51  C   UNL A   1      40.977  30.228  33.755  1.00  0.00    -0.014 A 
BRANCH  51  52
ATOM     52  C   UNL A   1      42.100  29.826  32.878  1.00  0.00     0.031 A 
ATOM     53  C   UNL A   1      42.835  28.573  33.266  1.00  0.00     0.074 A 
ATOM     54  C   UNL A   1      42.481  30.539  31.805  1.00  0.00     0.049 A 
ATOM     55  N   UNL A   1      43.944  28.073  32.792  1.00  0.00    -0.248 NA
ATOM     56  C   UNL A   1      42.230  27.780  34.351  1.00  0.00     0.031 C 
ATOM     57  C   UNL A   1      41.803  31.722  31.284  1.00  0.00     0.029 A 
ATOM     58  N   UNL A   1      43.558  30.369  30.968  1.00  0.00    -0.354 N 
ATOM     59  C   UNL A   1      44.176  26.922  33.532  1.00  0.00     0.074 A 
ATOM     60  C   UNL A   1      43.106  26.801  34.493  1.00  0.00     0.031 C 
ATOM     61  C   UNL A   1      42.499  32.192  30.232  1.00  0.00     0.029 A 
ATOM     62  C   UNL A   1      43.695  31.372  30.039  1.00  0.00     0.049 A 
ATOM     63  H   UNL A   1      44.173  29.602  31.029  1.00  0.00     0.167 HD
ATOM     64  C   UNL A   1      45.199  26.045  33.423  1.00  0.00     0.037 A 
ATOM     65  C   UNL A   1      44.697  31.613  29.169  1.00  0.00     0.037 A 
ATOM     66  C   UNL A   1      46.272  26.184  32.479  1.00  0.00     0.049 A 
ATOM     67  C   UNL A   1      45.886  30.680  29.138  1.00  0.00     0.074 A 
ATOM     68  C   UNL A   1      47.363  25.358  32.289  1.00  0.00     0.029 A 
ATOM     69  N   UNL A   1      46.391  27.230  31.577  1.00  0.00    -0.354 N 
ATOM     70  N   UNL A   1      46.107  29.592  29.836  1.00  0.00    -0.248 NA
ATOM     71  C   UNL A   1      46.972  31.015  28.202  1.00  0.00     0.031 C 
ATOM     72  C   UNL A   1      48.177  25.938  31.311  1.00  0.00     0.029 A 
ATOM     73  C   UNL A   1      47.555  27.085  30.842  1.00  0.00     0.049 A 
ATOM     74  H   UNL A   1      45.745  27.966  31.474  1.00  0.00     0.167 HD
ATOM     75  C   UNL A   1      47.329  29.092  29.399  1.00  0.00     0.074 A 
ATOM     76  C   UNL A   1      47.803  29.996  28.373  1.00  0.00     0.031 C 
ATOM     77  C   UNL A   1      47.995  27.984  29.805  1.00  0.00     0.037 A 
BRANCH  64  78
ATOM     78  C   UNL A   1      45.225  24.895  34.386  1.00  0.00     0.064 A 
ATOM     79  C   UNL A   1      44.700  23.637  34.054  1.00  0.00     0.173 A 
ATOM     80  C   UNL A   1      45.788  25.057  35.661  1.00  0.00     0.173 A 
ATOM     81  F   UNL A   1      44.128  23.439  32.857  1.00  0.00    -0.203 F 
ATOM     82  C   UNL A   1      44.713  22.591  34.973  1.00  0.00     0.198 A 
ATOM     83  C   UNL A   1      45.830  23.999  36.564  1.00  0.00     0.198 A 
ATOM     84  F   UNL A   1      46.298  26.241  36.032  1.00  0.00    -0.203 F 
ATOM     85  F   UNL A   1      44.154  21.416  34.655  1.00  0.00    -0.200 F 
ATOM     86  C   UNL A   1      45.286  22.771  36.223  1.00  0.00     0.200 A 
ATOM     87  F   UNL A   1      46.393  24.172  37.769  1.00  0.00    -0.200 F 
ATOM     88  F   UNL A   1      45.303  21.761  37.105  1.00  0.00    -0.200 F 
ENDBRANCH  64  78
BRANCH  65  89
ATOM     89  C   UNL A   1      44.649  32.805  28.277  1.00  0.00     0.064 A 
ATOM     90  C   UNL A   1      44.154  32.711  26.969  1.00  0.00     0.173 A 
ATOM     91  C   UNL A   1      45.131  34.053  28.699  1.00  0.00     0.173 A 
ATOM     92  F   UNL A   1      43.710  31.533  26.505  1.00  0.00    -0.203 F 
ATOM     93  C   UNL A   1      44.159  33.811  26.113  1.00  0.00     0.198 A 
ATOM     94  C   UNL A   1      45.107  35.161  27.853  1.00  0.00     0.198 A 
ATOM     95  F   UNL A   1      45.628  34.199  29.937  1.00  0.00    -0.203 F 
ATOM     96  F   UNL A   1      43.730  33.678  24.850  1.00  0.00    -0.200 F 
ATOM     97  C   UNL A   1      44.630  35.037  26.558  1.00  0.00     0.200 A 
ATOM     98  F   UNL A   1      45.555  36.346  28.290  1.00  0.00    -0.200 F 
ATOM     99  F   UNL A   1      44.635  36.094  25.735  1.00  0.00    -0.200 F 
ENDBRANCH  65  89
BRANCH  77 100
ATOM    100  C   UNL A   1      49.277  27.635  29.104  1.00  0.00     0.064 A 
ATOM    101  C   UNL A   1      50.526  28.042  29.591  1.00  0.00     0.173 A 
ATOM    102  C   UNL A   1      49.252  26.798  27.975  1.00  0.00     0.173 A 
ATOM    103  F   UNL A   1      50.603  28.850  30.659  1.00  0.00    -0.203 F 
ATOM    104  C   UNL A   1      51.704  27.636  28.968  1.00  0.00     0.198 A 
ATOM    105  C   UNL A   1      50.431  26.366  27.376  1.00  0.00     0.198 A 
ATOM    106  F   UNL A   1      48.083  26.370  27.476  1.00  0.00    -0.203 F 
ATOM    107  F   UNL A   1      52.886  28.064  29.431  1.00  0.00    -0.200 F 
ATOM    108  C   UNL A   1      51.656  26.789  27.870  1.00  0.00     0.200 A 
ATOM    109  F   UNL A   1      50.383  25.532  26.329  1.00  0.00    -0.200 F 
ATOM    110  F   UNL A   1      52.792  26.380  27.287  1.00  0.00    -0.200 F 
ENDBRANCH  77 100
ENDBRANCH  51  52
ENDBRANCH  44  46
ENDBRANCH  43  44
ENDBRANCH  42  43
ENDBRANCH  41  42
ENDBRANCH  40  41
ENDBRANCH  39  40
ENDBRANCH  38  39
ENDBRANCH   1  38
TORSDOF 22
ENDMDL
MODEL 3
REMARK VINA RESULT:     -11.7      0.995      6.836
REMARK SMILES C[C@]12CC[C@@H]3[C@@H](CCC4=C/C(=N\OCC(=O)N5CCC[C@@H]5C(=O)OCCOCCOCCOC(=O)c5ccc(-c6c7nc(c(-c8c(F)c(F)c(F)c(F)c8F)c8ccc([nH]8)c(-c8c(F)c(F)c(F)c(F)c8F)c8nc(c(-c9c(F)c(F)c(F)c(F)c9F)c9ccc6[nH]9)C=C8)C=C7)cc5)CC[C@@]43C)[C@@H]1CC[C@@H]2O
REMARK SMILES IDX 27 1 26 2 25 3 24 4 22 5 23 6 21 7 17 8 18 9 19 10 20 11
REMARK SMILES IDX 15 12 16 13 14 14 13 15 12 16 1 17 2 18 3 19 103 20 106 21
REMARK SMILES IDX 4 22 6 23 104 24 105 25 5 26 7 27 101 28 8 29 9 30 100 31
REMARK SMILES IDX 102 32 10 33 99 34 11 35 107 36 28 38 29 39 30 40 31 41
REMARK SMILES IDX 32 42 33 43 34 44 35 45 36 46 37 47 98 48 38 49 97 50 39 51
REMARK SMILES IDX 40 52 41 53 91 54 42 55 96 56 90 57 92 58 43 59 95 60 89 61
REMARK SMILES IDX 88 62 44 64 76 65 56 66 75 67 57 68 60 69 74 70 93 71 58 72
REMARK SMILES IDX 59 73 73 75 94 76 61 77 45 78 46 79 54 80 47 81 48 82 52 83
REMARK SMILES IDX 55 84 49 85 50 86 53 87 51 88 77 89 78 90 86 91 79 92 80 93
REMARK SMILES IDX 84 94 87 95 81 96 82 97 85 98 83 99 62 100 63 101 71 102
REMARK SMILES IDX 64 103 65 104 69 105 72 106 66 107 67 108 70 109 68 110
REMARK H PARENT 107 37 92 63 60 74
REMARK Flexibility Score: inf
ROOT
ATOM      1  O   UNL A   1      32.890  37.763  32.345  1.00  0.00    -0.376 OA
ENDROOT
BRANCH   1   2
ATOM      2  C   UNL A   1      33.271  37.544  31.006  1.00  0.00     0.202 C 
BRANCH   2   3
ATOM      3  C   UNL A   1      32.986  36.190  30.347  1.00  0.00     0.261 C 
BRANCH   3   4
ATOM      4  O   UNL A   1      33.951  35.544  29.517  1.00  0.00    -0.462 OA
BRANCH   4   5
ATOM      5  C   UNL A   1      34.399  34.297  29.789  1.00  0.00     0.328 C 
ATOM      6  O   UNL A   1      34.183  33.656  30.807  1.00  0.00    -0.250 OA
BRANCH   5   7
ATOM      7  C   UNL A   1      35.175  33.739  28.589  1.00  0.00     0.195 C 
ATOM      8  N   UNL A   1      34.709  32.452  28.068  1.00  0.00    -0.326 N 
ATOM      9  C   UNL A   1      35.784  31.476  28.001  1.00  0.00     0.120 C 
ATOM     10  C   UNL A   1      36.827  31.962  28.984  1.00  0.00     0.024 C 
ATOM     11  C   UNL A   1      36.632  33.475  29.026  1.00  0.00     0.039 C 
BRANCH   8  12
ATOM     12  C   UNL A   1      33.471  32.151  27.538  1.00  0.00     0.264 C 
ATOM     13  O   UNL A   1      32.649  33.063  27.366  1.00  0.00    -0.271 OA
BRANCH  12  14
ATOM     14  C   UNL A   1      33.021  30.684  27.253  1.00  0.00     0.363 C 
BRANCH  14  15
ATOM     15  O   UNL A   1      31.711  30.250  26.885  1.00  0.00    -0.385 OA
BRANCH  15  16
ATOM     16  N   UNL A   1      31.597  28.894  27.225  1.00  0.00    -0.091 NA
ATOM     17  C   UNL A   1      32.766  21.537  23.053  1.00  0.00     0.014 C 
ATOM     18  C   UNL A   1      32.850  22.732  24.054  1.00  0.00    -0.003 C 
ATOM     19  C   UNL A   1      31.403  22.908  24.511  1.00  0.00     0.010 C 
ATOM     20  C   UNL A   1      33.569  23.995  23.475  1.00  0.00     0.001 C 
ATOM     21  C   UNL A   1      33.872  22.507  25.180  1.00  0.00     0.120 C 
ATOM     22  C   UNL A   1      30.616  23.736  23.494  1.00  0.00     0.005 C 
ATOM     23  C   UNL A   1      32.762  24.731  22.422  1.00  0.00    -0.003 C 
ATOM     24  C   UNL A   1      34.984  23.434  23.213  1.00  0.00     0.007 C 
ATOM     25  C   UNL A   1      35.184  22.417  24.386  1.00  0.00     0.032 C 
ATOM     26  C   UNL A   1      31.350  24.999  22.974  1.00  0.00     0.002 C 
ATOM     27  C   UNL A   1      33.315  26.065  21.879  1.00  0.00     0.008 C 
ATOM     28  C   UNL A   1      31.222  26.252  23.964  1.00  0.00    -0.008 C 
ATOM     29  C   UNL A   1      33.271  27.313  22.781  1.00  0.00     0.032 C 
ATOM     30  C   UNL A   1      32.338  27.296  23.958  1.00  0.00    -0.062 C 
ATOM     31  C   UNL A   1      31.143  25.754  25.439  1.00  0.00     0.018 C 
ATOM     32  C   UNL A   1      29.936  26.899  23.379  1.00  0.00     0.016 C 
ATOM     33  C   UNL A   1      32.539  28.181  24.974  1.00  0.00     0.027 C 
ATOM     34  C   UNL A   1      31.455  26.624  26.645  1.00  0.00     0.061 C 
ATOM     35  C   UNL A   1      31.870  28.029  26.299  1.00  0.00     0.080 C 
BRANCH  21  36
ATOM     36  O   UNL A   1      33.583  21.427  26.026  1.00  0.00    -0.393 OA
ATOM     37  H   UNL A   1      33.256  21.761  26.876  1.00  0.00     0.210 HD
ENDBRANCH  21  36
ENDBRANCH  15  16
ENDBRANCH  14  15
ENDBRANCH  12  14
ENDBRANCH   8  12
ENDBRANCH   5   7
ENDBRANCH   4   5
ENDBRANCH   3   4
ENDBRANCH   2   3
ENDBRANCH   1   2
BRANCH   1  38
ATOM     38  C   UNL A   1      33.762  37.256  33.338  1.00  0.00     0.188 C 
BRANCH  38  39
ATOM     39  C   UNL A   1      33.966  35.717  33.467  1.00  0.00     0.188 C 
BRANCH  39  40
ATOM     40  O   UNL A   1      35.227  35.335  33.984  1.00  0.00    -0.376 OA
BRANCH  40  41
ATOM     41  C   UNL A   1      35.307  34.152  34.751  1.00  0.00     0.202 C 
BRANCH  41  42
ATOM     42  C   UNL A   1      36.703  33.606  35.100  1.00  0.00     0.261 C 
BRANCH  42  43
ATOM     43  O   UNL A   1      37.507  33.143  34.004  1.00  0.00    -0.460 OA
BRANCH  43  44
ATOM     44  C   UNL A   1      38.674  33.794  33.762  1.00  0.00     0.338 C 
ATOM     45  O   UNL A   1      39.062  34.816  34.273  1.00  0.00    -0.246 OA
BRANCH  44  46
ATOM     46  C   UNL A   1      39.515  32.881  32.943  1.00  0.00     0.060 A 
ATOM     47  C   UNL A   1      40.488  32.090  33.581  1.00  0.00     0.016 A 
ATOM     48  C   UNL A   1      39.270  32.728  31.578  1.00  0.00     0.016 A 
ATOM     49  C   UNL A   1      41.188  31.118  32.863  1.00  0.00     0.010 A 
ATOM     50  C   UNL A   1      40.027  31.813  30.844  1.00  0.00     0.010 A 
ATOM     51  C   UNL A   1      40.997  31.016  31.480  1.00  0.00    -0.014 A 
BRANCH  51  52
ATOM     52  C   UNL A   1      42.017  30.332  30.652  1.00  0.00     0.031 A 
ATOM     53  C   UNL A   1      43.287  31.093  30.391  1.00  0.00     0.074 A 
ATOM     54  C   UNL A   1      41.832  29.108  30.129  1.00  0.00     0.049 A 
ATOM     55  N   UNL A   1      44.273  30.821  29.581  1.00  0.00    -0.248 NA
ATOM     56  C   UNL A   1      43.456  32.343  31.152  1.00  0.00     0.031 C 
ATOM     57  C   UNL A   1      40.682  28.242  30.372  1.00  0.00     0.029 A 
ATOM     58  N   UNL A   1      42.617  28.392  29.257  1.00  0.00    -0.354 N 
ATOM     59  C   UNL A   1      45.167  31.874  29.721  1.00  0.00     0.074 A 
ATOM     60  C   UNL A   1      44.606  32.795  30.681  1.00  0.00     0.031 C 
ATOM     61  C   UNL A   1      40.822  27.121  29.641  1.00  0.00     0.029 A 
ATOM     62  C   UNL A   1      42.044  27.215  28.842  1.00  0.00     0.049 A 
ATOM     63  H   UNL A   1      43.505  28.695  28.958  1.00  0.00     0.167 HD
ATOM     64  C   UNL A   1      46.352  32.060  29.097  1.00  0.00     0.037 A 
ATOM     65  C   UNL A   1      42.448  26.343  27.895  1.00  0.00     0.037 A 
ATOM     66  C   UNL A   1      46.893  31.150  28.126  1.00  0.00     0.049 A 
ATOM     67  C   UNL A   1      43.722  26.625  27.130  1.00  0.00     0.074 A 
ATOM     68  C   UNL A   1      48.081  31.245  27.427  1.00  0.00     0.029 A 
ATOM     69  N   UNL A   1      46.268  29.984  27.710  1.00  0.00    -0.354 N 
ATOM     70  N   UNL A   1      44.567  27.619  27.262  1.00  0.00    -0.248 NA
ATOM     71  C   UNL A   1      44.092  25.666  26.077  1.00  0.00     0.031 C 
ATOM     72  C   UNL A   1      48.146  30.166  26.540  1.00  0.00     0.029 A 
ATOM     73  C   UNL A   1      47.035  29.362  26.741  1.00  0.00     0.049 A 
ATOM     74  H   UNL A   1      45.407  29.649  28.053  1.00  0.00     0.167 HD
ATOM     75  C   UNL A   1      45.585  27.385  26.343  1.00  0.00     0.074 A 
ATOM     76  C   UNL A   1      45.252  26.155  25.659  1.00  0.00     0.031 C 
ATOM     77  C   UNL A   1      46.696  28.120  26.092  1.00  0.00     0.037 A 
BRANCH  64  78
ATOM     78  C   UNL A   1      47.105  33.318  29.410  1.00  0.00     0.064 A 
ATOM     79  C   UNL A   1      48.021  33.390  30.471  1.00  0.00     0.173 A 
ATOM     80  C   UNL A   1      46.907  34.470  28.633  1.00  0.00     0.173 A 
ATOM     81  F   UNL A   1      48.226  32.324  31.259  1.00  0.00    -0.203 F 
ATOM     82  C   UNL A   1      48.690  34.576  30.759  1.00  0.00     0.198 A 
ATOM     83  C   UNL A   1      47.604  35.643  28.902  1.00  0.00     0.198 A 
ATOM     84  F   UNL A   1      46.038  34.456  27.611  1.00  0.00    -0.203 F 
ATOM     85  F   UNL A   1      49.516  34.639  31.812  1.00  0.00    -0.200 F 
ATOM     86  C   UNL A   1      48.488  35.698  29.969  1.00  0.00     0.200 A 
ATOM     87  F   UNL A   1      47.415  36.724  28.132  1.00  0.00    -0.200 F 
ATOM     88  F   UNL A   1      49.138  36.838  30.243  1.00  0.00    -0.200 F 
ENDBRANCH  64  78
BRANCH  65  89
ATOM     89  C   UNL A   1      41.629  25.140  27.580  1.00  0.00     0.064 A 
ATOM     90  C   UNL A   1      40.502  25.227  26.751  1.00  0.00     0.173 A 
ATOM     91  C   UNL A   1      41.932  23.885  28.131  1.00  0.00     0.173 A 
ATOM     92  F   UNL A   1      40.150  26.410  26.224  1.00  0.00    -0.203 F 
ATOM     93  C   UNL A   1      39.702  24.115  26.500  1.00  0.00     0.198 A 
ATOM     94  C   UNL A   1      41.149  22.766  27.854  1.00  0.00     0.198 A 
ATOM     95  F   UNL A   1      42.992  23.745  28.941  1.00  0.00    -0.203 F 
ATOM     96  F   UNL A   1      38.599  24.240  25.748  1.00  0.00    -0.200 F 
ATOM     97  C   UNL A   1      40.029  22.883  27.046  1.00  0.00     0.200 A 
ATOM     98  F   UNL A   1      41.474  21.576  28.378  1.00  0.00    -0.200 F 
ATOM     99  F   UNL A   1      39.259  21.814  26.805  1.00  0.00    -0.200 F 
ENDBRANCH  65  89
BRANCH  77 100
ATOM    100  C   UNL A   1      47.678  27.592  25.084  1.00  0.00     0.064 A 
ATOM    101  C   UNL A   1      47.522  27.813  23.709  1.00  0.00     0.173 A 
ATOM    102  C   UNL A   1      48.841  26.935  25.518  1.00  0.00     0.173 A 
ATOM    103  F   UNL A   1      46.425  28.427  23.243  1.00  0.00    -0.203 F 
ATOM    104  C   UNL A   1      48.490  27.384  22.803  1.00  0.00     0.198 A 
ATOM    105  C   UNL A   1      49.821  26.539  24.613  1.00  0.00     0.198 A 
ATOM    106  F   UNL A   1      49.044  26.709  26.824  1.00  0.00    -0.203 F 
ATOM    107  F   UNL A   1      48.306  27.577  21.490  1.00  0.00    -0.200 F 
ATOM    108  C   UNL A   1      49.642  26.760  23.255  1.00  0.00     0.200 A 
ATOM    109  F   UNL A   1      50.943  25.954  25.055  1.00  0.00    -0.200 F 
ATOM    110  F   UNL A   1      50.583  26.369  22.383  1.00  0.00    -0.200 F 
ENDBRANCH  77 100
ENDBRANCH  51  52
ENDBRANCH  44  46
ENDBRANCH  43  44
ENDBRANCH  42  43
ENDBRANCH  41  42
ENDBRANCH  40  41
ENDBRANCH  39  40
ENDBRANCH  38  39
ENDBRANCH   1  38
TORSDOF 22
ENDMDL
