MODEL 1
REMARK VINA RESULT:     -11.1      0.000      0.000
REMARK SMILES Cc1ccc(OCCC[N@H+]2CCCC[C@@H]2C(=O)OCCOCCOCCOC(=O)c2ccc(-c3c4nc(c(-c5c(F)c(F)c(F)c(F)c5F)c5ccc([nH]5)c(-c5c(F)c(F)c(F)c(F)c5F)c5nc(c(-c6c(F)c(F)c(F)c(F)c6F)c6ccc3[nH]6)C=C5)C=C4)cc2)cc1C
REMARK SMILES IDX 21 1 20 2 19 3 18 4 16 5 17 6 15 7 10 8 11 9 12 11 14 12
REMARK SMILES IDX 13 13 9 14 8 15 7 16 6 17 5 18 1 19 2 20 3 21 94 22 4 23
REMARK SMILES IDX 93 24 95 25 22 26 23 27 24 28 25 29 26 30 27 31 28 32 29 33
REMARK SMILES IDX 30 34 31 35 92 36 32 37 91 38 33 39 34 40 35 41 85 42 36 43
REMARK SMILES IDX 90 44 84 45 86 46 37 47 89 48 83 49 82 50 38 52 70 53 50 54
REMARK SMILES IDX 69 55 51 56 54 57 68 58 87 59 52 60 53 61 67 63 88 64 55 65
REMARK SMILES IDX 39 66 40 67 48 68 41 69 42 70 46 71 49 72 43 73 44 74 47 75
REMARK SMILES IDX 45 76 71 77 72 78 80 79 73 80 74 81 78 82 81 83 75 84 76 85
REMARK SMILES IDX 79 86 77 87 56 88 57 89 65 90 58 91 59 92 63 93 66 94 60 95
REMARK SMILES IDX 61 96 64 97 62 98
REMARK H PARENT 10 10 86 51 54 62
REMARK Flexibility Score: inf
ROOT
ATOM      1  O   UNL A   1      38.428  21.503  25.796  1.00  0.00    -0.376 OA
ENDROOT
BRANCH   1   2
ATOM      2  C   UNL A   1      38.125  20.450  24.888  1.00  0.00     0.202 C 
BRANCH   2   3
ATOM      3  C   UNL A   1      36.706  19.900  25.014  1.00  0.00     0.261 C 
BRANCH   3   4
ATOM      4  O   UNL A   1      35.553  20.726  24.705  1.00  0.00    -0.459 OA
BRANCH   4   5
ATOM      5  C   UNL A   1      35.011  21.684  25.503  1.00  0.00     0.364 C 
ATOM      6  O   UNL A   1      35.212  21.837  26.689  1.00  0.00    -0.245 OA
BRANCH   5   7
ATOM      7  C   UNL A   1      34.112  22.635  24.713  1.00  0.00     0.295 C 
ATOM      8  N   UNL A   1      32.916  21.929  24.154  1.00  0.00    -0.323 N 
ATOM      9  C   UNL A   1      32.170  22.854  23.267  1.00  0.00     0.262 C 
ATOM     10  H   UNL A   1      33.238  21.113  23.633  1.00  0.00     0.348 HD
ATOM     11  C   UNL A   1      33.031  23.497  22.178  1.00  0.00     0.062 C 
ATOM     12  C   UNL A   1      34.999  23.328  23.665  1.00  0.00     0.078 C 
ATOM     13  C   UNL A   1      34.197  24.262  22.784  1.00  0.00     0.013 C 
BRANCH   8  14
ATOM     14  C   UNL A   1      32.005  21.477  25.246  1.00  0.00     0.266 C 
BRANCH  14  15
ATOM     15  C   UNL A   1      31.045  22.548  25.805  1.00  0.00     0.103 C 
BRANCH  15  16
ATOM     16  C   UNL A   1      31.595  23.460  26.909  1.00  0.00     0.235 C 
BRANCH  16  17
ATOM     17  O   UNL A   1      31.055  24.801  26.862  1.00  0.00    -0.493 OA
BRANCH  17  18
ATOM     18  C   UNL A   1      31.691  25.592  25.943  1.00  0.00     0.119 A 
ATOM     19  C   UNL A   1      33.599  28.488  23.399  1.00  0.00     0.044 C 
ATOM     20  C   UNL A   1      32.937  27.390  24.185  1.00  0.00    -0.048 A 
ATOM     21  C   UNL A   1      33.641  26.829  25.260  1.00  0.00     0.007 A 
ATOM     22  C   UNL A   1      31.639  26.918  23.897  1.00  0.00    -0.045 A 
ATOM     23  C   UNL A   1      33.029  25.913  26.113  1.00  0.00     0.047 A 
ATOM     24  C   UNL A   1      31.019  26.023  24.797  1.00  0.00     0.050 A 
ATOM     25  C   UNL A   1      30.898  27.370  22.666  1.00  0.00     0.045 C 
ENDBRANCH  17  18
ENDBRANCH  16  17
ENDBRANCH  15  16
ENDBRANCH  14  15
ENDBRANCH   8  14
ENDBRANCH   5   7
ENDBRANCH   4   5
ENDBRANCH   3   4
ENDBRANCH   2   3
ENDBRANCH   1   2
BRANCH   1  26
ATOM     26  C   UNL A   1      39.794  21.577  26.191  1.00  0.00     0.188 C 
BRANCH  26  27
ATOM     27  C   UNL A   1      40.460  20.198  26.177  1.00  0.00     0.188 C 
BRANCH  27  28
ATOM     28  O   UNL A   1      41.731  20.059  25.541  1.00  0.00    -0.376 OA
BRANCH  28  29
ATOM     29  C   UNL A   1      42.857  20.675  26.150  1.00  0.00     0.202 C 
BRANCH  29  30
ATOM     30  C   UNL A   1      43.532  21.782  25.331  1.00  0.00     0.261 C 
BRANCH  30  31
ATOM     31  O   UNL A   1      43.804  22.983  26.078  1.00  0.00    -0.460 OA
BRANCH  31  32
ATOM     32  C   UNL A   1      43.835  24.114  25.334  1.00  0.00     0.338 C 
ATOM     33  O   UNL A   1      44.414  24.277  24.271  1.00  0.00    -0.246 OA
BRANCH  32  34
ATOM     34  C   UNL A   1      42.966  25.163  25.910  1.00  0.00     0.060 A 
ATOM     35  C   UNL A   1      43.557  26.401  26.199  1.00  0.00     0.016 A 
ATOM     36  C   UNL A   1      41.656  24.900  26.320  1.00  0.00     0.016 A 
ATOM     37  C   UNL A   1      42.887  27.337  26.985  1.00  0.00     0.010 A 
ATOM     38  C   UNL A   1      40.988  25.833  27.126  1.00  0.00     0.010 A 
ATOM     39  C   UNL A   1      41.632  27.022  27.520  1.00  0.00    -0.014 A 
BRANCH  39  40
ATOM     40  C   UNL A   1      41.162  27.790  28.705  1.00  0.00     0.031 A 
ATOM     41  C   UNL A   1      41.919  27.625  30.002  1.00  0.00     0.074 A 
ATOM     42  C   UNL A   1      40.154  28.675  28.633  1.00  0.00     0.049 A 
ATOM     43  N   UNL A   1      41.723  28.197  31.163  1.00  0.00    -0.248 NA
ATOM     44  C   UNL A   1      43.055  26.685  29.983  1.00  0.00     0.031 C 
ATOM     45  C   UNL A   1      39.364  28.971  27.440  1.00  0.00     0.029 A 
ATOM     46  N   UNL A   1      39.621  29.493  29.601  1.00  0.00    -0.354 N 
ATOM     47  C   UNL A   1      42.696  27.678  32.009  1.00  0.00     0.074 A 
ATOM     48  C   UNL A   1      43.467  26.728  31.240  1.00  0.00     0.031 C 
ATOM     49  C   UNL A   1      38.435  29.892  27.752  1.00  0.00     0.029 A 
ATOM     50  C   UNL A   1      38.555  30.240  29.168  1.00  0.00     0.049 A 
ATOM     51  H   UNL A   1      39.973  29.538  30.520  1.00  0.00     0.167 HD
ATOM     52  C   UNL A   1      42.938  27.973  33.308  1.00  0.00     0.037 A 
ATOM     53  C   UNL A   1      37.759  31.094  29.843  1.00  0.00     0.037 A 
ATOM     54  C   UNL A   1      42.199  28.937  34.078  1.00  0.00     0.049 A 
ATOM     55  C   UNL A   1      38.030  31.379  31.302  1.00  0.00     0.074 A 
ATOM     56  C   UNL A   1      42.399  29.327  35.391  1.00  0.00     0.029 A 
ATOM     57  N   UNL A   1      41.118  29.662  33.604  1.00  0.00    -0.354 N 
ATOM     58  N   UNL A   1      38.977  30.913  32.079  1.00  0.00    -0.248 NA
ATOM     59  C   UNL A   1      37.120  32.322  31.972  1.00  0.00     0.031 C 
ATOM     60  C   UNL A   1      41.408  30.255  35.727  1.00  0.00     0.029 A 
ATOM     61  C   UNL A   1      40.626  30.481  34.608  1.00  0.00     0.049 A 
ATOM     62  H   UNL A   1      40.754  29.604  32.692  1.00  0.00     0.167 HD
ATOM     63  C   UNL A   1      38.797  31.529  33.313  1.00  0.00     0.074 A 
ATOM     64  C   UNL A   1      37.663  32.417  33.177  1.00  0.00     0.031 C 
ATOM     65  C   UNL A   1      39.506  31.373  34.457  1.00  0.00     0.037 A 
BRANCH  52  66
ATOM     66  C   UNL A   1      44.041  27.229  33.996  1.00  0.00     0.064 A 
ATOM     67  C   UNL A   1      45.372  27.668  33.944  1.00  0.00     0.173 A 
ATOM     68  C   UNL A   1      43.751  26.094  34.768  1.00  0.00     0.173 A 
ATOM     69  F   UNL A   1      45.702  28.740  33.207  1.00  0.00    -0.203 F 
ATOM     70  C   UNL A   1      46.375  26.990  34.632  1.00  0.00     0.198 A 
ATOM     71  C   UNL A   1      44.753  25.434  35.474  1.00  0.00     0.198 A 
ATOM     72  F   UNL A   1      42.493  25.636  34.850  1.00  0.00    -0.203 F 
ATOM     73  F   UNL A   1      47.646  27.407  34.543  1.00  0.00    -0.200 F 
ATOM     74  C   UNL A   1      46.063  25.880  35.403  1.00  0.00     0.200 A 
ATOM     75  F   UNL A   1      44.447  24.368  36.228  1.00  0.00    -0.200 F 
ATOM     76  F   UNL A   1      47.028  25.237  36.075  1.00  0.00    -0.200 F 
ENDBRANCH  52  66
BRANCH  53  77
ATOM     77  C   UNL A   1      36.603  31.739  29.164  1.00  0.00     0.064 A 
ATOM     78  C   UNL A   1      36.579  33.119  28.919  1.00  0.00     0.173 A 
ATOM     79  C   UNL A   1      35.465  30.995  28.816  1.00  0.00     0.173 A 
ATOM     80  F   UNL A   1      37.630  33.878  29.264  1.00  0.00    -0.203 F 
ATOM     81  C   UNL A   1      35.449  33.736  28.386  1.00  0.00     0.198 A 
ATOM     82  C   UNL A   1      34.348  31.609  28.255  1.00  0.00     0.198 A 
ATOM     83  F   UNL A   1      35.435  29.672  29.035  1.00  0.00    -0.203 F 
ATOM     84  F   UNL A   1      35.427  35.067  28.227  1.00  0.00    -0.200 F 
ATOM     85  C   UNL A   1      34.335  32.980  28.052  1.00  0.00     0.200 A 
ATOM     86  F   UNL A   1      33.277  30.873  27.927  1.00  0.00    -0.200 F 
ATOM     87  F   UNL A   1      33.245  33.576  27.550  1.00  0.00    -0.200 F 
ENDBRANCH  53  77
BRANCH  65  88
ATOM     88  C   UNL A   1      39.110  32.210  35.641  1.00  0.00     0.064 A 
ATOM     89  C   UNL A   1      39.562  33.528  35.798  1.00  0.00     0.173 A 
ATOM     90  C   UNL A   1      38.245  31.693  36.618  1.00  0.00     0.173 A 
ATOM     91  F   UNL A   1      40.399  34.067  34.898  1.00  0.00    -0.203 F 
ATOM     92  C   UNL A   1      39.191  34.286  36.906  1.00  0.00     0.198 A 
ATOM     93  C   UNL A   1      37.850  32.463  37.708  1.00  0.00     0.198 A 
ATOM     94  F   UNL A   1      37.774  30.441  36.511  1.00  0.00    -0.203 F 
ATOM     95  F   UNL A   1      39.679  35.524  37.063  1.00  0.00    -0.200 F 
ATOM     96  C   UNL A   1      38.330  33.755  37.857  1.00  0.00     0.200 A 
ATOM     97  F   UNL A   1      37.007  31.954  38.618  1.00  0.00    -0.200 F 
ATOM     98  F   UNL A   1      37.974  34.487  38.922  1.00  0.00    -0.200 F 
ENDBRANCH  65  88
ENDBRANCH  39  40
ENDBRANCH  32  34
ENDBRANCH  31  32
ENDBRANCH  30  31
ENDBRANCH  29  30
ENDBRANCH  28  29
ENDBRANCH  27  28
ENDBRANCH  26  27
ENDBRANCH   1  26
TORSDOF 22
ENDMDL
MODEL 2
REMARK VINA RESULT:     -10.8      1.215      2.104
REMARK SMILES Cc1ccc(OCCC[N@H+]2CCCC[C@@H]2C(=O)OCCOCCOCCOC(=O)c2ccc(-c3c4nc(c(-c5c(F)c(F)c(F)c(F)c5F)c5ccc([nH]5)c(-c5c(F)c(F)c(F)c(F)c5F)c5nc(c(-c6c(F)c(F)c(F)c(F)c6F)c6ccc3[nH]6)C=C5)C=C4)cc2)cc1C
REMARK SMILES IDX 21 1 20 2 19 3 18 4 16 5 17 6 15 7 10 8 11 9 12 11 14 12
REMARK SMILES IDX 13 13 9 14 8 15 7 16 6 17 5 18 1 19 2 20 3 21 94 22 4 23
REMARK SMILES IDX 93 24 95 25 22 26 23 27 24 28 25 29 26 30 27 31 28 32 29 33
REMARK SMILES IDX 30 34 31 35 92 36 32 37 91 38 33 39 34 40 35 41 85 42 36 43
REMARK SMILES IDX 90 44 84 45 86 46 37 47 89 48 83 49 82 50 38 52 70 53 50 54
REMARK SMILES IDX 69 55 51 56 54 57 68 58 87 59 52 60 53 61 67 63 88 64 55 65
REMARK SMILES IDX 39 66 40 67 48 68 41 69 42 70 46 71 49 72 43 73 44 74 47 75
REMARK SMILES IDX 45 76 71 77 72 78 80 79 73 80 74 81 78 82 81 83 75 84 76 85
REMARK SMILES IDX 79 86 77 87 56 88 57 89 65 90 58 91 59 92 63 93 66 94 60 95
REMARK SMILES IDX 61 96 64 97 62 98
REMARK H PARENT 10 10 86 51 54 62
REMARK Flexibility Score: inf
ROOT
ATOM      1  O   UNL A   1      39.492  22.056  26.926  1.00  0.00    -0.376 OA
ENDROOT
BRANCH   1   2
ATOM      2  C   UNL A   1      38.871  21.495  25.776  1.00  0.00     0.202 C 
BRANCH   2   3
ATOM      3  C   UNL A   1      37.943  22.451  25.031  1.00  0.00     0.261 C 
BRANCH   3   4
ATOM      4  O   UNL A   1      36.888  21.950  24.168  1.00  0.00    -0.459 OA
BRANCH   4   5
ATOM      5  C   UNL A   1      35.782  22.632  23.769  1.00  0.00     0.364 C 
ATOM      6  O   UNL A   1      35.667  23.302  22.765  1.00  0.00    -0.245 OA
BRANCH   5   7
ATOM      7  C   UNL A   1      34.613  22.423  24.732  1.00  0.00     0.295 C 
ATOM      8  N   UNL A   1      34.730  23.297  25.942  1.00  0.00    -0.323 N 
ATOM      9  C   UNL A   1      33.667  22.937  26.911  1.00  0.00     0.262 C 
ATOM     10  H   UNL A   1      35.653  23.154  26.354  1.00  0.00     0.348 HD
ATOM     11  C   UNL A   1      33.626  21.450  27.265  1.00  0.00     0.062 C 
ATOM     12  C   UNL A   1      34.537  20.916  25.030  1.00  0.00     0.078 C 
ATOM     13  C   UNL A   1      33.438  20.597  26.021  1.00  0.00     0.013 C 
BRANCH   8  14
ATOM     14  C   UNL A   1      34.579  24.735  25.578  1.00  0.00     0.266 C 
BRANCH  14  15
ATOM     15  C   UNL A   1      33.166  25.328  25.760  1.00  0.00     0.103 C 
BRANCH  15  16
ATOM     16  C   UNL A   1      32.781  26.489  24.833  1.00  0.00     0.235 C 
BRANCH  16  17
ATOM     17  O   UNL A   1      31.390  26.462  24.436  1.00  0.00    -0.493 OA
BRANCH  17  18
ATOM     18  C   UNL A   1      30.889  27.711  24.186  1.00  0.00     0.119 A 
ATOM     19  C   UNL A   1      29.068  31.596  23.880  1.00  0.00     0.044 C 
ATOM     20  C   UNL A   1      29.739  30.250  23.857  1.00  0.00    -0.048 A 
ATOM     21  C   UNL A   1      30.912  30.082  24.607  1.00  0.00     0.007 A 
ATOM     22  C   UNL A   1      29.228  29.152  23.133  1.00  0.00    -0.045 A 
ATOM     23  C   UNL A   1      31.498  28.825  24.743  1.00  0.00     0.047 A 
ATOM     24  C   UNL A   1      29.809  27.878  23.317  1.00  0.00     0.050 A 
ATOM     25  C   UNL A   1      28.065  29.312  22.190  1.00  0.00     0.045 C 
ENDBRANCH  17  18
ENDBRANCH  16  17
ENDBRANCH  15  16
ENDBRANCH  14  15
ENDBRANCH   8  14
ENDBRANCH   5   7
ENDBRANCH   4   5
ENDBRANCH   3   4
ENDBRANCH   2   3
ENDBRANCH   1   2
BRANCH   1  26
ATOM     26  C   UNL A   1      40.763  21.503  27.250  1.00  0.00     0.188 C 
BRANCH  26  27
ATOM     27  C   UNL A   1      41.033  20.215  26.465  1.00  0.00     0.188 C 
BRANCH  27  28
ATOM     28  O   UNL A   1      42.028  20.233  25.441  1.00  0.00    -0.376 OA
BRANCH  28  29
ATOM     29  C   UNL A   1      43.348  20.619  25.795  1.00  0.00     0.202 C 
BRANCH  29  30
ATOM     30  C   UNL A   1      43.907  21.836  25.046  1.00  0.00     0.261 C 
BRANCH  30  31
ATOM     31  O   UNL A   1      44.214  22.958  25.896  1.00  0.00    -0.460 OA
BRANCH  31  32
ATOM     32  C   UNL A   1      44.235  24.154  25.262  1.00  0.00     0.338 C 
ATOM     33  O   UNL A   1      44.882  24.448  24.270  1.00  0.00    -0.246 OA
BRANCH  32  34
ATOM     34  C   UNL A   1      43.261  25.096  25.856  1.00  0.00     0.060 A 
ATOM     35  C   UNL A   1      43.667  26.429  26.008  1.00  0.00     0.016 A 
ATOM     36  C   UNL A   1      42.054  24.664  26.411  1.00  0.00     0.016 A 
ATOM     37  C   UNL A   1      42.927  27.307  26.798  1.00  0.00     0.010 A 
ATOM     38  C   UNL A   1      41.318  25.541  27.222  1.00  0.00     0.010 A 
ATOM     39  C   UNL A   1      41.792  26.843  27.474  1.00  0.00    -0.014 A 
BRANCH  39  40
ATOM     40  C   UNL A   1      41.312  27.616  28.651  1.00  0.00     0.031 A 
ATOM     41  C   UNL A   1      42.077  27.483  29.947  1.00  0.00     0.074 A 
ATOM     42  C   UNL A   1      40.285  28.480  28.573  1.00  0.00     0.049 A 
ATOM     43  N   UNL A   1      41.874  28.067  31.102  1.00  0.00    -0.248 NA
ATOM     44  C   UNL A   1      43.230  26.567  29.936  1.00  0.00     0.031 C 
ATOM     45  C   UNL A   1      39.486  28.744  27.379  1.00  0.00     0.029 A 
ATOM     46  N   UNL A   1      39.740  29.300  29.531  1.00  0.00    -0.354 N 
ATOM     47  C   UNL A   1      42.860  27.579  31.950  1.00  0.00     0.074 A 
ATOM     48  C   UNL A   1      43.647  26.634  31.191  1.00  0.00     0.031 C 
ATOM     49  C   UNL A   1      38.540  29.651  27.682  1.00  0.00     0.029 A 
ATOM     50  C   UNL A   1      38.657  30.020  29.093  1.00  0.00     0.049 A 
ATOM     51  H   UNL A   1      40.094  29.365  30.449  1.00  0.00     0.167 HD
ATOM     52  C   UNL A   1      43.100  27.896  33.245  1.00  0.00     0.037 A 
ATOM     53  C   UNL A   1      37.847  30.866  29.760  1.00  0.00     0.037 A 
ATOM     54  C   UNL A   1      42.345  28.855  34.004  1.00  0.00     0.049 A 
ATOM     55  C   UNL A   1      38.118  31.176  31.214  1.00  0.00     0.074 A 
ATOM     56  C   UNL A   1      42.543  29.266  35.311  1.00  0.00     0.029 A 
ATOM     57  N   UNL A   1      41.249  29.552  33.526  1.00  0.00    -0.354 N 
ATOM     58  N   UNL A   1      39.077  30.740  31.993  1.00  0.00    -0.248 NA
ATOM     59  C   UNL A   1      37.192  32.110  31.876  1.00  0.00     0.031 C 
ATOM     60  C   UNL A   1      41.535  30.178  35.640  1.00  0.00     0.029 A 
ATOM     61  C   UNL A   1      40.744  30.374  34.521  1.00  0.00     0.049 A 
ATOM     62  H   UNL A   1      40.882  29.475  32.616  1.00  0.00     0.167 HD
ATOM     63  C   UNL A   1      38.889  31.368  33.219  1.00  0.00     0.074 A 
ATOM     64  C   UNL A   1      37.738  32.231  33.077  1.00  0.00     0.031 C 
ATOM     65  C   UNL A   1      39.606  31.242  34.363  1.00  0.00     0.037 A 
BRANCH  52  66
ATOM     66  C   UNL A   1      44.221  27.183  33.938  1.00  0.00     0.064 A 
ATOM     67  C   UNL A   1      45.467  27.793  34.148  1.00  0.00     0.173 A 
ATOM     68  C   UNL A   1      44.025  25.892  34.452  1.00  0.00     0.173 A 
ATOM     69  F   UNL A   1      45.708  29.020  33.663  1.00  0.00    -0.203 F 
ATOM     70  C   UNL A   1      46.479  27.132  34.838  1.00  0.00     0.198 A 
ATOM     71  C   UNL A   1      45.031  25.245  35.163  1.00  0.00     0.198 A 
ATOM     72  F   UNL A   1      42.851  25.267  34.278  1.00  0.00    -0.203 F 
ATOM     73  F   UNL A   1      47.672  27.720  35.000  1.00  0.00    -0.200 F 
ATOM     74  C   UNL A   1      46.256  25.863  35.352  1.00  0.00     0.200 A 
ATOM     75  F   UNL A   1      44.810  24.023  35.669  1.00  0.00    -0.200 F 
ATOM     76  F   UNL A   1      47.227  25.233  36.029  1.00  0.00    -0.200 F 
ENDBRANCH  52  66
BRANCH  53  77
ATOM     77  C   UNL A   1      36.676  31.479  29.078  1.00  0.00     0.064 A 
ATOM     78  C   UNL A   1      36.633  32.852  28.795  1.00  0.00     0.173 A 
ATOM     79  C   UNL A   1      35.544  30.713  28.763  1.00  0.00     0.173 A 
ATOM     80  F   UNL A   1      37.679  33.632  29.108  1.00  0.00    -0.203 F 
ATOM     81  C   UNL A   1      35.489  33.441  28.259  1.00  0.00     0.198 A 
ATOM     82  C   UNL A   1      34.413  31.298  28.198  1.00  0.00     0.198 A 
ATOM     83  F   UNL A   1      35.532  29.396  29.018  1.00  0.00    -0.203 F 
ATOM     84  F   UNL A   1      35.450  34.767  28.065  1.00  0.00    -0.200 F 
ATOM     85  C   UNL A   1      34.381  32.663  27.959  1.00  0.00     0.200 A 
ATOM     86  F   UNL A   1      33.347  30.541  27.903  1.00  0.00    -0.200 F 
ATOM     87  F   UNL A   1      33.278  33.232  27.454  1.00  0.00    -0.200 F 
ENDBRANCH  53  77
BRANCH  65  88
ATOM     88  C   UNL A   1      39.198  32.085  35.537  1.00  0.00     0.064 A 
ATOM     89  C   UNL A   1      38.364  31.589  36.549  1.00  0.00     0.173 A 
ATOM     90  C   UNL A   1      39.671  33.402  35.665  1.00  0.00     0.173 A 
ATOM     91  F   UNL A   1      37.875  30.341  36.470  1.00  0.00    -0.203 F 
ATOM     92  C   UNL A   1      37.989  32.388  37.626  1.00  0.00     0.198 A 
ATOM     93  C   UNL A   1      39.320  34.187  36.759  1.00  0.00     0.198 A 
ATOM     94  F   UNL A   1      40.481  33.922  34.731  1.00  0.00    -0.203 F 
ATOM     95  F   UNL A   1      37.145  31.911  38.552  1.00  0.00    -0.200 F 
ATOM     96  C   UNL A   1      38.473  33.684  37.734  1.00  0.00     0.200 A 
ATOM     97  F   UNL A   1      39.801  35.434  36.868  1.00  0.00    -0.200 F 
ATOM     98  F   UNL A   1      38.111  34.451  38.771  1.00  0.00    -0.200 F 
ENDBRANCH  65  88
ENDBRANCH  39  40
ENDBRANCH  32  34
ENDBRANCH  31  32
ENDBRANCH  30  31
ENDBRANCH  29  30
ENDBRANCH  28  29
ENDBRANCH  27  28
ENDBRANCH  26  27
ENDBRANCH   1  26
TORSDOF 22
ENDMDL
MODEL 3
REMARK VINA RESULT:     -10.4      3.348      9.259
REMARK SMILES Cc1ccc(OCCC[N@H+]2CCCC[C@@H]2C(=O)OCCOCCOCCOC(=O)c2ccc(-c3c4nc(c(-c5c(F)c(F)c(F)c(F)c5F)c5ccc([nH]5)c(-c5c(F)c(F)c(F)c(F)c5F)c5nc(c(-c6c(F)c(F)c(F)c(F)c6F)c6ccc3[nH]6)C=C5)C=C4)cc2)cc1C
REMARK SMILES IDX 21 1 20 2 19 3 18 4 16 5 17 6 15 7 10 8 11 9 12 11 14 12
REMARK SMILES IDX 13 13 9 14 8 15 7 16 6 17 5 18 1 19 2 20 3 21 94 22 4 23
REMARK SMILES IDX 93 24 95 25 22 26 23 27 24 28 25 29 26 30 27 31 28 32 29 33
REMARK SMILES IDX 30 34 31 35 92 36 32 37 91 38 33 39 34 40 35 41 85 42 36 43
REMARK SMILES IDX 90 44 84 45 86 46 37 47 89 48 83 49 82 50 38 52 70 53 50 54
REMARK SMILES IDX 69 55 51 56 54 57 68 58 87 59 52 60 53 61 67 63 88 64 55 65
REMARK SMILES IDX 39 66 40 67 48 68 41 69 42 70 46 71 49 72 43 73 44 74 47 75
REMARK SMILES IDX 45 76 71 77 72 78 80 79 73 80 74 81 78 82 81 83 75 84 76 85
REMARK SMILES IDX 79 86 77 87 56 88 57 89 65 90 58 91 59 92 63 93 66 94 60 95
REMARK SMILES IDX 61 96 64 97 62 98
REMARK H PARENT 10 10 86 51 54 62
REMARK Flexibility Score: inf
ROOT
ATOM      1  O   UNL A   1      35.226  30.607  27.856  1.00  0.00    -0.376 OA
ENDROOT
BRANCH   1   2
ATOM      2  C   UNL A   1      34.296  29.624  27.418  1.00  0.00     0.202 C 
BRANCH   2   3
ATOM      3  C   UNL A   1      33.216  30.154  26.478  1.00  0.00     0.261 C 
BRANCH   3   4
ATOM      4  O   UNL A   1      31.916  29.514  26.393  1.00  0.00    -0.459 OA
BRANCH   4   5
ATOM      5  C   UNL A   1      31.651  28.199  26.611  1.00  0.00     0.364 C 
ATOM      6  O   UNL A   1      31.384  27.680  27.674  1.00  0.00    -0.245 OA
BRANCH   5   7
ATOM      7  C   UNL A   1      31.671  27.396  25.309  1.00  0.00     0.295 C 
ATOM      8  N   UNL A   1      33.068  27.168  24.823  1.00  0.00    -0.323 N 
ATOM      9  C   UNL A   1      33.023  26.533  23.483  1.00  0.00     0.262 C 
ATOM     10  H   UNL A   1      33.544  28.070  24.776  1.00  0.00     0.348 HD
ATOM     11  C   UNL A   1      32.165  27.288  22.467  1.00  0.00     0.062 C 
ATOM     12  C   UNL A   1      30.753  28.125  24.315  1.00  0.00     0.078 C 
ATOM     13  C   UNL A   1      30.736  27.442  22.964  1.00  0.00     0.013 C 
BRANCH   8  14
ATOM     14  C   UNL A   1      33.817  26.273  25.751  1.00  0.00     0.266 C 
BRANCH  14  15
ATOM     15  C   UNL A   1      33.281  24.830  25.870  1.00  0.00     0.103 C 
BRANCH  15  16
ATOM     16  C   UNL A   1      34.251  23.702  25.495  1.00  0.00     0.235 C 
BRANCH  16  17
ATOM     17  O   UNL A   1      35.495  24.184  24.933  1.00  0.00    -0.493 OA
BRANCH  17  18
ATOM     18  C   UNL A   1      36.577  23.455  25.348  1.00  0.00     0.119 A 
ATOM     19  C   UNL A   1      40.248  21.401  26.244  1.00  0.00     0.044 C 
ATOM     20  C   UNL A   1      38.903  22.036  26.017  1.00  0.00    -0.048 A 
ATOM     21  C   UNL A   1      38.709  23.351  26.463  1.00  0.00     0.007 A 
ATOM     22  C   UNL A   1      37.845  21.373  25.362  1.00  0.00    -0.045 A 
ATOM     23  C   UNL A   1      37.539  24.043  26.155  1.00  0.00     0.047 A 
ATOM     24  C   UNL A   1      36.684  22.103  25.020  1.00  0.00     0.050 A 
ATOM     25  C   UNL A   1      37.941  19.914  25.001  1.00  0.00     0.045 C 
ENDBRANCH  17  18
ENDBRANCH  16  17
ENDBRANCH  15  16
ENDBRANCH  14  15
ENDBRANCH   8  14
ENDBRANCH   5   7
ENDBRANCH   4   5
ENDBRANCH   3   4
ENDBRANCH   2   3
ENDBRANCH   1   2
BRANCH   1  26
ATOM     26  C   UNL A   1      34.671  31.899  28.080  1.00  0.00     0.188 C 
BRANCH  26  27
ATOM     27  C   UNL A   1      35.761  32.943  28.345  1.00  0.00     0.188 C 
BRANCH  27  28
ATOM     28  O   UNL A   1      35.375  34.221  28.852  1.00  0.00    -0.376 OA
BRANCH  28  29
ATOM     29  C   UNL A   1      34.324  34.914  28.194  1.00  0.00     0.202 C 
BRANCH  29  30
ATOM     30  C   UNL A   1      33.359  35.679  29.109  1.00  0.00     0.261 C 
BRANCH  30  31
ATOM     31  O   UNL A   1      32.870  34.908  30.223  1.00  0.00    -0.460 OA
BRANCH  31  32
ATOM     32  C   UNL A   1      32.897  35.557  31.411  1.00  0.00     0.338 C 
ATOM     33  O   UNL A   1      32.153  36.454  31.774  1.00  0.00    -0.246 OA
BRANCH  32  34
ATOM     34  C   UNL A   1      33.905  34.972  32.322  1.00  0.00     0.060 A 
ATOM     35  C   UNL A   1      35.116  35.661  32.468  1.00  0.00     0.016 A 
ATOM     36  C   UNL A   1      33.749  33.702  32.884  1.00  0.00     0.016 A 
ATOM     37  C   UNL A   1      36.207  35.048  33.081  1.00  0.00     0.010 A 
ATOM     38  C   UNL A   1      34.851  33.077  33.485  1.00  0.00     0.010 A 
ATOM     39  C   UNL A   1      36.103  33.722  33.519  1.00  0.00    -0.014 A 
BRANCH  39  40
ATOM     40  C   UNL A   1      37.357  32.946  33.714  1.00  0.00     0.031 A 
ATOM     41  C   UNL A   1      38.149  33.185  34.978  1.00  0.00     0.074 A 
ATOM     42  C   UNL A   1      37.754  31.994  32.853  1.00  0.00     0.049 A 
ATOM     43  N   UNL A   1      39.257  32.622  35.390  1.00  0.00    -0.248 NA
ATOM     44  C   UNL A   1      37.614  34.198  35.905  1.00  0.00     0.031 C 
ATOM     45  C   UNL A   1      37.067  31.624  31.618  1.00  0.00     0.029 A 
ATOM     46  N   UNL A   1      38.845  31.160  32.894  1.00  0.00    -0.354 N 
ATOM     47  C   UNL A   1      39.555  33.220  36.608  1.00  0.00     0.074 A 
ATOM     48  C   UNL A   1      38.529  34.206  36.862  1.00  0.00     0.031 C 
ATOM     49  C   UNL A   1      37.764  30.648  31.009  1.00  0.00     0.029 A 
ATOM     50  C   UNL A   1      38.953  30.335  31.802  1.00  0.00     0.049 A 
ATOM     51  H   UNL A   1      39.491  31.154  33.638  1.00  0.00     0.167 HD
ATOM     52  C   UNL A   1      40.584  32.966  37.451  1.00  0.00     0.037 A 
ATOM     53  C   UNL A   1      39.909  29.442  31.477  1.00  0.00     0.037 A 
ATOM     54  C   UNL A   1      41.595  31.968  37.227  1.00  0.00     0.049 A 
ATOM     55  C   UNL A   1      41.064  29.202  32.419  1.00  0.00     0.074 A 
ATOM     56  C   UNL A   1      42.654  31.617  38.047  1.00  0.00     0.029 A 
ATOM     57  N   UNL A   1      41.673  31.163  36.103  1.00  0.00    -0.354 N 
ATOM     58  N   UNL A   1      41.313  29.744  33.586  1.00  0.00    -0.248 NA
ATOM     59  C   UNL A   1      42.069  28.212  31.998  1.00  0.00     0.031 C 
ATOM     60  C   UNL A   1      43.402  30.630  37.395  1.00  0.00     0.029 A 
ATOM     61  C   UNL A   1      42.777  30.332  36.196  1.00  0.00     0.049 A 
ATOM     62  H   UNL A   1      41.040  31.180  35.350  1.00  0.00     0.167 HD
ATOM     63  C   UNL A   1      42.477  29.140  34.049  1.00  0.00     0.074 A 
ATOM     64  C   UNL A   1      42.876  28.176  33.048  1.00  0.00     0.031 C 
ATOM     65  C   UNL A   1      43.157  29.363  35.201  1.00  0.00     0.037 A 
BRANCH  52  66
ATOM     66  C   UNL A   1      40.685  33.794  38.695  1.00  0.00     0.064 A 
ATOM     67  C   UNL A   1      41.452  34.967  38.742  1.00  0.00     0.173 A 
ATOM     68  C   UNL A   1      39.955  33.438  39.840  1.00  0.00     0.173 A 
ATOM     69  F   UNL A   1      42.180  35.340  37.679  1.00  0.00    -0.203 F 
ATOM     70  C   UNL A   1      41.493  35.749  39.894  1.00  0.00     0.198 A 
ATOM     71  C   UNL A   1      39.979  34.235  40.980  1.00  0.00     0.198 A 
ATOM     72  F   UNL A   1      39.205  32.326  39.844  1.00  0.00    -0.203 F 
ATOM     73  F   UNL A   1      42.258  36.849  39.927  1.00  0.00    -0.200 F 
ATOM     74  C   UNL A   1      40.750  35.387  41.007  1.00  0.00     0.200 A 
ATOM     75  F   UNL A   1      39.250  33.891  42.051  1.00  0.00    -0.200 F 
ATOM     76  F   UNL A   1      40.779  36.148  42.110  1.00  0.00    -0.200 F 
ENDBRANCH  52  66
BRANCH  53  77
ATOM     77  C   UNL A   1      39.842  28.708  30.185  1.00  0.00     0.064 A 
ATOM     78  C   UNL A   1      39.270  27.431  30.099  1.00  0.00     0.173 A 
ATOM     79  C   UNL A   1      40.420  29.242  29.023  1.00  0.00     0.173 A 
ATOM     80  F   UNL A   1      38.734  26.865  31.191  1.00  0.00    -0.203 F 
ATOM     81  C   UNL A   1      39.311  26.702  28.913  1.00  0.00     0.198 A 
ATOM     82  C   UNL A   1      40.432  28.524  27.829  1.00  0.00     0.198 A 
ATOM     83  F   UNL A   1      40.986  30.458  29.052  1.00  0.00    -0.203 F 
ATOM     84  F   UNL A   1      38.819  25.455  28.879  1.00  0.00    -0.200 F 
ATOM     85  C   UNL A   1      39.890  27.250  27.778  1.00  0.00     0.200 A 
ATOM     86  F   UNL A   1      40.987  29.061  26.734  1.00  0.00    -0.200 F 
ATOM     87  F   UNL A   1      39.939  26.543  26.641  1.00  0.00    -0.200 F 
ENDBRANCH  53  77
BRANCH  65  88
ATOM     88  C   UNL A   1      44.374  28.524  35.464  1.00  0.00     0.064 A 
ATOM     89  C   UNL A   1      44.293  27.297  36.139  1.00  0.00     0.173 A 
ATOM     90  C   UNL A   1      45.637  28.941  35.012  1.00  0.00     0.173 A 
ATOM     91  F   UNL A   1      43.113  26.857  36.602  1.00  0.00    -0.203 F 
ATOM     92  C   UNL A   1      45.434  26.536  36.382  1.00  0.00     0.198 A 
ATOM     93  C   UNL A   1      46.770  28.163  35.228  1.00  0.00     0.198 A 
ATOM     94  F   UNL A   1      45.768  30.101  34.351  1.00  0.00    -0.203 F 
ATOM     95  F   UNL A   1      45.340  25.394  37.078  1.00  0.00    -0.200 F 
ATOM     96  C   UNL A   1      46.670  26.966  35.921  1.00  0.00     0.200 A 
ATOM     97  F   UNL A   1      47.961  28.573  34.768  1.00  0.00    -0.200 F 
ATOM     98  F   UNL A   1      47.766  26.231  36.155  1.00  0.00    -0.200 F 
ENDBRANCH  65  88
ENDBRANCH  39  40
ENDBRANCH  32  34
ENDBRANCH  31  32
ENDBRANCH  30  31
ENDBRANCH  29  30
ENDBRANCH  28  29
ENDBRANCH  27  28
ENDBRANCH  26  27
ENDBRANCH   1  26
TORSDOF 22
ENDMDL
