MODEL 1
REMARK VINA RESULT:     -10.9      0.000      0.000
REMARK SMILES O=C(OCCOCCOCCOC(=O)[C@@H]1C=C[C@H](NC(=O)[C@@H]2CCSC2)C1)c1ccc(-c2c3nc(c(-c4c(F)c(F)c(F)c(F)c4F)c4ccc([nH]4)c(-c4c(F)c(F)c(F)c(F)c4F)c4nc(c(-c5c(F)c(F)c(F)c(F)c5F)c5ccc2[nH]5)C=C4)C=C3)cc1
REMARK SMILES IDX 7 1 6 2 5 3 4 4 3 5 2 6 1 7 28 8 29 9 90 10 30 11 89 12
REMARK SMILES IDX 31 13 32 14 33 15 83 16 34 17 88 18 82 19 84 20 35 21 87 22
REMARK SMILES IDX 81 23 80 24 36 26 68 27 48 28 67 29 49 30 52 31 66 32 85 33
REMARK SMILES IDX 50 34 51 35 65 37 86 38 53 39 37 40 38 41 46 42 39 43 40 44
REMARK SMILES IDX 44 45 47 46 41 47 42 48 45 49 43 50 69 51 70 52 78 53 71 54
REMARK SMILES IDX 72 55 76 56 79 57 73 58 74 59 77 60 75 61 54 62 55 63 63 64
REMARK SMILES IDX 56 65 57 66 61 67 64 68 58 69 59 70 62 71 60 72 8 73 9 74
REMARK SMILES IDX 10 75 11 76 12 77 13 78 14 79 15 80 16 81 27 82 17 83 18 84
REMARK SMILES IDX 19 85 20 86 21 88 22 89 23 90 26 91 24 92 25 93
REMARK H PARENT 84 25 52 36 19 87
REMARK Flexibility Score: inf
ROOT
ATOM      1  C   UNL A   1      32.630  27.109  26.151  1.00  0.00     0.188 C 
ENDROOT
BRANCH   1   2
ATOM      2  O   UNL A   1      32.401  28.403  26.714  1.00  0.00    -0.376 OA
BRANCH   2   3
ATOM      3  C   UNL A   1      32.197  29.406  25.709  1.00  0.00     0.202 C 
BRANCH   3   4
ATOM      4  C   UNL A   1      31.941  30.839  26.220  1.00  0.00     0.261 C 
BRANCH   4   5
ATOM      5  O   UNL A   1      32.526  31.127  27.504  1.00  0.00    -0.460 OA
BRANCH   5   6
ATOM      6  C   UNL A   1      33.563  31.948  27.797  1.00  0.00     0.338 C 
ATOM      7  O   UNL A   1      33.361  33.162  27.802  1.00  0.00    -0.246 OA
BRANCH   6   8
ATOM      8  C   UNL A   1      34.970  31.481  28.027  1.00  0.00     0.060 A 
ATOM      9  C   UNL A   1      35.371  30.151  28.099  1.00  0.00     0.016 A 
ATOM     10  C   UNL A   1      35.966  32.469  28.182  1.00  0.00     0.016 A 
ATOM     11  C   UNL A   1      36.673  29.799  28.414  1.00  0.00     0.010 A 
ATOM     12  C   UNL A   1      37.293  32.128  28.469  1.00  0.00     0.010 A 
ATOM     13  C   UNL A   1      37.627  30.784  28.649  1.00  0.00    -0.014 A 
BRANCH  13  14
ATOM     14  C   UNL A   1      38.849  30.340  29.346  1.00  0.00     0.031 A 
ATOM     15  C   UNL A   1      39.002  30.741  30.785  1.00  0.00     0.074 A 
ATOM     16  C   UNL A   1      39.633  29.404  28.784  1.00  0.00     0.049 A 
ATOM     17  N   UNL A   1      39.878  30.348  31.670  1.00  0.00    -0.248 NA
ATOM     18  C   UNL A   1      38.004  31.690  31.311  1.00  0.00     0.031 C 
ATOM     19  C   UNL A   1      39.457  28.861  27.437  1.00  0.00     0.029 A 
ATOM     20  N   UNL A   1      40.690  28.699  29.293  1.00  0.00    -0.354 N 
ATOM     21  C   UNL A   1      39.542  31.009  32.846  1.00  0.00     0.074 A 
ATOM     22  C   UNL A   1      38.395  31.837  32.565  1.00  0.00     0.031 C 
ATOM     23  C   UNL A   1      40.351  27.880  27.238  1.00  0.00     0.029 A 
ATOM     24  C   UNL A   1      41.194  27.763  28.424  1.00  0.00     0.049 A 
ATOM     25  H   UNL A   1      41.054  28.849  30.196  1.00  0.00     0.167 HD
ATOM     26  C   UNL A   1      40.145  30.925  34.053  1.00  0.00     0.037 A 
ATOM     27  C   UNL A   1      42.231  26.919  28.576  1.00  0.00     0.037 A 
ATOM     28  C   UNL A   1      41.291  30.095  34.301  1.00  0.00     0.049 A 
ATOM     29  C   UNL A   1      42.952  26.926  29.900  1.00  0.00     0.074 A 
ATOM     30  C   UNL A   1      42.041  29.974  35.454  1.00  0.00     0.029 A 
ATOM     31  N   UNL A   1      41.852  29.241  33.359  1.00  0.00    -0.354 N 
ATOM     32  N   UNL A   1      42.667  27.595  30.994  1.00  0.00    -0.248 NA
ATOM     33  C   UNL A   1      44.135  26.067  30.012  1.00  0.00     0.031 C 
ATOM     34  C   UNL A   1      43.091  29.087  35.192  1.00  0.00     0.029 A 
ATOM     35  C   UNL A   1      42.956  28.605  33.898  1.00  0.00     0.049 A 
ATOM     36  H   UNL A   1      41.515  29.109  32.444  1.00  0.00     0.167 HD
ATOM     37  C   UNL A   1      43.616  27.218  31.932  1.00  0.00     0.074 A 
ATOM     38  C   UNL A   1      44.475  26.247  31.280  1.00  0.00     0.031 C 
ATOM     39  C   UNL A   1      43.773  27.633  33.214  1.00  0.00     0.037 A 
BRANCH  26  40
ATOM     40  C   UNL A   1      39.622  31.818  35.140  1.00  0.00     0.064 A 
ATOM     41  C   UNL A   1      38.653  31.389  36.061  1.00  0.00     0.173 A 
ATOM     42  C   UNL A   1      40.063  33.147  35.226  1.00  0.00     0.173 A 
ATOM     43  F   UNL A   1      38.171  30.139  36.001  1.00  0.00    -0.203 F 
ATOM     44  C   UNL A   1      38.122  32.269  37.004  1.00  0.00     0.198 A 
ATOM     45  C   UNL A   1      39.552  34.014  36.188  1.00  0.00     0.198 A 
ATOM     46  F   UNL A   1      40.980  33.611  34.363  1.00  0.00    -0.203 F 
ATOM     47  F   UNL A   1      37.148  31.857  37.828  1.00  0.00    -0.200 F 
ATOM     48  C   UNL A   1      38.574  33.578  37.068  1.00  0.00     0.200 A 
ATOM     49  F   UNL A   1      39.993  35.278  36.249  1.00  0.00    -0.200 F 
ATOM     50  F   UNL A   1      38.055  34.425  37.968  1.00  0.00    -0.200 F 
ENDBRANCH  26  40
BRANCH  27  51
ATOM     51  C   UNL A   1      42.660  26.035  27.458  1.00  0.00     0.064 A 
ATOM     52  C   UNL A   1      42.085  24.772  27.255  1.00  0.00     0.173 A 
ATOM     53  C   UNL A   1      43.677  26.431  26.574  1.00  0.00     0.173 A 
ATOM     54  F   UNL A   1      41.122  24.334  28.079  1.00  0.00    -0.203 F 
ATOM     55  C   UNL A   1      42.524  23.935  26.228  1.00  0.00     0.198 A 
ATOM     56  C   UNL A   1      44.091  25.608  25.529  1.00  0.00     0.198 A 
ATOM     57  F   UNL A   1      44.264  27.629  26.718  1.00  0.00    -0.203 F 
ATOM     58  F   UNL A   1      41.990  22.714  26.089  1.00  0.00    -0.200 F 
ATOM     59  C   UNL A   1      43.522  24.356  25.363  1.00  0.00     0.200 A 
ATOM     60  F   UNL A   1      45.043  26.030  24.686  1.00  0.00    -0.200 F 
ATOM     61  F   UNL A   1      43.940  23.553  24.375  1.00  0.00    -0.200 F 
ENDBRANCH  27  51
BRANCH  39  62
ATOM     62  C   UNL A   1      44.880  26.998  34.001  1.00  0.00     0.064 A 
ATOM     63  C   UNL A   1      46.152  27.581  34.088  1.00  0.00     0.173 A 
ATOM     64  C   UNL A   1      44.646  25.810  34.710  1.00  0.00     0.173 A 
ATOM     65  F   UNL A   1      46.426  28.710  33.417  1.00  0.00    -0.203 F 
ATOM     66  C   UNL A   1      47.162  26.977  34.832  1.00  0.00     0.198 A 
ATOM     67  C   UNL A   1      45.647  25.229  35.480  1.00  0.00     0.198 A 
ATOM     68  F   UNL A   1      43.441  25.221  34.665  1.00  0.00    -0.203 F 
ATOM     69  F   UNL A   1      48.387  27.519  34.856  1.00  0.00    -0.200 F 
ATOM     70  C   UNL A   1      46.907  25.808  35.531  1.00  0.00     0.200 A 
ATOM     71  F   UNL A   1      45.393  24.109  36.170  1.00  0.00    -0.200 F 
ATOM     72  F   UNL A   1      47.879  25.231  36.252  1.00  0.00    -0.200 F 
ENDBRANCH  39  62
ENDBRANCH  13  14
ENDBRANCH   6   8
ENDBRANCH   5   6
ENDBRANCH   4   5
ENDBRANCH   3   4
ENDBRANCH   2   3
ENDBRANCH   1   2
BRANCH   1  73
ATOM     73  C   UNL A   1      31.385  26.326  25.729  1.00  0.00     0.188 C 
BRANCH  73  74
ATOM     74  O   UNL A   1      31.095  26.268  24.340  1.00  0.00    -0.376 OA
BRANCH  74  75
ATOM     75  C   UNL A   1      32.184  26.436  23.443  1.00  0.00     0.202 C 
BRANCH  75  76
ATOM     76  C   UNL A   1      32.626  25.218  22.618  1.00  0.00     0.261 C 
BRANCH  76  77
ATOM     77  O   UNL A   1      34.050  25.034  22.500  1.00  0.00    -0.463 OA
BRANCH  77  78
ATOM     78  C   UNL A   1      34.558  23.954  23.164  1.00  0.00     0.312 C 
ATOM     79  O   UNL A   1      35.547  23.323  22.807  1.00  0.00    -0.252 OA
BRANCH  78  80
ATOM     80  C   UNL A   1      33.708  23.526  24.364  1.00  0.00     0.124 C 
ATOM     81  C   UNL A   1      34.268  23.681  25.742  1.00  0.00    -0.014 C 
ATOM     82  C   UNL A   1      33.360  22.020  24.304  1.00  0.00     0.048 C 
ATOM     83  C   UNL A   1      34.256  22.536  26.432  1.00  0.00    -0.006 C 
ATOM     84  C   UNL A   1      33.819  21.371  25.627  1.00  0.00     0.106 C 
BRANCH  84  85
ATOM     85  N   UNL A   1      34.840  20.349  25.381  1.00  0.00    -0.350 N 
ATOM     86  C   UNL A   1      34.932  19.143  24.759  1.00  0.00     0.224 C 
ATOM     87  H   UNL A   1      35.703  20.609  25.779  1.00  0.00     0.164 HD
ATOM     88  O   UNL A   1      36.044  18.611  24.733  1.00  0.00    -0.275 OA
BRANCH  86  89
ATOM     89  C   UNL A   1      33.725  18.467  24.136  1.00  0.00     0.089 C 
ATOM     90  C   UNL A   1      32.543  18.309  25.093  1.00  0.00     0.025 C 
ATOM     91  C   UNL A   1      34.067  17.099  23.571  1.00  0.00     0.083 C 
ATOM     92  C   UNL A   1      32.660  17.008  25.858  1.00  0.00     0.070 C 
ATOM     93  S   UNL A   1      33.495  15.850  24.751  1.00  0.00    -0.161 SA
ENDBRANCH  86  89
ENDBRANCH  84  85
ENDBRANCH  78  80
ENDBRANCH  77  78
ENDBRANCH  76  77
ENDBRANCH  75  76
ENDBRANCH  74  75
ENDBRANCH  73  74
ENDBRANCH   1  73
TORSDOF 19
ENDMDL
MODEL 2
REMARK VINA RESULT:     -10.7      4.575      7.985
REMARK SMILES O=C(OCCOCCOCCOC(=O)[C@@H]1C=C[C@H](NC(=O)[C@@H]2CCSC2)C1)c1ccc(-c2c3nc(c(-c4c(F)c(F)c(F)c(F)c4F)c4ccc([nH]4)c(-c4c(F)c(F)c(F)c(F)c4F)c4nc(c(-c5c(F)c(F)c(F)c(F)c5F)c5ccc2[nH]5)C=C4)C=C3)cc1
REMARK SMILES IDX 7 1 6 2 5 3 4 4 3 5 2 6 1 7 28 8 29 9 90 10 30 11 89 12
REMARK SMILES IDX 31 13 32 14 33 15 83 16 34 17 88 18 82 19 84 20 35 21 87 22
REMARK SMILES IDX 81 23 80 24 36 26 68 27 48 28 67 29 49 30 52 31 66 32 85 33
REMARK SMILES IDX 50 34 51 35 65 37 86 38 53 39 37 40 38 41 46 42 39 43 40 44
REMARK SMILES IDX 44 45 47 46 41 47 42 48 45 49 43 50 69 51 70 52 78 53 71 54
REMARK SMILES IDX 72 55 76 56 79 57 73 58 74 59 77 60 75 61 54 62 55 63 63 64
REMARK SMILES IDX 56 65 57 66 61 67 64 68 58 69 59 70 62 71 60 72 8 73 9 74
REMARK SMILES IDX 10 75 11 76 12 77 13 78 14 79 15 80 16 81 27 82 17 83 18 84
REMARK SMILES IDX 19 85 20 86 21 88 22 89 23 90 26 91 24 92 25 93
REMARK H PARENT 84 25 52 36 19 87
REMARK Flexibility Score: inf
ROOT
ATOM      1  C   UNL A   1      36.534  22.190  25.049  1.00  0.00     0.188 C 
ENDROOT
BRANCH   1   2
ATOM      2  O   UNL A   1      37.594  21.469  25.680  1.00  0.00    -0.376 OA
BRANCH   2   3
ATOM      3  C   UNL A   1      37.899  20.243  24.999  1.00  0.00     0.202 C 
BRANCH   3   4
ATOM      4  C   UNL A   1      38.990  19.362  25.642  1.00  0.00     0.261 C 
BRANCH   4   5
ATOM      5  O   UNL A   1      40.237  20.040  25.885  1.00  0.00    -0.460 OA
BRANCH   5   6
ATOM      6  C   UNL A   1      40.700  20.572  27.042  1.00  0.00     0.338 C 
ATOM      7  O   UNL A   1      40.929  19.811  27.982  1.00  0.00    -0.246 OA
BRANCH   6   8
ATOM      8  C   UNL A   1      40.867  22.042  27.287  1.00  0.00     0.060 A 
ATOM      9  C   UNL A   1      40.277  23.052  26.534  1.00  0.00     0.016 A 
ATOM     10  C   UNL A   1      41.688  22.432  28.367  1.00  0.00     0.016 A 
ATOM     11  C   UNL A   1      40.559  24.389  26.761  1.00  0.00     0.010 A 
ATOM     12  C   UNL A   1      41.957  23.781  28.629  1.00  0.00     0.010 A 
ATOM     13  C   UNL A   1      41.438  24.757  27.776  1.00  0.00    -0.014 A 
BRANCH  13  14
ATOM     14  C   UNL A   1      41.973  26.129  27.694  1.00  0.00     0.031 A 
ATOM     15  C   UNL A   1      41.263  27.189  28.486  1.00  0.00     0.074 A 
ATOM     16  C   UNL A   1      43.186  26.340  27.154  1.00  0.00     0.049 A 
ATOM     17  N   UNL A   1      41.617  28.423  28.729  1.00  0.00    -0.248 NA
ATOM     18  C   UNL A   1      39.996  26.793  29.125  1.00  0.00     0.031 C 
ATOM     19  C   UNL A   1      43.997  25.318  26.492  1.00  0.00     0.029 A 
ATOM     20  N   UNL A   1      43.972  27.459  27.130  1.00  0.00    -0.354 N 
ATOM     21  C   UNL A   1      40.614  28.947  29.535  1.00  0.00     0.074 A 
ATOM     22  C   UNL A   1      39.630  27.910  29.732  1.00  0.00     0.031 C 
ATOM     23  C   UNL A   1      45.185  25.848  26.160  1.00  0.00     0.029 A 
ATOM     24  C   UNL A   1      45.195  27.257  26.539  1.00  0.00     0.049 A 
ATOM     25  H   UNL A   1      43.688  28.326  27.501  1.00  0.00     0.167 HD
ATOM     26  C   UNL A   1      40.528  30.188  30.062  1.00  0.00     0.037 A 
ATOM     27  C   UNL A   1      46.199  28.127  26.323  1.00  0.00     0.037 A 
ATOM     28  C   UNL A   1      41.520  31.203  29.844  1.00  0.00     0.049 A 
ATOM     29  C   UNL A   1      46.027  29.536  26.830  1.00  0.00     0.074 A 
ATOM     30  C   UNL A   1      41.520  32.520  30.257  1.00  0.00     0.029 A 
ATOM     31  N   UNL A   1      42.700  30.999  29.138  1.00  0.00    -0.354 N 
ATOM     32  N   UNL A   1      45.050  30.045  27.545  1.00  0.00    -0.248 NA
ATOM     33  C   UNL A   1      47.092  30.490  26.502  1.00  0.00     0.031 C 
ATOM     34  C   UNL A   1      42.674  33.130  29.753  1.00  0.00     0.029 A 
ATOM     35  C   UNL A   1      43.426  32.175  29.083  1.00  0.00     0.049 A 
ATOM     36  H   UNL A   1      42.977  30.145  28.735  1.00  0.00     0.167 HD
ATOM     37  C   UNL A   1      45.392  31.369  27.775  1.00  0.00     0.074 A 
ATOM     38  C   UNL A   1      46.679  31.577  27.138  1.00  0.00     0.031 C 
ATOM     39  C   UNL A   1      44.711  32.330  28.448  1.00  0.00     0.037 A 
BRANCH  26  40
ATOM     40  C   UNL A   1      39.284  30.517  30.836  1.00  0.00     0.064 A 
ATOM     41  C   UNL A   1      39.192  30.327  32.223  1.00  0.00     0.173 A 
ATOM     42  C   UNL A   1      38.144  30.981  30.162  1.00  0.00     0.173 A 
ATOM     43  F   UNL A   1      40.241  29.851  32.911  1.00  0.00    -0.203 F 
ATOM     44  C   UNL A   1      37.994  30.557  32.900  1.00  0.00     0.198 A 
ATOM     45  C   UNL A   1      36.959  31.239  30.846  1.00  0.00     0.198 A 
ATOM     46  F   UNL A   1      38.175  31.169  28.834  1.00  0.00    -0.203 F 
ATOM     47  F   UNL A   1      37.910  30.302  34.214  1.00  0.00    -0.200 F 
ATOM     48  C   UNL A   1      36.881  31.015  32.212  1.00  0.00     0.200 A 
ATOM     49  F   UNL A   1      35.886  31.684  30.178  1.00  0.00    -0.200 F 
ATOM     50  F   UNL A   1      35.729  31.226  32.862  1.00  0.00    -0.200 F 
ENDBRANCH  26  40
BRANCH  27  51
ATOM     51  C   UNL A   1      47.419  27.707  25.582  1.00  0.00     0.064 A 
ATOM     52  C   UNL A   1      48.567  27.254  26.248  1.00  0.00     0.173 A 
ATOM     53  C   UNL A   1      47.470  27.772  24.179  1.00  0.00     0.173 A 
ATOM     54  F   UNL A   1      48.582  27.188  27.587  1.00  0.00    -0.203 F 
ATOM     55  C   UNL A   1      49.719  26.902  25.544  1.00  0.00     0.198 A 
ATOM     56  C   UNL A   1      48.609  27.388  23.476  1.00  0.00     0.198 A 
ATOM     57  F   UNL A   1      46.402  28.197  23.488  1.00  0.00    -0.203 F 
ATOM     58  F   UNL A   1      50.817  26.518  26.210  1.00  0.00    -0.200 F 
ATOM     59  C   UNL A   1      49.737  26.964  24.158  1.00  0.00     0.200 A 
ATOM     60  F   UNL A   1      48.613  27.434  22.137  1.00  0.00    -0.200 F 
ATOM     61  F   UNL A   1      50.843  26.622  23.483  1.00  0.00    -0.200 F 
ENDBRANCH  27  51
BRANCH  39  62
ATOM     62  C   UNL A   1      45.373  33.671  28.568  1.00  0.00     0.064 A 
ATOM     63  C   UNL A   1      46.251  33.968  29.619  1.00  0.00     0.173 A 
ATOM     64  C   UNL A   1      45.151  34.654  27.592  1.00  0.00     0.173 A 
ATOM     65  F   UNL A   1      46.484  33.065  30.583  1.00  0.00    -0.203 F 
ATOM     66  C   UNL A   1      46.859  35.218  29.706  1.00  0.00     0.198 A 
ATOM     67  C   UNL A   1      45.787  35.888  27.664  1.00  0.00     0.198 A 
ATOM     68  F   UNL A   1      44.326  34.411  26.562  1.00  0.00    -0.203 F 
ATOM     69  F   UNL A   1      47.651  35.503  30.749  1.00  0.00    -0.200 F 
ATOM     70  C   UNL A   1      46.633  36.172  28.726  1.00  0.00     0.200 A 
ATOM     71  F   UNL A   1      45.582  36.802  26.705  1.00  0.00    -0.200 F 
ATOM     72  F   UNL A   1      47.224  37.372  28.808  1.00  0.00    -0.200 F 
ENDBRANCH  39  62
ENDBRANCH  13  14
ENDBRANCH   6   8
ENDBRANCH   5   6
ENDBRANCH   4   5
ENDBRANCH   3   4
ENDBRANCH   2   3
ENDBRANCH   1   2
BRANCH   1  73
ATOM     73  C   UNL A   1      36.344  23.641  25.495  1.00  0.00     0.188 C 
BRANCH  73  74
ATOM     74  O   UNL A   1      35.128  23.961  26.156  1.00  0.00    -0.376 OA
BRANCH  74  75
ATOM     75  C   UNL A   1      34.337  24.999  25.593  1.00  0.00     0.202 C 
BRANCH  75  76
ATOM     76  C   UNL A   1      34.097  24.971  24.076  1.00  0.00     0.261 C 
BRANCH  76  77
ATOM     77  O   UNL A   1      33.597  26.197  23.506  1.00  0.00    -0.463 OA
BRANCH  77  78
ATOM     78  C   UNL A   1      33.023  26.077  22.272  1.00  0.00     0.312 C 
ATOM     79  O   UNL A   1      33.650  25.996  21.222  1.00  0.00    -0.252 OA
BRANCH  78  80
ATOM     80  C   UNL A   1      31.494  26.154  22.304  1.00  0.00     0.124 C 
ATOM     81  C   UNL A   1      30.837  27.492  22.413  1.00  0.00    -0.014 C 
ATOM     82  C   UNL A   1      30.912  25.389  23.516  1.00  0.00     0.048 C 
ATOM     83  C   UNL A   1      29.993  27.568  23.447  1.00  0.00    -0.006 C 
ATOM     84  C   UNL A   1      30.013  26.362  24.308  1.00  0.00     0.106 C 
BRANCH  84  85
ATOM     85  N   UNL A   1      30.526  26.559  25.666  1.00  0.00    -0.350 N 
ATOM     86  C   UNL A   1      31.398  27.385  26.306  1.00  0.00     0.224 C 
ATOM     87  H   UNL A   1      30.127  25.912  26.292  1.00  0.00     0.164 HD
ATOM     88  O   UNL A   1      31.506  27.246  27.526  1.00  0.00    -0.275 OA
BRANCH  86  89
ATOM     89  C   UNL A   1      32.218  28.420  25.559  1.00  0.00     0.089 C 
ATOM     90  C   UNL A   1      33.665  28.527  26.040  1.00  0.00     0.025 C 
ATOM     91  C   UNL A   1      31.590  29.802  25.628  1.00  0.00     0.083 C 
ATOM     92  C   UNL A   1      33.766  29.521  27.177  1.00  0.00     0.070 C 
ATOM     93  S   UNL A   1      32.489  30.761  26.873  1.00  0.00    -0.161 SA
ENDBRANCH  86  89
ENDBRANCH  84  85
ENDBRANCH  78  80
ENDBRANCH  77  78
ENDBRANCH  76  77
ENDBRANCH  75  76
ENDBRANCH  74  75
ENDBRANCH  73  74
ENDBRANCH   1  73
TORSDOF 19
ENDMDL
MODEL 3
REMARK VINA RESULT:     -10.7      0.806      2.109
REMARK SMILES O=C(OCCOCCOCCOC(=O)[C@@H]1C=C[C@H](NC(=O)[C@@H]2CCSC2)C1)c1ccc(-c2c3nc(c(-c4c(F)c(F)c(F)c(F)c4F)c4ccc([nH]4)c(-c4c(F)c(F)c(F)c(F)c4F)c4nc(c(-c5c(F)c(F)c(F)c(F)c5F)c5ccc2[nH]5)C=C4)C=C3)cc1
REMARK SMILES IDX 7 1 6 2 5 3 4 4 3 5 2 6 1 7 28 8 29 9 90 10 30 11 89 12
REMARK SMILES IDX 31 13 32 14 33 15 83 16 34 17 88 18 82 19 84 20 35 21 87 22
REMARK SMILES IDX 81 23 80 24 36 26 68 27 48 28 67 29 49 30 52 31 66 32 85 33
REMARK SMILES IDX 50 34 51 35 65 37 86 38 53 39 37 40 38 41 46 42 39 43 40 44
REMARK SMILES IDX 44 45 47 46 41 47 42 48 45 49 43 50 69 51 70 52 78 53 71 54
REMARK SMILES IDX 72 55 76 56 79 57 73 58 74 59 77 60 75 61 54 62 55 63 63 64
REMARK SMILES IDX 56 65 57 66 61 67 64 68 58 69 59 70 62 71 60 72 8 73 9 74
REMARK SMILES IDX 10 75 11 76 12 77 13 78 14 79 15 80 16 81 27 82 17 83 18 84
REMARK SMILES IDX 19 85 20 86 21 88 22 89 23 90 26 91 24 92 25 93
REMARK H PARENT 84 25 52 36 19 87
REMARK Flexibility Score: inf
ROOT
ATOM      1  C   UNL A   1      32.560  27.516  25.957  1.00  0.00     0.188 C 
ENDROOT
BRANCH   1   2
ATOM      2  O   UNL A   1      33.126  28.689  26.545  1.00  0.00    -0.376 OA
BRANCH   2   3
ATOM      3  C   UNL A   1      32.123  29.629  26.956  1.00  0.00     0.202 C 
BRANCH   3   4
ATOM      4  C   UNL A   1      32.411  31.112  26.643  1.00  0.00     0.261 C 
BRANCH   4   5
ATOM      5  O   UNL A   1      32.866  31.882  27.771  1.00  0.00    -0.460 OA
BRANCH   5   6
ATOM      6  C   UNL A   1      33.979  32.648  27.881  1.00  0.00     0.338 C 
ATOM      7  O   UNL A   1      33.879  33.855  27.662  1.00  0.00    -0.246 OA
BRANCH   6   8
ATOM      8  C   UNL A   1      35.349  32.107  28.163  1.00  0.00     0.060 A 
ATOM      9  C   UNL A   1      35.699  30.761  28.145  1.00  0.00     0.016 A 
ATOM     10  C   UNL A   1      36.364  33.039  28.470  1.00  0.00     0.016 A 
ATOM     11  C   UNL A   1      36.964  30.333  28.514  1.00  0.00     0.010 A 
ATOM     12  C   UNL A   1      37.657  32.623  28.814  1.00  0.00     0.010 A 
ATOM     13  C   UNL A   1      37.932  31.256  28.898  1.00  0.00    -0.014 A 
BRANCH  13  14
ATOM     14  C   UNL A   1      39.087  30.707  29.633  1.00  0.00     0.031 A 
ATOM     15  C   UNL A   1      39.192  31.043  31.093  1.00  0.00     0.074 A 
ATOM     16  C   UNL A   1      39.836  29.742  29.072  1.00  0.00     0.049 A 
ATOM     17  N   UNL A   1      39.996  30.560  32.002  1.00  0.00    -0.248 NA
ATOM     18  C   UNL A   1      38.232  32.035  31.609  1.00  0.00     0.031 C 
ATOM     19  C   UNL A   1      39.693  29.263  27.697  1.00  0.00     0.029 A 
ATOM     20  N   UNL A   1      40.819  28.951  29.601  1.00  0.00    -0.354 N 
ATOM     21  C   UNL A   1      39.646  31.197  33.186  1.00  0.00     0.074 A 
ATOM     22  C   UNL A   1      38.569  32.110  32.885  1.00  0.00     0.031 C 
ATOM     23  C   UNL A   1      40.532  28.234  27.500  1.00  0.00     0.029 A 
ATOM     24  C   UNL A   1      41.305  28.017  28.719  1.00  0.00     0.049 A 
ATOM     25  H   UNL A   1      41.147  29.043  30.525  1.00  0.00     0.167 HD
ATOM     26  C   UNL A   1      40.181  31.029  34.416  1.00  0.00     0.037 A 
ATOM     27  C   UNL A   1      42.277  27.101  28.887  1.00  0.00     0.037 A 
ATOM     28  C   UNL A   1      41.257  30.116  34.685  1.00  0.00     0.049 A 
ATOM     29  C   UNL A   1      42.930  27.012  30.242  1.00  0.00     0.074 A 
ATOM     30  C   UNL A   1      41.939  29.903  35.866  1.00  0.00     0.029 A 
ATOM     31  N   UNL A   1      41.809  29.263  33.737  1.00  0.00    -0.354 N 
ATOM     32  N   UNL A   1      42.634  27.656  31.348  1.00  0.00    -0.248 NA
ATOM     33  C   UNL A   1      44.048  26.072  30.375  1.00  0.00     0.031 C 
ATOM     34  C   UNL A   1      42.942  28.959  35.618  1.00  0.00     0.029 A 
ATOM     35  C   UNL A   1      42.842  28.536  34.301  1.00  0.00     0.049 A 
ATOM     36  H   UNL A   1      41.510  29.188  32.802  1.00  0.00     0.167 HD
ATOM     37  C   UNL A   1      43.509  27.183  32.313  1.00  0.00     0.074 A 
ATOM     38  C   UNL A   1      44.335  26.183  31.664  1.00  0.00     0.031 C 
ATOM     39  C   UNL A   1      43.628  27.539  33.617  1.00  0.00     0.037 A 
BRANCH  26  40
ATOM     40  C   UNL A   1      39.662  31.913  35.513  1.00  0.00     0.064 A 
ATOM     41  C   UNL A   1      40.194  33.187  35.763  1.00  0.00     0.173 A 
ATOM     42  C   UNL A   1      38.647  31.449  36.363  1.00  0.00     0.173 A 
ATOM     43  F   UNL A   1      41.191  33.665  35.003  1.00  0.00    -0.203 F 
ATOM     44  C   UNL A   1      39.752  33.948  36.845  1.00  0.00     0.198 A 
ATOM     45  C   UNL A   1      38.186  32.224  37.423  1.00  0.00     0.198 A 
ATOM     46  F   UNL A   1      38.111  30.234  36.174  1.00  0.00    -0.203 F 
ATOM     47  F   UNL A   1      40.323  35.133  37.106  1.00  0.00    -0.200 F 
ATOM     48  C   UNL A   1      38.747  33.468  37.671  1.00  0.00     0.200 A 
ATOM     49  F   UNL A   1      37.213  31.759  38.219  1.00  0.00    -0.200 F 
ATOM     50  F   UNL A   1      38.330  34.196  38.716  1.00  0.00    -0.200 F 
ENDBRANCH  26  40
BRANCH  27  51
ATOM     51  C   UNL A   1      42.703  26.233  27.755  1.00  0.00     0.064 A 
ATOM     52  C   UNL A   1      43.676  26.648  26.835  1.00  0.00     0.173 A 
ATOM     53  C   UNL A   1      42.125  24.968  27.558  1.00  0.00     0.173 A 
ATOM     54  F   UNL A   1      44.249  27.853  26.963  1.00  0.00    -0.203 F 
ATOM     55  C   UNL A   1      44.038  25.842  25.754  1.00  0.00     0.198 A 
ATOM     56  C   UNL A   1      42.512  24.151  26.498  1.00  0.00     0.198 A 
ATOM     57  F   UNL A   1      41.189  24.518  28.407  1.00  0.00    -0.203 F 
ATOM     58  F   UNL A   1      44.936  26.285  24.863  1.00  0.00    -0.200 F 
ATOM     59  C   UNL A   1      43.460  24.593  25.590  1.00  0.00     0.200 A 
ATOM     60  F   UNL A   1      41.962  22.938  26.357  1.00  0.00    -0.200 F 
ATOM     61  F   UNL A   1      43.811  23.819  24.554  1.00  0.00    -0.200 F 
ENDBRANCH  27  51
BRANCH  39  62
ATOM     62  C   UNL A   1      44.651  26.804  34.430  1.00  0.00     0.064 A 
ATOM     63  C   UNL A   1      44.367  25.570  35.032  1.00  0.00     0.173 A 
ATOM     64  C   UNL A   1      45.945  27.327  34.571  1.00  0.00     0.173 A 
ATOM     65  F   UNL A   1      43.141  25.036  34.935  1.00  0.00    -0.203 F 
ATOM     66  C   UNL A   1      45.336  24.902  35.776  1.00  0.00     0.198 A 
ATOM     67  C   UNL A   1      46.919  26.640  35.286  1.00  0.00     0.198 A 
ATOM     68  F   UNL A   1      46.266  28.501  34.004  1.00  0.00    -0.203 F 
ATOM     69  F   UNL A   1      45.029  23.752  36.392  1.00  0.00    -0.200 F 
ATOM     70  C   UNL A   1      46.611  25.434  35.896  1.00  0.00     0.200 A 
ATOM     71  F   UNL A   1      48.156  27.147  35.385  1.00  0.00    -0.200 F 
ATOM     72  F   UNL A   1      47.544  24.786  36.607  1.00  0.00    -0.200 F 
ENDBRANCH  39  62
ENDBRANCH  13  14
ENDBRANCH   6   8
ENDBRANCH   5   6
ENDBRANCH   4   5
ENDBRANCH   3   4
ENDBRANCH   2   3
ENDBRANCH   1   2
BRANCH   1  73
ATOM     73  C   UNL A   1      31.311  27.724  25.098  1.00  0.00     0.188 C 
BRANCH  73  74
ATOM     74  O   UNL A   1      31.500  27.829  23.695  1.00  0.00    -0.376 OA
BRANCH  74  75
ATOM     75  C   UNL A   1      32.748  27.392  23.174  1.00  0.00     0.202 C 
BRANCH  75  76
ATOM     76  C   UNL A   1      32.732  26.267  22.128  1.00  0.00     0.261 C 
BRANCH  76  77
ATOM     77  O   UNL A   1      33.675  25.200  22.352  1.00  0.00    -0.463 OA
BRANCH  77  78
ATOM     78  C   UNL A   1      33.219  23.947  22.056  1.00  0.00     0.312 C 
ATOM     79  O   UNL A   1      33.510  23.325  21.040  1.00  0.00    -0.252 OA
BRANCH  78  80
ATOM     80  C   UNL A   1      32.211  23.411  23.077  1.00  0.00     0.124 C 
ATOM     81  C   UNL A   1      32.310  23.861  24.500  1.00  0.00    -0.014 C 
ATOM     82  C   UNL A   1      32.291  21.872  23.200  1.00  0.00     0.048 C 
ATOM     83  C   UNL A   1      32.403  22.839  25.356  1.00  0.00    -0.006 C 
ATOM     84  C   UNL A   1      32.519  21.522  24.686  1.00  0.00     0.106 C 
BRANCH  84  85
ATOM     85  N   UNL A   1      33.795  20.826  24.870  1.00  0.00    -0.350 N 
ATOM     86  C   UNL A   1      34.324  19.601  24.603  1.00  0.00     0.224 C 
ATOM     87  H   UNL A   1      34.455  21.408  25.311  1.00  0.00     0.164 HD
ATOM     88  O   UNL A   1      35.513  19.433  24.884  1.00  0.00    -0.275 OA
BRANCH  86  89
ATOM     89  C   UNL A   1      33.494  18.481  24.004  1.00  0.00     0.089 C 
ATOM     90  C   UNL A   1      32.323  18.041  24.884  1.00  0.00     0.025 C 
ATOM     91  C   UNL A   1      34.335  17.257  23.684  1.00  0.00     0.083 C 
ATOM     92  C   UNL A   1      32.769  16.962  25.846  1.00  0.00     0.070 C 
ATOM     93  S   UNL A   1      34.068  16.039  24.997  1.00  0.00    -0.161 SA
ENDBRANCH  86  89
ENDBRANCH  84  85
ENDBRANCH  78  80
ENDBRANCH  77  78
ENDBRANCH  76  77
ENDBRANCH  75  76
ENDBRANCH  74  75
ENDBRANCH  73  74
ENDBRANCH   1  73
TORSDOF 19
ENDMDL
