MODEL 1
REMARK VINA RESULT:     -11.3      0.000      0.000
REMARK SMILES COc1cc(OC)cc(-c2ccc([C@@H](C)C(=O)OCCOCCOCCOC(=O)c3ccc(-c4c5nc(c(-c6c(F)c(F)c(F)c(F)c6F)c6ccc([nH]6)c(-c6c(F)c(F)c(F)c(F)c6F)c6nc(c(-c7c(F)c(F)c(F)c(F)c7F)c7ccc4[nH]7)C=C6)C=C5)cc3)cc2F)c1
REMARK SMILES IDX 22 1 21 2 20 3 19 4 18 5 16 6 17 7 14 8 15 9 13 10 10 11
REMARK SMILES IDX 11 12 94 13 12 14 93 15 95 16 9 17 3 18 4 19 96 20 5 21 8 22
REMARK SMILES IDX 2 23 1 24 6 25 7 26 23 27 24 28 25 29 26 30 27 31 28 32
REMARK SMILES IDX 29 33 30 34 31 35 92 36 32 37 91 38 33 39 34 40 35 41 85 42
REMARK SMILES IDX 36 43 90 44 84 45 86 46 37 47 89 48 83 49 82 50 38 52 70 53
REMARK SMILES IDX 50 54 69 55 51 56 54 57 68 58 87 59 52 60 53 61 67 63 88 64
REMARK SMILES IDX 55 65 39 66 40 67 48 68 41 69 42 70 46 71 49 72 43 73 44 74
REMARK SMILES IDX 47 75 45 76 71 77 72 78 80 79 73 80 74 81 78 82 81 83 75 84
REMARK SMILES IDX 76 85 79 86 77 87 56 88 57 89 65 90 58 91 59 92 63 93 66 94
REMARK SMILES IDX 60 95 61 96 64 97 62 98
REMARK H PARENT 86 51 54 62
REMARK Flexibility Score: inf
ROOT
ATOM      1  C   UNL A   1      35.069  32.527  27.991  1.00  0.00     0.188 C 
ENDROOT
BRANCH   1   2
ATOM      2  O   UNL A   1      34.697  31.209  28.376  1.00  0.00    -0.376 OA
BRANCH   2   3
ATOM      3  C   UNL A   1      34.592  30.195  27.384  1.00  0.00     0.202 C 
BRANCH   3   4
ATOM      4  C   UNL A   1      33.324  30.149  26.514  1.00  0.00     0.261 C 
BRANCH   4   5
ATOM      5  O   UNL A   1      32.120  29.700  27.180  1.00  0.00    -0.463 OA
BRANCH   5   6
ATOM      6  C   UNL A   1      31.826  28.379  27.081  1.00  0.00     0.313 C 
ATOM      7  O   UNL A   1      31.333  27.727  28.001  1.00  0.00    -0.252 OA
BRANCH   6   8
ATOM      8  C   UNL A   1      32.119  27.717  25.730  1.00  0.00     0.126 C 
ATOM      9  C   UNL A   1      30.997  28.065  24.755  1.00  0.00     0.025 C 
BRANCH   8  10
ATOM     10  C   UNL A   1      32.468  26.233  25.635  1.00  0.00    -0.031 A 
ATOM     11  C   UNL A   1      33.227  23.477  25.395  1.00  0.00     0.018 A 
ATOM     12  C   UNL A   1      32.125  23.875  26.174  1.00  0.00     0.012 A 
ATOM     13  C   UNL A   1      33.940  24.488  24.743  1.00  0.00     0.131 A 
ATOM     14  C   UNL A   1      31.744  25.226  26.285  1.00  0.00     0.005 A 
ATOM     15  C   UNL A   1      33.567  25.834  24.847  1.00  0.00     0.044 A 
ATOM     16  F   UNL A   1      34.998  24.186  23.976  1.00  0.00    -0.206 F 
BRANCH  11  17
ATOM     17  C   UNL A   1      33.541  22.047  25.195  1.00  0.00    -0.008 A 
ATOM     18  C   UNL A   1      32.905  19.706  24.965  1.00  0.00     0.123 A 
ATOM     19  C   UNL A   1      34.252  19.343  24.920  1.00  0.00     0.092 A 
ATOM     20  C   UNL A   1      32.549  21.052  25.115  1.00  0.00     0.055 A 
ATOM     21  C   UNL A   1      35.251  20.308  25.001  1.00  0.00     0.123 A 
ATOM     22  C   UNL A   1      34.891  21.651  25.125  1.00  0.00     0.055 A 
BRANCH  18  23
ATOM     23  O   UNL A   1      32.024  18.658  24.937  1.00  0.00    -0.497 OA
ATOM     24  C   UNL A   1      32.527  17.429  25.448  1.00  0.00     0.278 C 
ENDBRANCH  18  23
BRANCH  21  25
ATOM     25  O   UNL A   1      36.532  19.828  24.954  1.00  0.00    -0.497 OA
ATOM     26  C   UNL A   1      37.549  20.768  24.629  1.00  0.00     0.278 C 
ENDBRANCH  21  25
ENDBRANCH  11  17
ENDBRANCH   8  10
ENDBRANCH   6   8
ENDBRANCH   5   6
ENDBRANCH   4   5
ENDBRANCH   3   4
ENDBRANCH   2   3
ENDBRANCH   1   2
BRANCH   1  27
ATOM     27  C   UNL A   1      34.199  33.714  28.427  1.00  0.00     0.188 C 
BRANCH  27  28
ATOM     28  O   UNL A   1      34.747  34.490  29.469  1.00  0.00    -0.376 OA
BRANCH  28  29
ATOM     29  C   UNL A   1      33.925  34.737  30.591  1.00  0.00     0.202 C 
BRANCH  29  30
ATOM     30  C   UNL A   1      34.442  34.187  31.929  1.00  0.00     0.261 C 
BRANCH  30  31
ATOM     31  O   UNL A   1      34.997  32.860  31.896  1.00  0.00    -0.460 OA
BRANCH  31  32
ATOM     32  C   UNL A   1      35.964  32.566  32.801  1.00  0.00     0.338 C 
ATOM     33  O   UNL A   1      35.906  32.703  34.004  1.00  0.00    -0.246 OA
BRANCH  32  34
ATOM     34  C   UNL A   1      37.039  31.837  32.079  1.00  0.00     0.060 A 
ATOM     35  C   UNL A   1      37.955  31.067  32.811  1.00  0.00     0.016 A 
ATOM     36  C   UNL A   1      37.132  31.905  30.689  1.00  0.00     0.016 A 
ATOM     37  C   UNL A   1      38.984  30.384  32.152  1.00  0.00     0.010 A 
ATOM     38  C   UNL A   1      38.175  31.240  30.034  1.00  0.00     0.010 A 
ATOM     39  C   UNL A   1      39.124  30.500  30.763  1.00  0.00    -0.014 A 
BRANCH  39  40
ATOM     40  C   UNL A   1      40.353  30.011  30.085  1.00  0.00     0.031 A 
ATOM     41  C   UNL A   1      41.474  30.987  29.845  1.00  0.00     0.074 A 
ATOM     42  C   UNL A   1      40.478  28.737  29.672  1.00  0.00     0.049 A 
ATOM     43  N   UNL A   1      42.595  30.829  29.186  1.00  0.00    -0.248 NA
ATOM     44  C   UNL A   1      41.298  32.329  30.423  1.00  0.00     0.031 C 
ATOM     45  C   UNL A   1      39.490  27.681  29.873  1.00  0.00     0.029 A 
ATOM     46  N   UNL A   1      41.493  28.123  28.976  1.00  0.00    -0.354 N 
ATOM     47  C   UNL A   1      43.247  32.054  29.258  1.00  0.00     0.074 A 
ATOM     48  C   UNL A   1      42.387  32.951  29.998  1.00  0.00     0.031 C 
ATOM     49  C   UNL A   1      39.936  26.552  29.294  1.00  0.00     0.029 A 
ATOM     50  C   UNL A   1      41.222  26.816  28.649  1.00  0.00     0.049 A 
ATOM     51  H   UNL A   1      42.333  28.576  28.736  1.00  0.00     0.167 HD
ATOM     52  C   UNL A   1      44.457  32.398  28.756  1.00  0.00     0.037 A 
ATOM     53  C   UNL A   1      41.918  25.946  27.889  1.00  0.00     0.037 A 
ATOM     54  C   UNL A   1      45.314  31.504  28.019  1.00  0.00     0.049 A 
ATOM     55  C   UNL A   1      43.230  26.373  27.277  1.00  0.00     0.074 A 
ATOM     56  C   UNL A   1      46.571  31.752  27.496  1.00  0.00     0.029 A 
ATOM     57  N   UNL A   1      44.996  30.195  27.692  1.00  0.00    -0.354 N 
ATOM     58  N   UNL A   1      43.857  27.521  27.372  1.00  0.00    -0.248 NA
ATOM     59  C   UNL A   1      43.935  25.378  26.454  1.00  0.00     0.031 C 
ATOM     60  C   UNL A   1      46.984  30.615  26.795  1.00  0.00     0.029 A 
ATOM     61  C   UNL A   1      46.019  29.633  26.944  1.00  0.00     0.049 A 
ATOM     62  H   UNL A   1      44.167  29.733  27.953  1.00  0.00     0.167 HD
ATOM     63  C   UNL A   1      45.037  27.377  26.652  1.00  0.00     0.074 A 
ATOM     64  C   UNL A   1      45.047  26.025  26.136  1.00  0.00     0.031 C 
ATOM     65  C   UNL A   1      46.025  28.282  26.441  1.00  0.00     0.037 A 
BRANCH  52  66
ATOM     66  C   UNL A   1      44.913  33.816  28.951  1.00  0.00     0.064 A 
ATOM     67  C   UNL A   1      45.689  34.200  30.056  1.00  0.00     0.173 A 
ATOM     68  C   UNL A   1      44.590  34.799  28.005  1.00  0.00     0.173 A 
ATOM     69  F   UNL A   1      46.014  33.303  30.998  1.00  0.00    -0.203 F 
ATOM     70  C   UNL A   1      46.099  35.521  30.219  1.00  0.00     0.198 A 
ATOM     71  C   UNL A   1      45.031  36.111  28.151  1.00  0.00     0.198 A 
ATOM     72  F   UNL A   1      43.854  34.485  26.928  1.00  0.00    -0.203 F 
ATOM     73  F   UNL A   1      46.794  35.876  31.308  1.00  0.00    -0.200 F 
ATOM     74  C   UNL A   1      45.777  36.473  29.263  1.00  0.00     0.200 A 
ATOM     75  F   UNL A   1      44.732  37.025  27.219  1.00  0.00    -0.200 F 
ATOM     76  F   UNL A   1      46.179  37.743  29.416  1.00  0.00    -0.200 F 
ENDBRANCH  52  66
BRANCH  53  77
ATOM     77  C   UNL A   1      41.381  24.581  27.641  1.00  0.00     0.064 A 
ATOM     78  C   UNL A   1      41.986  23.448  28.203  1.00  0.00     0.173 A 
ATOM     79  C   UNL A   1      40.265  24.377  26.814  1.00  0.00     0.173 A 
ATOM     80  F   UNL A   1      43.074  23.585  28.976  1.00  0.00    -0.203 F 
ATOM     81  C   UNL A   1      41.510  22.166  27.933  1.00  0.00     0.198 A 
ATOM     82  C   UNL A   1      39.770  23.097  26.571  1.00  0.00     0.198 A 
ATOM     83  F   UNL A   1      39.652  25.425  26.243  1.00  0.00    -0.203 F 
ATOM     84  F   UNL A   1      42.142  21.099  28.442  1.00  0.00    -0.200 F 
ATOM     85  C   UNL A   1      40.399  21.992  27.124  1.00  0.00     0.200 A 
ATOM     86  F   UNL A   1      38.690  22.935  25.796  1.00  0.00    -0.200 F 
ATOM     87  F   UNL A   1      39.940  20.760  26.867  1.00  0.00    -0.200 F 
ENDBRANCH  53  77
BRANCH  65  88
ATOM     88  C   UNL A   1      47.228  27.833  25.657  1.00  0.00     0.064 A 
ATOM     89  C   UNL A   1      48.382  27.341  26.284  1.00  0.00     0.173 A 
ATOM     90  C   UNL A   1      47.206  27.853  24.253  1.00  0.00     0.173 A 
ATOM     91  F   UNL A   1      48.462  27.309  27.623  1.00  0.00    -0.203 F 
ATOM     92  C   UNL A   1      49.477  26.913  25.537  1.00  0.00     0.198 A 
ATOM     93  C   UNL A   1      48.288  27.392  23.509  1.00  0.00     0.198 A 
ATOM     94  F   UNL A   1      46.125  28.305  23.600  1.00  0.00    -0.203 F 
ATOM     95  F   UNL A   1      50.589  26.495  26.159  1.00  0.00    -0.200 F 
ATOM     96  C   UNL A   1      49.427  26.931  24.151  1.00  0.00     0.200 A 
ATOM     97  F   UNL A   1      48.228  27.393  22.170  1.00  0.00    -0.200 F 
ATOM     98  F   UNL A   1      50.477  26.509  23.434  1.00  0.00    -0.200 F 
ENDBRANCH  65  88
ENDBRANCH  39  40
ENDBRANCH  32  34
ENDBRANCH  31  32
ENDBRANCH  30  31
ENDBRANCH  29  30
ENDBRANCH  28  29
ENDBRANCH  27  28
ENDBRANCH   1  27
TORSDOF 21
ENDMDL
MODEL 2
REMARK VINA RESULT:     -11.2      4.987     11.379
REMARK SMILES COc1cc(OC)cc(-c2ccc([C@@H](C)C(=O)OCCOCCOCCOC(=O)c3ccc(-c4c5nc(c(-c6c(F)c(F)c(F)c(F)c6F)c6ccc([nH]6)c(-c6c(F)c(F)c(F)c(F)c6F)c6nc(c(-c7c(F)c(F)c(F)c(F)c7F)c7ccc4[nH]7)C=C6)C=C5)cc3)cc2F)c1
REMARK SMILES IDX 22 1 21 2 20 3 19 4 18 5 16 6 17 7 14 8 15 9 13 10 10 11
REMARK SMILES IDX 11 12 94 13 12 14 93 15 95 16 9 17 3 18 4 19 96 20 5 21 8 22
REMARK SMILES IDX 2 23 1 24 6 25 7 26 23 27 24 28 25 29 26 30 27 31 28 32
REMARK SMILES IDX 29 33 30 34 31 35 92 36 32 37 91 38 33 39 34 40 35 41 85 42
REMARK SMILES IDX 36 43 90 44 84 45 86 46 37 47 89 48 83 49 82 50 38 52 70 53
REMARK SMILES IDX 50 54 69 55 51 56 54 57 68 58 87 59 52 60 53 61 67 63 88 64
REMARK SMILES IDX 55 65 39 66 40 67 48 68 41 69 42 70 46 71 49 72 43 73 44 74
REMARK SMILES IDX 47 75 45 76 71 77 72 78 80 79 73 80 74 81 78 82 81 83 75 84
REMARK SMILES IDX 76 85 79 86 77 87 56 88 57 89 65 90 58 91 59 92 63 93 66 94
REMARK SMILES IDX 60 95 61 96 64 97 62 98
REMARK H PARENT 86 51 54 62
REMARK Flexibility Score: inf
ROOT
ATOM      1  C   UNL A   1      43.290  18.411  26.061  1.00  0.00     0.188 C 
ENDROOT
BRANCH   1   2
ATOM      2  O   UNL A   1      43.951  18.781  24.858  1.00  0.00    -0.376 OA
BRANCH   2   3
ATOM      3  C   UNL A   1      45.361  18.977  24.867  1.00  0.00     0.202 C 
BRANCH   3   4
ATOM      4  C   UNL A   1      45.901  20.402  25.078  1.00  0.00     0.261 C 
BRANCH   4   5
ATOM      5  O   UNL A   1      45.006  21.323  25.745  1.00  0.00    -0.463 OA
BRANCH   5   6
ATOM      6  C   UNL A   1      44.472  22.312  24.984  1.00  0.00     0.313 C 
ATOM      7  O   UNL A   1      44.021  22.124  23.855  1.00  0.00    -0.252 OA
BRANCH   6   8
ATOM      8  C   UNL A   1      44.430  23.707  25.616  1.00  0.00     0.126 C 
ATOM      9  C   UNL A   1      45.578  24.541  25.051  1.00  0.00     0.025 C 
BRANCH   8  10
ATOM     10  C   UNL A   1      44.334  23.889  27.130  1.00  0.00    -0.031 A 
ATOM     11  C   UNL A   1      44.265  24.287  29.970  1.00  0.00     0.018 A 
ATOM     12  C   UNL A   1      43.149  23.802  29.264  1.00  0.00     0.012 A 
ATOM     13  C   UNL A   1      45.412  24.571  29.222  1.00  0.00     0.131 A 
ATOM     14  C   UNL A   1      43.183  23.596  27.871  1.00  0.00     0.005 A 
ATOM     15  C   UNL A   1      45.456  24.367  27.837  1.00  0.00     0.044 A 
ATOM     16  F   UNL A   1      46.519  25.029  29.826  1.00  0.00    -0.206 F 
BRANCH  11  17
ATOM     17  C   UNL A   1      44.249  24.385  31.444  1.00  0.00    -0.008 A 
ATOM     18  C   UNL A   1      44.182  23.408  33.675  1.00  0.00     0.123 A 
ATOM     19  C   UNL A   1      44.112  24.684  34.235  1.00  0.00     0.092 A 
ATOM     20  C   UNL A   1      44.237  23.256  32.284  1.00  0.00     0.055 A 
ATOM     21  C   UNL A   1      44.117  25.816  33.424  1.00  0.00     0.123 A 
ATOM     22  C   UNL A   1      44.199  25.661  32.040  1.00  0.00     0.055 A 
BRANCH  18  23
ATOM     23  O   UNL A   1      44.106  22.378  34.575  1.00  0.00    -0.497 OA
ATOM     24  C   UNL A   1      44.904  22.534  35.743  1.00  0.00     0.278 C 
ENDBRANCH  18  23
BRANCH  21  25
ATOM     25  O   UNL A   1      44.036  27.010  34.089  1.00  0.00    -0.497 OA
ATOM     26  C   UNL A   1      43.243  28.021  33.479  1.00  0.00     0.278 C 
ENDBRANCH  21  25
ENDBRANCH  11  17
ENDBRANCH   8  10
ENDBRANCH   6   8
ENDBRANCH   5   6
ENDBRANCH   4   5
ENDBRANCH   3   4
ENDBRANCH   2   3
ENDBRANCH   1   2
BRANCH   1  27
ATOM     27  C   UNL A   1      42.222  19.341  26.652  1.00  0.00     0.188 C 
BRANCH  27  28
ATOM     28  O   UNL A   1      40.902  19.044  26.256  1.00  0.00    -0.376 OA
BRANCH  28  29
ATOM     29  C   UNL A   1      40.102  20.122  25.816  1.00  0.00     0.202 C 
BRANCH  29  30
ATOM     30  C   UNL A   1      40.103  21.365  26.718  1.00  0.00     0.261 C 
BRANCH  30  31
ATOM     31  O   UNL A   1      40.199  22.634  26.047  1.00  0.00    -0.460 OA
BRANCH  31  32
ATOM     32  C   UNL A   1      39.189  23.519  26.239  1.00  0.00     0.338 C 
ATOM     33  O   UNL A   1      38.005  23.326  26.071  1.00  0.00    -0.246 OA
BRANCH  32  34
ATOM     34  C   UNL A   1      39.768  24.714  26.909  1.00  0.00     0.060 A 
ATOM     35  C   UNL A   1      39.618  24.862  28.295  1.00  0.00     0.016 A 
ATOM     36  C   UNL A   1      40.465  25.672  26.171  1.00  0.00     0.016 A 
ATOM     37  C   UNL A   1      40.143  25.986  28.942  1.00  0.00     0.010 A 
ATOM     38  C   UNL A   1      40.970  26.806  26.816  1.00  0.00     0.010 A 
ATOM     39  C   UNL A   1      40.787  26.985  28.200  1.00  0.00    -0.014 A 
BRANCH  39  40
ATOM     40  C   UNL A   1      41.107  28.298  28.819  1.00  0.00     0.031 A 
ATOM     41  C   UNL A   1      42.528  28.563  29.240  1.00  0.00     0.074 A 
ATOM     42  C   UNL A   1      40.165  29.236  29.023  1.00  0.00     0.049 A 
ATOM     43  N   UNL A   1      43.032  29.581  29.892  1.00  0.00    -0.248 NA
ATOM     44  C   UNL A   1      43.512  27.529  28.883  1.00  0.00     0.031 C 
ATOM     45  C   UNL A   1      38.763  29.128  28.631  1.00  0.00     0.029 A 
ATOM     46  N   UNL A   1      40.251  30.465  29.635  1.00  0.00    -0.354 N 
ATOM     47  C   UNL A   1      44.385  29.302  30.035  1.00  0.00     0.074 A 
ATOM     48  C   UNL A   1      44.618  28.009  29.430  1.00  0.00     0.031 C 
ATOM     49  C   UNL A   1      38.113  30.235  29.029  1.00  0.00     0.029 A 
ATOM     50  C   UNL A   1      39.043  31.113  29.738  1.00  0.00     0.049 A 
ATOM     51  H   UNL A   1      41.096  30.845  29.965  1.00  0.00     0.167 HD
ATOM     52  C   UNL A   1      45.348  30.058  30.615  1.00  0.00     0.037 A 
ATOM     53  C   UNL A   1      38.722  32.263  30.364  1.00  0.00     0.037 A 
ATOM     54  C   UNL A   1      45.116  31.345  31.218  1.00  0.00     0.049 A 
ATOM     55  C   UNL A   1      39.798  33.055  31.068  1.00  0.00     0.074 A 
ATOM     56  C   UNL A   1      46.033  32.200  31.804  1.00  0.00     0.029 A 
ATOM     57  N   UNL A   1      43.877  31.958  31.320  1.00  0.00    -0.354 N 
ATOM     58  N   UNL A   1      41.080  32.802  31.176  1.00  0.00    -0.248 NA
ATOM     59  C   UNL A   1      39.380  34.297  31.737  1.00  0.00     0.031 C 
ATOM     60  C   UNL A   1      45.338  33.297  32.322  1.00  0.00     0.029 A 
ATOM     61  C   UNL A   1      44.000  33.164  31.992  1.00  0.00     0.049 A 
ATOM     62  H   UNL A   1      43.034  31.590  30.968  1.00  0.00     0.167 HD
ATOM     63  C   UNL A   1      41.625  33.862  31.891  1.00  0.00     0.074 A 
ATOM     64  C   UNL A   1      40.535  34.770  32.182  1.00  0.00     0.031 C 
ATOM     65  C   UNL A   1      42.910  34.067  32.270  1.00  0.00     0.037 A 
BRANCH  52  66
ATOM     66  C   UNL A   1      46.739  29.493  30.663  1.00  0.00     0.064 A 
ATOM     67  C   UNL A   1      47.190  28.719  31.744  1.00  0.00     0.173 A 
ATOM     68  C   UNL A   1      47.626  29.707  29.597  1.00  0.00     0.173 A 
ATOM     69  F   UNL A   1      46.387  28.495  32.795  1.00  0.00    -0.203 F 
ATOM     70  C   UNL A   1      48.485  28.207  31.768  1.00  0.00     0.198 A 
ATOM     71  C   UNL A   1      48.908  29.165  29.608  1.00  0.00     0.198 A 
ATOM     72  F   UNL A   1      47.246  30.436  28.537  1.00  0.00    -0.203 F 
ATOM     73  F   UNL A   1      48.911  27.516  32.835  1.00  0.00    -0.200 F 
ATOM     74  C   UNL A   1      49.340  28.423  30.698  1.00  0.00     0.200 A 
ATOM     75  F   UNL A   1      49.727  29.361  28.566  1.00  0.00    -0.200 F 
ATOM     76  F   UNL A   1      50.583  27.923  30.719  1.00  0.00    -0.200 F 
ENDBRANCH  52  66
BRANCH  53  77
ATOM     77  C   UNL A   1      37.312  32.736  30.375  1.00  0.00     0.064 A 
ATOM     78  C   UNL A   1      36.815  33.566  29.361  1.00  0.00     0.173 A 
ATOM     79  C   UNL A   1      36.436  32.388  31.416  1.00  0.00     0.173 A 
ATOM     80  F   UNL A   1      37.620  33.953  28.359  1.00  0.00    -0.203 F 
ATOM     81  C   UNL A   1      35.507  34.045  29.395  1.00  0.00     0.198 A 
ATOM     82  C   UNL A   1      35.119  32.842  31.433  1.00  0.00     0.198 A 
ATOM     83  F   UNL A   1      36.861  31.603  32.417  1.00  0.00    -0.203 F 
ATOM     84  F   UNL A   1      35.077  34.881  28.440  1.00  0.00    -0.200 F 
ATOM     85  C   UNL A   1      34.657  33.677  30.426  1.00  0.00     0.200 A 
ATOM     86  F   UNL A   1      34.299  32.475  32.427  1.00  0.00    -0.200 F 
ATOM     87  F   UNL A   1      33.399  34.136  30.458  1.00  0.00    -0.200 F 
ENDBRANCH  53  77
BRANCH  65  88
ATOM     88  C   UNL A   1      43.230  35.343  32.999  1.00  0.00     0.064 A 
ATOM     89  C   UNL A   1      43.600  36.513  32.321  1.00  0.00     0.173 A 
ATOM     90  C   UNL A   1      43.116  35.407  34.397  1.00  0.00     0.173 A 
ATOM     91  F   UNL A   1      43.735  36.508  30.986  1.00  0.00    -0.203 F 
ATOM     92  C   UNL A   1      43.873  37.690  33.017  1.00  0.00     0.198 A 
ATOM     93  C   UNL A   1      43.354  36.593  35.086  1.00  0.00     0.198 A 
ATOM     94  F   UNL A   1      42.755  34.320  35.096  1.00  0.00    -0.203 F 
ATOM     95  F   UNL A   1      44.276  38.782  32.351  1.00  0.00    -0.200 F 
ATOM     96  C   UNL A   1      43.741  37.731  34.396  1.00  0.00     0.200 A 
ATOM     97  F   UNL A   1      43.208  36.634  36.418  1.00  0.00    -0.200 F 
ATOM     98  F   UNL A   1      43.994  38.867  35.063  1.00  0.00    -0.200 F 
ENDBRANCH  65  88
ENDBRANCH  39  40
ENDBRANCH  32  34
ENDBRANCH  31  32
ENDBRANCH  30  31
ENDBRANCH  29  30
ENDBRANCH  28  29
ENDBRANCH  27  28
ENDBRANCH   1  27
TORSDOF 21
ENDMDL
MODEL 3
REMARK VINA RESULT:     -11.1      4.297      9.264
REMARK SMILES COc1cc(OC)cc(-c2ccc([C@@H](C)C(=O)OCCOCCOCCOC(=O)c3ccc(-c4c5nc(c(-c6c(F)c(F)c(F)c(F)c6F)c6ccc([nH]6)c(-c6c(F)c(F)c(F)c(F)c6F)c6nc(c(-c7c(F)c(F)c(F)c(F)c7F)c7ccc4[nH]7)C=C6)C=C5)cc3)cc2F)c1
REMARK SMILES IDX 22 1 21 2 20 3 19 4 18 5 16 6 17 7 14 8 15 9 13 10 10 11
REMARK SMILES IDX 11 12 94 13 12 14 93 15 95 16 9 17 3 18 4 19 96 20 5 21 8 22
REMARK SMILES IDX 2 23 1 24 6 25 7 26 23 27 24 28 25 29 26 30 27 31 28 32
REMARK SMILES IDX 29 33 30 34 31 35 92 36 32 37 91 38 33 39 34 40 35 41 85 42
REMARK SMILES IDX 36 43 90 44 84 45 86 46 37 47 89 48 83 49 82 50 38 52 70 53
REMARK SMILES IDX 50 54 69 55 51 56 54 57 68 58 87 59 52 60 53 61 67 63 88 64
REMARK SMILES IDX 55 65 39 66 40 67 48 68 41 69 42 70 46 71 49 72 43 73 44 74
REMARK SMILES IDX 47 75 45 76 71 77 72 78 80 79 73 80 74 81 78 82 81 83 75 84
REMARK SMILES IDX 76 85 79 86 77 87 56 88 57 89 65 90 58 91 59 92 63 93 66 94
REMARK SMILES IDX 60 95 61 96 64 97 62 98
REMARK H PARENT 86 51 54 62
REMARK Flexibility Score: inf
ROOT
ATOM      1  C   UNL A   1      34.642  25.525  25.538  1.00  0.00     0.188 C 
ENDROOT
BRANCH   1   2
ATOM      2  O   UNL A   1      34.671  24.163  25.130  1.00  0.00    -0.376 OA
BRANCH   2   3
ATOM      3  C   UNL A   1      35.912  23.568  24.767  1.00  0.00     0.202 C 
BRANCH   3   4
ATOM      4  C   UNL A   1      35.990  22.036  24.668  1.00  0.00     0.261 C 
BRANCH   4   5
ATOM      5  O   UNL A   1      35.093  21.302  25.536  1.00  0.00    -0.463 OA
BRANCH   5   6
ATOM      6  C   UNL A   1      34.467  20.226  24.994  1.00  0.00     0.313 C 
ATOM      7  O   UNL A   1      35.047  19.179  24.714  1.00  0.00    -0.252 OA
BRANCH   6   8
ATOM      8  C   UNL A   1      32.959  20.365  24.760  1.00  0.00     0.126 C 
ATOM      9  C   UNL A   1      32.508  19.283  23.782  1.00  0.00     0.025 C 
BRANCH   8  10
ATOM     10  C   UNL A   1      32.335  21.711  24.391  1.00  0.00    -0.031 A 
ATOM     11  C   UNL A   1      31.144  24.257  23.819  1.00  0.00     0.018 A 
ATOM     12  C   UNL A   1      31.784  23.499  22.821  1.00  0.00     0.012 A 
ATOM     13  C   UNL A   1      31.117  23.713  25.107  1.00  0.00     0.131 A 
ATOM     14  C   UNL A   1      32.360  22.244  23.096  1.00  0.00     0.005 A 
ATOM     15  C   UNL A   1      31.686  22.465  25.390  1.00  0.00     0.044 A 
ATOM     16  F   UNL A   1      30.518  24.373  26.109  1.00  0.00    -0.206 F 
BRANCH  11  17
ATOM     17  C   UNL A   1      30.443  25.514  23.487  1.00  0.00    -0.008 A 
ATOM     18  C   UNL A   1      30.357  27.758  22.541  1.00  0.00     0.123 A 
ATOM     19  C   UNL A   1      29.049  27.906  23.003  1.00  0.00     0.092 A 
ATOM     20  C   UNL A   1      31.058  26.572  22.792  1.00  0.00     0.055 A 
ATOM     21  C   UNL A   1      28.420  26.875  23.697  1.00  0.00     0.123 A 
ATOM     22  C   UNL A   1      29.113  25.686  23.922  1.00  0.00     0.055 A 
BRANCH  18  23
ATOM     23  O   UNL A   1      30.882  28.865  21.928  1.00  0.00    -0.497 OA
ATOM     24  C   UNL A   1      30.071  30.032  21.990  1.00  0.00     0.278 C 
ENDBRANCH  18  23
BRANCH  21  25
ATOM     25  O   UNL A   1      27.142  27.142  24.106  1.00  0.00    -0.497 OA
ATOM     26  C   UNL A   1      26.538  28.316  23.575  1.00  0.00     0.278 C 
ENDBRANCH  21  25
ENDBRANCH  11  17
ENDBRANCH   8  10
ENDBRANCH   6   8
ENDBRANCH   5   6
ENDBRANCH   4   5
ENDBRANCH   3   4
ENDBRANCH   2   3
ENDBRANCH   1   2
BRANCH   1  27
ATOM     27  C   UNL A   1      33.865  26.547  24.697  1.00  0.00     0.188 C 
BRANCH  27  28
ATOM     28  O   UNL A   1      33.286  27.596  25.439  1.00  0.00    -0.376 OA
BRANCH  28  29
ATOM     29  C   UNL A   1      33.237  28.869  24.828  1.00  0.00     0.202 C 
BRANCH  29  30
ATOM     30  C   UNL A   1      32.265  29.876  25.462  1.00  0.00     0.261 C 
BRANCH  30  31
ATOM     31  O   UNL A   1      32.492  30.187  26.848  1.00  0.00    -0.460 OA
BRANCH  31  32
ATOM     32  C   UNL A   1      33.089  31.372  27.130  1.00  0.00     0.338 C 
ATOM     33  O   UNL A   1      32.586  32.474  27.088  1.00  0.00    -0.246 OA
BRANCH  32  34
ATOM     34  C   UNL A   1      34.421  31.068  27.717  1.00  0.00     0.060 A 
ATOM     35  C   UNL A   1      34.728  29.745  28.068  1.00  0.00     0.016 A 
ATOM     36  C   UNL A   1      35.361  32.081  27.907  1.00  0.00     0.016 A 
ATOM     37  C   UNL A   1      35.971  29.439  28.635  1.00  0.00     0.010 A 
ATOM     38  C   UNL A   1      36.594  31.777  28.494  1.00  0.00     0.010 A 
ATOM     39  C   UNL A   1      36.896  30.461  28.889  1.00  0.00    -0.014 A 
BRANCH  39  40
ATOM     40  C   UNL A   1      38.095  30.202  29.729  1.00  0.00     0.031 A 
ATOM     41  C   UNL A   1      39.147  29.264  29.202  1.00  0.00     0.074 A 
ATOM     42  C   UNL A   1      38.250  30.768  30.939  1.00  0.00     0.049 A 
ATOM     43  N   UNL A   1      40.224  28.802  29.787  1.00  0.00    -0.248 NA
ATOM     44  C   UNL A   1      38.951  28.776  27.828  1.00  0.00     0.031 C 
ATOM     45  C   UNL A   1      37.329  31.720  31.553  1.00  0.00     0.029 A 
ATOM     46  N   UNL A   1      39.240  30.600  31.880  1.00  0.00    -0.354 N 
ATOM     47  C   UNL A   1      40.822  27.958  28.859  1.00  0.00     0.074 A 
ATOM     48  C   UNL A   1      39.976  27.950  27.686  1.00  0.00     0.031 C 
ATOM     49  C   UNL A   1      37.786  32.040  32.777  1.00  0.00     0.029 A 
ATOM     50  C   UNL A   1      39.008  31.284  33.049  1.00  0.00     0.049 A 
ATOM     51  H   UNL A   1      40.038  30.045  31.729  1.00  0.00     0.167 HD
ATOM     52  C   UNL A   1      41.975  27.257  28.973  1.00  0.00     0.037 A 
ATOM     53  C   UNL A   1      39.688  31.273  34.214  1.00  0.00     0.037 A 
ATOM     54  C   UNL A   1      42.818  27.265  30.141  1.00  0.00     0.049 A 
ATOM     55  C   UNL A   1      40.931  30.427  34.344  1.00  0.00     0.074 A 
ATOM     56  C   UNL A   1      44.021  26.610  30.340  1.00  0.00     0.029 A 
ATOM     57  N   UNL A   1      42.539  27.954  31.311  1.00  0.00    -0.354 N 
ATOM     58  N   UNL A   1      41.507  29.654  33.456  1.00  0.00    -0.248 NA
ATOM     59  C   UNL A   1      41.621  30.455  35.644  1.00  0.00     0.031 C 
ATOM     60  C   UNL A   1      44.436  26.849  31.654  1.00  0.00     0.029 A 
ATOM     61  C   UNL A   1      43.531  27.712  32.249  1.00  0.00     0.049 A 
ATOM     62  H   UNL A   1      41.754  28.530  31.455  1.00  0.00     0.167 HD
ATOM     63  C   UNL A   1      42.639  29.132  34.073  1.00  0.00     0.074 A 
ATOM     64  C   UNL A   1      42.675  29.686  35.410  1.00  0.00     0.031 C 
ATOM     65  C   UNL A   1      43.564  28.275  33.577  1.00  0.00     0.037 A 
BRANCH  52  66
ATOM     66  C   UNL A   1      42.376  26.386  27.816  1.00  0.00     0.064 A 
ATOM     67  C   UNL A   1      43.302  26.813  26.852  1.00  0.00     0.173 A 
ATOM     68  C   UNL A   1      41.845  25.095  27.686  1.00  0.00     0.173 A 
ATOM     69  F   UNL A   1      43.831  28.045  26.922  1.00  0.00    -0.203 F 
ATOM     70  C   UNL A   1      43.659  25.991  25.786  1.00  0.00     0.198 A 
ATOM     71  C   UNL A   1      42.229  24.261  26.639  1.00  0.00     0.198 A 
ATOM     72  F   UNL A   1      40.958  24.634  28.581  1.00  0.00    -0.203 F 
ATOM     73  F   UNL A   1      44.504  26.440  24.848  1.00  0.00    -0.200 F 
ATOM     74  C   UNL A   1      43.128  24.713  25.685  1.00  0.00     0.200 A 
ATOM     75  F   UNL A   1      41.727  23.022  26.552  1.00  0.00    -0.200 F 
ATOM     76  F   UNL A   1      43.477  23.919  24.663  1.00  0.00    -0.200 F 
ENDBRANCH  52  66
BRANCH  53  77
ATOM     77  C   UNL A   1      39.199  32.076  35.367  1.00  0.00     0.064 A 
ATOM     78  C   UNL A   1      39.516  33.436  35.492  1.00  0.00     0.173 A 
ATOM     79  C   UNL A   1      38.427  31.493  36.384  1.00  0.00     0.173 A 
ATOM     80  F   UNL A   1      40.277  34.033  34.564  1.00  0.00    -0.203 F 
ATOM     81  C   UNL A   1      39.096  34.176  36.596  1.00  0.00     0.198 A 
ATOM     82  C   UNL A   1      37.981  32.242  37.471  1.00  0.00     0.198 A 
ATOM     83  F   UNL A   1      38.102  30.193  36.320  1.00  0.00    -0.203 F 
ATOM     84  F   UNL A   1      39.459  35.461  36.715  1.00  0.00    -0.200 F 
ATOM     85  C   UNL A   1      38.323  33.582  37.580  1.00  0.00     0.200 A 
ATOM     86  F   UNL A   1      37.225  31.665  38.415  1.00  0.00    -0.200 F 
ATOM     87  F   UNL A   1      37.917  34.294  38.640  1.00  0.00    -0.200 F 
ENDBRANCH  53  77
BRANCH  65  88
ATOM     88  C   UNL A   1      44.728  27.915  34.459  1.00  0.00     0.064 A 
ATOM     89  C   UNL A   1      44.710  26.783  35.287  1.00  0.00     0.173 A 
ATOM     90  C   UNL A   1      45.899  28.690  34.439  1.00  0.00     0.173 A 
ATOM     91  F   UNL A   1      43.613  26.012  35.355  1.00  0.00    -0.203 F 
ATOM     92  C   UNL A   1      45.807  26.458  36.081  1.00  0.00     0.198 A 
ATOM     93  C   UNL A   1      47.007  28.341  35.207  1.00  0.00     0.198 A 
ATOM     94  F   UNL A   1      45.976  29.778  33.658  1.00  0.00    -0.203 F 
ATOM     95  F   UNL A   1      45.747  25.400  36.904  1.00  0.00    -0.200 F 
ATOM     96  C   UNL A   1      46.957  27.231  36.034  1.00  0.00     0.200 A 
ATOM     97  F   UNL A   1      48.123  29.082  35.144  1.00  0.00    -0.200 F 
ATOM     98  F   UNL A   1      48.016  26.910  36.792  1.00  0.00    -0.200 F 
ENDBRANCH  65  88
ENDBRANCH  39  40
ENDBRANCH  32  34
ENDBRANCH  31  32
ENDBRANCH  30  31
ENDBRANCH  29  30
ENDBRANCH  28  29
ENDBRANCH  27  28
ENDBRANCH   1  27
TORSDOF 21
ENDMDL
