MODEL 1
REMARK VINA RESULT:     -11.2      0.000      0.000
REMARK SMILES C[C@@H]1CCc2cc(C(=O)OCCOCCOCCOC(=O)c3ccc(-c4c5nc(c(-c6c(F)c(F)c(F)c(F)c6F)c6ccc([nH]6)c(-c6c(F)c(F)c(F)c(F)c6F)c6nc(c(-c7c(F)c(F)c(F)c(F)c7F)c7ccc4[nH]7)C=C6)C=C5)cc3)sc2C1
REMARK SMILES IDX 15 1 14 2 13 3 12 4 11 5 10 6 8 7 9 8 7 9 1 10 2 11 3 12
REMARK SMILES IDX 87 13 4 14 86 15 5 16 85 17 6 18 16 19 17 20 18 21 19 22
REMARK SMILES IDX 20 23 21 24 22 25 23 26 84 27 24 28 83 29 25 30 26 31 27 32
REMARK SMILES IDX 77 33 28 34 82 35 76 36 78 37 29 38 81 39 75 40 74 41 30 43
REMARK SMILES IDX 62 44 42 45 61 46 43 47 46 48 60 49 79 50 44 51 45 52 59 54
REMARK SMILES IDX 80 55 47 56 31 57 32 58 40 59 33 60 34 61 38 62 41 63 35 64
REMARK SMILES IDX 36 65 39 66 37 67 63 68 64 69 72 70 65 71 66 72 70 73 73 74
REMARK SMILES IDX 67 75 68 76 71 77 69 78 48 79 49 80 57 81 50 82 51 83 55 84
REMARK SMILES IDX 58 85 52 86 53 87 56 88 54 89
REMARK H PARENT 78 42 46 53
REMARK Flexibility Score: inf
ROOT
ATOM      1  C   UNL A   1      39.622  21.396  26.181  1.00  0.00     0.188 C 
ENDROOT
BRANCH   1   2
ATOM      2  C   UNL A   1      38.861  22.735  26.260  1.00  0.00     0.188 C 
BRANCH   2   3
ATOM      3  O   UNL A   1      37.515  22.636  25.845  1.00  0.00    -0.376 OA
BRANCH   3   4
ATOM      4  C   UNL A   1      37.018  23.640  24.973  1.00  0.00     0.202 C 
BRANCH   4   5
ATOM      5  C   UNL A   1      35.504  23.816  24.706  1.00  0.00     0.261 C 
BRANCH   5   6
ATOM      6  O   UNL A   1      34.626  23.877  25.839  1.00  0.00    -0.459 OA
BRANCH   6   7
ATOM      7  C   UNL A   1      33.303  23.593  25.636  1.00  0.00     0.348 C 
ATOM      8  O   UNL A   1      32.408  24.409  25.751  1.00  0.00    -0.245 OA
BRANCH   7   9
ATOM      9  C   UNL A   1      33.186  22.236  25.120  1.00  0.00     0.113 A 
ATOM     10  C   UNL A   1      34.400  16.872  24.158  1.00  0.00     0.008 C 
ATOM     11  C   UNL A   1      32.969  17.433  24.172  1.00  0.00    -0.009 C 
ATOM     12  C   UNL A   1      32.616  18.043  22.787  1.00  0.00     0.008 C 
ATOM     13  C   UNL A   1      32.776  18.346  25.398  1.00  0.00     0.050 C 
ATOM     14  C   UNL A   1      32.134  19.504  22.721  1.00  0.00     0.037 C 
ATOM     15  C   UNL A   1      32.964  19.787  25.060  1.00  0.00     0.009 A 
ATOM     16  C   UNL A   1      32.629  20.344  23.849  1.00  0.00    -0.033 A 
ATOM     17  S   UNL A   1      33.556  20.927  26.171  1.00  0.00    -0.133 S 
ATOM     18  C   UNL A   1      32.719  21.774  23.899  1.00  0.00     0.031 A 
ENDBRANCH   7   9
ENDBRANCH   6   7
ENDBRANCH   5   6
ENDBRANCH   4   5
ENDBRANCH   3   4
ENDBRANCH   2   3
ENDBRANCH   1   2
BRANCH   1  19
ATOM     19  O   UNL A   1      40.351  20.876  27.288  1.00  0.00    -0.376 OA
BRANCH  19  20
ATOM     20  C   UNL A   1      41.753  20.636  27.246  1.00  0.00     0.202 C 
BRANCH  20  21
ATOM     21  C   UNL A   1      42.375  19.572  26.346  1.00  0.00     0.261 C 
BRANCH  21  22
ATOM     22  O   UNL A   1      42.872  20.067  25.121  1.00  0.00    -0.460 OA
BRANCH  22  23
ATOM     23  C   UNL A   1      44.215  20.130  25.070  1.00  0.00     0.338 C 
ATOM     24  O   UNL A   1      45.010  19.211  25.150  1.00  0.00    -0.246 OA
BRANCH  23  25
ATOM     25  C   UNL A   1      44.604  21.540  25.019  1.00  0.00     0.060 A 
ATOM     26  C   UNL A   1      45.677  21.898  25.836  1.00  0.00     0.016 A 
ATOM     27  C   UNL A   1      43.672  22.468  24.537  1.00  0.00     0.016 A 
ATOM     28  C   UNL A   1      45.636  23.133  26.429  1.00  0.00     0.010 A 
ATOM     29  C   UNL A   1      43.610  23.685  25.157  1.00  0.00     0.010 A 
ATOM     30  C   UNL A   1      44.532  23.950  26.166  1.00  0.00    -0.014 A 
BRANCH  30  31
ATOM     31  C   UNL A   1      44.373  25.141  26.963  1.00  0.00     0.031 A 
ATOM     32  C   UNL A   1      45.478  26.092  26.765  1.00  0.00     0.074 A 
ATOM     33  C   UNL A   1      43.264  25.346  27.698  1.00  0.00     0.049 A 
ATOM     34  N   UNL A   1      46.369  26.454  27.623  1.00  0.00    -0.248 NA
ATOM     35  C   UNL A   1      45.735  26.556  25.391  1.00  0.00     0.031 C 
ATOM     36  C   UNL A   1      42.030  24.551  27.678  1.00  0.00     0.029 A 
ATOM     37  N   UNL A   1      42.957  26.375  28.534  1.00  0.00    -0.354 N 
ATOM     38  C   UNL A   1      47.163  27.372  26.947  1.00  0.00     0.074 A 
ATOM     39  C   UNL A   1      46.884  27.213  25.549  1.00  0.00     0.031 C 
ATOM     40  C   UNL A   1      41.044  25.248  28.285  1.00  0.00     0.029 A 
ATOM     41  C   UNL A   1      41.605  26.469  28.839  1.00  0.00     0.049 A 
ATOM     42  H   UNL A   1      43.632  26.997  28.891  1.00  0.00     0.167 HD
ATOM     43  C   UNL A   1      47.704  28.420  27.621  1.00  0.00     0.037 A 
ATOM     44  C   UNL A   1      40.991  27.514  29.441  1.00  0.00     0.037 A 
ATOM     45  C   UNL A   1      47.685  28.178  29.041  1.00  0.00     0.049 A 
ATOM     46  C   UNL A   1      42.031  28.318  30.128  1.00  0.00     0.074 A 
ATOM     47  C   UNL A   1      48.402  27.415  29.935  1.00  0.00     0.029 A 
ATOM     48  N   UNL A   1      46.515  28.538  29.655  1.00  0.00    -0.354 N 
ATOM     49  N   UNL A   1      42.681  27.909  31.179  1.00  0.00    -0.248 NA
ATOM     50  C   UNL A   1      42.614  29.471  29.445  1.00  0.00     0.031 C 
ATOM     51  C   UNL A   1      47.553  27.218  31.065  1.00  0.00     0.029 A 
ATOM     52  C   UNL A   1      46.346  27.875  30.839  1.00  0.00     0.049 A 
ATOM     53  H   UNL A   1      45.875  29.192  29.290  1.00  0.00     0.167 HD
ATOM     54  C   UNL A   1      43.940  28.458  31.039  1.00  0.00     0.074 A 
ATOM     55  C   UNL A   1      43.788  29.542  30.080  1.00  0.00     0.031 C 
ATOM     56  C   UNL A   1      45.042  27.771  31.451  1.00  0.00     0.037 A 
BRANCH  43  57
ATOM     57  C   UNL A   1      47.753  29.836  27.082  1.00  0.00     0.064 A 
ATOM     58  C   UNL A   1      48.953  30.561  27.228  1.00  0.00     0.173 A 
ATOM     59  C   UNL A   1      46.618  30.610  26.745  1.00  0.00     0.173 A 
ATOM     60  F   UNL A   1      50.094  29.934  27.550  1.00  0.00    -0.203 F 
ATOM     61  C   UNL A   1      48.990  31.955  27.142  1.00  0.00     0.198 A 
ATOM     62  C   UNL A   1      46.671  31.995  26.607  1.00  0.00     0.198 A 
ATOM     63  F   UNL A   1      45.390  30.091  26.643  1.00  0.00    -0.203 F 
ATOM     64  F   UNL A   1      50.126  32.607  27.419  1.00  0.00    -0.200 F 
ATOM     65  C   UNL A   1      47.847  32.672  26.842  1.00  0.00     0.200 A 
ATOM     66  F   UNL A   1      45.546  32.671  26.333  1.00  0.00    -0.200 F 
ATOM     67  F   UNL A   1      47.864  34.010  26.825  1.00  0.00    -0.200 F 
ENDBRANCH  43  57
BRANCH  44  68
ATOM     68  C   UNL A   1      39.602  27.997  29.290  1.00  0.00     0.064 A 
ATOM     69  C   UNL A   1      38.748  28.102  30.400  1.00  0.00     0.173 A 
ATOM     70  C   UNL A   1      39.170  28.621  28.104  1.00  0.00     0.173 A 
ATOM     71  F   UNL A   1      39.102  27.564  31.576  1.00  0.00    -0.203 F 
ATOM     72  C   UNL A   1      37.551  28.821  30.338  1.00  0.00     0.198 A 
ATOM     73  C   UNL A   1      37.971  29.332  28.041  1.00  0.00     0.198 A 
ATOM     74  F   UNL A   1      39.948  28.637  27.012  1.00  0.00    -0.203 F 
ATOM     75  F   UNL A   1      36.797  28.958  31.438  1.00  0.00    -0.200 F 
ATOM     76  C   UNL A   1      37.170  29.446  29.162  1.00  0.00     0.200 A 
ATOM     77  F   UNL A   1      37.629  29.958  26.906  1.00  0.00    -0.200 F 
ATOM     78  F   UNL A   1      36.058  30.191  29.120  1.00  0.00    -0.200 F 
ENDBRANCH  44  68
BRANCH  56  79
ATOM     79  C   UNL A   1      44.826  26.718  32.489  1.00  0.00     0.064 A 
ATOM     80  C   UNL A   1      44.766  26.972  33.869  1.00  0.00     0.173 A 
ATOM     81  C   UNL A   1      44.618  25.403  32.057  1.00  0.00     0.173 A 
ATOM     82  F   UNL A   1      44.877  28.218  34.345  1.00  0.00    -0.203 F 
ATOM     83  C   UNL A   1      44.556  25.937  34.778  1.00  0.00     0.198 A 
ATOM     84  C   UNL A   1      44.370  24.378  32.964  1.00  0.00     0.198 A 
ATOM     85  F   UNL A   1      44.623  25.117  30.745  1.00  0.00    -0.203 F 
ATOM     86  F   UNL A   1      44.530  26.193  36.094  1.00  0.00    -0.200 F 
ATOM     87  C   UNL A   1      44.353  24.643  34.324  1.00  0.00     0.200 A 
ATOM     88  F   UNL A   1      44.134  23.137  32.517  1.00  0.00    -0.200 F 
ATOM     89  F   UNL A   1      44.122  23.652  35.196  1.00  0.00    -0.200 F 
ENDBRANCH  56  79
ENDBRANCH  30  31
ENDBRANCH  23  25
ENDBRANCH  22  23
ENDBRANCH  21  22
ENDBRANCH  20  21
ENDBRANCH  19  20
ENDBRANCH   1  19
TORSDOF 17
ENDMDL
MODEL 2
REMARK VINA RESULT:     -11.0      1.795      3.217
REMARK SMILES C[C@@H]1CCc2cc(C(=O)OCCOCCOCCOC(=O)c3ccc(-c4c5nc(c(-c6c(F)c(F)c(F)c(F)c6F)c6ccc([nH]6)c(-c6c(F)c(F)c(F)c(F)c6F)c6nc(c(-c7c(F)c(F)c(F)c(F)c7F)c7ccc4[nH]7)C=C6)C=C5)cc3)sc2C1
REMARK SMILES IDX 15 1 14 2 13 3 12 4 11 5 10 6 8 7 9 8 7 9 1 10 2 11 3 12
REMARK SMILES IDX 87 13 4 14 86 15 5 16 85 17 6 18 16 19 17 20 18 21 19 22
REMARK SMILES IDX 20 23 21 24 22 25 23 26 84 27 24 28 83 29 25 30 26 31 27 32
REMARK SMILES IDX 77 33 28 34 82 35 76 36 78 37 29 38 81 39 75 40 74 41 30 43
REMARK SMILES IDX 62 44 42 45 61 46 43 47 46 48 60 49 79 50 44 51 45 52 59 54
REMARK SMILES IDX 80 55 47 56 31 57 32 58 40 59 33 60 34 61 38 62 41 63 35 64
REMARK SMILES IDX 36 65 39 66 37 67 63 68 64 69 72 70 65 71 66 72 70 73 73 74
REMARK SMILES IDX 67 75 68 76 71 77 69 78 48 79 49 80 57 81 50 82 51 83 55 84
REMARK SMILES IDX 58 85 52 86 53 87 56 88 54 89
REMARK H PARENT 78 42 46 53
REMARK Flexibility Score: inf
ROOT
ATOM      1  C   UNL A   1      39.795  21.525  26.192  1.00  0.00     0.188 C 
ENDROOT
BRANCH   1   2
ATOM      2  C   UNL A   1      38.871  22.753  26.311  1.00  0.00     0.188 C 
BRANCH   2   3
ATOM      3  O   UNL A   1      37.581  22.535  25.781  1.00  0.00    -0.376 OA
BRANCH   3   4
ATOM      4  C   UNL A   1      37.086  23.475  24.839  1.00  0.00     0.202 C 
BRANCH   4   5
ATOM      5  C   UNL A   1      35.614  23.951  24.852  1.00  0.00     0.261 C 
BRANCH   5   6
ATOM      6  O   UNL A   1      34.920  23.946  26.107  1.00  0.00    -0.459 OA
BRANCH   6   7
ATOM      7  C   UNL A   1      33.560  23.794  26.082  1.00  0.00     0.348 C 
ATOM      8  O   UNL A   1      32.982  22.793  26.464  1.00  0.00    -0.245 OA
BRANCH   7   9
ATOM      9  C   UNL A   1      32.951  25.057  25.688  1.00  0.00     0.113 A 
ATOM     10  C   UNL A   1      30.836  29.060  22.422  1.00  0.00     0.008 C 
ATOM     11  C   UNL A   1      30.401  28.830  23.878  1.00  0.00    -0.009 C 
ATOM     12  C   UNL A   1      31.377  29.548  24.851  1.00  0.00     0.008 C 
ATOM     13  C   UNL A   1      30.163  27.327  24.123  1.00  0.00     0.050 C 
ATOM     14  C   UNL A   1      32.059  28.725  25.960  1.00  0.00     0.037 C 
ATOM     15  C   UNL A   1      31.349  26.664  24.739  1.00  0.00     0.009 A 
ATOM     16  C   UNL A   1      32.203  27.279  25.623  1.00  0.00    -0.033 A 
ATOM     17  S   UNL A   1      31.743  25.035  24.467  1.00  0.00    -0.133 S 
ATOM     18  C   UNL A   1      33.108  26.333  26.206  1.00  0.00     0.031 A 
ENDBRANCH   7   9
ENDBRANCH   6   7
ENDBRANCH   5   6
ENDBRANCH   4   5
ENDBRANCH   3   4
ENDBRANCH   2   3
ENDBRANCH   1   2
BRANCH   1  19
ATOM     19  O   UNL A   1      40.359  20.891  27.336  1.00  0.00    -0.376 OA
BRANCH  19  20
ATOM     20  C   UNL A   1      41.738  20.552  27.430  1.00  0.00     0.202 C 
BRANCH  20  21
ATOM     21  C   UNL A   1      42.385  19.500  26.533  1.00  0.00     0.261 C 
BRANCH  21  22
ATOM     22  O   UNL A   1      42.779  19.983  25.266  1.00  0.00    -0.460 OA
BRANCH  22  23
ATOM     23  C   UNL A   1      44.113  20.035  25.100  1.00  0.00     0.338 C 
ATOM     24  O   UNL A   1      44.902  19.108  25.092  1.00  0.00    -0.246 OA
BRANCH  23  25
ATOM     25  C   UNL A   1      44.511  21.443  25.043  1.00  0.00     0.060 A 
ATOM     26  C   UNL A   1      45.591  21.796  25.853  1.00  0.00     0.016 A 
ATOM     27  C   UNL A   1      43.582  22.376  24.565  1.00  0.00     0.016 A 
ATOM     28  C   UNL A   1      45.561  23.032  26.444  1.00  0.00     0.010 A 
ATOM     29  C   UNL A   1      43.531  23.594  25.183  1.00  0.00     0.010 A 
ATOM     30  C   UNL A   1      44.462  23.856  26.186  1.00  0.00    -0.014 A 
BRANCH  30  31
ATOM     31  C   UNL A   1      44.315  25.049  26.981  1.00  0.00     0.031 A 
ATOM     32  C   UNL A   1      45.431  25.987  26.783  1.00  0.00     0.074 A 
ATOM     33  C   UNL A   1      43.208  25.268  27.715  1.00  0.00     0.049 A 
ATOM     34  N   UNL A   1      46.325  26.340  27.642  1.00  0.00    -0.248 NA
ATOM     35  C   UNL A   1      45.694  26.447  25.409  1.00  0.00     0.031 C 
ATOM     36  C   UNL A   1      41.965  24.486  27.695  1.00  0.00     0.029 A 
ATOM     37  N   UNL A   1      42.911  26.301  28.550  1.00  0.00    -0.354 N 
ATOM     38  C   UNL A   1      47.130  27.249  26.966  1.00  0.00     0.074 A 
ATOM     39  C   UNL A   1      46.850  27.091  25.568  1.00  0.00     0.031 C 
ATOM     40  C   UNL A   1      40.986  25.195  28.300  1.00  0.00     0.029 A 
ATOM     41  C   UNL A   1      41.561  26.410  28.853  1.00  0.00     0.049 A 
ATOM     42  H   UNL A   1      43.593  26.916  28.907  1.00  0.00     0.167 HD
ATOM     43  C   UNL A   1      47.682  28.291  27.639  1.00  0.00     0.037 A 
ATOM     44  C   UNL A   1      40.958  27.463  29.454  1.00  0.00     0.037 A 
ATOM     45  C   UNL A   1      47.659  28.051  29.060  1.00  0.00     0.049 A 
ATOM     46  C   UNL A   1      42.006  28.256  30.140  1.00  0.00     0.074 A 
ATOM     47  C   UNL A   1      48.367  27.281  29.954  1.00  0.00     0.029 A 
ATOM     48  N   UNL A   1      46.492  28.425  29.672  1.00  0.00    -0.354 N 
ATOM     49  N   UNL A   1      42.651  27.840  31.193  1.00  0.00    -0.248 NA
ATOM     50  C   UNL A   1      42.602  29.401  29.457  1.00  0.00     0.031 C 
ATOM     51  C   UNL A   1      47.514  27.095  31.084  1.00  0.00     0.029 A 
ATOM     52  C   UNL A   1      46.315  27.764  30.856  1.00  0.00     0.049 A 
ATOM     53  H   UNL A   1      45.860  29.085  29.305  1.00  0.00     0.167 HD
ATOM     54  C   UNL A   1      43.916  28.376  31.053  1.00  0.00     0.074 A 
ATOM     55  C   UNL A   1      43.776  29.460  30.093  1.00  0.00     0.031 C 
ATOM     56  C   UNL A   1      45.009  27.676  31.467  1.00  0.00     0.037 A 
BRANCH  43  57
ATOM     57  C   UNL A   1      47.747  29.706  27.098  1.00  0.00     0.064 A 
ATOM     58  C   UNL A   1      48.959  30.414  27.236  1.00  0.00     0.173 A 
ATOM     59  C   UNL A   1      46.621  30.496  26.768  1.00  0.00     0.173 A 
ATOM     60  F   UNL A   1      50.092  29.771  27.551  1.00  0.00    -0.203 F 
ATOM     61  C   UNL A   1      49.015  31.807  27.149  1.00  0.00     0.198 A 
ATOM     62  C   UNL A   1      46.693  31.880  26.629  1.00  0.00     0.198 A 
ATOM     63  F   UNL A   1      45.386  29.994  26.675  1.00  0.00    -0.203 F 
ATOM     64  F   UNL A   1      50.162  32.444  27.418  1.00  0.00    -0.200 F 
ATOM     65  C   UNL A   1      47.880  32.540  26.856  1.00  0.00     0.200 A 
ATOM     66  F   UNL A   1      45.576  32.572  26.362  1.00  0.00    -0.200 F 
ATOM     67  F   UNL A   1      47.916  33.878  26.837  1.00  0.00    -0.200 F 
ENDBRANCH  43  57
BRANCH  44  68
ATOM     68  C   UNL A   1      39.574  27.961  29.301  1.00  0.00     0.064 A 
ATOM     69  C   UNL A   1      38.727  28.095  30.413  1.00  0.00     0.173 A 
ATOM     70  C   UNL A   1      39.145  28.571  28.106  1.00  0.00     0.173 A 
ATOM     71  F   UNL A   1      39.079  27.572  31.596  1.00  0.00    -0.203 F 
ATOM     72  C   UNL A   1      37.539  28.829  30.344  1.00  0.00     0.198 A 
ATOM     73  C   UNL A   1      37.954  29.296  28.037  1.00  0.00     0.198 A 
ATOM     74  F   UNL A   1      39.918  28.559  27.011  1.00  0.00    -0.203 F 
ATOM     75  F   UNL A   1      36.792  28.993  31.444  1.00  0.00    -0.200 F 
ATOM     76  C   UNL A   1      37.160  29.439  29.159  1.00  0.00     0.200 A 
ATOM     77  F   UNL A   1      37.616  29.908  26.893  1.00  0.00    -0.200 F 
ATOM     78  F   UNL A   1      36.058  30.198  29.111  1.00  0.00    -0.200 F 
ENDBRANCH  44  68
BRANCH  56  79
ATOM     79  C   UNL A   1      44.780  26.626  32.506  1.00  0.00     0.064 A 
ATOM     80  C   UNL A   1      44.519  25.277  32.219  1.00  0.00     0.173 A 
ATOM     81  C   UNL A   1      44.885  27.000  33.851  1.00  0.00     0.173 A 
ATOM     82  F   UNL A   1      44.484  24.837  30.955  1.00  0.00    -0.203 F 
ATOM     83  C   UNL A   1      44.320  24.354  33.243  1.00  0.00     0.198 A 
ATOM     84  C   UNL A   1      44.724  26.069  34.871  1.00  0.00     0.198 A 
ATOM     85  F   UNL A   1      45.176  28.270  34.175  1.00  0.00    -0.203 F 
ATOM     86  F   UNL A   1      44.042  23.075  32.951  1.00  0.00    -0.200 F 
ATOM     87  C   UNL A   1      44.428  24.749  34.567  1.00  0.00     0.200 A 
ATOM     88  F   UNL A   1      44.871  26.448  36.147  1.00  0.00    -0.200 F 
ATOM     89  F   UNL A   1      44.267  23.856  35.552  1.00  0.00    -0.200 F 
ENDBRANCH  56  79
ENDBRANCH  30  31
ENDBRANCH  23  25
ENDBRANCH  22  23
ENDBRANCH  21  22
ENDBRANCH  20  21
ENDBRANCH  19  20
ENDBRANCH   1  19
TORSDOF 17
ENDMDL
MODEL 3
REMARK VINA RESULT:     -10.9      5.488     10.736
REMARK SMILES C[C@@H]1CCc2cc(C(=O)OCCOCCOCCOC(=O)c3ccc(-c4c5nc(c(-c6c(F)c(F)c(F)c(F)c6F)c6ccc([nH]6)c(-c6c(F)c(F)c(F)c(F)c6F)c6nc(c(-c7c(F)c(F)c(F)c(F)c7F)c7ccc4[nH]7)C=C6)C=C5)cc3)sc2C1
REMARK SMILES IDX 15 1 14 2 13 3 12 4 11 5 10 6 8 7 9 8 7 9 1 10 2 11 3 12
REMARK SMILES IDX 87 13 4 14 86 15 5 16 85 17 6 18 16 19 17 20 18 21 19 22
REMARK SMILES IDX 20 23 21 24 22 25 23 26 84 27 24 28 83 29 25 30 26 31 27 32
REMARK SMILES IDX 77 33 28 34 82 35 76 36 78 37 29 38 81 39 75 40 74 41 30 43
REMARK SMILES IDX 62 44 42 45 61 46 43 47 46 48 60 49 79 50 44 51 45 52 59 54
REMARK SMILES IDX 80 55 47 56 31 57 32 58 40 59 33 60 34 61 38 62 41 63 35 64
REMARK SMILES IDX 36 65 39 66 37 67 63 68 64 69 72 70 65 71 66 72 70 73 73 74
REMARK SMILES IDX 67 75 68 76 71 77 69 78 48 79 49 80 57 81 50 82 51 83 55 84
REMARK SMILES IDX 58 85 52 86 53 87 56 88 54 89
REMARK H PARENT 78 42 46 53
REMARK Flexibility Score: inf
ROOT
ATOM      1  C   UNL A   1      34.039  32.096  28.030  1.00  0.00     0.188 C 
ENDROOT
BRANCH   1   2
ATOM      2  C   UNL A   1      33.210  30.988  27.348  1.00  0.00     0.188 C 
BRANCH   2   3
ATOM      3  O   UNL A   1      33.951  30.233  26.413  1.00  0.00    -0.376 OA
BRANCH   3   4
ATOM      4  C   UNL A   1      34.437  28.965  26.825  1.00  0.00     0.202 C 
BRANCH   4   5
ATOM      5  C   UNL A   1      33.751  27.646  26.396  1.00  0.00     0.261 C 
BRANCH   5   6
ATOM      6  O   UNL A   1      32.434  27.727  25.834  1.00  0.00    -0.459 OA
BRANCH   6   7
ATOM      7  C   UNL A   1      32.313  27.626  24.475  1.00  0.00     0.348 C 
ATOM      8  O   UNL A   1      32.873  26.779  23.805  1.00  0.00    -0.245 OA
BRANCH   7   9
ATOM      9  C   UNL A   1      31.305  28.574  24.019  1.00  0.00     0.113 A 
ATOM     10  C   UNL A   1      28.006  31.455  20.558  1.00  0.00     0.008 C 
ATOM     11  C   UNL A   1      27.635  31.127  22.012  1.00  0.00    -0.009 C 
ATOM     12  C   UNL A   1      28.257  32.176  22.976  1.00  0.00     0.008 C 
ATOM     13  C   UNL A   1      27.943  29.646  22.311  1.00  0.00     0.050 C 
ATOM     14  C   UNL A   1      29.151  31.684  24.130  1.00  0.00     0.037 C 
ATOM     15  C   UNL A   1      29.267  29.472  22.976  1.00  0.00     0.009 A 
ATOM     16  C   UNL A   1      29.814  30.378  23.852  1.00  0.00    -0.033 A 
ATOM     17  S   UNL A   1      30.226  28.085  22.775  1.00  0.00    -0.133 S 
ATOM     18  C   UNL A   1      30.979  29.836  24.490  1.00  0.00     0.031 A 
ENDBRANCH   7   9
ENDBRANCH   6   7
ENDBRANCH   5   6
ENDBRANCH   4   5
ENDBRANCH   3   4
ENDBRANCH   2   3
ENDBRANCH   1   2
BRANCH   1  19
ATOM     19  O   UNL A   1      34.164  33.398  27.468  1.00  0.00    -0.376 OA
BRANCH  19  20
ATOM     20  C   UNL A   1      34.631  34.518  28.212  1.00  0.00     0.202 C 
BRANCH  20  21
ATOM     21  C   UNL A   1      33.746  35.271  29.201  1.00  0.00     0.261 C 
BRANCH  21  22
ATOM     22  O   UNL A   1      33.353  34.509  30.322  1.00  0.00    -0.460 OA
BRANCH  22  23
ATOM     23  C   UNL A   1      33.529  35.144  31.495  1.00  0.00     0.338 C 
ATOM     24  O   UNL A   1      33.047  36.204  31.852  1.00  0.00    -0.246 OA
BRANCH  23  25
ATOM     25  C   UNL A   1      34.522  34.400  32.272  1.00  0.00     0.060 A 
ATOM     26  C   UNL A   1      35.656  35.121  32.647  1.00  0.00     0.016 A 
ATOM     27  C   UNL A   1      34.496  33.000  32.215  1.00  0.00     0.016 A 
ATOM     28  C   UNL A   1      36.854  34.455  32.659  1.00  0.00     0.010 A 
ATOM     29  C   UNL A   1      35.695  32.343  32.189  1.00  0.00     0.010 A 
ATOM     30  C   UNL A   1      36.856  33.102  32.308  1.00  0.00    -0.014 A 
BRANCH  30  31
ATOM     31  C   UNL A   1      38.131  32.465  32.096  1.00  0.00     0.031 A 
ATOM     32  C   UNL A   1      38.934  32.407  33.328  1.00  0.00     0.074 A 
ATOM     33  C   UNL A   1      38.446  31.910  30.911  1.00  0.00     0.049 A 
ATOM     34  N   UNL A   1      40.042  33.017  33.575  1.00  0.00    -0.248 NA
ATOM     35  C   UNL A   1      38.336  31.737  34.496  1.00  0.00     0.031 C 
ATOM     36  C   UNL A   1      37.550  31.700  29.767  1.00  0.00     0.029 A 
ATOM     37  N   UNL A   1      39.602  31.309  30.515  1.00  0.00    -0.354 N 
ATOM     38  C   UNL A   1      40.392  32.616  34.859  1.00  0.00     0.074 A 
ATOM     39  C   UNL A   1      39.216  32.043  35.449  1.00  0.00     0.031 C 
ATOM     40  C   UNL A   1      38.125  30.829  28.907  1.00  0.00     0.029 A 
ATOM     41  C   UNL A   1      39.467  30.525  29.377  1.00  0.00     0.049 A 
ATOM     42  H   UNL A   1      40.456  31.420  30.992  1.00  0.00     0.167 HD
ATOM     43  C   UNL A   1      41.701  32.464  35.185  1.00  0.00     0.037 A 
ATOM     44  C   UNL A   1      40.374  29.638  28.904  1.00  0.00     0.037 A 
ATOM     45  C   UNL A   1      42.546  33.142  34.235  1.00  0.00     0.049 A 
ATOM     46  C   UNL A   1      41.688  29.967  29.506  1.00  0.00     0.074 A 
ATOM     47  C   UNL A   1      42.908  34.443  33.970  1.00  0.00     0.029 A 
ATOM     48  N   UNL A   1      42.855  32.396  33.128  1.00  0.00    -0.354 N 
ATOM     49  N   UNL A   1      42.368  31.039  29.212  1.00  0.00    -0.248 NA
ATOM     50  C   UNL A   1      42.119  29.270  30.716  1.00  0.00     0.031 C 
ATOM     51  C   UNL A   1      43.324  34.473  32.605  1.00  0.00     0.029 A 
ATOM     52  C   UNL A   1      43.217  33.190  32.075  1.00  0.00     0.049 A 
ATOM     53  H   UNL A   1      42.819  31.412  33.094  1.00  0.00     0.167 HD
ATOM     54  C   UNL A   1      43.001  31.377  30.392  1.00  0.00     0.074 A 
ATOM     55  C   UNL A   1      42.969  30.175  31.210  1.00  0.00     0.031 C 
ATOM     56  C   UNL A   1      43.188  32.686  30.722  1.00  0.00     0.037 A 
BRANCH  43  57
ATOM     57  C   UNL A   1      42.239  31.306  36.004  1.00  0.00     0.064 A 
ATOM     58  C   UNL A   1      43.083  31.601  37.094  1.00  0.00     0.173 A 
ATOM     59  C   UNL A   1      42.242  29.955  35.586  1.00  0.00     0.173 A 
ATOM     60  F   UNL A   1      43.166  32.850  37.575  1.00  0.00    -0.203 F 
ATOM     61  C   UNL A   1      43.933  30.643  37.650  1.00  0.00     0.198 A 
ATOM     62  C   UNL A   1      43.052  28.991  36.180  1.00  0.00     0.198 A 
ATOM     63  F   UNL A   1      41.557  29.523  34.523  1.00  0.00    -0.203 F 
ATOM     64  F   UNL A   1      44.812  31.002  38.594  1.00  0.00    -0.200 F 
ATOM     65  C   UNL A   1      43.925  29.340  37.186  1.00  0.00     0.200 A 
ATOM     66  F   UNL A   1      43.040  27.738  35.702  1.00  0.00    -0.200 F 
ATOM     67  F   UNL A   1      44.785  28.436  37.671  1.00  0.00    -0.200 F 
ENDBRANCH  43  57
BRANCH  44  68
ATOM     68  C   UNL A   1      40.154  28.392  28.139  1.00  0.00     0.064 A 
ATOM     69  C   UNL A   1      40.792  28.177  26.907  1.00  0.00     0.173 A 
ATOM     70  C   UNL A   1      39.530  27.274  28.728  1.00  0.00     0.173 A 
ATOM     71  F   UNL A   1      41.437  29.181  26.298  1.00  0.00    -0.203 F 
ATOM     72  C   UNL A   1      40.837  26.911  26.316  1.00  0.00     0.198 A 
ATOM     73  C   UNL A   1      39.569  26.012  28.133  1.00  0.00     0.198 A 
ATOM     74  F   UNL A   1      38.958  27.363  29.937  1.00  0.00    -0.203 F 
ATOM     75  F   UNL A   1      41.515  26.731  25.175  1.00  0.00    -0.200 F 
ATOM     76  C   UNL A   1      40.236  25.827  26.937  1.00  0.00     0.200 A 
ATOM     77  F   UNL A   1      39.011  24.966  28.759  1.00  0.00    -0.200 F 
ATOM     78  F   UNL A   1      40.337  24.601  26.405  1.00  0.00    -0.200 F 
ENDBRANCH  44  68
BRANCH  56  79
ATOM     79  C   UNL A   1      43.185  33.669  29.597  1.00  0.00     0.064 A 
ATOM     80  C   UNL A   1      44.257  33.856  28.710  1.00  0.00     0.173 A 
ATOM     81  C   UNL A   1      42.020  34.415  29.380  1.00  0.00     0.173 A 
ATOM     82  F   UNL A   1      45.371  33.119  28.811  1.00  0.00    -0.203 F 
ATOM     83  C   UNL A   1      44.179  34.790  27.679  1.00  0.00     0.198 A 
ATOM     84  C   UNL A   1      41.930  35.319  28.328  1.00  0.00     0.198 A 
ATOM     85  F   UNL A   1      40.953  34.241  30.176  1.00  0.00    -0.203 F 
ATOM     86  F   UNL A   1      45.223  34.975  26.859  1.00  0.00    -0.200 F 
ATOM     87  C   UNL A   1      43.014  35.516  27.487  1.00  0.00     0.200 A 
ATOM     88  F   UNL A   1      40.788  35.988  28.121  1.00  0.00    -0.200 F 
ATOM     89  F   UNL A   1      42.927  36.394  26.478  1.00  0.00    -0.200 F 
ENDBRANCH  56  79
ENDBRANCH  30  31
ENDBRANCH  23  25
ENDBRANCH  22  23
ENDBRANCH  21  22
ENDBRANCH  20  21
ENDBRANCH  19  20
ENDBRANCH   1  19
TORSDOF 17
ENDMDL
