MODEL 1
REMARK VINA RESULT:     -10.9      0.000      0.000
REMARK SMILES O=C(OCCOCCOCCOC(=O)c1cn(C2C[NH+](CCC[C@@H]3CCCO3)C2)nn1)c1ccc(-c2c3nc(c(-c4c(F)c(F)c(F)c(F)c4F)c4ccc([nH]4)c(-c4c(F)c(F)c(F)c(F)c4F)c4nc(c(-c5c(F)c(F)c(F)c(F)c5F)c5ccc2[nH]5)C=C4)C=C3)cc1
REMARK SMILES IDX 9 1 8 2 7 3 6 4 5 5 4 6 3 7 2 8 1 9 32 10 33 11 94 12 34 13
REMARK SMILES IDX 93 14 35 15 36 16 37 17 87 18 38 19 92 20 86 21 88 22 39 23
REMARK SMILES IDX 91 24 85 25 84 26 40 28 72 29 52 30 71 31 53 32 56 33 70 34
REMARK SMILES IDX 89 35 54 36 55 37 69 39 90 40 57 41 41 42 42 43 50 44 43 45
REMARK SMILES IDX 44 46 48 47 51 48 45 49 46 50 49 51 47 52 73 53 74 54 82 55
REMARK SMILES IDX 75 56 76 57 80 58 83 59 77 60 78 61 81 62 79 63 58 64 59 65
REMARK SMILES IDX 67 66 60 67 61 68 65 69 68 70 62 71 63 72 66 73 64 74 10 75
REMARK SMILES IDX 11 76 12 77 13 78 14 79 15 80 16 81 31 82 17 83 30 84 18 85
REMARK SMILES IDX 19 86 29 87 20 88 21 90 22 91 23 92 24 93 25 94 28 95 26 96
REMARK SMILES IDX 27 97
REMARK H PARENT 88 27 56 38 20 89
REMARK Flexibility Score: inf
ROOT
ATOM      1  O   UNL A   1      40.106  21.486  27.234  1.00  0.00    -0.376 OA
ENDROOT
BRANCH   1   2
ATOM      2  C   UNL A   1      40.631  20.311  26.622  1.00  0.00     0.188 C 
BRANCH   2   3
ATOM      3  C   UNL A   1      42.123  19.892  26.698  1.00  0.00     0.188 C 
BRANCH   3   4
ATOM      4  O   UNL A   1      42.528  18.937  25.736  1.00  0.00    -0.376 OA
BRANCH   4   5
ATOM      5  C   UNL A   1      43.904  18.664  25.552  1.00  0.00     0.202 C 
BRANCH   5   6
ATOM      6  C   UNL A   1      44.580  18.964  24.209  1.00  0.00     0.261 C 
BRANCH   6   7
ATOM      7  O   UNL A   1      44.638  20.336  23.813  1.00  0.00    -0.460 OA
BRANCH   7   8
ATOM      8  C   UNL A   1      45.201  21.411  24.386  1.00  0.00     0.338 C 
ATOM      9  O   UNL A   1      46.426  21.524  24.357  1.00  0.00    -0.246 OA
BRANCH   8  10
ATOM     10  C   UNL A   1      44.454  22.433  25.160  1.00  0.00     0.060 A 
ATOM     11  C   UNL A   1      43.521  23.330  24.643  1.00  0.00     0.016 A 
ATOM     12  C   UNL A   1      44.861  22.558  26.505  1.00  0.00     0.016 A 
ATOM     13  C   UNL A   1      43.196  24.462  25.372  1.00  0.00     0.010 A 
ATOM     14  C   UNL A   1      44.530  23.677  27.239  1.00  0.00     0.010 A 
ATOM     15  C   UNL A   1      43.789  24.669  26.617  1.00  0.00    -0.014 A 
BRANCH  15  16
ATOM     16  C   UNL A   1      43.567  25.940  27.279  1.00  0.00     0.031 A 
ATOM     17  C   UNL A   1      44.577  26.960  26.920  1.00  0.00     0.074 A 
ATOM     18  C   UNL A   1      42.503  26.137  28.085  1.00  0.00     0.049 A 
ATOM     19  N   UNL A   1      45.470  27.483  27.692  1.00  0.00    -0.248 NA
ATOM     20  C   UNL A   1      44.746  27.293  25.496  1.00  0.00     0.031 C 
ATOM     21  C   UNL A   1      41.367  25.236  28.306  1.00  0.00     0.029 A 
ATOM     22  N   UNL A   1      42.162  27.235  28.816  1.00  0.00    -0.354 N 
ATOM     23  C   UNL A   1      46.165  28.390  26.897  1.00  0.00     0.074 A 
ATOM     24  C   UNL A   1      45.826  28.074  25.537  1.00  0.00     0.031 C 
ATOM     25  C   UNL A   1      40.367  25.913  28.914  1.00  0.00     0.029 A 
ATOM     26  C   UNL A   1      40.834  27.245  29.243  1.00  0.00     0.049 A 
ATOM     27  H   UNL A   1      42.797  27.958  29.025  1.00  0.00     0.167 HD
ATOM     28  C   UNL A   1      46.691  29.514  27.457  1.00  0.00     0.037 A 
ATOM     29  C   UNL A   1      40.167  28.316  29.748  1.00  0.00     0.037 A 
ATOM     30  C   UNL A   1      46.883  29.324  28.878  1.00  0.00     0.049 A 
ATOM     31  C   UNL A   1      41.190  29.284  30.223  1.00  0.00     0.074 A 
ATOM     32  C   UNL A   1      47.610  28.447  29.659  1.00  0.00     0.029 A 
ATOM     33  N   UNL A   1      45.960  29.892  29.722  1.00  0.00    -0.354 N 
ATOM     34  N   UNL A   1      41.969  29.060  31.247  1.00  0.00    -0.248 NA
ATOM     35  C   UNL A   1      41.681  30.263  29.266  1.00  0.00     0.031 C 
ATOM     36  C   UNL A   1      46.791  28.193  30.801  1.00  0.00     0.029 A 
ATOM     37  C   UNL A   1      45.646  28.983  30.694  1.00  0.00     0.049 A 
ATOM     38  H   UNL A   1      45.588  30.800  29.641  1.00  0.00     0.167 HD
ATOM     39  C   UNL A   1      43.217  29.507  30.838  1.00  0.00     0.074 A 
ATOM     40  C   UNL A   1      42.964  30.301  29.637  1.00  0.00     0.031 C 
ATOM     41  C   UNL A   1      44.356  28.940  31.336  1.00  0.00     0.037 A 
BRANCH  28  42
ATOM     42  C   UNL A   1      46.522  30.900  26.850  1.00  0.00     0.064 A 
ATOM     43  C   UNL A   1      47.642  31.758  26.846  1.00  0.00     0.173 A 
ATOM     44  C   UNL A   1      45.281  31.536  26.624  1.00  0.00     0.173 A 
ATOM     45  F   UNL A   1      48.881  31.268  27.013  1.00  0.00    -0.203 F 
ATOM     46  C   UNL A   1      47.509  33.149  26.802  1.00  0.00     0.198 A 
ATOM     47  C   UNL A   1      45.157  32.923  26.540  1.00  0.00     0.198 A 
ATOM     48  F   UNL A   1      44.121  30.878  26.566  1.00  0.00    -0.203 F 
ATOM     49  F   UNL A   1      48.589  33.922  26.975  1.00  0.00    -0.200 F 
ATOM     50  C   UNL A   1      46.264  33.729  26.675  1.00  0.00     0.200 A 
ATOM     51  F   UNL A   1      43.938  33.465  26.413  1.00  0.00    -0.200 F 
ATOM     52  F   UNL A   1      46.123  35.060  26.724  1.00  0.00    -0.200 F 
ENDBRANCH  28  42
BRANCH  29  53
ATOM     53  C   UNL A   1      38.756  28.713  29.507  1.00  0.00     0.064 A 
ATOM     54  C   UNL A   1      37.887  28.999  30.575  1.00  0.00     0.173 A 
ATOM     55  C   UNL A   1      38.309  29.098  28.226  1.00  0.00     0.173 A 
ATOM     56  F   UNL A   1      38.252  28.716  31.835  1.00  0.00    -0.203 F 
ATOM     57  C   UNL A   1      36.662  29.648  30.376  1.00  0.00     0.198 A 
ATOM     58  C   UNL A   1      37.085  29.738  28.028  1.00  0.00     0.198 A 
ATOM     59  F   UNL A   1      39.095  28.949  27.150  1.00  0.00    -0.203 F 
ATOM     60  F   UNL A   1      35.891  29.961  31.427  1.00  0.00    -0.200 F 
ATOM     61  C   UNL A   1      36.267  30.026  29.103  1.00  0.00     0.200 A 
ATOM     62  F   UNL A   1      36.736  30.133  26.796  1.00  0.00    -0.200 F 
ATOM     63  F   UNL A   1      35.125  30.702  28.918  1.00  0.00    -0.200 F 
ENDBRANCH  29  53
BRANCH  41  64
ATOM     64  C   UNL A   1      44.223  28.039  32.529  1.00  0.00     0.064 A 
ATOM     65  C   UNL A   1      44.011  26.652  32.454  1.00  0.00     0.173 A 
ATOM     66  C   UNL A   1      44.456  28.591  33.796  1.00  0.00     0.173 A 
ATOM     67  F   UNL A   1      43.883  26.038  31.270  1.00  0.00    -0.203 F 
ATOM     68  C   UNL A   1      43.990  25.863  33.604  1.00  0.00     0.198 A 
ATOM     69  C   UNL A   1      44.471  27.796  34.937  1.00  0.00     0.198 A 
ATOM     70  F   UNL A   1      44.720  29.901  33.919  1.00  0.00    -0.203 F 
ATOM     71  F   UNL A   1      43.775  24.543  33.510  1.00  0.00    -0.200 F 
ATOM     72  C   UNL A   1      44.226  26.436  34.843  1.00  0.00     0.200 A 
ATOM     73  F   UNL A   1      44.753  28.347  36.125  1.00  0.00    -0.200 F 
ATOM     74  F   UNL A   1      44.247  25.672  35.945  1.00  0.00    -0.200 F 
ENDBRANCH  41  64
ENDBRANCH  15  16
ENDBRANCH   8  10
ENDBRANCH   7   8
ENDBRANCH   6   7
ENDBRANCH   5   6
ENDBRANCH   4   5
ENDBRANCH   3   4
ENDBRANCH   2   3
ENDBRANCH   1   2
BRANCH   1  75
ATOM     75  C   UNL A   1      39.378  22.444  26.492  1.00  0.00     0.202 C 
BRANCH  75  76
ATOM     76  C   UNL A   1      38.275  21.913  25.562  1.00  0.00     0.261 C 
BRANCH  76  77
ATOM     77  O   UNL A   1      36.941  22.243  25.965  1.00  0.00    -0.458 OA
BRANCH  77  78
ATOM     78  C   UNL A   1      35.977  21.374  25.559  1.00  0.00     0.360 C 
ATOM     79  O   UNL A   1      36.173  20.220  25.178  1.00  0.00    -0.244 OA
BRANCH  78  80
ATOM     80  C   UNL A   1      34.657  21.944  25.680  1.00  0.00     0.190 A 
ATOM     81  C   UNL A   1      34.282  23.265  25.569  1.00  0.00     0.147 A 
ATOM     82  N   UNL A   1      33.545  21.184  25.953  1.00  0.00    -0.123 NA
ATOM     83  N   UNL A   1      32.923  23.219  25.692  1.00  0.00    -0.237 N 
ATOM     84  N   UNL A   1      32.500  21.988  26.021  1.00  0.00    -0.066 NA
BRANCH  83  85
ATOM     85  C   UNL A   1      31.979  24.249  25.433  1.00  0.00     0.218 C 
ATOM     86  C   UNL A   1      32.431  25.677  25.795  1.00  0.00     0.295 C 
ATOM     87  C   UNL A   1      32.029  24.754  23.973  1.00  0.00     0.295 C 
ATOM     88  N   UNL A   1      31.995  26.138  24.473  1.00  0.00    -0.331 N 
ATOM     89  H   UNL A   1      32.511  26.872  23.988  1.00  0.00     0.348 HD
BRANCH  88  90
ATOM     90  C   UNL A   1      30.664  26.753  24.461  1.00  0.00     0.262 C 
BRANCH  90  91
ATOM     91  C   UNL A   1      30.139  27.696  23.353  1.00  0.00     0.064 C 
BRANCH  91  92
ATOM     92  C   UNL A   1      28.651  28.082  23.259  1.00  0.00     0.038 C 
BRANCH  92  93
ATOM     93  C   UNL A   1      28.224  29.388  22.574  1.00  0.00     0.118 C 
ATOM     94  C   UNL A   1      29.282  30.426  22.248  1.00  0.00     0.034 C 
ATOM     95  O   UNL A   1      27.203  30.028  23.358  1.00  0.00    -0.378 OA
ATOM     96  C   UNL A   1      28.573  31.739  22.486  1.00  0.00     0.031 C 
ATOM     97  C   UNL A   1      27.536  31.405  23.530  1.00  0.00     0.160 C 
ENDBRANCH  92  93
ENDBRANCH  91  92
ENDBRANCH  90  91
ENDBRANCH  88  90
ENDBRANCH  83  85
ENDBRANCH  78  80
ENDBRANCH  77  78
ENDBRANCH  76  77
ENDBRANCH  75  76
ENDBRANCH   1  75
TORSDOF 22
ENDMDL
MODEL 2
REMARK VINA RESULT:     -10.5      2.309      3.700
REMARK SMILES O=C(OCCOCCOCCOC(=O)c1cn(C2C[NH+](CCC[C@@H]3CCCO3)C2)nn1)c1ccc(-c2c3nc(c(-c4c(F)c(F)c(F)c(F)c4F)c4ccc([nH]4)c(-c4c(F)c(F)c(F)c(F)c4F)c4nc(c(-c5c(F)c(F)c(F)c(F)c5F)c5ccc2[nH]5)C=C4)C=C3)cc1
REMARK SMILES IDX 9 1 8 2 7 3 6 4 5 5 4 6 3 7 2 8 1 9 32 10 33 11 94 12 34 13
REMARK SMILES IDX 93 14 35 15 36 16 37 17 87 18 38 19 92 20 86 21 88 22 39 23
REMARK SMILES IDX 91 24 85 25 84 26 40 28 72 29 52 30 71 31 53 32 56 33 70 34
REMARK SMILES IDX 89 35 54 36 55 37 69 39 90 40 57 41 41 42 42 43 50 44 43 45
REMARK SMILES IDX 44 46 48 47 51 48 45 49 46 50 49 51 47 52 73 53 74 54 82 55
REMARK SMILES IDX 75 56 76 57 80 58 83 59 77 60 78 61 81 62 79 63 58 64 59 65
REMARK SMILES IDX 67 66 60 67 61 68 65 69 68 70 62 71 63 72 66 73 64 74 10 75
REMARK SMILES IDX 11 76 12 77 13 78 14 79 15 80 16 81 31 82 17 83 30 84 18 85
REMARK SMILES IDX 19 86 29 87 20 88 21 90 22 91 23 92 24 93 25 94 28 95 26 96
REMARK SMILES IDX 27 97
REMARK H PARENT 88 27 56 38 20 89
REMARK Flexibility Score: inf
ROOT
ATOM      1  O   UNL A   1      38.691  22.216  26.283  1.00  0.00    -0.376 OA
ENDROOT
BRANCH   1   2
ATOM      2  C   UNL A   1      40.049  21.802  26.153  1.00  0.00     0.188 C 
BRANCH   2   3
ATOM      3  C   UNL A   1      40.581  20.424  26.630  1.00  0.00     0.188 C 
BRANCH   3   4
ATOM      4  O   UNL A   1      41.947  20.402  26.993  1.00  0.00    -0.376 OA
BRANCH   4   5
ATOM      5  C   UNL A   1      42.589  19.166  27.241  1.00  0.00     0.202 C 
BRANCH   5   6
ATOM      6  C   UNL A   1      42.994  18.256  26.075  1.00  0.00     0.261 C 
BRANCH   6   7
ATOM      7  O   UNL A   1      44.137  18.657  25.316  1.00  0.00    -0.460 OA
BRANCH   7   8
ATOM      8  C   UNL A   1      44.333  19.672  24.459  1.00  0.00     0.338 C 
ATOM      9  O   UNL A   1      44.350  19.433  23.252  1.00  0.00    -0.246 OA
BRANCH   8  10
ATOM     10  C   UNL A   1      44.647  21.063  24.869  1.00  0.00     0.060 A 
ATOM     11  C   UNL A   1      45.682  21.451  25.718  1.00  0.00     0.016 A 
ATOM     12  C   UNL A   1      43.702  22.022  24.447  1.00  0.00     0.016 A 
ATOM     13  C   UNL A   1      45.630  22.697  26.321  1.00  0.00     0.010 A 
ATOM     14  C   UNL A   1      43.654  23.267  25.036  1.00  0.00     0.010 A 
ATOM     15  C   UNL A   1      44.558  23.545  26.049  1.00  0.00    -0.014 A 
BRANCH  15  16
ATOM     16  C   UNL A   1      44.436  24.765  26.823  1.00  0.00     0.031 A 
ATOM     17  C   UNL A   1      45.554  25.706  26.595  1.00  0.00     0.074 A 
ATOM     18  C   UNL A   1      43.366  24.993  27.613  1.00  0.00     0.049 A 
ATOM     19  N   UNL A   1      46.464  26.063  27.439  1.00  0.00    -0.248 NA
ATOM     20  C   UNL A   1      45.810  26.152  25.215  1.00  0.00     0.031 C 
ATOM     21  C   UNL A   1      42.140  24.195  27.713  1.00  0.00     0.029 A 
ATOM     22  N   UNL A   1      43.107  26.048  28.437  1.00  0.00    -0.354 N 
ATOM     23  C   UNL A   1      47.275  26.964  26.756  1.00  0.00     0.074 A 
ATOM     24  C   UNL A   1      46.960  26.813  25.362  1.00  0.00     0.031 C 
ATOM     25  C   UNL A   1      41.187  24.910  28.354  1.00  0.00     0.029 A 
ATOM     26  C   UNL A   1      41.771  26.152  28.824  1.00  0.00     0.049 A 
ATOM     27  H   UNL A   1      43.801  26.679  28.733  1.00  0.00     0.167 HD
ATOM     28  C   UNL A   1      47.887  27.972  27.437  1.00  0.00     0.037 A 
ATOM     29  C   UNL A   1      41.193  27.234  29.410  1.00  0.00     0.037 A 
ATOM     30  C   UNL A   1      48.003  27.632  28.838  1.00  0.00     0.049 A 
ATOM     31  C   UNL A   1      42.287  28.044  30.006  1.00  0.00     0.074 A 
ATOM     32  C   UNL A   1      48.610  26.616  29.552  1.00  0.00     0.029 A 
ATOM     33  N   UNL A   1      47.109  28.209  29.706  1.00  0.00    -0.354 N 
ATOM     34  N   UNL A   1      42.999  27.648  31.026  1.00  0.00    -0.248 NA
ATOM     35  C   UNL A   1      42.908  29.054  29.163  1.00  0.00     0.031 C 
ATOM     36  C   UNL A   1      47.726  26.342  30.639  1.00  0.00     0.029 A 
ATOM     37  C   UNL A   1      46.670  27.250  30.576  1.00  0.00     0.049 A 
ATOM     38  H   UNL A   1      46.832  29.154  29.702  1.00  0.00     0.167 HD
ATOM     39  C   UNL A   1      44.300  28.002  30.699  1.00  0.00     0.074 A 
ATOM     40  C   UNL A   1      44.173  28.926  29.573  1.00  0.00     0.031 C 
ATOM     41  C   UNL A   1      45.358  27.279  31.173  1.00  0.00     0.037 A 
BRANCH  28  42
ATOM     42  C   UNL A   1      47.878  29.418  26.963  1.00  0.00     0.064 A 
ATOM     43  C   UNL A   1      49.070  30.161  27.093  1.00  0.00     0.173 A 
ATOM     44  C   UNL A   1      46.714  30.189  26.744  1.00  0.00     0.173 A 
ATOM     45  F   UNL A   1      50.248  29.541  27.267  1.00  0.00    -0.203 F 
ATOM     46  C   UNL A   1      49.068  31.556  27.180  1.00  0.00     0.198 A 
ATOM     47  C   UNL A   1      46.723  31.583  26.791  1.00  0.00     0.198 A 
ATOM     48  F   UNL A   1      45.504  29.654  26.569  1.00  0.00    -0.203 F 
ATOM     49  F   UNL A   1      50.202  32.203  27.477  1.00  0.00    -0.200 F 
ATOM     50  C   UNL A   1      47.889  32.263  27.055  1.00  0.00     0.200 A 
ATOM     51  F   UNL A   1      45.567  32.250  26.664  1.00  0.00    -0.200 F 
ATOM     52  F   UNL A   1      47.868  33.591  27.227  1.00  0.00    -0.200 F 
ENDBRANCH  28  42
BRANCH  29  53
ATOM     53  C   UNL A   1      39.837  27.792  29.167  1.00  0.00     0.064 A 
ATOM     54  C   UNL A   1      38.914  27.944  30.216  1.00  0.00     0.173 A 
ATOM     55  C   UNL A   1      39.520  28.453  27.963  1.00  0.00     0.173 A 
ATOM     56  F   UNL A   1      39.160  27.395  31.415  1.00  0.00    -0.203 F 
ATOM     57  C   UNL A   1      37.759  28.724  30.076  1.00  0.00     0.198 A 
ATOM     58  C   UNL A   1      38.366  29.224  27.821  1.00  0.00     0.198 A 
ATOM     59  F   UNL A   1      40.372  28.444  26.928  1.00  0.00    -0.203 F 
ATOM     60  F   UNL A   1      36.936  28.898  31.120  1.00  0.00    -0.200 F 
ATOM     61  C   UNL A   1      37.492  29.373  28.881  1.00  0.00     0.200 A 
ATOM     62  F   UNL A   1      38.142  29.878  26.672  1.00  0.00    -0.200 F 
ATOM     63  F   UNL A   1      36.421  30.170  28.764  1.00  0.00    -0.200 F 
ENDBRANCH  29  53
BRANCH  41  64
ATOM     64  C   UNL A   1      45.090  26.288  32.269  1.00  0.00     0.064 A 
ATOM     65  C   UNL A   1      45.128  26.596  33.640  1.00  0.00     0.173 A 
ATOM     66  C   UNL A   1      44.647  25.011  31.903  1.00  0.00     0.173 A 
ATOM     67  F   UNL A   1      45.443  27.827  34.062  1.00  0.00    -0.203 F 
ATOM     68  C   UNL A   1      44.777  25.646  34.599  1.00  0.00     0.198 A 
ATOM     69  C   UNL A   1      44.262  24.079  32.861  1.00  0.00     0.198 A 
ATOM     70  F   UNL A   1      44.538  24.685  30.605  1.00  0.00    -0.203 F 
ATOM     71  F   UNL A   1      44.829  25.957  35.903  1.00  0.00    -0.200 F 
ATOM     72  C   UNL A   1      44.339  24.392  34.208  1.00  0.00     0.200 A 
ATOM     73  F   UNL A   1      43.789  22.887  32.474  1.00  0.00    -0.200 F 
ATOM     74  F   UNL A   1      43.962  23.493  35.128  1.00  0.00    -0.200 F 
ENDBRANCH  41  64
ENDBRANCH  15  16
ENDBRANCH   8  10
ENDBRANCH   7   8
ENDBRANCH   6   7
ENDBRANCH   5   6
ENDBRANCH   4   5
ENDBRANCH   3   4
ENDBRANCH   2   3
ENDBRANCH   1   2
BRANCH   1  75
ATOM     75  C   UNL A   1      37.733  21.933  25.283  1.00  0.00     0.202 C 
BRANCH  75  76
ATOM     76  C   UNL A   1      37.006  23.133  24.656  1.00  0.00     0.261 C 
BRANCH  76  77
ATOM     77  O   UNL A   1      35.598  23.183  24.917  1.00  0.00    -0.458 OA
BRANCH  77  78
ATOM     78  C   UNL A   1      34.890  24.042  24.134  1.00  0.00     0.360 C 
ATOM     79  O   UNL A   1      34.892  24.051  22.904  1.00  0.00    -0.244 OA
BRANCH  78  80
ATOM     80  C   UNL A   1      34.069  24.929  24.921  1.00  0.00     0.190 A 
ATOM     81  C   UNL A   1      34.312  26.242  25.266  1.00  0.00     0.147 A 
ATOM     82  N   UNL A   1      32.871  24.538  25.469  1.00  0.00    -0.123 NA
ATOM     83  N   UNL A   1      33.182  26.606  25.938  1.00  0.00    -0.237 N 
ATOM     84  N   UNL A   1      32.371  25.557  26.143  1.00  0.00    -0.066 NA
BRANCH  83  85
ATOM     85  C   UNL A   1      32.771  27.909  26.331  1.00  0.00     0.218 C 
ATOM     86  C   UNL A   1      33.719  28.646  27.297  1.00  0.00     0.295 C 
ATOM     87  C   UNL A   1      33.187  28.999  25.316  1.00  0.00     0.295 C 
ATOM     88  N   UNL A   1      33.659  29.830  26.435  1.00  0.00    -0.331 N 
ATOM     89  H   UNL A   1      34.480  30.426  26.321  1.00  0.00     0.348 HD
BRANCH  88  90
ATOM     90  C   UNL A   1      32.702  30.848  26.878  1.00  0.00     0.262 C 
BRANCH  90  91
ATOM     91  C   UNL A   1      33.088  32.197  27.529  1.00  0.00     0.064 C 
BRANCH  91  92
ATOM     92  C   UNL A   1      34.512  32.463  28.052  1.00  0.00     0.038 C 
BRANCH  92  93
ATOM     93  C   UNL A   1      34.736  33.306  29.315  1.00  0.00     0.118 C 
ATOM     94  C   UNL A   1      36.133  33.813  29.621  1.00  0.00     0.034 C 
ATOM     95  O   UNL A   1      34.267  32.581  30.465  1.00  0.00    -0.378 OA
ATOM     96  C   UNL A   1      36.215  33.733  31.128  1.00  0.00     0.031 C 
ATOM     97  C   UNL A   1      35.266  32.615  31.483  1.00  0.00     0.160 C 
ENDBRANCH  92  93
ENDBRANCH  91  92
ENDBRANCH  90  91
ENDBRANCH  88  90
ENDBRANCH  83  85
ENDBRANCH  78  80
ENDBRANCH  77  78
ENDBRANCH  76  77
ENDBRANCH  75  76
ENDBRANCH   1  75
TORSDOF 22
ENDMDL
MODEL 3
REMARK VINA RESULT:     -10.3      4.211     10.211
REMARK SMILES O=C(OCCOCCOCCOC(=O)c1cn(C2C[NH+](CCC[C@@H]3CCCO3)C2)nn1)c1ccc(-c2c3nc(c(-c4c(F)c(F)c(F)c(F)c4F)c4ccc([nH]4)c(-c4c(F)c(F)c(F)c(F)c4F)c4nc(c(-c5c(F)c(F)c(F)c(F)c5F)c5ccc2[nH]5)C=C4)C=C3)cc1
REMARK SMILES IDX 9 1 8 2 7 3 6 4 5 5 4 6 3 7 2 8 1 9 32 10 33 11 94 12 34 13
REMARK SMILES IDX 93 14 35 15 36 16 37 17 87 18 38 19 92 20 86 21 88 22 39 23
REMARK SMILES IDX 91 24 85 25 84 26 40 28 72 29 52 30 71 31 53 32 56 33 70 34
REMARK SMILES IDX 89 35 54 36 55 37 69 39 90 40 57 41 41 42 42 43 50 44 43 45
REMARK SMILES IDX 44 46 48 47 51 48 45 49 46 50 49 51 47 52 73 53 74 54 82 55
REMARK SMILES IDX 75 56 76 57 80 58 83 59 77 60 78 61 81 62 79 63 58 64 59 65
REMARK SMILES IDX 67 66 60 67 61 68 65 69 68 70 62 71 63 72 66 73 64 74 10 75
REMARK SMILES IDX 11 76 12 77 13 78 14 79 15 80 16 81 31 82 17 83 30 84 18 85
REMARK SMILES IDX 19 86 29 87 20 88 21 90 22 91 23 92 24 93 25 94 28 95 26 96
REMARK SMILES IDX 27 97
REMARK H PARENT 88 27 56 38 20 89
REMARK Flexibility Score: inf
ROOT
ATOM      1  O   UNL A   1      33.289  37.152  30.063  1.00  0.00    -0.376 OA
ENDROOT
BRANCH   1   2
ATOM      2  C   UNL A   1      32.944  37.325  31.435  1.00  0.00     0.188 C 
BRANCH   2   3
ATOM      3  C   UNL A   1      33.985  37.416  32.582  1.00  0.00     0.188 C 
BRANCH   3   4
ATOM      4  O   UNL A   1      33.900  36.390  33.552  1.00  0.00    -0.376 OA
BRANCH   4   5
ATOM      5  C   UNL A   1      34.869  35.360  33.572  1.00  0.00     0.202 C 
BRANCH   5   6
ATOM      6  C   UNL A   1      35.398  34.768  32.260  1.00  0.00     0.261 C 
BRANCH   6   7
ATOM      7  O   UNL A   1      35.873  33.421  32.310  1.00  0.00    -0.460 OA
BRANCH   7   8
ATOM      8  C   UNL A   1      35.597  32.345  31.557  1.00  0.00     0.338 C 
ATOM      9  O   UNL A   1      34.422  32.007  31.416  1.00  0.00    -0.246 OA
BRANCH   8  10
ATOM     10  C   UNL A   1      36.625  31.453  30.964  1.00  0.00     0.060 A 
ATOM     11  C   UNL A   1      36.609  30.060  30.987  1.00  0.00     0.016 A 
ATOM     12  C   UNL A   1      37.762  32.125  30.470  1.00  0.00     0.016 A 
ATOM     13  C   UNL A   1      37.786  29.367  30.755  1.00  0.00     0.010 A 
ATOM     14  C   UNL A   1      38.933  31.438  30.226  1.00  0.00     0.010 A 
ATOM     15  C   UNL A   1      38.955  30.077  30.481  1.00  0.00    -0.014 A 
BRANCH  15  16
ATOM     16  C   UNL A   1      40.203  29.341  30.416  1.00  0.00     0.031 A 
ATOM     17  C   UNL A   1      40.873  29.225  31.730  1.00  0.00     0.074 A 
ATOM     18  C   UNL A   1      40.635  28.791  29.262  1.00  0.00     0.049 A 
ATOM     19  N   UNL A   1      41.991  29.761  32.089  1.00  0.00    -0.248 NA
ATOM     20  C   UNL A   1      40.121  28.608  32.836  1.00  0.00     0.031 C 
ATOM     21  C   UNL A   1      39.914  28.695  27.989  1.00  0.00     0.029 A 
ATOM     22  N   UNL A   1      41.789  28.112  29.006  1.00  0.00    -0.354 N 
ATOM     23  C   UNL A   1      42.197  29.351  33.403  1.00  0.00     0.074 A 
ATOM     24  C   UNL A   1      40.936  28.839  33.866  1.00  0.00     0.031 C 
ATOM     25  C   UNL A   1      40.537  27.805  27.184  1.00  0.00     0.029 A 
ATOM     26  C   UNL A   1      41.763  27.371  27.824  1.00  0.00     0.049 A 
ATOM     27  H   UNL A   1      42.573  28.143  29.601  1.00  0.00     0.167 HD
ATOM     28  C   UNL A   1      43.465  29.174  33.865  1.00  0.00     0.037 A 
ATOM     29  C   UNL A   1      42.655  26.410  27.466  1.00  0.00     0.037 A 
ATOM     30  C   UNL A   1      44.400  29.938  33.068  1.00  0.00     0.049 A 
ATOM     31  C   UNL A   1      43.887  26.638  28.266  1.00  0.00     0.074 A 
ATOM     32  C   UNL A   1      44.565  31.276  32.766  1.00  0.00     0.029 A 
ATOM     33  N   UNL A   1      45.139  29.255  32.132  1.00  0.00    -0.354 N 
ATOM     34  N   UNL A   1      44.666  27.673  28.105  1.00  0.00    -0.248 NA
ATOM     35  C   UNL A   1      43.973  25.985  29.563  1.00  0.00     0.031 C 
ATOM     36  C   UNL A   1      45.003  31.303  31.408  1.00  0.00     0.029 A 
ATOM     37  C   UNL A   1      45.155  29.986  30.977  1.00  0.00     0.049 A 
ATOM     38  H   UNL A   1      45.582  28.387  32.272  1.00  0.00     0.167 HD
ATOM     39  C   UNL A   1      44.985  28.071  29.395  1.00  0.00     0.074 A 
ATOM     40  C   UNL A   1      44.587  26.953  30.249  1.00  0.00     0.031 C 
ATOM     41  C   UNL A   1      45.256  29.381  29.672  1.00  0.00     0.037 A 
BRANCH  28  42
ATOM     42  C   UNL A   1      43.900  27.942  34.646  1.00  0.00     0.064 A 
ATOM     43  C   UNL A   1      43.563  26.677  34.120  1.00  0.00     0.173 A 
ATOM     44  C   UNL A   1      44.282  27.941  36.006  1.00  0.00     0.173 A 
ATOM     45  F   UNL A   1      43.220  26.541  32.829  1.00  0.00    -0.203 F 
ATOM     46  C   UNL A   1      43.444  25.545  34.931  1.00  0.00     0.198 A 
ATOM     47  C   UNL A   1      44.200  26.800  36.804  1.00  0.00     0.198 A 
ATOM     48  F   UNL A   1      44.659  29.041  36.661  1.00  0.00    -0.203 F 
ATOM     49  F   UNL A   1      42.955  24.410  34.416  1.00  0.00    -0.200 F 
ATOM     50  C   UNL A   1      43.738  25.615  36.278  1.00  0.00     0.200 A 
ATOM     51  F   UNL A   1      44.493  26.890  38.108  1.00  0.00    -0.200 F 
ATOM     52  F   UNL A   1      43.539  24.559  37.076  1.00  0.00    -0.200 F 
ENDBRANCH  28  42
BRANCH  29  53
ATOM     53  C   UNL A   1      42.386  25.120  26.779  1.00  0.00     0.064 A 
ATOM     54  C   UNL A   1      43.130  24.726  25.653  1.00  0.00     0.173 A 
ATOM     55  C   UNL A   1      41.593  24.121  27.377  1.00  0.00     0.173 A 
ATOM     56  F   UNL A   1      43.954  25.597  25.051  1.00  0.00    -0.203 F 
ATOM     57  C   UNL A   1      43.100  23.411  25.172  1.00  0.00     0.198 A 
ATOM     58  C   UNL A   1      41.557  22.812  26.893  1.00  0.00     0.198 A 
ATOM     59  F   UNL A   1      40.910  24.366  28.504  1.00  0.00    -0.203 F 
ATOM     60  F   UNL A   1      43.873  23.058  24.135  1.00  0.00    -0.200 F 
ATOM     61  C   UNL A   1      42.320  22.453  25.799  1.00  0.00     0.200 A 
ATOM     62  F   UNL A   1      40.830  21.887  27.535  1.00  0.00    -0.200 F 
ATOM     63  F   UNL A   1      42.338  21.180  25.379  1.00  0.00    -0.200 F 
ENDBRANCH  29  53
BRANCH  41  64
ATOM     64  C   UNL A   1      45.480  30.307  28.512  1.00  0.00     0.064 A 
ATOM     65  C   UNL A   1      44.454  30.978  27.825  1.00  0.00     0.173 A 
ATOM     66  C   UNL A   1      46.802  30.627  28.175  1.00  0.00     0.173 A 
ATOM     67  F   UNL A   1      43.169  30.801  28.162  1.00  0.00    -0.203 F 
ATOM     68  C   UNL A   1      44.744  31.896  26.816  1.00  0.00     0.198 A 
ATOM     69  C   UNL A   1      47.088  31.570  27.194  1.00  0.00     0.198 A 
ATOM     70  F   UNL A   1      47.820  30.057  28.839  1.00  0.00    -0.203 F 
ATOM     71  F   UNL A   1      43.749  32.518  26.166  1.00  0.00    -0.200 F 
ATOM     72  C   UNL A   1      46.060  32.195  26.506  1.00  0.00     0.200 A 
ATOM     73  F   UNL A   1      48.362  31.893  26.936  1.00  0.00    -0.200 F 
ATOM     74  F   UNL A   1      46.341  33.107  25.565  1.00  0.00    -0.200 F 
ENDBRANCH  41  64
ENDBRANCH  15  16
ENDBRANCH   8  10
ENDBRANCH   7   8
ENDBRANCH   6   7
ENDBRANCH   5   6
ENDBRANCH   4   5
ENDBRANCH   3   4
ENDBRANCH   2   3
ENDBRANCH   1   2
BRANCH   1  75
ATOM     75  C   UNL A   1      32.867  36.018  29.332  1.00  0.00     0.202 C 
BRANCH  75  76
ATOM     76  C   UNL A   1      33.965  35.073  28.819  1.00  0.00     0.261 C 
BRANCH  76  77
ATOM     77  O   UNL A   1      33.595  33.690  28.779  1.00  0.00    -0.458 OA
BRANCH  77  78
ATOM     78  C   UNL A   1      34.383  32.897  28.004  1.00  0.00     0.360 C 
ATOM     79  O   UNL A   1      35.569  33.102  27.751  1.00  0.00    -0.244 OA
BRANCH  78  80
ATOM     80  C   UNL A   1      33.676  31.727  27.544  1.00  0.00     0.190 A 
ATOM     81  C   UNL A   1      34.120  30.422  27.495  1.00  0.00     0.147 A 
ATOM     82  N   UNL A   1      32.394  31.781  27.054  1.00  0.00    -0.123 NA
ATOM     83  N   UNL A   1      33.028  29.733  27.056  1.00  0.00    -0.237 N 
ATOM     84  N   UNL A   1      32.033  30.562  26.699  1.00  0.00    -0.066 NA
BRANCH  83  85
ATOM     85  C   UNL A   1      32.824  28.326  27.030  1.00  0.00     0.218 C 
ATOM     86  C   UNL A   1      31.420  27.847  27.448  1.00  0.00     0.295 C 
ATOM     87  C   UNL A   1      32.431  27.806  25.628  1.00  0.00     0.295 C 
ATOM     88  N   UNL A   1      31.364  27.004  26.250  1.00  0.00    -0.331 N 
ATOM     89  H   UNL A   1      30.480  26.861  25.762  1.00  0.00     0.348 HD
BRANCH  88  90
ATOM     90  C   UNL A   1      31.721  25.601  26.485  1.00  0.00     0.262 C 
BRANCH  90  91
ATOM     91  C   UNL A   1      30.825  24.392  26.127  1.00  0.00     0.064 C 
BRANCH  91  92
ATOM     92  C   UNL A   1      31.256  23.348  25.080  1.00  0.00     0.038 C 
BRANCH  92  93
ATOM     93  C   UNL A   1      32.267  22.251  25.440  1.00  0.00     0.118 C 
ATOM     94  C   UNL A   1      33.592  22.202  24.701  1.00  0.00     0.034 C 
ATOM     95  O   UNL A   1      31.642  20.963  25.313  1.00  0.00    -0.378 OA
ATOM     96  C   UNL A   1      33.867  20.722  24.568  1.00  0.00     0.031 C 
ATOM     97  C   UNL A   1      32.493  20.099  24.562  1.00  0.00     0.160 C 
ENDBRANCH  92  93
ENDBRANCH  91  92
ENDBRANCH  90  91
ENDBRANCH  88  90
ENDBRANCH  83  85
ENDBRANCH  78  80
ENDBRANCH  77  78
ENDBRANCH  76  77
ENDBRANCH  75  76
ENDBRANCH   1  75
TORSDOF 22
ENDMDL
