MODEL 1
REMARK VINA RESULT:     -10.6      0.000      0.000
REMARK SMILES Cc1ccc(S(=O)(=O)n2cc(C(=O)C(=O)N[C@@H](Cc3c[nH]c4ccccc34)C(=O)OCCOCCOCCOC(=O)c3ccc(-c4c5nc(c(-c6c(F)c(F)c(F)c(F)c6F)c6ccc([nH]6)c(-c6c(F)c(F)c(F)c(F)c6F)c6nc(c(-c7c(F)c(F)c(F)c(F)c7F)c7ccc4[nH]7)C=C6)C=C5)cc3)c3ccccc32)cc1
REMARK SMILES IDX 33 1 32 2 31 3 30 4 28 5 29 6 17 7 16 8 14 9 15 10 12 12
REMARK SMILES IDX 13 13 11 14 9 15 10 16 110 17 105 18 109 19 106 20 108 21
REMARK SMILES IDX 107 22 6 23 7 24 8 25 5 26 1 27 2 28 3 29 112 30 4 31 111 32
REMARK SMILES IDX 18 33 19 34 20 35 27 36 21 37 22 38 26 39 23 41 25 42 24 43
REMARK SMILES IDX 34 44 35 45 36 46 37 47 38 48 39 49 40 50 41 51 42 52 43 53
REMARK SMILES IDX 104 54 44 55 103 56 45 57 46 58 47 59 97 60 48 61 102 62
REMARK SMILES IDX 96 63 98 64 49 65 101 66 95 67 94 68 50 70 82 71 62 72 81 73
REMARK SMILES IDX 63 74 66 75 80 76 99 77 64 78 65 79 79 81 100 82 67 83 51 84
REMARK SMILES IDX 52 85 60 86 53 87 54 88 58 89 61 90 55 91 56 92 59 93 57 94
REMARK SMILES IDX 83 95 84 96 92 97 85 98 86 99 90 100 93 101 87 102 88 103
REMARK SMILES IDX 91 104 89 105 68 106 69 107 77 108 70 109 71 110 75 111
REMARK SMILES IDX 78 112 72 113 73 114 76 115 74 116
REMARK H PARENT 16 11 21 40 98 69 66 80
REMARK Flexibility Score: inf
ROOT
ATOM      1  O   UNL A   1      37.877  23.555  26.133  1.00  0.00    -0.376 OA
ENDROOT
BRANCH   1   2
ATOM      2  C   UNL A   1      39.139  24.098  26.397  1.00  0.00     0.202 C 
BRANCH   2   3
ATOM      3  C   UNL A   1      39.633  24.315  27.859  1.00  0.00     0.261 C 
BRANCH   3   4
ATOM      4  O   UNL A   1      39.576  25.783  28.890  1.00  0.00    -0.462 OA
BRANCH   4   5
ATOM      5  C   UNL A   1      39.948  27.206  29.010  1.00  0.00     0.329 C 
ATOM      6  O   UNL A   1      40.267  27.576  30.143  1.00  0.00    -0.250 OA
BRANCH   5   7
ATOM      7  C   UNL A   1      39.963  28.555  27.952  1.00  0.00     0.197 C 
BRANCH   7   8
ATOM      8  N   UNL A   1      40.491  28.876  26.595  1.00  0.00    -0.335 N 
ATOM      9  C   UNL A   1      41.760  28.756  26.115  1.00  0.00     0.293 C 
ATOM     10  O   UNL A   1      42.025  29.012  24.950  1.00  0.00    -0.265 OA
ATOM     11  H   UNL A   1      39.829  29.225  25.955  1.00  0.00     0.164 HD
BRANCH   9  12
ATOM     12  C   UNL A   1      42.792  28.206  27.089  1.00  0.00     0.252 C 
ATOM     13  O   UNL A   1      42.731  28.554  28.266  1.00  0.00    -0.283 OA
BRANCH  12  14
ATOM     14  C   UNL A   1      43.965  27.590  26.556  1.00  0.00     0.054 A 
ATOM     15  N   UNL A   1      45.503  27.039  25.090  1.00  0.00    -0.240 N 
ATOM     16  C   UNL A   1      44.206  26.738  25.481  1.00  0.00     0.117 A 
ATOM     17  C   UNL A   1      45.875  28.208  25.801  1.00  0.00     0.065 A 
ATOM     18  C   UNL A   1      45.202  28.062  26.999  1.00  0.00     0.012 A 
ATOM     19  C   UNL A   1      47.004  29.035  25.703  1.00  0.00     0.028 A 
ATOM     20  C   UNL A   1      45.701  28.624  28.178  1.00  0.00     0.011 A 
ATOM     21  C   UNL A   1      47.553  29.494  26.903  1.00  0.00     0.002 A 
ATOM     22  C   UNL A   1      46.930  29.270  28.128  1.00  0.00     0.001 A 
BRANCH  15  23
ATOM     23  S   UNL A   1      46.881  26.041  25.027  1.00  0.00     0.268 S 
ATOM     24  O   UNL A   1      47.464  26.398  23.740  1.00  0.00    -0.201 OA
ATOM     25  O   UNL A   1      46.220  24.754  25.242  1.00  0.00    -0.201 OA
BRANCH  23  26
ATOM     26  C   UNL A   1      48.282  25.775  25.996  1.00  0.00     0.088 A 
ATOM     27  C   UNL A   1      50.638  25.320  29.539  1.00  0.00     0.044 C 
ATOM     28  C   UNL A   1      49.886  25.426  28.251  1.00  0.00    -0.051 A 
ATOM     29  C   UNL A   1      48.557  25.059  28.322  1.00  0.00     0.005 A 
ATOM     30  C   UNL A   1      50.424  25.899  27.027  1.00  0.00     0.005 A 
ATOM     31  C   UNL A   1      47.795  25.198  27.201  1.00  0.00     0.022 A 
ATOM     32  C   UNL A   1      49.617  26.093  25.876  1.00  0.00     0.022 A 
ENDBRANCH  23  26
ENDBRANCH  15  23
ENDBRANCH  12  14
ENDBRANCH   9  12
ENDBRANCH   7   8
BRANCH   7  33
ATOM     33  C   UNL A   1      38.536  29.126  27.810  1.00  0.00     0.074 C 
BRANCH  33  34
ATOM     34  C   UNL A   1      38.401  30.176  28.823  1.00  0.00    -0.020 A 
ATOM     35  C   UNL A   1      36.785  30.888  29.147  1.00  0.00     0.087 A 
ATOM     36  C   UNL A   1      39.730  31.253  29.779  1.00  0.00     0.003 A 
ATOM     37  N   UNL A   1      37.047  32.448  30.203  1.00  0.00    -0.361 N 
ATOM     38  C   UNL A   1      38.854  32.646  30.553  1.00  0.00     0.046 A 
ATOM     39  C   UNL A   1      41.126  31.183  30.078  1.00  0.00     0.010 A 
ATOM     40  H   UNL A   1      36.336  33.053  30.514  1.00  0.00     0.166 HD
ATOM     41  C   UNL A   1      39.577  33.448  31.458  1.00  0.00     0.026 A 
ATOM     42  C   UNL A   1      41.700  32.166  30.921  1.00  0.00     0.001 A 
ATOM     43  C   UNL A   1      40.971  33.194  31.588  1.00  0.00     0.002 A 
ENDBRANCH  33  34
ENDBRANCH   7  33
ENDBRANCH   5   7
ENDBRANCH   4   5
ENDBRANCH   3   4
ENDBRANCH   2   3
ENDBRANCH   1   2
BRANCH   1  44
ATOM     44  C   UNL A   1      37.908  22.162  25.969  1.00  0.00     0.188 C 
BRANCH  44  45
ATOM     45  C   UNL A   1      39.212  21.521  25.512  1.00  0.00     0.188 C 
BRANCH  45  46
ATOM     46  O   UNL A   1      39.648  20.396  26.229  1.00  0.00    -0.376 OA
BRANCH  46  47
ATOM     47  C   UNL A   1      40.965  19.973  26.469  1.00  0.00     0.202 C 
BRANCH  47  48
ATOM     48  C   UNL A   1      41.911  21.058  26.081  1.00  0.00     0.261 C 
BRANCH  48  49
ATOM     49  O   UNL A   1      42.403  21.914  27.162  1.00  0.00    -0.460 OA
BRANCH  49  50
ATOM     50  C   UNL A   1      43.227  22.993  27.043  1.00  0.00     0.338 C 
ATOM     51  O   UNL A   1      43.333  23.599  25.980  1.00  0.00    -0.246 OA
BRANCH  50  52
ATOM     52  C   UNL A   1      43.993  23.442  28.254  1.00  0.00     0.060 A 
ATOM     53  C   UNL A   1      43.781  22.762  29.409  1.00  0.00     0.016 A 
ATOM     54  C   UNL A   1      44.775  24.587  28.396  1.00  0.00     0.016 A 
ATOM     55  C   UNL A   1      44.187  23.380  30.609  1.00  0.00     0.010 A 
ATOM     56  C   UNL A   1      44.866  25.289  29.676  1.00  0.00     0.010 A 
ATOM     57  C   UNL A   1      44.417  24.745  30.897  1.00  0.00    -0.014 A 
BRANCH  57  58
ATOM     58  C   UNL A   1      44.280  25.520  32.587  1.00  0.00     0.031 A 
ATOM     59  C   UNL A   1      44.375  27.742  32.929  1.00  0.00     0.074 A 
ATOM     60  C   UNL A   1      44.126  24.421  33.839  1.00  0.00     0.049 A 
ATOM     61  N   UNL A   1      44.665  28.490  34.091  1.00  0.00    -0.248 NA
ATOM     62  C   UNL A   1      44.178  29.144  32.022  1.00  0.00     0.031 C 
ATOM     63  C   UNL A   1      43.139  24.403  35.040  1.00  0.00     0.029 A 
ATOM     64  N   UNL A   1      44.756  23.164  34.320  1.00  0.00    -0.354 N 
ATOM     65  C   UNL A   1      43.735  29.473  34.160  1.00  0.00     0.074 A 
ATOM     66  C   UNL A   1      43.847  30.098  32.896  1.00  0.00     0.031 C 
ATOM     67  C   UNL A   1      43.479  23.513  36.013  1.00  0.00     0.029 A 
ATOM     68  C   UNL A   1      44.668  22.783  35.641  1.00  0.00     0.049 A 
ATOM     69  H   UNL A   1      45.244  22.594  33.684  1.00  0.00     0.167 HD
ATOM     70  C   UNL A   1      42.728  29.342  35.073  1.00  0.00     0.037 A 
ATOM     71  C   UNL A   1      45.654  22.223  36.434  1.00  0.00     0.037 A 
ATOM     72  C   UNL A   1      42.901  28.266  36.088  1.00  0.00     0.049 A 
ATOM     73  C   UNL A   1      45.918  23.290  37.466  1.00  0.00     0.074 A 
ATOM     74  C   UNL A   1      42.085  27.227  36.519  1.00  0.00     0.029 A 
ATOM     75  N   UNL A   1      44.132  28.046  36.723  1.00  0.00    -0.354 N 
ATOM     76  N   UNL A   1      45.573  24.529  37.230  1.00  0.00    -0.248 NA
ATOM     77  C   UNL A   1      46.458  23.096  38.808  1.00  0.00     0.031 C 
ATOM     78  C   UNL A   1      42.816  26.419  37.439  1.00  0.00     0.029 A 
ATOM     79  C   UNL A   1      44.104  26.924  37.555  1.00  0.00     0.049 A 
ATOM     80  H   UNL A   1      44.926  28.615  36.595  1.00  0.00     0.167 HD
ATOM     81  C   UNL A   1      45.674  25.252  38.367  1.00  0.00     0.074 A 
ATOM     82  C   UNL A   1      46.269  24.327  39.324  1.00  0.00     0.031 C 
ATOM     83  C   UNL A   1      45.240  26.546  38.417  1.00  0.00     0.037 A 
BRANCH  70  84
ATOM     84  C   UNL A   1      41.433  30.095  34.923  1.00  0.00     0.064 A 
ATOM     85  C   UNL A   1      41.198  31.203  35.752  1.00  0.00     0.173 A 
ATOM     86  C   UNL A   1      40.403  29.797  34.005  1.00  0.00     0.173 A 
ATOM     87  F   UNL A   1      42.038  31.521  36.745  1.00  0.00    -0.203 F 
ATOM     88  C   UNL A   1      40.088  32.024  35.586  1.00  0.00     0.198 A 
ATOM     89  C   UNL A   1      39.340  30.667  33.779  1.00  0.00     0.198 A 
ATOM     90  F   UNL A   1      40.339  28.635  33.344  1.00  0.00    -0.203 F 
ATOM     91  F   UNL A   1      39.902  33.055  36.420  1.00  0.00    -0.200 F 
ATOM     92  C   UNL A   1      39.193  31.792  34.561  1.00  0.00     0.200 A 
ATOM     93  F   UNL A   1      38.460  30.400  32.805  1.00  0.00    -0.200 F 
ATOM     94  F   UNL A   1      38.177  32.636  34.344  1.00  0.00    -0.200 F 
ENDBRANCH  70  84
BRANCH  71  95
ATOM     95  C   UNL A   1      46.720  21.264  35.910  1.00  0.00     0.064 A 
ATOM     96  C   UNL A   1      46.345  19.964  35.523  1.00  0.00     0.173 A 
ATOM     97  C   UNL A   1      47.981  21.671  35.449  1.00  0.00     0.173 A 
ATOM     98  F   UNL A   1      45.308  19.360  36.122  1.00  0.00    -0.203 F 
ATOM     99  C   UNL A   1      46.994  19.285  34.481  1.00  0.00     0.198 A 
ATOM    100  C   UNL A   1      48.550  21.069  34.308  1.00  0.00     0.198 A 
ATOM    101  F   UNL A   1      48.549  22.791  35.923  1.00  0.00    -0.203 F 
ATOM    102  F   UNL A   1      46.529  18.102  34.049  1.00  0.00    -0.200 F 
ATOM    103  C   UNL A   1      48.008  19.912  33.783  1.00  0.00     0.200 A 
ATOM    104  F   UNL A   1      49.499  21.719  33.617  1.00  0.00    -0.200 F 
ATOM    105  F   UNL A   1      48.380  19.461  32.573  1.00  0.00    -0.200 F 
ENDBRANCH  71  95
BRANCH  83 106
ATOM    106  C   UNL A   1      45.775  27.524  39.410  1.00  0.00     0.064 A 
ATOM    107  C   UNL A   1      46.686  28.543  39.087  1.00  0.00     0.173 A 
ATOM    108  C   UNL A   1      45.259  27.556  40.722  1.00  0.00     0.173 A 
ATOM    109  F   UNL A   1      47.113  28.750  37.834  1.00  0.00    -0.203 F 
ATOM    110  C   UNL A   1      47.155  29.431  40.047  1.00  0.00     0.198 A 
ATOM    111  C   UNL A   1      45.628  28.527  41.636  1.00  0.00     0.198 A 
ATOM    112  F   UNL A   1      44.363  26.665  41.166  1.00  0.00    -0.203 F 
ATOM    113  F   UNL A   1      48.120  30.301  39.724  1.00  0.00    -0.200 F 
ATOM    114  C   UNL A   1      46.613  29.433  41.317  1.00  0.00     0.200 A 
ATOM    115  F   UNL A   1      45.013  28.574  42.825  1.00  0.00    -0.200 F 
ATOM    116  F   UNL A   1      47.027  30.320  42.228  1.00  0.00    -0.200 F 
ENDBRANCH  83 106
ENDBRANCH  57  58
ENDBRANCH  50  52
ENDBRANCH  49  50
ENDBRANCH  48  49
ENDBRANCH  47  48
ENDBRANCH  46  47
ENDBRANCH  45  46
ENDBRANCH  44  45
ENDBRANCH   1  44
TORSDOF 24
ENDMDL
MODEL 2
REMARK VINA RESULT:     -10.0      6.925     12.994
REMARK SMILES Cc1ccc(S(=O)(=O)n2cc(C(=O)C(=O)N[C@@H](Cc3c[nH]c4ccccc34)C(=O)OCCOCCOCCOC(=O)c3ccc(-c4c5nc(c(-c6c(F)c(F)c(F)c(F)c6F)c6ccc([nH]6)c(-c6c(F)c(F)c(F)c(F)c6F)c6nc(c(-c7c(F)c(F)c(F)c(F)c7F)c7ccc4[nH]7)C=C6)C=C5)cc3)c3ccccc32)cc1
REMARK SMILES IDX 33 1 32 2 31 3 30 4 28 5 29 6 17 7 16 8 14 9 15 10 12 12
REMARK SMILES IDX 13 13 11 14 9 15 10 16 110 17 105 18 109 19 106 20 108 21
REMARK SMILES IDX 107 22 6 23 7 24 8 25 5 26 1 27 2 28 3 29 112 30 4 31 111 32
REMARK SMILES IDX 18 33 19 34 20 35 27 36 21 37 22 38 26 39 23 41 25 42 24 43
REMARK SMILES IDX 34 44 35 45 36 46 37 47 38 48 39 49 40 50 41 51 42 52 43 53
REMARK SMILES IDX 104 54 44 55 103 56 45 57 46 58 47 59 97 60 48 61 102 62
REMARK SMILES IDX 96 63 98 64 49 65 101 66 95 67 94 68 50 70 82 71 62 72 81 73
REMARK SMILES IDX 63 74 66 75 80 76 99 77 64 78 65 79 79 81 100 82 67 83 51 84
REMARK SMILES IDX 52 85 60 86 53 87 54 88 58 89 61 90 55 91 56 92 59 93 57 94
REMARK SMILES IDX 83 95 84 96 92 97 85 98 86 99 90 100 93 101 87 102 88 103
REMARK SMILES IDX 91 104 89 105 68 106 69 107 77 108 70 109 71 110 75 111
REMARK SMILES IDX 78 112 72 113 73 114 76 115 74 116
REMARK H PARENT 16 11 21 40 98 69 66 80
REMARK Flexibility Score: inf
ROOT
ATOM      1  O   UNL A   1      43.121  27.968  34.186  1.00  0.00    -0.376 OA
ENDROOT
BRANCH   1   2
ATOM      2  C   UNL A   1      43.729  28.797  33.236  1.00  0.00     0.202 C 
BRANCH   2   3
ATOM      3  C   UNL A   1      43.141  28.942  31.800  1.00  0.00     0.261 C 
BRANCH   3   4
ATOM      4  O   UNL A   1      43.948  29.399  30.264  1.00  0.00    -0.462 OA
BRANCH   4   5
ATOM      5  C   UNL A   1      44.959  30.265  29.626  1.00  0.00     0.329 C 
ATOM      6  O   UNL A   1      45.782  30.771  30.392  1.00  0.00    -0.250 OA
BRANCH   5   7
ATOM      7  C   UNL A   1      45.239  30.844  28.037  1.00  0.00     0.197 C 
BRANCH   7   8
ATOM      8  N   UNL A   1      45.672  30.280  26.726  1.00  0.00    -0.335 N 
ATOM      9  C   UNL A   1      45.855  28.978  26.368  1.00  0.00     0.293 C 
ATOM     10  O   UNL A   1      46.162  28.672  25.226  1.00  0.00    -0.265 OA
ATOM     11  H   UNL A   1      45.851  30.941  26.019  1.00  0.00     0.164 HD
BRANCH   9  12
ATOM     12  C   UNL A   1      45.569  27.944  27.446  1.00  0.00     0.252 C 
ATOM     13  O   UNL A   1      46.515  27.473  28.073  1.00  0.00    -0.283 OA
BRANCH  12  14
ATOM     14  C   UNL A   1      44.283  27.322  27.463  1.00  0.00     0.054 A 
ATOM     15  N   UNL A   1      42.184  26.943  26.946  1.00  0.00    -0.240 N 
ATOM     16  C   UNL A   1      42.990  27.781  27.703  1.00  0.00     0.117 A 
ATOM     17  C   UNL A   1      43.054  26.186  26.121  1.00  0.00     0.065 A 
ATOM     18  C   UNL A   1      44.176  26.042  26.915  1.00  0.00     0.012 A 
ATOM     19  C   UNL A   1      42.795  25.297  25.068  1.00  0.00     0.028 A 
ATOM     20  C   UNL A   1      45.015  24.931  26.781  1.00  0.00     0.011 A 
ATOM     21  C   UNL A   1      43.573  24.137  25.019  1.00  0.00     0.002 A 
ATOM     22  C   UNL A   1      44.650  23.939  25.880  1.00  0.00     0.001 A 
BRANCH  15  23
ATOM     23  S   UNL A   1      40.936  25.895  27.438  1.00  0.00     0.268 S 
ATOM     24  O   UNL A   1      39.794  26.396  26.684  1.00  0.00    -0.201 OA
ATOM     25  O   UNL A   1      41.051  26.093  28.883  1.00  0.00    -0.201 OA
BRANCH  23  26
ATOM     26  C   UNL A   1      40.652  24.194  27.434  1.00  0.00     0.088 A 
ATOM     27  C   UNL A   1      41.551  20.013  27.580  1.00  0.00     0.044 C 
ATOM     28  C   UNL A   1      41.143  21.451  27.560  1.00  0.00    -0.051 A 
ATOM     29  C   UNL A   1      41.989  22.306  28.238  1.00  0.00     0.005 A 
ATOM     30  C   UNL A   1      40.011  21.970  26.880  1.00  0.00     0.005 A 
ATOM     31  C   UNL A   1      41.714  23.640  28.201  1.00  0.00     0.022 A 
ATOM     32  C   UNL A   1      39.756  23.363  26.799  1.00  0.00     0.022 A 
ENDBRANCH  23  26
ENDBRANCH  15  23
ENDBRANCH  12  14
ENDBRANCH   9  12
ENDBRANCH   7   8
BRANCH   7  33
ATOM     33  C   UNL A   1      44.033  31.684  27.566  1.00  0.00     0.074 C 
BRANCH  33  34
ATOM     34  C   UNL A   1      44.581  32.874  26.908  1.00  0.00    -0.020 A 
ATOM     35  C   UNL A   1      44.051  33.283  25.242  1.00  0.00     0.087 A 
ATOM     36  C   UNL A   1      46.079  34.049  27.365  1.00  0.00     0.003 A 
ATOM     37  N   UNL A   1      45.229  34.622  24.580  1.00  0.00    -0.361 N 
ATOM     38  C   UNL A   1      46.460  35.050  25.894  1.00  0.00     0.046 A 
ATOM     39  C   UNL A   1      46.856  34.367  28.522  1.00  0.00     0.010 A 
ATOM     40  H   UNL A   1      45.191  35.022  23.682  1.00  0.00     0.166 HD
ATOM     41  C   UNL A   1      47.377  36.109  26.046  1.00  0.00     0.026 A 
ATOM     42  C   UNL A   1      47.827  35.395  28.440  1.00  0.00     0.001 A 
ATOM     43  C   UNL A   1      48.040  36.224  27.300  1.00  0.00     0.002 A 
ENDBRANCH  33  34
ENDBRANCH   7  33
ENDBRANCH   5   7
ENDBRANCH   4   5
ENDBRANCH   3   4
ENDBRANCH   2   3
ENDBRANCH   1   2
BRANCH   1  44
ATOM     44  C   UNL A   1      43.760  28.013  35.434  1.00  0.00     0.188 C 
BRANCH  44  45
ATOM     45  C   UNL A   1      44.182  29.372  35.977  1.00  0.00     0.188 C 
BRANCH  45  46
ATOM     46  O   UNL A   1      43.244  30.054  36.769  1.00  0.00    -0.376 OA
BRANCH  46  47
ATOM     47  C   UNL A   1      42.149  30.827  36.352  1.00  0.00     0.202 C 
BRANCH  47  48
ATOM     48  C   UNL A   1      42.224  32.173  36.987  1.00  0.00     0.261 C 
BRANCH  48  49
ATOM     49  O   UNL A   1      41.017  32.641  37.672  1.00  0.00    -0.460 OA
BRANCH  49  50
ATOM     50  C   UNL A   1      40.853  33.824  38.326  1.00  0.00     0.338 C 
ATOM     51  O   UNL A   1      40.391  33.864  39.464  1.00  0.00    -0.246 OA
BRANCH  50  52
ATOM     52  C   UNL A   1      41.272  35.088  37.632  1.00  0.00     0.060 A 
ATOM     53  C   UNL A   1      40.501  35.512  36.598  1.00  0.00     0.016 A 
ATOM     54  C   UNL A   1      42.457  35.804  37.797  1.00  0.00     0.016 A 
ATOM     55  C   UNL A   1      41.063  36.456  35.716  1.00  0.00     0.010 A 
ATOM     56  C   UNL A   1      43.074  36.517  36.678  1.00  0.00     0.010 A 
ATOM     57  C   UNL A   1      42.418  36.765  35.456  1.00  0.00    -0.014 A 
BRANCH  57  58
ATOM     58  C   UNL A   1      43.064  37.488  33.863  1.00  0.00     0.031 A 
ATOM     59  C   UNL A   1      43.417  39.691  33.571  1.00  0.00     0.074 A 
ATOM     60  C   UNL A   1      43.317  36.366  32.649  1.00  0.00     0.049 A 
ATOM     61  N   UNL A   1      43.528  40.465  32.395  1.00  0.00    -0.248 NA
ATOM     62  C   UNL A   1      43.629  41.050  34.538  1.00  0.00     0.031 C 
ATOM     63  C   UNL A   1      44.536  36.171  31.703  1.00  0.00     0.029 A 
ATOM     64  N   UNL A   1      42.616  35.227  32.001  1.00  0.00    -0.354 N 
ATOM     65  C   UNL A   1      44.598  41.278  32.567  1.00  0.00     0.074 A 
ATOM     66  C   UNL A   1      44.304  41.926  33.789  1.00  0.00     0.031 C 
ATOM     67  C   UNL A   1      44.286  35.340  30.653  1.00  0.00     0.029 A 
ATOM     68  C   UNL A   1      42.940  34.822  30.725  1.00  0.00     0.049 A 
ATOM     69  H   UNL A   1      41.908  34.753  32.494  1.00  0.00     0.167 HD
ATOM     70  C   UNL A   1      45.751  40.971  31.903  1.00  0.00     0.037 A 
ATOM     71  C   UNL A   1      42.083  34.426  29.713  1.00  0.00     0.037 A 
ATOM     72  C   UNL A   1      45.641  39.929  30.845  1.00  0.00     0.049 A 
ATOM     73  C   UNL A   1      42.241  35.511  28.679  1.00  0.00     0.074 A 
ATOM     74  C   UNL A   1      46.351  38.764  30.582  1.00  0.00     0.029 A 
ATOM     75  N   UNL A   1      44.569  39.910  29.942  1.00  0.00    -0.354 N 
ATOM     76  N   UNL A   1      42.722  36.678  29.022  1.00  0.00    -0.248 NA
ATOM     77  C   UNL A   1      41.998  35.396  27.244  1.00  0.00     0.031 C 
ATOM     78  C   UNL A   1      45.727  38.080  29.498  1.00  0.00     0.029 A 
ATOM     79  C   UNL A   1      44.601  38.790  29.107  1.00  0.00     0.049 A 
ATOM     80  H   UNL A   1      43.872  40.606  29.902  1.00  0.00     0.167 HD
ATOM     81  C   UNL A   1      43.006  37.396  27.912  1.00  0.00     0.074 A 
ATOM     82  C   UNL A   1      42.501  36.573  26.819  1.00  0.00     0.031 C 
ATOM     83  C   UNL A   1      43.646  38.598  27.999  1.00  0.00     0.037 A 
BRANCH  70  84
ATOM     84  C   UNL A   1      47.083  41.499  32.365  1.00  0.00     0.064 A 
ATOM     85  C   UNL A   1      47.698  40.899  33.476  1.00  0.00     0.173 A 
ATOM     86  C   UNL A   1      47.803  42.561  31.777  1.00  0.00     0.173 A 
ATOM     87  F   UNL A   1      47.069  39.963  34.199  1.00  0.00    -0.203 F 
ATOM     88  C   UNL A   1      48.983  41.242  33.882  1.00  0.00     0.198 A 
ATOM     89  C   UNL A   1      49.122  42.842  32.125  1.00  0.00     0.198 A 
ATOM     90  F   UNL A   1      47.251  43.409  30.900  1.00  0.00    -0.203 F 
ATOM     91  F   UNL A   1      49.510  40.654  34.962  1.00  0.00    -0.200 F 
ATOM     92  C   UNL A   1      49.717  42.168  33.169  1.00  0.00     0.200 A 
ATOM     93  F   UNL A   1      49.802  43.775  31.445  1.00  0.00    -0.200 F 
ATOM     94  F   UNL A   1      50.986  42.431  33.504  1.00  0.00    -0.200 F 
ENDBRANCH  70  84
BRANCH  71  95
ATOM     95  C   UNL A   1      40.782  33.664  29.954  1.00  0.00     0.064 A 
ATOM     96  C   UNL A   1      40.839  32.321  30.373  1.00  0.00     0.173 A 
ATOM     97  C   UNL A   1      39.535  34.281  30.133  1.00  0.00     0.173 A 
ATOM     98  F   UNL A   1      41.870  31.548  30.003  1.00  0.00    -0.203 F 
ATOM     99  C   UNL A   1      39.868  31.768  31.222  1.00  0.00     0.198 A 
ATOM    100  C   UNL A   1      38.630  33.790  31.098  1.00  0.00     0.198 A 
ATOM    101  F   UNL A   1      39.282  35.478  29.581  1.00  0.00    -0.203 F 
ATOM    102  F   UNL A   1      40.020  30.527  31.708  1.00  0.00    -0.200 F 
ATOM    103  C   UNL A   1      38.840  32.562  31.694  1.00  0.00     0.200 A 
ATOM    104  F   UNL A   1      37.671  34.595  31.579  1.00  0.00    -0.200 F 
ATOM    105  F   UNL A   1      38.134  32.188  32.775  1.00  0.00    -0.200 F 
ENDBRANCH  71  95
BRANCH  83 106
ATOM    106  C   UNL A   1      43.522  39.642  26.938  1.00  0.00     0.064 A 
ATOM    107  C   UNL A   1      42.311  40.268  26.599  1.00  0.00     0.173 A 
ATOM    108  C   UNL A   1      44.676  40.160  26.315  1.00  0.00     0.173 A 
ATOM    109  F   UNL A   1      41.166  40.009  27.247  1.00  0.00    -0.203 F 
ATOM    110  C   UNL A   1      42.246  41.236  25.604  1.00  0.00     0.198 A 
ATOM    111  C   UNL A   1      44.620  41.218  25.424  1.00  0.00     0.198 A 
ATOM    112  F   UNL A   1      45.902  39.682  26.558  1.00  0.00    -0.203 F 
ATOM    113  F   UNL A   1      41.052  41.709  25.224  1.00  0.00    -0.200 F 
ATOM    114  C   UNL A   1      43.402  41.721  25.029  1.00  0.00     0.200 A 
ATOM    115  F   UNL A   1      45.762  41.742  24.959  1.00  0.00    -0.200 F 
ATOM    116  F   UNL A   1      43.345  42.688  24.107  1.00  0.00    -0.200 F 
ENDBRANCH  83 106
ENDBRANCH  57  58
ENDBRANCH  50  52
ENDBRANCH  49  50
ENDBRANCH  48  49
ENDBRANCH  47  48
ENDBRANCH  46  47
ENDBRANCH  45  46
ENDBRANCH  44  45
ENDBRANCH   1  44
TORSDOF 24
ENDMDL
MODEL 3
REMARK VINA RESULT:      -9.9      4.535     10.086
REMARK SMILES Cc1ccc(S(=O)(=O)n2cc(C(=O)C(=O)N[C@@H](Cc3c[nH]c4ccccc34)C(=O)OCCOCCOCCOC(=O)c3ccc(-c4c5nc(c(-c6c(F)c(F)c(F)c(F)c6F)c6ccc([nH]6)c(-c6c(F)c(F)c(F)c(F)c6F)c6nc(c(-c7c(F)c(F)c(F)c(F)c7F)c7ccc4[nH]7)C=C6)C=C5)cc3)c3ccccc32)cc1
REMARK SMILES IDX 33 1 32 2 31 3 30 4 28 5 29 6 17 7 16 8 14 9 15 10 12 12
REMARK SMILES IDX 13 13 11 14 9 15 10 16 110 17 105 18 109 19 106 20 108 21
REMARK SMILES IDX 107 22 6 23 7 24 8 25 5 26 1 27 2 28 3 29 112 30 4 31 111 32
REMARK SMILES IDX 18 33 19 34 20 35 27 36 21 37 22 38 26 39 23 41 25 42 24 43
REMARK SMILES IDX 34 44 35 45 36 46 37 47 38 48 39 49 40 50 41 51 42 52 43 53
REMARK SMILES IDX 104 54 44 55 103 56 45 57 46 58 47 59 97 60 48 61 102 62
REMARK SMILES IDX 96 63 98 64 49 65 101 66 95 67 94 68 50 70 82 71 62 72 81 73
REMARK SMILES IDX 63 74 66 75 80 76 99 77 64 78 65 79 79 81 100 82 67 83 51 84
REMARK SMILES IDX 52 85 60 86 53 87 54 88 58 89 61 90 55 91 56 92 59 93 57 94
REMARK SMILES IDX 83 95 84 96 92 97 85 98 86 99 90 100 93 101 87 102 88 103
REMARK SMILES IDX 91 104 89 105 68 106 69 107 77 108 70 109 71 110 75 111
REMARK SMILES IDX 78 112 72 113 73 114 76 115 74 116
REMARK H PARENT 16 11 21 40 98 69 66 80
REMARK Flexibility Score: inf
ROOT
ATOM      1  O   UNL A   1      37.391  33.330  29.998  1.00  0.00    -0.376 OA
ENDROOT
BRANCH   1   2
ATOM      2  C   UNL A   1      38.622  33.997  30.009  1.00  0.00     0.202 C 
BRANCH   2   3
ATOM      3  C   UNL A   1      39.964  33.210  30.104  1.00  0.00     0.261 C 
BRANCH   3   4
ATOM      4  O   UNL A   1      41.654  33.788  29.939  1.00  0.00    -0.462 OA
BRANCH   4   5
ATOM      5  C   UNL A   1      42.632  34.471  29.070  1.00  0.00     0.329 C 
ATOM      6  O   UNL A   1      42.280  35.573  28.642  1.00  0.00    -0.250 OA
BRANCH   5   7
ATOM      7  C   UNL A   1      44.157  34.068  28.400  1.00  0.00     0.197 C 
BRANCH   7   8
ATOM      8  N   UNL A   1      45.036  34.562  27.300  1.00  0.00    -0.335 N 
ATOM      9  C   UNL A   1      45.571  33.876  26.253  1.00  0.00     0.293 C 
ATOM     10  O   UNL A   1      46.233  34.441  25.395  1.00  0.00    -0.265 OA
ATOM     11  H   UNL A   1      45.260  35.520  27.336  1.00  0.00     0.164 HD
BRANCH   9  12
ATOM     12  C   UNL A   1      45.222  32.397  26.177  1.00  0.00     0.252 C 
ATOM     13  O   UNL A   1      44.075  32.080  25.872  1.00  0.00    -0.283 OA
BRANCH  12  14
ATOM     14  C   UNL A   1      46.118  31.458  26.775  1.00  0.00     0.054 A 
ATOM     15  N   UNL A   1      47.826  30.707  27.930  1.00  0.00    -0.240 N 
ATOM     16  C   UNL A   1      47.493  31.249  26.697  1.00  0.00     0.117 A 
ATOM     17  C   UNL A   1      46.678  30.839  28.750  1.00  0.00     0.065 A 
ATOM     18  C   UNL A   1      45.641  30.701  27.846  1.00  0.00     0.012 A 
ATOM     19  C   UNL A   1      46.482  30.597  30.118  1.00  0.00     0.028 A 
ATOM     20  C   UNL A   1      44.403  30.188  28.245  1.00  0.00     0.011 A 
ATOM     21  C   UNL A   1      45.281  29.980  30.481  1.00  0.00     0.002 A 
ATOM     22  C   UNL A   1      44.266  29.750  29.556  1.00  0.00     0.001 A 
BRANCH  15  23
ATOM     23  S   UNL A   1      48.529  29.202  28.303  1.00  0.00     0.268 S 
ATOM     24  O   UNL A   1      49.506  29.559  29.322  1.00  0.00    -0.201 OA
ATOM     25  O   UNL A   1      48.932  28.816  26.951  1.00  0.00    -0.201 OA
BRANCH  23  26
ATOM     26  C   UNL A   1      47.978  27.663  28.855  1.00  0.00     0.088 A 
ATOM     27  C   UNL A   1      45.244  24.468  29.646  1.00  0.00     0.044 C 
ATOM     28  C   UNL A   1      46.274  25.516  29.372  1.00  0.00    -0.051 A 
ATOM     29  C   UNL A   1      46.009  26.323  28.284  1.00  0.00     0.005 A 
ATOM     30  C   UNL A   1      47.435  25.746  30.156  1.00  0.00     0.005 A 
ATOM     31  C   UNL A   1      46.872  27.344  28.020  1.00  0.00     0.022 A 
ATOM     32  C   UNL A   1      48.303  26.841  29.911  1.00  0.00     0.022 A 
ENDBRANCH  23  26
ENDBRANCH  15  23
ENDBRANCH  12  14
ENDBRANCH   9  12
ENDBRANCH   7   8
BRANCH   7  33
ATOM     33  C   UNL A   1      45.206  33.942  29.525  1.00  0.00     0.074 C 
BRANCH  33  34
ATOM     34  C   UNL A   1      45.692  35.297  29.801  1.00  0.00    -0.020 A 
ATOM     35  C   UNL A   1      47.293  35.806  29.169  1.00  0.00     0.087 A 
ATOM     36  C   UNL A   1      45.064  36.688  31.028  1.00  0.00     0.003 A 
ATOM     37  N   UNL A   1      47.756  37.438  30.030  1.00  0.00    -0.361 N 
ATOM     38  C   UNL A   1      46.382  37.935  31.166  1.00  0.00     0.046 A 
ATOM     39  C   UNL A   1      43.865  37.003  31.742  1.00  0.00     0.010 A 
ATOM     40  H   UNL A   1      48.592  37.938  29.893  1.00  0.00     0.166 HD
ATOM     41  C   UNL A   1      46.078  39.131  31.844  1.00  0.00     0.026 A 
ATOM     42  C   UNL A   1      43.797  38.213  32.474  1.00  0.00     0.001 A 
ATOM     43  C   UNL A   1      44.813  39.214  32.490  1.00  0.00     0.002 A 
ENDBRANCH  33  34
ENDBRANCH   7  33
ENDBRANCH   5   7
ENDBRANCH   4   5
ENDBRANCH   3   4
ENDBRANCH   2   3
ENDBRANCH   1   2
BRANCH   1  44
ATOM     44  C   UNL A   1      36.343  34.132  29.521  1.00  0.00     0.188 C 
BRANCH  44  45
ATOM     45  C   UNL A   1      35.496  33.600  28.372  1.00  0.00     0.188 C 
BRANCH  45  46
ATOM     46  O   UNL A   1      34.342  34.331  28.048  1.00  0.00    -0.376 OA
BRANCH  46  47
ATOM     47  C   UNL A   1      33.157  34.461  28.787  1.00  0.00     0.202 C 
BRANCH  47  48
ATOM     48  C   UNL A   1      32.919  35.900  29.091  1.00  0.00     0.261 C 
BRANCH  48  49
ATOM     49  O   UNL A   1      33.531  36.421  30.315  1.00  0.00    -0.460 OA
BRANCH  49  50
ATOM     50  C   UNL A   1      33.111  36.216  31.594  1.00  0.00     0.338 C 
ATOM     51  O   UNL A   1      32.138  36.813  32.048  1.00  0.00    -0.246 OA
BRANCH  50  52
ATOM     52  C   UNL A   1      33.854  35.221  32.438  1.00  0.00     0.060 A 
ATOM     53  C   UNL A   1      34.982  35.653  33.056  1.00  0.00     0.016 A 
ATOM     54  C   UNL A   1      33.632  33.848  32.538  1.00  0.00     0.016 A 
ATOM     55  C   UNL A   1      35.875  34.672  33.533  1.00  0.00     0.010 A 
ATOM     56  C   UNL A   1      34.737  32.916  32.760  1.00  0.00     0.010 A 
ATOM     57  C   UNL A   1      36.030  33.320  33.151  1.00  0.00    -0.014 A 
BRANCH  57  58
ATOM     58  C   UNL A   1      37.605  32.335  33.318  1.00  0.00     0.031 A 
ATOM     59  C   UNL A   1      37.781  30.186  32.674  1.00  0.00     0.074 A 
ATOM     60  C   UNL A   1      38.868  33.168  34.030  1.00  0.00     0.049 A 
ATOM     61  N   UNL A   1      38.704  29.181  33.038  1.00  0.00    -0.248 NA
ATOM     62  C   UNL A   1      36.957  29.125  31.664  1.00  0.00     0.031 C 
ATOM     63  C   UNL A   1      40.356  33.290  33.599  1.00  0.00     0.029 A 
ATOM     64  N   UNL A   1      39.126  34.031  35.213  1.00  0.00    -0.354 N 
ATOM     65  C   UNL A   1      39.082  28.570  31.890  1.00  0.00     0.074 A 
ATOM     66  C   UNL A   1      37.846  28.190  31.317  1.00  0.00     0.031 C 
ATOM     67  C   UNL A   1      41.162  33.819  34.562  1.00  0.00     0.029 A 
ATOM     68  C   UNL A   1      40.394  34.167  35.734  1.00  0.00     0.049 A 
ATOM     69  H   UNL A   1      38.377  34.513  35.631  1.00  0.00     0.167 HD
ATOM     70  C   UNL A   1      40.318  28.857  31.386  1.00  0.00     0.037 A 
ATOM     71  C   UNL A   1      40.769  34.208  37.065  1.00  0.00     0.037 A 
ATOM     72  C   UNL A   1      41.236  29.604  32.289  1.00  0.00     0.049 A 
ATOM     73  C   UNL A   1      41.567  32.942  37.241  1.00  0.00     0.074 A 
ATOM     74  C   UNL A   1      41.997  30.757  32.128  1.00  0.00     0.029 A 
ATOM     75  N   UNL A   1      41.355  29.280  33.648  1.00  0.00    -0.354 N 
ATOM     76  N   UNL A   1      41.426  31.955  36.393  1.00  0.00    -0.248 NA
ATOM     77  C   UNL A   1      42.604  32.691  38.238  1.00  0.00     0.031 C 
ATOM     78  C   UNL A   1      42.598  31.088  33.378  1.00  0.00     0.029 A 
ATOM     79  C   UNL A   1      42.184  30.171  34.334  1.00  0.00     0.049 A 
ATOM     80  H   UNL A   1      40.904  28.512  34.071  1.00  0.00     0.167 HD
ATOM     81  C   UNL A   1      42.402  31.042  36.595  1.00  0.00     0.074 A 
ATOM     82  C   UNL A   1      43.095  31.521  37.785  1.00  0.00     0.031 C 
ATOM     83  C   UNL A   1      42.556  29.982  35.749  1.00  0.00     0.037 A 
BRANCH  70  84
ATOM     84  C   UNL A   1      40.646  28.621  29.935  1.00  0.00     0.064 A 
ATOM     85  C   UNL A   1      41.642  27.685  29.613  1.00  0.00     0.173 A 
ATOM     86  C   UNL A   1      40.036  29.257  28.833  1.00  0.00     0.173 A 
ATOM     87  F   UNL A   1      42.382  27.099  30.564  1.00  0.00    -0.203 F 
ATOM     88  C   UNL A   1      41.910  27.317  28.299  1.00  0.00     0.198 A 
ATOM     89  C   UNL A   1      40.239  28.826  27.525  1.00  0.00     0.198 A 
ATOM     90  F   UNL A   1      39.279  30.354  28.962  1.00  0.00    -0.203 F 
ATOM     91  F   UNL A   1      42.886  26.436  28.049  1.00  0.00    -0.200 F 
ATOM     92  C   UNL A   1      41.166  27.842  27.261  1.00  0.00     0.200 A 
ATOM     93  F   UNL A   1      39.535  29.378  26.528  1.00  0.00    -0.200 F 
ATOM     94  F   UNL A   1      41.362  27.419  26.006  1.00  0.00    -0.200 F 
ENDBRANCH  70  84
BRANCH  71  95
ATOM     95  C   UNL A   1      39.917  34.837  38.166  1.00  0.00     0.064 A 
ATOM     96  C   UNL A   1      38.978  34.041  38.848  1.00  0.00     0.173 A 
ATOM     97  C   UNL A   1      40.228  36.050  38.799  1.00  0.00     0.173 A 
ATOM     98  F   UNL A   1      38.394  33.009  38.221  1.00  0.00    -0.203 F 
ATOM     99  C   UNL A   1      38.665  34.258  40.198  1.00  0.00     0.198 A 
ATOM    100  C   UNL A   1      40.037  36.196  40.189  1.00  0.00     0.198 A 
ATOM    101  F   UNL A   1      40.933  36.992  38.155  1.00  0.00    -0.203 F 
ATOM    102  F   UNL A   1      37.866  33.403  40.855  1.00  0.00    -0.200 F 
ATOM    103  C   UNL A   1      39.314  35.257  40.899  1.00  0.00     0.200 A 
ATOM    104  F   UNL A   1      40.716  37.140  40.856  1.00  0.00    -0.200 F 
ATOM    105  F   UNL A   1      39.325  35.248  42.243  1.00  0.00    -0.200 F 
ENDBRANCH  71  95
BRANCH  83 106
ATOM    106  C   UNL A   1      43.219  28.714  36.178  1.00  0.00     0.064 A 
ATOM    107  C   UNL A   1      42.518  27.570  36.592  1.00  0.00     0.173 A 
ATOM    108  C   UNL A   1      44.614  28.563  36.041  1.00  0.00     0.173 A 
ATOM    109  F   UNL A   1      41.179  27.510  36.585  1.00  0.00    -0.203 F 
ATOM    110  C   UNL A   1      43.180  26.412  36.981  1.00  0.00     0.198 A 
ATOM    111  C   UNL A   1      45.254  27.364  36.301  1.00  0.00     0.198 A 
ATOM    112  F   UNL A   1      45.410  29.558  35.631  1.00  0.00    -0.203 F 
ATOM    113  F   UNL A   1      42.479  25.393  37.493  1.00  0.00    -0.200 F 
ATOM    114  C   UNL A   1      44.547  26.304  36.819  1.00  0.00     0.200 A 
ATOM    115  F   UNL A   1      46.563  27.250  36.037  1.00  0.00    -0.200 F 
ATOM    116  F   UNL A   1      45.179  25.173  37.147  1.00  0.00    -0.200 F 
ENDBRANCH  83 106
ENDBRANCH  57  58
ENDBRANCH  50  52
ENDBRANCH  49  50
ENDBRANCH  48  49
ENDBRANCH  47  48
ENDBRANCH  46  47
ENDBRANCH  45  46
ENDBRANCH  44  45
ENDBRANCH   1  44
TORSDOF 24
ENDMDL
