MODEL 1
REMARK VINA RESULT:     -11.9      0.000      0.000
REMARK SMILES C[C@@H]1C(=O)O[C@@H]([C@@H]2CCC[C@H](CCC(=O)OCCOCCOCCOC(=O)c3ccc(-c4c5nc(c(-c6c(F)c(F)c(F)c(F)c6F)c6ccc([nH]6)c(-c6c(F)c(F)c(F)c(F)c6F)c6nc(c(-c7c(F)c(F)c(F)c(F)c7F)c7ccc4[nH]7)C=C6)C=C5)cc3)O2)[C@H]1O
REMARK SMILES IDX 20 1 19 2 18 3 17 4 16 5 14 6 15 7 13 8 12 9 11 10 7 11 8 12
REMARK SMILES IDX 91 13 9 14 10 15 6 16 1 17 2 18 3 19 92 20 4 21 5 22 93 23
REMARK SMILES IDX 21 25 22 26 23 27 24 28 25 29 26 30 27 31 28 32 29 33 90 34
REMARK SMILES IDX 30 35 89 36 31 37 32 38 33 39 83 40 34 41 88 42 82 43 84 44
REMARK SMILES IDX 35 45 87 46 81 47 80 48 36 50 68 51 48 52 67 53 49 54 52 55
REMARK SMILES IDX 66 56 85 57 50 58 51 59 65 61 86 62 53 63 37 64 38 65 46 66
REMARK SMILES IDX 39 67 40 68 44 69 47 70 41 71 42 72 45 73 43 74 69 75 70 76
REMARK SMILES IDX 78 77 71 78 72 79 76 80 79 81 73 82 74 83 77 84 75 85 54 86
REMARK SMILES IDX 55 87 63 88 56 89 57 90 61 91 64 92 58 93 59 94 62 95 60 96
REMARK H PARENT 93 24 84 49 52 60
REMARK Flexibility Score: inf
ROOT
ATOM      1  C   UNL A   1      43.917  19.124  25.747  1.00  0.00     0.188 C 
ENDROOT
BRANCH   1   2
ATOM      2  O   UNL A   1      42.670  19.542  25.203  1.00  0.00    -0.376 OA
BRANCH   2   3
ATOM      3  C   UNL A   1      41.530  19.435  26.056  1.00  0.00     0.202 C 
BRANCH   3   4
ATOM      4  C   UNL A   1      40.767  20.736  26.347  1.00  0.00     0.261 C 
BRANCH   4   5
ATOM      5  O   UNL A   1      39.434  20.763  25.799  1.00  0.00    -0.463 OA
BRANCH   5   6
ATOM      6  C   UNL A   1      38.735  21.903  26.020  1.00  0.00     0.305 C 
ATOM      7  O   UNL A   1      39.070  22.797  26.791  1.00  0.00    -0.252 OA
BRANCH   6   8
ATOM      8  C   UNL A   1      37.505  22.050  25.156  1.00  0.00     0.125 C 
BRANCH   8   9
ATOM      9  C   UNL A   1      36.189  21.427  25.604  1.00  0.00     0.044 C 
BRANCH   9  10
ATOM     10  C   UNL A   1      34.919  22.294  25.603  1.00  0.00     0.119 C 
ATOM     11  C   UNL A   1      32.939  20.970  24.944  1.00  0.00     0.162 C 
ATOM     12  C   UNL A   1      32.469  22.078  24.010  1.00  0.00     0.036 C 
ATOM     13  O   UNL A   1      33.808  21.471  25.964  1.00  0.00    -0.371 OA
ATOM     14  C   UNL A   1      33.612  22.878  23.419  1.00  0.00     0.005 C 
ATOM     15  C   UNL A   1      34.634  23.291  24.470  1.00  0.00     0.032 C 
BRANCH  11  16
ATOM     16  C   UNL A   1      33.309  19.625  24.263  1.00  0.00     0.234 C 
ATOM     17  C   UNL A   1      34.329  16.593  23.437  1.00  0.00     0.023 C 
ATOM     18  C   UNL A   1      33.040  17.280  23.850  1.00  0.00     0.128 C 
ATOM     19  C   UNL A   1      32.486  18.132  22.741  1.00  0.00     0.311 C 
ATOM     20  C   UNL A   1      33.238  18.277  24.980  1.00  0.00     0.172 C 
ATOM     21  O   UNL A   1      32.026  17.703  21.694  1.00  0.00    -0.252 OA
ATOM     22  O   UNL A   1      32.580  19.456  23.040  1.00  0.00    -0.457 OA
BRANCH  20  23
ATOM     23  O   UNL A   1      32.153  18.135  25.875  1.00  0.00    -0.388 OA
ATOM     24  H   UNL A   1      32.192  18.835  26.546  1.00  0.00     0.211 HD
ENDBRANCH  20  23
ENDBRANCH  11  16
ENDBRANCH   9  10
ENDBRANCH   8   9
ENDBRANCH   6   8
ENDBRANCH   5   6
ENDBRANCH   4   5
ENDBRANCH   3   4
ENDBRANCH   2   3
ENDBRANCH   1   2
BRANCH   1  25
ATOM     25  C   UNL A   1      45.140  19.231  24.833  1.00  0.00     0.188 C 
BRANCH  25  26
ATOM     26  O   UNL A   1      46.156  20.118  25.293  1.00  0.00    -0.376 OA
BRANCH  26  27
ATOM     27  C   UNL A   1      46.050  21.469  24.820  1.00  0.00     0.202 C 
BRANCH  27  28
ATOM     28  C   UNL A   1      45.553  22.496  25.856  1.00  0.00     0.261 C 
BRANCH  28  29
ATOM     29  O   UNL A   1      45.037  23.705  25.262  1.00  0.00    -0.460 OA
BRANCH  29  30
ATOM     30  C   UNL A   1      43.710  23.723  24.988  1.00  0.00     0.338 C 
ATOM     31  O   UNL A   1      43.112  22.957  24.255  1.00  0.00    -0.246 OA
BRANCH  30  32
ATOM     32  C   UNL A   1      43.055  24.678  25.920  1.00  0.00     0.060 A 
ATOM     33  C   UNL A   1      43.512  26.003  25.945  1.00  0.00     0.016 A 
ATOM     34  C   UNL A   1      41.968  24.301  26.715  1.00  0.00     0.016 A 
ATOM     35  C   UNL A   1      42.921  26.936  26.804  1.00  0.00     0.010 A 
ATOM     36  C   UNL A   1      41.380  25.233  27.578  1.00  0.00     0.010 A 
ATOM     37  C   UNL A   1      41.879  26.545  27.656  1.00  0.00    -0.014 A 
BRANCH  37  38
ATOM     38  C   UNL A   1      41.466  27.423  28.782  1.00  0.00     0.031 A 
ATOM     39  C   UNL A   1      42.243  27.333  30.070  1.00  0.00     0.074 A 
ATOM     40  C   UNL A   1      40.445  28.294  28.679  1.00  0.00     0.049 A 
ATOM     41  N   UNL A   1      42.047  27.947  31.210  1.00  0.00    -0.248 NA
ATOM     42  C   UNL A   1      43.399  26.419  30.070  1.00  0.00     0.031 C 
ATOM     43  C   UNL A   1      39.635  28.519  27.486  1.00  0.00     0.029 A 
ATOM     44  N   UNL A   1      39.917  29.153  29.614  1.00  0.00    -0.354 N 
ATOM     45  C   UNL A   1      43.059  27.507  32.052  1.00  0.00     0.074 A 
ATOM     46  C   UNL A   1      43.839  26.539  31.313  1.00  0.00     0.031 C 
ATOM     47  C   UNL A   1      38.703  29.451  27.762  1.00  0.00     0.029 A 
ATOM     48  C   UNL A   1      38.834  29.866  29.159  1.00  0.00     0.049 A 
ATOM     49  H   UNL A   1      40.279  29.248  30.524  1.00  0.00     0.167 HD
ATOM     50  C   UNL A   1      43.331  27.887  33.322  1.00  0.00     0.037 A 
ATOM     51  C   UNL A   1      38.033  30.739  29.805  1.00  0.00     0.037 A 
ATOM     52  C   UNL A   1      42.560  28.840  34.073  1.00  0.00     0.049 A 
ATOM     53  C   UNL A   1      38.298  31.068  31.257  1.00  0.00     0.074 A 
ATOM     54  C   UNL A   1      42.747  29.266  35.376  1.00  0.00     0.029 A 
ATOM     55  N   UNL A   1      41.454  29.517  33.586  1.00  0.00    -0.354 N 
ATOM     56  N   UNL A   1      39.265  30.658  32.041  1.00  0.00    -0.248 NA
ATOM     57  C   UNL A   1      37.354  31.987  31.911  1.00  0.00     0.031 C 
ATOM     58  C   UNL A   1      41.731  30.174  35.691  1.00  0.00     0.029 A 
ATOM     59  C   UNL A   1      40.942  30.348  34.568  1.00  0.00     0.049 A 
ATOM     60  H   UNL A   1      41.088  29.421  32.676  1.00  0.00     0.167 HD
ATOM     61  C   UNL A   1      39.070  31.299  33.259  1.00  0.00     0.074 A 
ATOM     62  C   UNL A   1      37.899  32.134  33.111  1.00  0.00     0.031 C 
ATOM     63  C   UNL A   1      39.796  31.204  34.399  1.00  0.00     0.037 A 
BRANCH  50  64
ATOM     64  C   UNL A   1      44.522  27.266  33.987  1.00  0.00     0.064 A 
ATOM     65  C   UNL A   1      45.780  27.883  33.950  1.00  0.00     0.173 A 
ATOM     66  C   UNL A   1      44.393  26.070  34.708  1.00  0.00     0.173 A 
ATOM     67  F   UNL A   1      45.955  29.020  33.259  1.00  0.00    -0.203 F 
ATOM     68  C   UNL A   1      46.872  27.318  34.602  1.00  0.00     0.198 A 
ATOM     69  C   UNL A   1      45.481  25.521  35.381  1.00  0.00     0.198 A 
ATOM     70  F   UNL A   1      43.209  25.442  34.773  1.00  0.00    -0.203 F 
ATOM     71  F   UNL A   1      48.074  27.906  34.527  1.00  0.00    -0.200 F 
ATOM     72  C   UNL A   1      46.720  26.143  35.325  1.00  0.00     0.200 A 
ATOM     73  F   UNL A   1      45.330  24.393  36.088  1.00  0.00    -0.200 F 
ATOM     74  F   UNL A   1      47.768  25.608  35.964  1.00  0.00    -0.200 F 
ENDBRANCH  50  64
BRANCH  51  75
ATOM     75  C   UNL A   1      36.878  31.367  29.108  1.00  0.00     0.064 A 
ATOM     76  C   UNL A   1      36.878  32.735  28.796  1.00  0.00     0.173 A 
ATOM     77  C   UNL A   1      35.716  30.636  28.824  1.00  0.00     0.173 A 
ATOM     78  F   UNL A   1      37.953  33.486  29.080  1.00  0.00    -0.203 F 
ATOM     79  C   UNL A   1      35.749  33.353  28.261  1.00  0.00     0.198 A 
ATOM     80  C   UNL A   1      34.598  31.248  28.261  1.00  0.00     0.198 A 
ATOM     81  F   UNL A   1      35.658  29.327  29.114  1.00  0.00    -0.203 F 
ATOM     82  F   UNL A   1      35.751  34.675  28.044  1.00  0.00    -0.200 F 
ATOM     83  C   UNL A   1      34.610  32.609  27.993  1.00  0.00     0.200 A 
ATOM     84  F   UNL A   1      33.500  30.526  28.001  1.00  0.00    -0.200 F 
ATOM     85  F   UNL A   1      33.519  33.207  27.496  1.00  0.00    -0.200 F 
ENDBRANCH  51  75
BRANCH  63  86
ATOM     86  C   UNL A   1      39.392  32.065  35.561  1.00  0.00     0.064 A 
ATOM     87  C   UNL A   1      39.828  33.393  35.684  1.00  0.00     0.173 A 
ATOM     88  C   UNL A   1      38.514  31.570  36.538  1.00  0.00     0.173 A 
ATOM     89  F   UNL A   1      40.676  33.912  34.784  1.00  0.00    -0.203 F 
ATOM     90  C   UNL A   1      39.422  34.182  36.758  1.00  0.00     0.198 A 
ATOM     91  C   UNL A   1      38.087  32.371  37.593  1.00  0.00     0.198 A 
ATOM     92  F   UNL A   1      38.059  30.311  36.462  1.00  0.00    -0.203 F 
ATOM     93  F   UNL A   1      39.888  35.434  36.879  1.00  0.00    -0.200 F 
ATOM     94  C   UNL A   1      38.547  33.675  37.706  1.00  0.00     0.200 A 
ATOM     95  F   UNL A   1      37.230  31.884  38.500  1.00  0.00    -0.200 F 
ATOM     96  F   UNL A   1      38.151  34.439  38.733  1.00  0.00    -0.200 F 
ENDBRANCH  63  86
ENDBRANCH  37  38
ENDBRANCH  30  32
ENDBRANCH  29  30
ENDBRANCH  28  29
ENDBRANCH  27  28
ENDBRANCH  26  27
ENDBRANCH  25  26
ENDBRANCH   1  25
TORSDOF 21
ENDMDL
MODEL 2
REMARK VINA RESULT:     -11.5      0.941      2.015
REMARK SMILES C[C@@H]1C(=O)O[C@@H]([C@@H]2CCC[C@H](CCC(=O)OCCOCCOCCOC(=O)c3ccc(-c4c5nc(c(-c6c(F)c(F)c(F)c(F)c6F)c6ccc([nH]6)c(-c6c(F)c(F)c(F)c(F)c6F)c6nc(c(-c7c(F)c(F)c(F)c(F)c7F)c7ccc4[nH]7)C=C6)C=C5)cc3)O2)[C@H]1O
REMARK SMILES IDX 20 1 19 2 18 3 17 4 16 5 14 6 15 7 13 8 12 9 11 10 7 11 8 12
REMARK SMILES IDX 91 13 9 14 10 15 6 16 1 17 2 18 3 19 92 20 4 21 5 22 93 23
REMARK SMILES IDX 21 25 22 26 23 27 24 28 25 29 26 30 27 31 28 32 29 33 90 34
REMARK SMILES IDX 30 35 89 36 31 37 32 38 33 39 83 40 34 41 88 42 82 43 84 44
REMARK SMILES IDX 35 45 87 46 81 47 80 48 36 50 68 51 48 52 67 53 49 54 52 55
REMARK SMILES IDX 66 56 85 57 50 58 51 59 65 61 86 62 53 63 37 64 38 65 46 66
REMARK SMILES IDX 39 67 40 68 44 69 47 70 41 71 42 72 45 73 43 74 69 75 70 76
REMARK SMILES IDX 78 77 71 78 72 79 76 80 79 81 73 82 74 83 77 84 75 85 54 86
REMARK SMILES IDX 55 87 63 88 56 89 57 90 61 91 64 92 58 93 59 94 62 95 60 96
REMARK H PARENT 93 24 84 49 52 60
REMARK Flexibility Score: inf
ROOT
ATOM      1  C   UNL A   1      42.095  19.684  26.666  1.00  0.00     0.188 C 
ENDROOT
BRANCH   1   2
ATOM      2  O   UNL A   1      40.829  20.051  26.129  1.00  0.00    -0.376 OA
BRANCH   2   3
ATOM      3  C   UNL A   1      40.401  21.393  26.358  1.00  0.00     0.202 C 
BRANCH   3   4
ATOM      4  C   UNL A   1      38.908  21.684  26.139  1.00  0.00     0.261 C 
BRANCH   4   5
ATOM      5  O   UNL A   1      38.622  23.065  25.846  1.00  0.00    -0.463 OA
BRANCH   5   6
ATOM      6  C   UNL A   1      37.332  23.340  25.532  1.00  0.00     0.305 C 
ATOM      7  O   UNL A   1      36.461  23.652  26.338  1.00  0.00    -0.252 OA
BRANCH   6   8
ATOM      8  C   UNL A   1      37.041  23.321  24.050  1.00  0.00     0.125 C 
BRANCH   8   9
ATOM      9  C   UNL A   1      35.746  22.698  23.543  1.00  0.00     0.044 C 
BRANCH   9  10
ATOM     10  C   UNL A   1      34.421  23.439  23.785  1.00  0.00     0.119 C 
ATOM     11  C   UNL A   1      32.673  21.894  24.601  1.00  0.00     0.162 C 
ATOM     12  C   UNL A   1      31.653  22.487  23.636  1.00  0.00     0.036 C 
ATOM     13  O   UNL A   1      33.739  22.808  24.871  1.00  0.00    -0.371 OA
ATOM     14  C   UNL A   1      32.280  23.000  22.355  1.00  0.00     0.005 C 
ATOM     15  C   UNL A   1      33.514  23.854  22.616  1.00  0.00     0.032 C 
BRANCH  11  16
ATOM     16  C   UNL A   1      33.031  20.400  24.372  1.00  0.00     0.234 C 
ATOM     17  C   UNL A   1      34.402  17.471  23.700  1.00  0.00     0.023 C 
ATOM     18  C   UNL A   1      34.152  18.352  24.910  1.00  0.00     0.128 C 
ATOM     19  C   UNL A   1      32.703  18.344  25.312  1.00  0.00     0.311 C 
ATOM     20  C   UNL A   1      34.420  19.823  24.635  1.00  0.00     0.172 C 
ATOM     21  O   UNL A   1      32.115  17.382  25.781  1.00  0.00    -0.252 OA
ATOM     22  O   UNL A   1      32.113  19.546  25.069  1.00  0.00    -0.457 OA
BRANCH  20  23
ATOM     23  O   UNL A   1      35.084  20.358  25.763  1.00  0.00    -0.388 OA
ATOM     24  H   UNL A   1      36.031  20.154  25.708  1.00  0.00     0.211 HD
ENDBRANCH  20  23
ENDBRANCH  11  16
ENDBRANCH   9  10
ENDBRANCH   8   9
ENDBRANCH   6   8
ENDBRANCH   5   6
ENDBRANCH   4   5
ENDBRANCH   3   4
ENDBRANCH   2   3
ENDBRANCH   1   2
BRANCH   1  25
ATOM     25  C   UNL A   1      43.026  18.882  25.754  1.00  0.00     0.188 C 
BRANCH  25  26
ATOM     26  O   UNL A   1      43.720  19.654  24.777  1.00  0.00    -0.376 OA
BRANCH  26  27
ATOM     27  C   UNL A   1      44.173  20.941  25.223  1.00  0.00     0.202 C 
BRANCH  27  28
ATOM     28  C   UNL A   1      44.001  22.091  24.210  1.00  0.00     0.261 C 
BRANCH  28  29
ATOM     29  O   UNL A   1      43.320  23.239  24.757  1.00  0.00    -0.460 OA
BRANCH  29  30
ATOM     30  C   UNL A   1      44.083  24.330  25.007  1.00  0.00     0.338 C 
ATOM     31  O   UNL A   1      45.098  24.654  24.417  1.00  0.00    -0.246 OA
BRANCH  30  32
ATOM     32  C   UNL A   1      43.349  25.204  25.958  1.00  0.00     0.060 A 
ATOM     33  C   UNL A   1      43.689  26.563  26.013  1.00  0.00     0.016 A 
ATOM     34  C   UNL A   1      42.300  24.716  26.745  1.00  0.00     0.016 A 
ATOM     35  C   UNL A   1      43.020  27.422  26.891  1.00  0.00     0.010 A 
ATOM     36  C   UNL A   1      41.635  25.575  27.628  1.00  0.00     0.010 A 
ATOM     37  C   UNL A   1      42.018  26.923  27.735  1.00  0.00    -0.014 A 
BRANCH  37  38
ATOM     38  C   UNL A   1      41.532  27.737  28.879  1.00  0.00     0.031 A 
ATOM     39  C   UNL A   1      42.259  27.615  30.192  1.00  0.00     0.074 A 
ATOM     40  C   UNL A   1      40.488  28.580  28.772  1.00  0.00     0.049 A 
ATOM     41  N   UNL A   1      41.999  28.172  31.349  1.00  0.00    -0.248 NA
ATOM     42  C   UNL A   1      43.444  26.739  30.201  1.00  0.00     0.031 C 
ATOM     43  C   UNL A   1      39.719  28.832  27.557  1.00  0.00     0.029 A 
ATOM     44  N   UNL A   1      39.895  29.380  29.719  1.00  0.00    -0.354 N 
ATOM     45  C   UNL A   1      42.991  27.727  32.212  1.00  0.00     0.074 A 
ATOM     46  C   UNL A   1      43.830  26.817  31.465  1.00  0.00     0.031 C 
ATOM     47  C   UNL A   1      38.746  29.721  27.834  1.00  0.00     0.029 A 
ATOM     48  C   UNL A   1      38.808  30.079  29.252  1.00  0.00     0.049 A 
ATOM     49  H   UNL A   1      40.217  29.446  30.647  1.00  0.00     0.167 HD
ATOM     50  C   UNL A   1      43.199  28.059  33.507  1.00  0.00     0.037 A 
ATOM     51  C   UNL A   1      37.954  30.896  29.901  1.00  0.00     0.037 A 
ATOM     52  C   UNL A   1      42.368  28.953  34.266  1.00  0.00     0.049 A 
ATOM     53  C   UNL A   1      38.150  31.169  31.375  1.00  0.00     0.074 A 
ATOM     54  C   UNL A   1      42.489  29.327  35.593  1.00  0.00     0.029 A 
ATOM     55  N   UNL A   1      41.260  29.616  33.763  1.00  0.00    -0.354 N 
ATOM     56  N   UNL A   1      39.098  30.755  32.180  1.00  0.00    -0.248 NA
ATOM     57  C   UNL A   1      37.151  32.029  32.029  1.00  0.00     0.031 C 
ATOM     58  C   UNL A   1      41.432  30.188  35.904  1.00  0.00     0.029 A 
ATOM     59  C   UNL A   1      40.682  30.387  34.758  1.00  0.00     0.049 A 
ATOM     60  H   UNL A   1      40.934  29.549  32.836  1.00  0.00     0.167 HD
ATOM     61  C   UNL A   1      38.834  31.336  33.416  1.00  0.00     0.074 A 
ATOM     62  C   UNL A   1      37.643  32.140  33.255  1.00  0.00     0.031 C 
ATOM     63  C   UNL A   1      39.516  31.213  34.579  1.00  0.00     0.037 A 
BRANCH  50  64
ATOM     64  C   UNL A   1      44.382  27.446  34.194  1.00  0.00     0.064 A 
ATOM     65  C   UNL A   1      44.327  26.147  34.718  1.00  0.00     0.173 A 
ATOM     66  C   UNL A   1      45.595  28.145  34.284  1.00  0.00     0.173 A 
ATOM     67  F   UNL A   1      43.183  25.447  34.669  1.00  0.00    -0.203 F 
ATOM     68  C   UNL A   1      45.442  25.573  35.320  1.00  0.00     0.198 A 
ATOM     69  C   UNL A   1      46.715  27.557  34.863  1.00  0.00     0.198 A 
ATOM     70  F   UNL A   1      45.697  29.390  33.796  1.00  0.00    -0.203 F 
ATOM     71  F   UNL A   1      45.359  24.342  35.845  1.00  0.00    -0.200 F 
ATOM     72  C   UNL A   1      46.637  26.273  35.384  1.00  0.00     0.200 A 
ATOM     73  F   UNL A   1      47.873  28.231  34.914  1.00  0.00    -0.200 F 
ATOM     74  F   UNL A   1      47.714  25.713  35.952  1.00  0.00    -0.200 F 
ENDBRANCH  50  64
BRANCH  51  75
ATOM     75  C   UNL A   1      36.807  31.519  29.185  1.00  0.00     0.064 A 
ATOM     76  C   UNL A   1      36.776  32.898  28.929  1.00  0.00     0.173 A 
ATOM     77  C   UNL A   1      35.680  30.765  28.826  1.00  0.00     0.173 A 
ATOM     78  F   UNL A   1      37.815  33.668  29.286  1.00  0.00    -0.203 F 
ATOM     79  C   UNL A   1      35.649  33.504  28.375  1.00  0.00     0.198 A 
ATOM     80  C   UNL A   1      34.566  31.367  28.243  1.00  0.00     0.198 A 
ATOM     81  F   UNL A   1      35.652  29.445  29.059  1.00  0.00    -0.203 F 
ATOM     82  F   UNL A   1      35.619  34.833  28.212  1.00  0.00    -0.200 F 
ATOM     83  C   UNL A   1      34.546  32.738  28.032  1.00  0.00     0.200 A 
ATOM     84  F   UNL A   1      33.502  30.624  27.911  1.00  0.00    -0.200 F 
ATOM     85  F   UNL A   1      33.456  33.323  27.517  1.00  0.00    -0.200 F 
ENDBRANCH  51  75
BRANCH  63  86
ATOM     86  C   UNL A   1      39.039  32.010  35.759  1.00  0.00     0.064 A 
ATOM     87  C   UNL A   1      38.208  31.451  36.742  1.00  0.00     0.173 A 
ATOM     88  C   UNL A   1      39.461  33.337  35.935  1.00  0.00     0.173 A 
ATOM     89  F   UNL A   1      37.766  30.191  36.616  1.00  0.00    -0.203 F 
ATOM     90  C   UNL A   1      37.795  32.202  37.841  1.00  0.00     0.198 A 
ATOM     91  C   UNL A   1      39.071  34.074  37.050  1.00  0.00     0.198 A 
ATOM     92  F   UNL A   1      40.265  33.916  35.031  1.00  0.00    -0.203 F 
ATOM     93  F   UNL A   1      36.964  31.661  38.743  1.00  0.00    -0.200 F 
ATOM     94  C   UNL A   1      38.233  33.507  37.998  1.00  0.00     0.200 A 
ATOM     95  F   UNL A   1      39.508  35.331  37.208  1.00  0.00    -0.200 F 
ATOM     96  F   UNL A   1      37.842  34.224  39.061  1.00  0.00    -0.200 F 
ENDBRANCH  63  86
ENDBRANCH  37  38
ENDBRANCH  30  32
ENDBRANCH  29  30
ENDBRANCH  28  29
ENDBRANCH  27  28
ENDBRANCH  26  27
ENDBRANCH  25  26
ENDBRANCH   1  25
TORSDOF 21
ENDMDL
MODEL 3
REMARK VINA RESULT:     -11.2      5.979     11.364
REMARK SMILES C[C@@H]1C(=O)O[C@@H]([C@@H]2CCC[C@H](CCC(=O)OCCOCCOCCOC(=O)c3ccc(-c4c5nc(c(-c6c(F)c(F)c(F)c(F)c6F)c6ccc([nH]6)c(-c6c(F)c(F)c(F)c(F)c6F)c6nc(c(-c7c(F)c(F)c(F)c(F)c7F)c7ccc4[nH]7)C=C6)C=C5)cc3)O2)[C@H]1O
REMARK SMILES IDX 20 1 19 2 18 3 17 4 16 5 14 6 15 7 13 8 12 9 11 10 7 11 8 12
REMARK SMILES IDX 91 13 9 14 10 15 6 16 1 17 2 18 3 19 92 20 4 21 5 22 93 23
REMARK SMILES IDX 21 25 22 26 23 27 24 28 25 29 26 30 27 31 28 32 29 33 90 34
REMARK SMILES IDX 30 35 89 36 31 37 32 38 33 39 83 40 34 41 88 42 82 43 84 44
REMARK SMILES IDX 35 45 87 46 81 47 80 48 36 50 68 51 48 52 67 53 49 54 52 55
REMARK SMILES IDX 66 56 85 57 50 58 51 59 65 61 86 62 53 63 37 64 38 65 46 66
REMARK SMILES IDX 39 67 40 68 44 69 47 70 41 71 42 72 45 73 43 74 69 75 70 76
REMARK SMILES IDX 78 77 71 78 72 79 76 80 79 81 73 82 74 83 77 84 75 85 54 86
REMARK SMILES IDX 55 87 63 88 56 89 57 90 61 91 64 92 58 93 59 94 62 95 60 96
REMARK H PARENT 93 24 84 49 52 60
REMARK Flexibility Score: inf
ROOT
ATOM      1  C   UNL A   1      34.357  33.572  28.249  1.00  0.00     0.188 C 
ENDROOT
BRANCH   1   2
ATOM      2  O   UNL A   1      33.383  32.678  27.722  1.00  0.00    -0.376 OA
BRANCH   2   3
ATOM      3  C   UNL A   1      33.722  31.292  27.714  1.00  0.00     0.202 C 
BRANCH   3   4
ATOM      4  C   UNL A   1      32.974  30.408  26.704  1.00  0.00     0.261 C 
BRANCH   4   5
ATOM      5  O   UNL A   1      31.856  29.697  27.271  1.00  0.00    -0.463 OA
BRANCH   5   6
ATOM      6  C   UNL A   1      31.959  28.346  27.265  1.00  0.00     0.305 C 
ATOM      7  O   UNL A   1      31.124  27.572  27.725  1.00  0.00    -0.252 OA
BRANCH   6   8
ATOM      8  C   UNL A   1      33.182  27.824  26.550  1.00  0.00     0.125 C 
BRANCH   8   9
ATOM      9  C   UNL A   1      33.220  27.817  25.027  1.00  0.00     0.044 C 
BRANCH   9  10
ATOM     10  C   UNL A   1      32.768  26.553  24.278  1.00  0.00     0.119 C 
ATOM     11  C   UNL A   1      30.746  26.993  22.927  1.00  0.00     0.162 C 
ATOM     12  C   UNL A   1      30.099  25.702  23.416  1.00  0.00     0.036 C 
ATOM     13  O   UNL A   1      32.170  26.947  23.041  1.00  0.00    -0.371 OA
ATOM     14  C   UNL A   1      30.531  25.318  24.817  1.00  0.00     0.005 C 
ATOM     15  C   UNL A   1      32.039  25.412  25.004  1.00  0.00     0.032 C 
BRANCH  11  16
ATOM     16  C   UNL A   1      30.022  28.306  23.332  1.00  0.00     0.234 C 
ATOM     17  C   UNL A   1      29.084  31.392  24.045  1.00  0.00     0.023 C 
ATOM     18  C   UNL A   1      29.004  30.427  22.876  1.00  0.00     0.128 C 
ATOM     19  C   UNL A   1      27.995  29.340  23.122  1.00  0.00     0.311 C 
ATOM     20  C   UNL A   1      30.294  29.652  22.662  1.00  0.00     0.172 C 
ATOM     21  O   UNL A   1      26.786  29.509  23.178  1.00  0.00    -0.252 OA
ATOM     22  O   UNL A   1      28.598  28.133  23.298  1.00  0.00    -0.457 OA
BRANCH  20  23
ATOM     23  O   UNL A   1      30.532  29.587  21.270  1.00  0.00    -0.388 OA
ATOM     24  H   UNL A   1      30.033  30.289  20.823  1.00  0.00     0.211 HD
ENDBRANCH  20  23
ENDBRANCH  11  16
ENDBRANCH   9  10
ENDBRANCH   8   9
ENDBRANCH   6   8
ENDBRANCH   5   6
ENDBRANCH   4   5
ENDBRANCH   3   4
ENDBRANCH   2   3
ENDBRANCH   1   2
BRANCH   1  25
ATOM     25  C   UNL A   1      33.943  35.038  28.393  1.00  0.00     0.188 C 
BRANCH  25  26
ATOM     26  O   UNL A   1      34.128  35.589  29.694  1.00  0.00    -0.376 OA
BRANCH  26  27
ATOM     27  C   UNL A   1      33.488  34.870  30.759  1.00  0.00     0.202 C 
BRANCH  27  28
ATOM     28  C   UNL A   1      34.416  34.423  31.907  1.00  0.00     0.261 C 
BRANCH  28  29
ATOM     29  O   UNL A   1      34.763  33.025  31.851  1.00  0.00    -0.460 OA
BRANCH  29  30
ATOM     30  C   UNL A   1      35.671  32.592  32.758  1.00  0.00     0.338 C 
ATOM     31  O   UNL A   1      35.565  32.644  33.970  1.00  0.00    -0.246 OA
BRANCH  30  32
ATOM     32  C   UNL A   1      36.716  31.818  32.039  1.00  0.00     0.060 A 
ATOM     33  C   UNL A   1      37.674  31.128  32.796  1.00  0.00     0.016 A 
ATOM     34  C   UNL A   1      36.726  31.716  30.644  1.00  0.00     0.016 A 
ATOM     35  C   UNL A   1      38.673  30.384  32.160  1.00  0.00     0.010 A 
ATOM     36  C   UNL A   1      37.729  30.975  30.007  1.00  0.00     0.010 A 
ATOM     37  C   UNL A   1      38.731  30.338  30.760  1.00  0.00    -0.014 A 
BRANCH  37  38
ATOM     38  C   UNL A   1      39.950  29.829  30.079  1.00  0.00     0.031 A 
ATOM     39  C   UNL A   1      41.103  30.780  29.892  1.00  0.00     0.074 A 
ATOM     40  C   UNL A   1      40.058  28.559  29.649  1.00  0.00     0.049 A 
ATOM     41  N   UNL A   1      42.248  30.597  29.283  1.00  0.00    -0.248 NA
ATOM     42  C   UNL A   1      40.939  32.125  30.470  1.00  0.00     0.031 C 
ATOM     43  C   UNL A   1      39.043  27.520  29.799  1.00  0.00     0.029 A 
ATOM     44  N   UNL A   1      41.086  27.932  28.986  1.00  0.00    -0.354 N 
ATOM     45  C   UNL A   1      42.940  31.793  29.418  1.00  0.00     0.074 A 
ATOM     46  C   UNL A   1      42.073  32.711  30.122  1.00  0.00     0.031 C 
ATOM     47  C   UNL A   1      39.496  26.384  29.236  1.00  0.00     0.029 A 
ATOM     48  C   UNL A   1      40.820  26.624  28.661  1.00  0.00     0.049 A 
ATOM     49  H   UNL A   1      41.935  28.379  28.763  1.00  0.00     0.167 HD
ATOM     50  C   UNL A   1      44.195  32.098  29.011  1.00  0.00     0.037 A 
ATOM     51  C   UNL A   1      41.555  25.733  27.964  1.00  0.00     0.037 A 
ATOM     52  C   UNL A   1      45.065  31.200  28.301  1.00  0.00     0.049 A 
ATOM     53  C   UNL A   1      42.912  26.134  27.431  1.00  0.00     0.074 A 
ATOM     54  C   UNL A   1      46.343  31.433  27.826  1.00  0.00     0.029 A 
ATOM     55  N   UNL A   1      44.745  29.894  27.966  1.00  0.00    -0.354 N 
ATOM     56  N   UNL A   1      43.564  27.262  27.575  1.00  0.00    -0.248 NA
ATOM     57  C   UNL A   1      43.635  25.128  26.636  1.00  0.00     0.031 C 
ATOM     58  C   UNL A   1      46.784  30.280  27.170  1.00  0.00     0.029 A 
ATOM     59  C   UNL A   1      45.798  29.314  27.279  1.00  0.00     0.049 A 
ATOM     60  H   UNL A   1      43.895  29.446  28.185  1.00  0.00     0.167 HD
ATOM     61  C   UNL A   1      44.784  27.086  26.930  1.00  0.00     0.074 A 
ATOM     62  C   UNL A   1      44.788  25.740  26.401  1.00  0.00     0.031 C 
ATOM     63  C   UNL A   1      45.807  27.961  26.787  1.00  0.00     0.037 A 
BRANCH  50  64
ATOM     64  C   UNL A   1      44.706  33.471  29.325  1.00  0.00     0.064 A 
ATOM     65  C   UNL A   1      45.377  33.740  30.526  1.00  0.00     0.173 A 
ATOM     66  C   UNL A   1      44.568  34.513  28.396  1.00  0.00     0.173 A 
ATOM     67  F   UNL A   1      45.518  32.779  31.452  1.00  0.00    -0.203 F 
ATOM     68  C   UNL A   1      45.881  35.010  30.793  1.00  0.00     0.198 A 
ATOM     69  C   UNL A   1      45.097  35.774  28.655  1.00  0.00     0.198 A 
ATOM     70  F   UNL A   1      43.935  34.304  27.233  1.00  0.00    -0.203 F 
ATOM     71  F   UNL A   1      46.490  35.256  31.962  1.00  0.00    -0.200 F 
ATOM     72  C   UNL A   1      45.750  36.023  29.854  1.00  0.00     0.200 A 
ATOM     73  F   UNL A   1      44.980  36.748  27.742  1.00  0.00    -0.200 F 
ATOM     74  F   UNL A   1      46.249  37.241  30.106  1.00  0.00    -0.200 F 
ENDBRANCH  50  64
BRANCH  51  75
ATOM     75  C   UNL A   1      41.036  24.364  27.697  1.00  0.00     0.064 A 
ATOM     76  C   UNL A   1      41.632  23.237  28.282  1.00  0.00     0.173 A 
ATOM     77  C   UNL A   1      39.995  24.148  26.783  1.00  0.00     0.173 A 
ATOM     78  F   UNL A   1      42.655  23.390  29.137  1.00  0.00    -0.203 F 
ATOM     79  C   UNL A   1      41.232  21.948  27.936  1.00  0.00     0.198 A 
ATOM     80  C   UNL A   1      39.575  22.859  26.460  1.00  0.00     0.198 A 
ATOM     81  F   UNL A   1      39.398  25.190  26.185  1.00  0.00    -0.203 F 
ATOM     82  F   UNL A   1      41.870  20.889  28.453  1.00  0.00    -0.200 F 
ATOM     83  C   UNL A   1      40.203  21.760  27.026  1.00  0.00     0.200 A 
ATOM     84  F   UNL A   1      38.579  22.681  25.582  1.00  0.00    -0.200 F 
ATOM     85  F   UNL A   1      39.832  20.520  26.679  1.00  0.00    -0.200 F 
ENDBRANCH  51  75
BRANCH  63  86
ATOM     86  C   UNL A   1      47.047  27.482  26.088  1.00  0.00     0.064 A 
ATOM     87  C   UNL A   1      47.206  27.600  24.699  1.00  0.00     0.173 A 
ATOM     88  C   UNL A   1      48.112  26.942  26.826  1.00  0.00     0.173 A 
ATOM     89  F   UNL A   1      46.214  28.098  23.946  1.00  0.00    -0.203 F 
ATOM     90  C   UNL A   1      48.374  27.170  24.074  1.00  0.00     0.198 A 
ATOM     91  C   UNL A   1      49.290  26.542  26.201  1.00  0.00     0.198 A 
ATOM     92  F   UNL A   1      48.017  26.817  28.158  1.00  0.00    -0.203 F 
ATOM     93  F   UNL A   1      48.485  27.251  22.740  1.00  0.00    -0.200 F 
ATOM     94  C   UNL A   1      49.417  26.650  24.824  1.00  0.00     0.200 A 
ATOM     95  F   UNL A   1      50.302  26.053  26.930  1.00  0.00    -0.200 F 
ATOM     96  F   UNL A   1      50.543  26.245  24.221  1.00  0.00    -0.200 F 
ENDBRANCH  63  86
ENDBRANCH  37  38
ENDBRANCH  30  32
ENDBRANCH  29  30
ENDBRANCH  28  29
ENDBRANCH  27  28
ENDBRANCH  26  27
ENDBRANCH  25  26
ENDBRANCH   1  25
TORSDOF 21
ENDMDL
