MODEL 1
REMARK VINA RESULT:     -10.7      0.000      0.000
REMARK SMILES O=C(CCS(=O)(=O)c1ccc2[nH]c(=O)oc2c1)OCCOCCOCCOC(=O)c1ccc(-c2c3nc(c(-c4c(F)c(F)c(F)c(F)c4F)c4ccc([nH]4)c(-c4c(F)c(F)c(F)c(F)c4F)c4nc(c(-c5c(F)c(F)c(F)c(F)c5F)c5ccc2[nH]5)C=C4)C=C3)cc1
REMARK SMILES IDX 22 1 21 2 20 3 19 4 18 5 2 6 1 7 3 8 4 9 5 10 6 11 7 12 8 13
REMARK SMILES IDX 9 14 17 15 10 16 16 17 11 18 15 19 12 20 13 21 14 23 23 24
REMARK SMILES IDX 24 25 25 26 26 27 27 28 28 29 29 30 30 31 31 32 92 33 32 34
REMARK SMILES IDX 91 35 33 36 34 37 35 38 85 39 36 40 90 41 84 42 86 43 37 44
REMARK SMILES IDX 89 45 83 46 82 47 38 49 70 50 50 51 69 52 51 53 54 54 68 55
REMARK SMILES IDX 87 56 52 57 53 58 67 60 88 61 55 62 39 63 40 64 48 65 41 66
REMARK SMILES IDX 42 67 46 68 49 69 43 70 44 71 47 72 45 73 71 74 72 75 80 76
REMARK SMILES IDX 73 77 74 78 78 79 81 80 75 81 76 82 79 83 77 84 56 85 57 86
REMARK SMILES IDX 65 87 58 88 59 89 63 90 66 91 60 92 61 93 64 94 62 95
REMARK H PARENT 12 22 86 48 54 59
REMARK Flexibility Score: inf
ROOT
ATOM      1  C   UNL A   1      42.184  20.250  26.413  1.00  0.00     0.188 C 
ENDROOT
BRANCH   1   2
ATOM      2  O   UNL A   1      41.465  21.291  25.753  1.00  0.00    -0.376 OA
BRANCH   2   3
ATOM      3  C   UNL A   1      40.297  21.818  26.366  1.00  0.00     0.202 C 
BRANCH   3   4
ATOM      4  C   UNL A   1      38.936  21.395  25.821  1.00  0.00     0.261 C 
BRANCH   4   5
ATOM      5  O   UNL A   1      38.125  22.449  25.270  1.00  0.00    -0.463 OA
BRANCH   5   6
ATOM      6  C   UNL A   1      37.765  23.565  25.937  1.00  0.00     0.306 C 
ATOM      7  O   UNL A   1      38.594  24.250  26.531  1.00  0.00    -0.252 OA
BRANCH   6   8
ATOM      8  C   UNL A   1      36.326  23.959  25.914  1.00  0.00     0.139 C 
BRANCH   8   9
ATOM      9  C   UNL A   1      35.370  22.798  26.090  1.00  0.00     0.154 C 
BRANCH   9  10
ATOM     10  S   UNL A   1      33.646  22.977  25.679  1.00  0.00     0.179 S 
ATOM     11  O   UNL A   1      33.327  22.038  24.621  1.00  0.00    -0.224 OA
ATOM     12  O   UNL A   1      32.910  22.919  26.927  1.00  0.00    -0.224 OA
BRANCH  10  13
ATOM     13  C   UNL A   1      33.382  24.618  25.044  1.00  0.00     0.071 A 
ATOM     14  C   UNL A   1      33.571  24.889  23.664  1.00  0.00     0.023 A 
ATOM     15  C   UNL A   1      32.983  25.622  25.933  1.00  0.00     0.069 A 
ATOM     16  C   UNL A   1      33.434  26.189  23.168  1.00  0.00     0.031 A 
ATOM     17  C   UNL A   1      32.820  26.884  25.406  1.00  0.00     0.157 A 
ATOM     18  C   UNL A   1      33.050  27.151  24.071  1.00  0.00     0.087 A 
ATOM     19  O   UNL A   1      32.408  28.004  26.108  1.00  0.00    -0.408 OA
ATOM     20  N   UNL A   1      32.786  28.478  23.897  1.00  0.00    -0.287 N 
ATOM     21  C   UNL A   1      32.382  28.989  25.110  1.00  0.00     0.417 A 
ATOM     22  H   UNL A   1      32.870  28.980  23.055  1.00  0.00     0.173 HD
ATOM     23  O   UNL A   1      32.032  30.141  25.298  1.00  0.00    -0.224 OA
ENDBRANCH  10  13
ENDBRANCH   9  10
ENDBRANCH   8   9
ENDBRANCH   6   8
ENDBRANCH   5   6
ENDBRANCH   4   5
ENDBRANCH   3   4
ENDBRANCH   2   3
ENDBRANCH   1   2
BRANCH   1  24
ATOM     24  C   UNL A   1      43.121  19.309  25.627  1.00  0.00     0.188 C 
BRANCH  24  25
ATOM     25  O   UNL A   1      43.745  19.938  24.515  1.00  0.00    -0.376 OA
BRANCH  25  26
ATOM     26  C   UNL A   1      44.752  20.889  24.833  1.00  0.00     0.202 C 
BRANCH  26  27
ATOM     27  C   UNL A   1      44.697  22.267  24.129  1.00  0.00     0.261 C 
BRANCH  27  28
ATOM     28  O   UNL A   1      43.905  23.286  24.767  1.00  0.00    -0.460 OA
BRANCH  28  29
ATOM     29  C   UNL A   1      44.528  24.448  25.064  1.00  0.00     0.338 C 
ATOM     30  O   UNL A   1      45.576  24.851  24.587  1.00  0.00    -0.246 OA
BRANCH  29  31
ATOM     31  C   UNL A   1      43.652  25.281  25.922  1.00  0.00     0.060 A 
ATOM     32  C   UNL A   1      44.003  26.626  26.104  1.00  0.00     0.016 A 
ATOM     33  C   UNL A   1      42.527  24.760  26.566  1.00  0.00     0.016 A 
ATOM     34  C   UNL A   1      43.239  27.451  26.930  1.00  0.00     0.010 A 
ATOM     35  C   UNL A   1      41.788  25.575  27.437  1.00  0.00     0.010 A 
ATOM     36  C   UNL A   1      42.162  26.915  27.647  1.00  0.00    -0.014 A 
BRANCH  36  37
ATOM     37  C   UNL A   1      41.641  27.676  28.812  1.00  0.00     0.031 A 
ATOM     38  C   UNL A   1      42.405  27.571  30.105  1.00  0.00     0.074 A 
ATOM     39  C   UNL A   1      40.570  28.485  28.727  1.00  0.00     0.049 A 
ATOM     40  N   UNL A   1      42.192  28.157  31.255  1.00  0.00    -0.248 NA
ATOM     41  C   UNL A   1      43.577  26.681  30.091  1.00  0.00     0.031 C 
ATOM     42  C   UNL A   1      39.775  28.717  27.526  1.00  0.00     0.029 A 
ATOM     43  N   UNL A   1      39.970  29.268  29.685  1.00  0.00    -0.354 N 
ATOM     44  C   UNL A   1      43.202  27.708  32.096  1.00  0.00     0.074 A 
ATOM     45  C   UNL A   1      44.006  26.775  31.339  1.00  0.00     0.031 C 
ATOM     46  C   UNL A   1      38.788  29.585  27.818  1.00  0.00     0.029 A 
ATOM     47  C   UNL A   1      38.866  29.948  29.234  1.00  0.00     0.049 A 
ATOM     48  H   UNL A   1      40.302  29.335  30.610  1.00  0.00     0.167 HD
ATOM     49  C   UNL A   1      43.447  28.046  33.384  1.00  0.00     0.037 A 
ATOM     50  C   UNL A   1      38.018  30.761  29.894  1.00  0.00     0.037 A 
ATOM     51  C   UNL A   1      42.637  28.960  34.145  1.00  0.00     0.049 A 
ATOM     52  C   UNL A   1      38.255  31.049  31.359  1.00  0.00     0.074 A 
ATOM     53  C   UNL A   1      42.804  29.377  35.453  1.00  0.00     0.029 A 
ATOM     54  N   UNL A   1      41.492  29.583  33.668  1.00  0.00    -0.354 N 
ATOM     55  N   UNL A   1      39.233  30.652  32.138  1.00  0.00    -0.248 NA
ATOM     56  C   UNL A   1      37.269  31.907  32.034  1.00  0.00     0.031 C 
ATOM     57  C   UNL A   1      41.723  30.198  35.791  1.00  0.00     0.029 A 
ATOM     58  C   UNL A   1      40.923  30.354  34.669  1.00  0.00     0.049 A 
ATOM     59  H   UNL A   1      41.138  29.491  32.755  1.00  0.00     0.167 HD
ATOM     60  C   UNL A   1      39.005  31.245  33.375  1.00  0.00     0.074 A 
ATOM     61  C   UNL A   1      37.800  32.036  33.240  1.00  0.00     0.031 C 
ATOM     62  C   UNL A   1      39.730  31.148  34.519  1.00  0.00     0.037 A 
BRANCH  49  63
ATOM     63  C   UNL A   1      44.611  27.382  34.061  1.00  0.00     0.064 A 
ATOM     64  C   UNL A   1      45.890  27.959  34.077  1.00  0.00     0.173 A 
ATOM     65  C   UNL A   1      44.443  26.147  34.704  1.00  0.00     0.173 A 
ATOM     66  F   UNL A   1      46.111  29.130  33.460  1.00  0.00    -0.203 F 
ATOM     67  C   UNL A   1      46.964  27.306  34.677  1.00  0.00     0.198 A 
ATOM     68  C   UNL A   1      45.510  25.514  35.337  1.00  0.00     0.198 A 
ATOM     69  F   UNL A   1      43.241  25.550  34.721  1.00  0.00    -0.203 F 
ATOM     70  F   UNL A   1      48.190  27.846  34.623  1.00  0.00    -0.200 F 
ATOM     71  C   UNL A   1      46.771  26.088  35.313  1.00  0.00     0.200 A 
ATOM     72  F   UNL A   1      45.318  24.344  35.961  1.00  0.00    -0.200 F 
ATOM     73  F   UNL A   1      47.804  25.463  35.893  1.00  0.00    -0.200 F 
ENDBRANCH  49  63
BRANCH  50  74
ATOM     74  C   UNL A   1      36.856  31.371  29.190  1.00  0.00     0.064 A 
ATOM     75  C   UNL A   1      36.834  32.739  28.878  1.00  0.00     0.173 A 
ATOM     76  C   UNL A   1      35.725  30.612  28.852  1.00  0.00     0.173 A 
ATOM     77  F   UNL A   1      37.876  33.517  29.207  1.00  0.00    -0.203 F 
ATOM     78  C   UNL A   1      35.721  33.326  28.280  1.00  0.00     0.198 A 
ATOM     79  C   UNL A   1      34.626  31.194  28.226  1.00  0.00     0.198 A 
ATOM     80  F   UNL A   1      35.688  29.301  29.134  1.00  0.00    -0.203 F 
ATOM     81  F   UNL A   1      35.705  34.646  28.048  1.00  0.00    -0.200 F 
ATOM     82  C   UNL A   1      34.619  32.552  27.949  1.00  0.00     0.200 A 
ATOM     83  F   UNL A   1      33.567  30.440  27.898  1.00  0.00    -0.200 F 
ATOM     84  F   UNL A   1      33.548  33.117  27.374  1.00  0.00    -0.200 F 
ENDBRANCH  50  74
BRANCH  62  85
ATOM     85  C   UNL A   1      39.277  31.961  35.701  1.00  0.00     0.064 A 
ATOM     86  C   UNL A   1      39.717  33.276  35.915  1.00  0.00     0.173 A 
ATOM     87  C   UNL A   1      38.359  31.423  36.618  1.00  0.00     0.173 A 
ATOM     88  F   UNL A   1      40.601  33.838  35.078  1.00  0.00    -0.203 F 
ATOM     89  C   UNL A   1      39.284  34.007  37.020  1.00  0.00     0.198 A 
ATOM     90  C   UNL A   1      37.899  32.169  37.700  1.00  0.00     0.198 A 
ATOM     91  F   UNL A   1      37.895  30.174  36.457  1.00  0.00    -0.203 F 
ATOM     92  F   UNL A   1      39.766  35.238  37.237  1.00  0.00    -0.200 F 
ATOM     93  C   UNL A   1      38.371  33.455  37.907  1.00  0.00     0.200 A 
ATOM     94  F   UNL A   1      37.000  31.641  38.542  1.00  0.00    -0.200 F 
ATOM     95  F   UNL A   1      37.952  34.161  38.966  1.00  0.00    -0.200 F 
ENDBRANCH  62  85
ENDBRANCH  36  37
ENDBRANCH  29  31
ENDBRANCH  28  29
ENDBRANCH  27  28
ENDBRANCH  26  27
ENDBRANCH  25  26
ENDBRANCH  24  25
ENDBRANCH   1  24
TORSDOF 20
ENDMDL
MODEL 2
REMARK VINA RESULT:     -10.7      4.844     10.785
REMARK SMILES O=C(CCS(=O)(=O)c1ccc2[nH]c(=O)oc2c1)OCCOCCOCCOC(=O)c1ccc(-c2c3nc(c(-c4c(F)c(F)c(F)c(F)c4F)c4ccc([nH]4)c(-c4c(F)c(F)c(F)c(F)c4F)c4nc(c(-c5c(F)c(F)c(F)c(F)c5F)c5ccc2[nH]5)C=C4)C=C3)cc1
REMARK SMILES IDX 22 1 21 2 20 3 19 4 18 5 2 6 1 7 3 8 4 9 5 10 6 11 7 12 8 13
REMARK SMILES IDX 9 14 17 15 10 16 16 17 11 18 15 19 12 20 13 21 14 23 23 24
REMARK SMILES IDX 24 25 25 26 26 27 27 28 28 29 29 30 30 31 31 32 92 33 32 34
REMARK SMILES IDX 91 35 33 36 34 37 35 38 85 39 36 40 90 41 84 42 86 43 37 44
REMARK SMILES IDX 89 45 83 46 82 47 38 49 70 50 50 51 69 52 51 53 54 54 68 55
REMARK SMILES IDX 87 56 52 57 53 58 67 60 88 61 55 62 39 63 40 64 48 65 41 66
REMARK SMILES IDX 42 67 46 68 49 69 43 70 44 71 47 72 45 73 71 74 72 75 80 76
REMARK SMILES IDX 73 77 74 78 78 79 81 80 75 81 76 82 79 83 77 84 56 85 57 86
REMARK SMILES IDX 65 87 58 88 59 89 63 90 66 91 60 92 61 93 64 94 62 95
REMARK H PARENT 12 22 86 48 54 59
REMARK Flexibility Score: inf
ROOT
ATOM      1  C   UNL A   1      33.753  33.570  28.105  1.00  0.00     0.188 C 
ENDROOT
BRANCH   1   2
ATOM      2  O   UNL A   1      34.896  32.777  27.789  1.00  0.00    -0.376 OA
BRANCH   2   3
ATOM      3  C   UNL A   1      34.749  31.368  27.676  1.00  0.00     0.202 C 
BRANCH   3   4
ATOM      4  C   UNL A   1      33.399  30.812  27.233  1.00  0.00     0.261 C 
BRANCH   4   5
ATOM      5  O   UNL A   1      33.384  29.422  26.861  1.00  0.00    -0.463 OA
BRANCH   5   6
ATOM      6  C   UNL A   1      33.157  28.967  25.611  1.00  0.00     0.306 C 
ATOM      7  O   UNL A   1      32.658  29.688  24.750  1.00  0.00    -0.252 OA
BRANCH   6   8
ATOM      8  C   UNL A   1      33.551  27.563  25.296  1.00  0.00     0.139 C 
BRANCH   8   9
ATOM      9  C   UNL A   1      32.468  26.763  24.603  1.00  0.00     0.154 C 
BRANCH   9  10
ATOM     10  S   UNL A   1      31.470  25.609  25.522  1.00  0.00     0.179 S 
ATOM     11  O   UNL A   1      31.101  26.224  26.783  1.00  0.00    -0.224 OA
ATOM     12  O   UNL A   1      30.429  25.149  24.624  1.00  0.00    -0.224 OA
BRANCH  10  13
ATOM     13  C   UNL A   1      32.454  24.173  25.888  1.00  0.00     0.071 A 
ATOM     14  C   UNL A   1      32.223  23.433  27.076  1.00  0.00     0.023 A 
ATOM     15  C   UNL A   1      33.450  23.797  24.980  1.00  0.00     0.069 A 
ATOM     16  C   UNL A   1      33.036  22.344  27.407  1.00  0.00     0.031 A 
ATOM     17  C   UNL A   1      34.209  22.698  25.317  1.00  0.00     0.157 A 
ATOM     18  C   UNL A   1      34.009  22.008  26.496  1.00  0.00     0.087 A 
ATOM     19  O   UNL A   1      35.222  22.150  24.548  1.00  0.00    -0.408 OA
ATOM     20  N   UNL A   1      34.915  20.989  26.500  1.00  0.00    -0.287 N 
ATOM     21  C   UNL A   1      35.630  21.058  25.326  1.00  0.00     0.417 A 
ATOM     22  H   UNL A   1      35.035  20.323  27.215  1.00  0.00     0.173 HD
ATOM     23  O   UNL A   1      36.497  20.269  24.991  1.00  0.00    -0.224 OA
ENDBRANCH  10  13
ENDBRANCH   9  10
ENDBRANCH   8   9
ENDBRANCH   6   8
ENDBRANCH   5   6
ENDBRANCH   4   5
ENDBRANCH   3   4
ENDBRANCH   2   3
ENDBRANCH   1   2
BRANCH   1  24
ATOM     24  C   UNL A   1      33.858  34.764  29.077  1.00  0.00     0.188 C 
BRANCH  24  25
ATOM     25  O   UNL A   1      33.264  34.513  30.343  1.00  0.00    -0.376 OA
BRANCH  25  26
ATOM     26  C   UNL A   1      33.780  35.275  31.426  1.00  0.00     0.202 C 
BRANCH  26  27
ATOM     27  C   UNL A   1      34.763  34.581  32.400  1.00  0.00     0.261 C 
BRANCH  27  28
ATOM     28  O   UNL A   1      35.078  33.204  32.126  1.00  0.00    -0.460 OA
BRANCH  28  29
ATOM     29  C   UNL A   1      35.964  32.603  32.951  1.00  0.00     0.338 C 
ATOM     30  O   UNL A   1      35.940  32.613  34.170  1.00  0.00    -0.246 OA
BRANCH  29  31
ATOM     31  C   UNL A   1      36.882  31.747  32.163  1.00  0.00     0.060 A 
ATOM     32  C   UNL A   1      37.949  31.138  32.838  1.00  0.00     0.016 A 
ATOM     33  C   UNL A   1      36.730  31.562  30.786  1.00  0.00     0.016 A 
ATOM     34  C   UNL A   1      38.869  30.351  32.144  1.00  0.00     0.010 A 
ATOM     35  C   UNL A   1      37.683  30.813  30.079  1.00  0.00     0.010 A 
ATOM     36  C   UNL A   1      38.774  30.232  30.752  1.00  0.00    -0.014 A 
BRANCH  36  37
ATOM     37  C   UNL A   1      39.967  29.760  30.001  1.00  0.00     0.031 A 
ATOM     38  C   UNL A   1      41.101  30.735  29.821  1.00  0.00     0.074 A 
ATOM     39  C   UNL A   1      40.084  28.501  29.546  1.00  0.00     0.049 A 
ATOM     40  N   UNL A   1      42.264  30.572  29.245  1.00  0.00    -0.248 NA
ATOM     41  C   UNL A   1      40.888  32.082  30.376  1.00  0.00     0.031 C 
ATOM     42  C   UNL A   1      39.086  27.447  29.700  1.00  0.00     0.029 A 
ATOM     43  N   UNL A   1      41.110  27.897  28.859  1.00  0.00    -0.354 N 
ATOM     44  C   UNL A   1      42.918  31.791  29.370  1.00  0.00     0.074 A 
ATOM     45  C   UNL A   1      42.012  32.694  30.044  1.00  0.00     0.031 C 
ATOM     46  C   UNL A   1      39.548  26.323  29.121  1.00  0.00     0.029 A 
ATOM     47  C   UNL A   1      40.863  26.586  28.534  1.00  0.00     0.049 A 
ATOM     48  H   UNL A   1      41.946  28.362  28.622  1.00  0.00     0.167 HD
ATOM     49  C   UNL A   1      44.165  32.130  28.968  1.00  0.00     0.037 A 
ATOM     50  C   UNL A   1      41.612  25.709  27.835  1.00  0.00     0.037 A 
ATOM     51  C   UNL A   1      45.060  31.237  28.281  1.00  0.00     0.049 A 
ATOM     52  C   UNL A   1      42.963  26.139  27.312  1.00  0.00     0.074 A 
ATOM     53  C   UNL A   1      46.349  31.479  27.838  1.00  0.00     0.029 A 
ATOM     54  N   UNL A   1      44.749  29.935  27.917  1.00  0.00    -0.354 N 
ATOM     55  N   UNL A   1      43.592  27.280  27.467  1.00  0.00    -0.248 NA
ATOM     56  C   UNL A   1      43.712  25.152  26.520  1.00  0.00     0.031 C 
ATOM     57  C   UNL A   1      46.792  30.347  27.147  1.00  0.00     0.029 A 
ATOM     58  C   UNL A   1      45.809  29.372  27.225  1.00  0.00     0.049 A 
ATOM     59  H   UNL A   1      43.902  29.478  28.122  1.00  0.00     0.167 HD
ATOM     60  C   UNL A   1      44.821  27.132  26.833  1.00  0.00     0.074 A 
ATOM     61  C   UNL A   1      44.853  25.787  26.299  1.00  0.00     0.031 C 
ATOM     62  C   UNL A   1      45.835  28.026  26.709  1.00  0.00     0.037 A 
BRANCH  49  63
ATOM     63  C   UNL A   1      44.610  33.542  29.220  1.00  0.00     0.064 A 
ATOM     64  C   UNL A   1      45.285  33.910  30.394  1.00  0.00     0.173 A 
ATOM     65  C   UNL A   1      44.356  34.542  28.270  1.00  0.00     0.173 A 
ATOM     66  F   UNL A   1      45.537  32.997  31.344  1.00  0.00    -0.203 F 
ATOM     67  C   UNL A   1      45.654  35.233  30.623  1.00  0.00     0.198 A 
ATOM     68  C   UNL A   1      44.759  35.857  28.486  1.00  0.00     0.198 A 
ATOM     69  F   UNL A   1      43.714  34.246  27.130  1.00  0.00    -0.203 F 
ATOM     70  F   UNL A   1      46.240  35.573  31.780  1.00  0.00    -0.200 F 
ATOM     71  C   UNL A   1      45.398  36.204  29.666  1.00  0.00     0.200 A 
ATOM     72  F   UNL A   1      44.522  36.790  27.553  1.00  0.00    -0.200 F 
ATOM     73  F   UNL A   1      45.755  37.476  29.887  1.00  0.00    -0.200 F 
ENDBRANCH  49  63
BRANCH  50  74
ATOM     74  C   UNL A   1      41.115  24.328  27.580  1.00  0.00     0.064 A 
ATOM     75  C   UNL A   1      41.709  23.218  28.199  1.00  0.00     0.173 A 
ATOM     76  C   UNL A   1      40.066  24.084  26.681  1.00  0.00     0.173 A 
ATOM     77  F   UNL A   1      42.737  23.394  29.044  1.00  0.00    -0.203 F 
ATOM     78  C   UNL A   1      41.291  21.920  27.911  1.00  0.00     0.198 A 
ATOM     79  C   UNL A   1      39.628  22.788  26.418  1.00  0.00     0.198 A 
ATOM     80  F   UNL A   1      39.467  25.107  26.054  1.00  0.00    -0.203 F 
ATOM     81  F   UNL A   1      41.917  20.877  28.472  1.00  0.00    -0.200 F 
ATOM     82  C   UNL A   1      40.247  21.706  27.025  1.00  0.00     0.200 A 
ATOM     83  F   UNL A   1      38.611  22.586  25.568  1.00  0.00    -0.200 F 
ATOM     84  F   UNL A   1      39.845  20.458  26.747  1.00  0.00    -0.200 F 
ENDBRANCH  50  74
BRANCH  62  85
ATOM     85  C   UNL A   1      47.089  27.565  26.019  1.00  0.00     0.064 A 
ATOM     86  C   UNL A   1      47.234  27.614  24.624  1.00  0.00     0.173 A 
ATOM     87  C   UNL A   1      48.179  27.100  26.772  1.00  0.00     0.173 A 
ATOM     88  F   UNL A   1      46.223  28.041  23.854  1.00  0.00    -0.203 F 
ATOM     89  C   UNL A   1      48.407  27.178  24.009  1.00  0.00     0.198 A 
ATOM     90  C   UNL A   1      49.363  26.701  26.157  1.00  0.00     0.198 A 
ATOM     91  F   UNL A   1      48.101  27.042  28.111  1.00  0.00    -0.203 F 
ATOM     92  F   UNL A   1      48.498  27.176  22.672  1.00  0.00    -0.200 F 
ATOM     93  C   UNL A   1      49.471  26.729  24.776  1.00  0.00     0.200 A 
ATOM     94  F   UNL A   1      50.397  26.289  26.902  1.00  0.00    -0.200 F 
ATOM     95  F   UNL A   1      50.600  26.316  24.183  1.00  0.00    -0.200 F 
ENDBRANCH  62  85
ENDBRANCH  36  37
ENDBRANCH  29  31
ENDBRANCH  28  29
ENDBRANCH  27  28
ENDBRANCH  26  27
ENDBRANCH  25  26
ENDBRANCH  24  25
ENDBRANCH   1  24
TORSDOF 20
ENDMDL
MODEL 3
REMARK VINA RESULT:     -10.6      1.404      2.530
REMARK SMILES O=C(CCS(=O)(=O)c1ccc2[nH]c(=O)oc2c1)OCCOCCOCCOC(=O)c1ccc(-c2c3nc(c(-c4c(F)c(F)c(F)c(F)c4F)c4ccc([nH]4)c(-c4c(F)c(F)c(F)c(F)c4F)c4nc(c(-c5c(F)c(F)c(F)c(F)c5F)c5ccc2[nH]5)C=C4)C=C3)cc1
REMARK SMILES IDX 22 1 21 2 20 3 19 4 18 5 2 6 1 7 3 8 4 9 5 10 6 11 7 12 8 13
REMARK SMILES IDX 9 14 17 15 10 16 16 17 11 18 15 19 12 20 13 21 14 23 23 24
REMARK SMILES IDX 24 25 25 26 26 27 27 28 28 29 29 30 30 31 31 32 92 33 32 34
REMARK SMILES IDX 91 35 33 36 34 37 35 38 85 39 36 40 90 41 84 42 86 43 37 44
REMARK SMILES IDX 89 45 83 46 82 47 38 49 70 50 50 51 69 52 51 53 54 54 68 55
REMARK SMILES IDX 87 56 52 57 53 58 67 60 88 61 55 62 39 63 40 64 48 65 41 66
REMARK SMILES IDX 42 67 46 68 49 69 43 70 44 71 47 72 45 73 71 74 72 75 80 76
REMARK SMILES IDX 73 77 74 78 78 79 81 80 75 81 76 82 79 83 77 84 56 85 57 86
REMARK SMILES IDX 65 87 58 88 59 89 63 90 66 91 60 92 61 93 64 94 62 95
REMARK H PARENT 12 22 86 48 54 59
REMARK Flexibility Score: inf
ROOT
ATOM      1  C   UNL A   1      41.233  20.835  27.614  1.00  0.00     0.188 C 
ENDROOT
BRANCH   1   2
ATOM      2  O   UNL A   1      40.246  21.864  27.683  1.00  0.00    -0.376 OA
BRANCH   2   3
ATOM      3  C   UNL A   1      39.884  22.553  26.495  1.00  0.00     0.202 C 
BRANCH   3   4
ATOM      4  C   UNL A   1      38.764  23.585  26.567  1.00  0.00     0.261 C 
BRANCH   4   5
ATOM      5  O   UNL A   1      37.858  23.609  25.448  1.00  0.00    -0.463 OA
BRANCH   5   6
ATOM      6  C   UNL A   1      36.570  23.213  25.499  1.00  0.00     0.306 C 
ATOM      7  O   UNL A   1      36.244  22.168  26.058  1.00  0.00    -0.252 OA
BRANCH   6   8
ATOM      8  C   UNL A   1      35.542  24.096  24.873  1.00  0.00     0.139 C 
BRANCH   8   9
ATOM      9  C   UNL A   1      35.150  23.680  23.470  1.00  0.00     0.154 C 
BRANCH   9  10
ATOM     10  S   UNL A   1      33.704  24.374  22.695  1.00  0.00     0.179 S 
ATOM     11  O   UNL A   1      34.009  25.732  22.287  1.00  0.00    -0.224 OA
ATOM     12  O   UNL A   1      33.262  23.414  21.701  1.00  0.00    -0.224 OA
BRANCH  10  13
ATOM     13  C   UNL A   1      32.396  24.451  23.899  1.00  0.00     0.071 A 
ATOM     14  C   UNL A   1      31.702  25.668  24.122  1.00  0.00     0.023 A 
ATOM     15  C   UNL A   1      32.072  23.290  24.608  1.00  0.00     0.069 A 
ATOM     16  C   UNL A   1      30.721  25.757  25.114  1.00  0.00     0.031 A 
ATOM     17  C   UNL A   1      31.075  23.401  25.552  1.00  0.00     0.157 A 
ATOM     18  C   UNL A   1      30.435  24.600  25.797  1.00  0.00     0.087 A 
ATOM     19  O   UNL A   1      30.591  22.370  26.340  1.00  0.00    -0.408 OA
ATOM     20  N   UNL A   1      29.513  24.348  26.770  1.00  0.00    -0.287 N 
ATOM     21  C   UNL A   1      29.589  23.009  27.085  1.00  0.00     0.417 A 
ATOM     22  H   UNL A   1      28.903  25.005  27.175  1.00  0.00     0.173 HD
ATOM     23  O   UNL A   1      28.873  22.442  27.892  1.00  0.00    -0.224 OA
ENDBRANCH  10  13
ENDBRANCH   9  10
ENDBRANCH   8   9
ENDBRANCH   6   8
ENDBRANCH   5   6
ENDBRANCH   4   5
ENDBRANCH   3   4
ENDBRANCH   2   3
ENDBRANCH   1   2
BRANCH   1  24
ATOM     24  C   UNL A   1      41.821  20.388  26.259  1.00  0.00     0.188 C 
BRANCH  24  25
ATOM     25  O   UNL A   1      42.327  21.466  25.483  1.00  0.00    -0.376 OA
BRANCH  25  26
ATOM     26  C   UNL A   1      43.741  21.612  25.482  1.00  0.00     0.202 C 
BRANCH  26  27
ATOM     27  C   UNL A   1      44.369  22.590  24.458  1.00  0.00     0.261 C 
BRANCH  27  28
ATOM     28  O   UNL A   1      43.821  23.920  24.416  1.00  0.00    -0.460 OA
BRANCH  28  29
ATOM     29  C   UNL A   1      44.505  24.884  25.069  1.00  0.00     0.338 C 
ATOM     30  O   UNL A   1      45.658  25.223  24.860  1.00  0.00    -0.246 OA
BRANCH  29  31
ATOM     31  C   UNL A   1      43.589  25.630  25.965  1.00  0.00     0.060 A 
ATOM     32  C   UNL A   1      43.776  27.014  26.086  1.00  0.00     0.016 A 
ATOM     33  C   UNL A   1      42.583  24.994  26.698  1.00  0.00     0.016 A 
ATOM     34  C   UNL A   1      42.969  27.765  26.942  1.00  0.00     0.010 A 
ATOM     35  C   UNL A   1      41.805  25.740  27.597  1.00  0.00     0.010 A 
ATOM     36  C   UNL A   1      42.019  27.123  27.746  1.00  0.00    -0.014 A 
BRANCH  36  37
ATOM     37  C   UNL A   1      41.482  27.853  28.924  1.00  0.00     0.031 A 
ATOM     38  C   UNL A   1      42.236  27.721  30.221  1.00  0.00     0.074 A 
ATOM     39  C   UNL A   1      40.407  28.656  28.849  1.00  0.00     0.049 A 
ATOM     40  N   UNL A   1      42.009  28.277  31.383  1.00  0.00    -0.248 NA
ATOM     41  C   UNL A   1      43.414  26.838  30.196  1.00  0.00     0.031 C 
ATOM     42  C   UNL A   1      39.622  28.913  27.646  1.00  0.00     0.029 A 
ATOM     43  N   UNL A   1      39.794  29.412  29.821  1.00  0.00    -0.354 N 
ATOM     44  C   UNL A   1      43.014  27.814  32.222  1.00  0.00     0.074 A 
ATOM     45  C   UNL A   1      43.831  26.905  31.450  1.00  0.00     0.031 C 
ATOM     46  C   UNL A   1      38.627  29.767  27.950  1.00  0.00     0.029 A 
ATOM     47  C   UNL A   1      38.690  30.097  29.375  1.00  0.00     0.049 A 
ATOM     48  H   UNL A   1      40.118  29.459  30.750  1.00  0.00     0.167 HD
ATOM     49  C   UNL A   1      43.245  28.122  33.520  1.00  0.00     0.037 A 
ATOM     50  C   UNL A   1      37.830  30.887  30.048  1.00  0.00     0.037 A 
ATOM     51  C   UNL A   1      42.423  29.012  34.295  1.00  0.00     0.049 A 
ATOM     52  C   UNL A   1      38.053  31.142  31.521  1.00  0.00     0.074 A 
ATOM     53  C   UNL A   1      42.575  29.399  35.615  1.00  0.00     0.029 A 
ATOM     54  N   UNL A   1      41.278  29.640  33.824  1.00  0.00    -0.354 N 
ATOM     55  N   UNL A   1      39.027  30.732  32.299  1.00  0.00    -0.248 NA
ATOM     56  C   UNL A   1      37.056  31.977  32.207  1.00  0.00     0.031 C 
ATOM     57  C   UNL A   1      41.486  30.204  35.962  1.00  0.00     0.029 A 
ATOM     58  C   UNL A   1      40.695  30.383  34.837  1.00  0.00     0.049 A 
ATOM     59  H   UNL A   1      40.933  29.568  32.905  1.00  0.00     0.167 HD
ATOM     60  C   UNL A   1      38.784  31.293  33.548  1.00  0.00     0.074 A 
ATOM     61  C   UNL A   1      37.575  32.080  33.421  1.00  0.00     0.031 C 
ATOM     62  C   UNL A   1      39.499  31.173  34.696  1.00  0.00     0.037 A 
BRANCH  49  63
ATOM     63  C   UNL A   1      44.408  27.449  34.191  1.00  0.00     0.064 A 
ATOM     64  C   UNL A   1      45.703  27.988  34.153  1.00  0.00     0.173 A 
ATOM     65  C   UNL A   1      44.221  26.243  34.884  1.00  0.00     0.173 A 
ATOM     66  F   UNL A   1      45.941  29.129  33.488  1.00  0.00    -0.203 F 
ATOM     67  C   UNL A   1      46.773  27.326  34.750  1.00  0.00     0.198 A 
ATOM     68  C   UNL A   1      45.286  25.603  35.512  1.00  0.00     0.198 A 
ATOM     69  F   UNL A   1      43.004  25.683  34.953  1.00  0.00    -0.203 F 
ATOM     70  F   UNL A   1      48.012  27.827  34.645  1.00  0.00    -0.200 F 
ATOM     71  C   UNL A   1      46.562  26.139  35.435  1.00  0.00     0.200 A 
ATOM     72  F   UNL A   1      45.077  24.463  36.184  1.00  0.00    -0.200 F 
ATOM     73  F   UNL A   1      47.592  25.504  36.011  1.00  0.00    -0.200 F 
ENDBRANCH  49  63
BRANCH  50  74
ATOM     74  C   UNL A   1      36.671  31.508  29.348  1.00  0.00     0.064 A 
ATOM     75  C   UNL A   1      35.584  30.732  28.918  1.00  0.00     0.173 A 
ATOM     76  C   UNL A   1      36.644  32.880  29.055  1.00  0.00     0.173 A 
ATOM     77  F   UNL A   1      35.575  29.409  29.144  1.00  0.00    -0.203 F 
ATOM     78  C   UNL A   1      34.530  31.297  28.203  1.00  0.00     0.198 A 
ATOM     79  C   UNL A   1      35.574  33.450  28.368  1.00  0.00     0.198 A 
ATOM     80  F   UNL A   1      37.659  33.668  29.435  1.00  0.00    -0.203 F 
ATOM     81  F   UNL A   1      33.534  30.521  27.753  1.00  0.00    -0.200 F 
ATOM     82  C   UNL A   1      34.523  32.657  27.933  1.00  0.00     0.200 A 
ATOM     83  F   UNL A   1      35.566  34.767  28.119  1.00  0.00    -0.200 F 
ATOM     84  F   UNL A   1      33.509  33.202  27.246  1.00  0.00    -0.200 F 
ENDBRANCH  50  74
BRANCH  62  85
ATOM     85  C   UNL A   1      39.030  31.954  35.893  1.00  0.00     0.064 A 
ATOM     86  C   UNL A   1      38.194  31.392  36.870  1.00  0.00     0.173 A 
ATOM     87  C   UNL A   1      39.456  33.278  36.083  1.00  0.00     0.173 A 
ATOM     88  F   UNL A   1      37.748  30.134  36.735  1.00  0.00    -0.203 F 
ATOM     89  C   UNL A   1      37.772  32.138  37.969  1.00  0.00     0.198 A 
ATOM     90  C   UNL A   1      39.064  34.008  37.203  1.00  0.00     0.198 A 
ATOM     91  F   UNL A   1      40.266  33.863  35.188  1.00  0.00    -0.203 F 
ATOM     92  F   UNL A   1      36.923  31.599  38.855  1.00  0.00    -0.200 F 
ATOM     93  C   UNL A   1      38.212  33.442  38.137  1.00  0.00     0.200 A 
ATOM     94  F   UNL A   1      39.509  35.260  37.373  1.00  0.00    -0.200 F 
ATOM     95  F   UNL A   1      37.810  34.155  39.198  1.00  0.00    -0.200 F 
ENDBRANCH  62  85
ENDBRANCH  36  37
ENDBRANCH  29  31
ENDBRANCH  28  29
ENDBRANCH  27  28
ENDBRANCH  26  27
ENDBRANCH  25  26
ENDBRANCH  24  25
ENDBRANCH   1  24
TORSDOF 20
ENDMDL
