MODEL 1
REMARK VINA RESULT:     -10.7      0.000      0.000
REMARK SMILES Cc1oc(CNC(=O)c2ccnn2C)cc1C(=O)OCCOCCOCCOC(=O)c1ccc(-c2c3nc(c(-c4c(F)c(F)c(F)c(F)c4F)c4ccc([nH]4)c(-c4c(F)c(F)c(F)c(F)c4F)c4nc(c(-c5c(F)c(F)c(F)c(F)c5F)c5ccc2[nH]5)C=C4)C=C3)cc1
REMARK SMILES IDX 23 1 22 2 21 3 20 4 19 5 17 6 18 7 16 8 1 9 2 10 3 11 4 12
REMARK SMILES IDX 15 13 5 14 6 15 7 16 8 18 9 19 10 20 13 21 11 22 12 23 14 24
REMARK SMILES IDX 24 25 25 26 26 27 27 28 28 29 29 30 30 31 31 32 32 33 93 34
REMARK SMILES IDX 33 35 92 36 34 37 35 38 36 39 86 40 37 41 91 42 85 43 87 44
REMARK SMILES IDX 38 45 90 46 84 47 83 48 39 50 71 51 51 52 70 53 52 54 55 55
REMARK SMILES IDX 69 56 88 57 53 58 54 59 68 61 89 62 56 63 40 64 41 65 49 66
REMARK SMILES IDX 42 67 43 68 47 69 50 70 44 71 45 72 48 73 46 74 72 75 73 76
REMARK SMILES IDX 81 77 74 78 75 79 79 80 82 81 76 82 77 83 80 84 78 85 57 86
REMARK SMILES IDX 58 87 66 88 59 89 60 90 64 91 67 92 61 93 62 94 65 95 63 96
REMARK H PARENT 6 17 87 49 55 60
REMARK Flexibility Score: inf
ROOT
ATOM      1  C   UNL A   1      33.554  29.497  26.157  1.00  0.00     0.188 C 
ENDROOT
BRANCH   1   2
ATOM      2  O   UNL A   1      33.124  28.195  25.773  1.00  0.00    -0.376 OA
BRANCH   2   3
ATOM      3  C   UNL A   1      31.895  27.677  26.264  1.00  0.00     0.202 C 
BRANCH   3   4
ATOM      4  C   UNL A   1      31.805  26.161  26.458  1.00  0.00     0.261 C 
BRANCH   4   5
ATOM      5  O   UNL A   1      30.479  25.654  26.241  1.00  0.00    -0.460 OA
BRANCH   5   6
ATOM      6  C   UNL A   1      30.052  25.693  24.945  1.00  0.00     0.341 C 
ATOM      7  O   UNL A   1      29.147  26.395  24.530  1.00  0.00    -0.246 OA
BRANCH   6   8
ATOM      8  C   UNL A   1      30.909  24.944  24.041  1.00  0.00     0.101 A 
ATOM      9  C   UNL A   1      32.091  26.703  22.458  1.00  0.00     0.088 C 
ATOM     10  C   UNL A   1      31.726  25.379  23.011  1.00  0.00     0.115 A 
ATOM     11  O   UNL A   1      32.365  24.313  22.437  1.00  0.00    -0.464 OA
ATOM     12  C   UNL A   1      31.965  23.194  23.099  1.00  0.00     0.124 A 
ATOM     13  C   UNL A   1      31.059  23.529  24.076  1.00  0.00     0.063 A 
BRANCH  12  14
ATOM     14  C   UNL A   1      32.619  21.901  22.801  1.00  0.00     0.191 C 
BRANCH  14  15
ATOM     15  N   UNL A   1      32.128  20.818  23.615  1.00  0.00    -0.343 N 
ATOM     16  C   UNL A   1      32.704  20.264  24.728  1.00  0.00     0.269 C 
ATOM     17  H   UNL A   1      31.270  20.426  23.336  1.00  0.00     0.164 HD
ATOM     18  O   UNL A   1      32.136  19.312  25.260  1.00  0.00    -0.268 OA
BRANCH  16  19
ATOM     19  C   UNL A   1      33.972  20.767  25.185  1.00  0.00     0.125 A 
ATOM     20  C   UNL A   1      35.225  20.265  24.877  1.00  0.00     0.055 A 
ATOM     21  N   UNL A   1      34.218  21.795  26.063  1.00  0.00    -0.263 N 
ATOM     22  C   UNL A   1      36.138  21.128  25.498  1.00  0.00     0.136 A 
ATOM     23  N   UNL A   1      35.528  22.085  26.200  1.00  0.00    -0.181 NA
ATOM     24  C   UNL A   1      33.269  22.582  26.817  1.00  0.00     0.174 C 
ENDBRANCH  16  19
ENDBRANCH  14  15
ENDBRANCH  12  14
ENDBRANCH   6   8
ENDBRANCH   5   6
ENDBRANCH   4   5
ENDBRANCH   3   4
ENDBRANCH   2   3
ENDBRANCH   1   2
BRANCH   1  25
ATOM     25  C   UNL A   1      32.666  30.383  27.052  1.00  0.00     0.188 C 
BRANCH  25  26
ATOM     26  O   UNL A   1      31.657  31.089  26.351  1.00  0.00    -0.376 OA
BRANCH  26  27
ATOM     27  C   UNL A   1      31.410  32.416  26.788  1.00  0.00     0.202 C 
BRANCH  27  28
ATOM     28  C   UNL A   1      32.682  33.178  27.173  1.00  0.00     0.261 C 
BRANCH  28  29
ATOM     29  O   UNL A   1      32.521  34.112  28.255  1.00  0.00    -0.460 OA
BRANCH  29  30
ATOM     30  C   UNL A   1      33.595  34.867  28.575  1.00  0.00     0.338 C 
ATOM     31  O   UNL A   1      33.647  36.080  28.653  1.00  0.00    -0.246 OA
BRANCH  30  32
ATOM     32  C   UNL A   1      34.687  33.956  28.976  1.00  0.00     0.060 A 
ATOM     33  C   UNL A   1      34.375  32.802  29.704  1.00  0.00     0.016 A 
ATOM     34  C   UNL A   1      36.013  34.248  28.644  1.00  0.00     0.016 A 
ATOM     35  C   UNL A   1      35.399  31.948  30.127  1.00  0.00     0.010 A 
ATOM     36  C   UNL A   1      37.035  33.402  29.080  1.00  0.00     0.010 A 
ATOM     37  C   UNL A   1      36.736  32.262  29.845  1.00  0.00    -0.014 A 
BRANCH  37  38
ATOM     38  C   UNL A   1      37.835  31.495  30.484  1.00  0.00     0.031 A 
ATOM     39  C   UNL A   1      38.199  31.807  31.909  1.00  0.00     0.074 A 
ATOM     40  C   UNL A   1      38.508  30.544  29.811  1.00  0.00     0.049 A 
ATOM     41  N   UNL A   1      39.148  31.303  32.656  1.00  0.00    -0.248 NA
ATOM     42  C   UNL A   1      37.379  32.828  32.582  1.00  0.00     0.031 C 
ATOM     43  C   UNL A   1      38.243  30.133  28.435  1.00  0.00     0.029 A 
ATOM     44  N   UNL A   1      39.568  29.762  30.201  1.00  0.00    -0.354 N 
ATOM     45  C   UNL A   1      39.040  31.942  33.883  1.00  0.00     0.074 A 
ATOM     46  C   UNL A   1      37.951  32.890  33.774  1.00  0.00     0.031 C 
ATOM     47  C   UNL A   1      39.129  29.182  28.088  1.00  0.00     0.029 A 
ATOM     48  C   UNL A   1      40.038  28.938  29.207  1.00  0.00     0.049 A 
ATOM     49  H   UNL A   1      39.953  29.789  31.106  1.00  0.00     0.167 HD
ATOM     50  C   UNL A   1      39.776  31.753  35.003  1.00  0.00     0.037 A 
ATOM     51  C   UNL A   1      41.094  28.101  29.201  1.00  0.00     0.037 A 
ATOM     52  C   UNL A   1      40.867  30.823  35.115  1.00  0.00     0.049 A 
ATOM     53  C   UNL A   1      41.944  27.959  30.439  1.00  0.00     0.074 A 
ATOM     54  C   UNL A   1      41.660  30.549  36.215  1.00  0.00     0.029 A 
ATOM     55  N   UNL A   1      41.327  30.021  34.080  1.00  0.00    -0.354 N 
ATOM     56  N   UNL A   1      41.809  28.538  31.606  1.00  0.00    -0.248 NA
ATOM     57  C   UNL A   1      43.092  27.044  30.355  1.00  0.00     0.031 C 
ATOM     58  C   UNL A   1      42.627  29.612  35.835  1.00  0.00     0.029 A 
ATOM     59  C   UNL A   1      42.407  29.269  34.511  1.00  0.00     0.049 A 
ATOM     60  H   UNL A   1      40.941  29.992  33.175  1.00  0.00     0.167 HD
ATOM     61  C   UNL A   1      42.834  28.040  32.402  1.00  0.00     0.074 A 
ATOM     62  C   UNL A   1      43.578  27.103  31.587  1.00  0.00     0.031 C 
ATOM     63  C   UNL A   1      43.132  28.332  33.692  1.00  0.00     0.037 A 
BRANCH  50  64
ATOM     64  C   UNL A   1      39.434  32.590  36.199  1.00  0.00     0.064 A 
ATOM     65  C   UNL A   1      38.452  32.188  37.118  1.00  0.00     0.173 A 
ATOM     66  C   UNL A   1      40.115  33.792  36.445  1.00  0.00     0.173 A 
ATOM     67  F   UNL A   1      37.764  31.055  36.917  1.00  0.00    -0.203 F 
ATOM     68  C   UNL A   1      38.149  32.973  38.227  1.00  0.00     0.198 A 
ATOM     69  C   UNL A   1      39.825  34.561  37.568  1.00  0.00     0.198 A 
ATOM     70  F   UNL A   1      41.062  34.217  35.597  1.00  0.00    -0.203 F 
ATOM     71  F   UNL A   1      37.178  32.591  39.069  1.00  0.00    -0.200 F 
ATOM     72  C   UNL A   1      38.839  34.154  38.455  1.00  0.00     0.200 A 
ATOM     73  F   UNL A   1      40.498  35.698  37.791  1.00  0.00    -0.200 F 
ATOM     74  F   UNL A   1      38.547  34.906  39.525  1.00  0.00    -0.200 F 
ENDBRANCH  50  64
BRANCH  51  75
ATOM     75  C   UNL A   1      41.425  27.331  27.973  1.00  0.00     0.064 A 
ATOM     76  C   UNL A   1      40.957  26.022  27.794  1.00  0.00     0.173 A 
ATOM     77  C   UNL A   1      42.238  27.878  26.970  1.00  0.00     0.173 A 
ATOM     78  F   UNL A   1      40.200  25.447  28.740  1.00  0.00    -0.203 F 
ATOM     79  C   UNL A   1      41.305  25.282  26.666  1.00  0.00     0.198 A 
ATOM     80  C   UNL A   1      42.564  27.146  25.830  1.00  0.00     0.198 A 
ATOM     81  F   UNL A   1      42.715  29.125  27.098  1.00  0.00    -0.203 F 
ATOM     82  F   UNL A   1      40.882  24.017  26.541  1.00  0.00    -0.200 F 
ATOM     83  C   UNL A   1      42.104  25.847  25.682  1.00  0.00     0.200 A 
ATOM     84  F   UNL A   1      43.331  27.697  24.879  1.00  0.00    -0.200 F 
ATOM     85  F   UNL A   1      42.437  25.134  24.598  1.00  0.00    -0.200 F 
ENDBRANCH  51  75
BRANCH  63  86
ATOM     86  C   UNL A   1      44.287  27.607  34.318  1.00  0.00     0.064 A 
ATOM     87  C   UNL A   1      44.130  26.343  34.907  1.00  0.00     0.173 A 
ATOM     88  C   UNL A   1      45.576  28.161  34.283  1.00  0.00     0.173 A 
ATOM     89  F   UNL A   1      42.916  25.779  34.978  1.00  0.00    -0.203 F 
ATOM     90  C   UNL A   1      45.219  25.671  35.456  1.00  0.00     0.198 A 
ATOM     91  C   UNL A   1      46.666  27.474  34.809  1.00  0.00     0.198 A 
ATOM     92  F   UNL A   1      45.779  29.363  33.725  1.00  0.00    -0.203 F 
ATOM     93  F   UNL A   1      45.041  24.482  36.049  1.00  0.00    -0.200 F 
ATOM     94  C   UNL A   1      46.486  26.233  35.400  1.00  0.00     0.200 A 
ATOM     95  F   UNL A   1      47.891  28.013  34.743  1.00  0.00    -0.200 F 
ATOM     96  F   UNL A   1      47.534  25.580  35.921  1.00  0.00    -0.200 F 
ENDBRANCH  63  86
ENDBRANCH  37  38
ENDBRANCH  30  32
ENDBRANCH  29  30
ENDBRANCH  28  29
ENDBRANCH  27  28
ENDBRANCH  26  27
ENDBRANCH  25  26
ENDBRANCH   1  25
TORSDOF 20
ENDMDL
MODEL 2
REMARK VINA RESULT:     -10.6      2.511      3.997
REMARK SMILES Cc1oc(CNC(=O)c2ccnn2C)cc1C(=O)OCCOCCOCCOC(=O)c1ccc(-c2c3nc(c(-c4c(F)c(F)c(F)c(F)c4F)c4ccc([nH]4)c(-c4c(F)c(F)c(F)c(F)c4F)c4nc(c(-c5c(F)c(F)c(F)c(F)c5F)c5ccc2[nH]5)C=C4)C=C3)cc1
REMARK SMILES IDX 23 1 22 2 21 3 20 4 19 5 17 6 18 7 16 8 1 9 2 10 3 11 4 12
REMARK SMILES IDX 15 13 5 14 6 15 7 16 8 18 9 19 10 20 13 21 11 22 12 23 14 24
REMARK SMILES IDX 24 25 25 26 26 27 27 28 28 29 29 30 30 31 31 32 32 33 93 34
REMARK SMILES IDX 33 35 92 36 34 37 35 38 36 39 86 40 37 41 91 42 85 43 87 44
REMARK SMILES IDX 38 45 90 46 84 47 83 48 39 50 71 51 51 52 70 53 52 54 55 55
REMARK SMILES IDX 69 56 88 57 53 58 54 59 68 61 89 62 56 63 40 64 41 65 49 66
REMARK SMILES IDX 42 67 43 68 47 69 50 70 44 71 45 72 48 73 46 74 72 75 73 76
REMARK SMILES IDX 81 77 74 78 75 79 79 80 82 81 76 82 77 83 80 84 78 85 57 86
REMARK SMILES IDX 58 87 66 88 59 89 60 90 64 91 67 92 61 93 62 94 65 95 63 96
REMARK H PARENT 6 17 87 49 55 60
REMARK Flexibility Score: inf
ROOT
ATOM      1  C   UNL A   1      33.832  29.388  26.095  1.00  0.00     0.188 C 
ENDROOT
BRANCH   1   2
ATOM      2  O   UNL A   1      33.196  28.182  25.684  1.00  0.00    -0.376 OA
BRANCH   2   3
ATOM      3  C   UNL A   1      33.642  26.931  26.190  1.00  0.00     0.202 C 
BRANCH   3   4
ATOM      4  C   UNL A   1      33.608  25.739  25.230  1.00  0.00     0.261 C 
BRANCH   4   5
ATOM      5  O   UNL A   1      32.555  24.812  25.540  1.00  0.00    -0.460 OA
BRANCH   5   6
ATOM      6  C   UNL A   1      31.731  24.506  24.496  1.00  0.00     0.341 C 
ATOM      7  O   UNL A   1      31.085  23.478  24.396  1.00  0.00    -0.246 OA
BRANCH   6   8
ATOM      8  C   UNL A   1      31.539  25.617  23.578  1.00  0.00     0.101 A 
ATOM      9  C   UNL A   1      32.902  25.053  21.383  1.00  0.00     0.088 C 
ATOM     10  C   UNL A   1      32.046  25.830  22.308  1.00  0.00     0.115 A 
ATOM     11  O   UNL A   1      31.580  27.017  21.809  1.00  0.00    -0.464 OA
ATOM     12  C   UNL A   1      30.769  27.565  22.755  1.00  0.00     0.124 A 
ATOM     13  C   UNL A   1      30.729  26.752  23.862  1.00  0.00     0.063 A 
BRANCH  12  14
ATOM     14  C   UNL A   1      29.990  28.778  22.428  1.00  0.00     0.191 C 
BRANCH  14  15
ATOM     15  N   UNL A   1      28.592  28.660  22.760  1.00  0.00    -0.343 N 
ATOM     16  C   UNL A   1      27.668  29.661  22.914  1.00  0.00     0.269 C 
ATOM     17  H   UNL A   1      28.258  27.744  22.892  1.00  0.00     0.164 HD
ATOM     18  O   UNL A   1      26.525  29.348  23.240  1.00  0.00    -0.268 OA
BRANCH  16  19
ATOM     19  C   UNL A   1      28.086  31.029  22.762  1.00  0.00     0.125 A 
ATOM     20  C   UNL A   1      28.359  31.933  23.773  1.00  0.00     0.055 A 
ATOM     21  N   UNL A   1      28.240  31.751  21.602  1.00  0.00    -0.263 N 
ATOM     22  C   UNL A   1      28.789  33.101  23.128  1.00  0.00     0.136 A 
ATOM     23  N   UNL A   1      28.748  32.985  21.800  1.00  0.00    -0.181 NA
ATOM     24  C   UNL A   1      27.944  31.351  20.245  1.00  0.00     0.174 C 
ENDBRANCH  16  19
ENDBRANCH  14  15
ENDBRANCH  12  14
ENDBRANCH   6   8
ENDBRANCH   5   6
ENDBRANCH   4   5
ENDBRANCH   3   4
ENDBRANCH   2   3
ENDBRANCH   1   2
BRANCH   1  25
ATOM     25  C   UNL A   1      33.069  30.429  26.935  1.00  0.00     0.188 C 
BRANCH  25  26
ATOM     26  O   UNL A   1      31.751  30.689  26.481  1.00  0.00    -0.376 OA
BRANCH  26  27
ATOM     27  C   UNL A   1      31.274  32.010  26.683  1.00  0.00     0.202 C 
BRANCH  27  28
ATOM     28  C   UNL A   1      32.393  33.043  26.854  1.00  0.00     0.261 C 
BRANCH  28  29
ATOM     29  O   UNL A   1      32.397  33.723  28.122  1.00  0.00    -0.460 OA
BRANCH  29  30
ATOM     30  C   UNL A   1      33.466  34.504  28.391  1.00  0.00     0.338 C 
ATOM     31  O   UNL A   1      33.504  35.720  28.415  1.00  0.00    -0.246 OA
BRANCH  30  32
ATOM     32  C   UNL A   1      34.575  33.625  28.816  1.00  0.00     0.060 A 
ATOM     33  C   UNL A   1      34.280  32.454  29.524  1.00  0.00     0.016 A 
ATOM     34  C   UNL A   1      35.900  33.963  28.526  1.00  0.00     0.016 A 
ATOM     35  C   UNL A   1      35.317  31.630  29.969  1.00  0.00     0.010 A 
ATOM     36  C   UNL A   1      36.936  33.146  28.985  1.00  0.00     0.010 A 
ATOM     37  C   UNL A   1      36.652  31.989  29.730  1.00  0.00    -0.014 A 
BRANCH  37  38
ATOM     38  C   UNL A   1      37.755  31.252  30.394  1.00  0.00     0.031 A 
ATOM     39  C   UNL A   1      38.080  31.574  31.826  1.00  0.00     0.074 A 
ATOM     40  C   UNL A   1      38.468  30.318  29.738  1.00  0.00     0.049 A 
ATOM     41  N   UNL A   1      39.025  31.096  32.595  1.00  0.00    -0.248 NA
ATOM     42  C   UNL A   1      37.219  32.573  32.479  1.00  0.00     0.031 C 
ATOM     43  C   UNL A   1      38.245  29.900  28.357  1.00  0.00     0.029 A 
ATOM     44  N   UNL A   1      39.539  29.564  30.151  1.00  0.00    -0.354 N 
ATOM     45  C   UNL A   1      38.873  31.733  33.819  1.00  0.00     0.074 A 
ATOM     46  C   UNL A   1      37.763  32.652  33.684  1.00  0.00     0.031 C 
ATOM     47  C   UNL A   1      39.163  28.972  28.030  1.00  0.00     0.029 A 
ATOM     48  C   UNL A   1      40.053  28.753  29.170  1.00  0.00     0.049 A 
ATOM     49  H   UNL A   1      39.904  29.602  31.065  1.00  0.00     0.167 HD
ATOM     50  C   UNL A   1      39.589  31.564  34.955  1.00  0.00     0.037 A 
ATOM     51  C   UNL A   1      41.131  27.944  29.188  1.00  0.00     0.037 A 
ATOM     52  C   UNL A   1      40.701  30.662  35.092  1.00  0.00     0.049 A 
ATOM     53  C   UNL A   1      41.956  27.825  30.444  1.00  0.00     0.074 A 
ATOM     54  C   UNL A   1      41.476  30.410  36.210  1.00  0.00     0.029 A 
ATOM     55  N   UNL A   1      41.204  29.873  34.068  1.00  0.00    -0.354 N 
ATOM     56  N   UNL A   1      41.780  28.401  31.608  1.00  0.00    -0.248 NA
ATOM     57  C   UNL A   1      43.129  26.940  30.387  1.00  0.00     0.031 C 
ATOM     58  C   UNL A   1      42.476  29.499  35.852  1.00  0.00     0.029 A 
ATOM     59  C   UNL A   1      42.295  29.149  34.524  1.00  0.00     0.049 A 
ATOM     60  H   UNL A   1      40.840  29.832  33.155  1.00  0.00     0.167 HD
ATOM     61  C   UNL A   1      42.800  27.931  32.427  1.00  0.00     0.074 A 
ATOM     62  C   UNL A   1      43.587  27.013  31.629  1.00  0.00     0.031 C 
ATOM     63  C   UNL A   1      43.062  28.231  33.722  1.00  0.00     0.037 A 
BRANCH  50  64
ATOM     64  C   UNL A   1      39.199  32.392  36.142  1.00  0.00     0.064 A 
ATOM     65  C   UNL A   1      38.323  31.901  37.122  1.00  0.00     0.173 A 
ATOM     66  C   UNL A   1      39.728  33.679  36.316  1.00  0.00     0.173 A 
ATOM     67  F   UNL A   1      37.780  30.682  36.991  1.00  0.00    -0.203 F 
ATOM     68  C   UNL A   1      37.973  32.679  38.222  1.00  0.00     0.198 A 
ATOM     69  C   UNL A   1      39.394  34.445  37.429  1.00  0.00     0.198 A 
ATOM     70  F   UNL A   1      40.570  34.192  35.407  1.00  0.00    -0.203 F 
ATOM     71  F   UNL A   1      37.102  32.206  39.125  1.00  0.00    -0.200 F 
ATOM     72  C   UNL A   1      38.514  33.947  38.378  1.00  0.00     0.200 A 
ATOM     73  F   UNL A   1      39.923  35.667  37.583  1.00  0.00    -0.200 F 
ATOM     74  F   UNL A   1      38.178  34.693  39.440  1.00  0.00    -0.200 F 
ENDBRANCH  50  64
BRANCH  51  75
ATOM     75  C   UNL A   1      41.509  27.182  27.969  1.00  0.00     0.064 A 
ATOM     76  C   UNL A   1      41.054  25.872  27.766  1.00  0.00     0.173 A 
ATOM     77  C   UNL A   1      42.354  27.738  26.998  1.00  0.00     0.173 A 
ATOM     78  F   UNL A   1      40.266  25.289  28.682  1.00  0.00    -0.203 F 
ATOM     79  C   UNL A   1      41.445  25.139  26.648  1.00  0.00     0.198 A 
ATOM     80  C   UNL A   1      42.724  27.013  25.866  1.00  0.00     0.198 A 
ATOM     81  F   UNL A   1      42.821  28.986  27.149  1.00  0.00    -0.203 F 
ATOM     82  F   UNL A   1      41.032  23.873  26.500  1.00  0.00    -0.200 F 
ATOM     83  C   UNL A   1      42.275  25.713  25.696  1.00  0.00     0.200 A 
ATOM     84  F   UNL A   1      43.522  27.573  24.946  1.00  0.00    -0.200 F 
ATOM     85  F   UNL A   1      42.651  25.007  24.621  1.00  0.00    -0.200 F 
ENDBRANCH  51  75
BRANCH  63  86
ATOM     86  C   UNL A   1      44.221  27.537  34.375  1.00  0.00     0.064 A 
ATOM     87  C   UNL A   1      44.067  26.308  35.033  1.00  0.00     0.173 A 
ATOM     88  C   UNL A   1      45.511  28.084  34.296  1.00  0.00     0.173 A 
ATOM     89  F   UNL A   1      42.852  25.752  35.147  1.00  0.00    -0.203 F 
ATOM     90  C   UNL A   1      45.160  25.662  35.606  1.00  0.00     0.198 A 
ATOM     91  C   UNL A   1      46.605  27.422  34.847  1.00  0.00     0.198 A 
ATOM     92  F   UNL A   1      45.712  29.253  33.672  1.00  0.00    -0.203 F 
ATOM     93  F   UNL A   1      44.984  24.508  36.265  1.00  0.00    -0.200 F 
ATOM     94  C   UNL A   1      46.428  26.216  35.507  1.00  0.00     0.200 A 
ATOM     95  F   UNL A   1      47.831  27.953  34.740  1.00  0.00    -0.200 F 
ATOM     96  F   UNL A   1      47.479  25.588  36.052  1.00  0.00    -0.200 F 
ENDBRANCH  63  86
ENDBRANCH  37  38
ENDBRANCH  30  32
ENDBRANCH  29  30
ENDBRANCH  28  29
ENDBRANCH  27  28
ENDBRANCH  26  27
ENDBRANCH  25  26
ENDBRANCH   1  25
TORSDOF 20
ENDMDL
MODEL 3
REMARK VINA RESULT:     -10.5      2.692      4.450
REMARK SMILES Cc1oc(CNC(=O)c2ccnn2C)cc1C(=O)OCCOCCOCCOC(=O)c1ccc(-c2c3nc(c(-c4c(F)c(F)c(F)c(F)c4F)c4ccc([nH]4)c(-c4c(F)c(F)c(F)c(F)c4F)c4nc(c(-c5c(F)c(F)c(F)c(F)c5F)c5ccc2[nH]5)C=C4)C=C3)cc1
REMARK SMILES IDX 23 1 22 2 21 3 20 4 19 5 17 6 18 7 16 8 1 9 2 10 3 11 4 12
REMARK SMILES IDX 15 13 5 14 6 15 7 16 8 18 9 19 10 20 13 21 11 22 12 23 14 24
REMARK SMILES IDX 24 25 25 26 26 27 27 28 28 29 29 30 30 31 31 32 32 33 93 34
REMARK SMILES IDX 33 35 92 36 34 37 35 38 36 39 86 40 37 41 91 42 85 43 87 44
REMARK SMILES IDX 38 45 90 46 84 47 83 48 39 50 71 51 51 52 70 53 52 54 55 55
REMARK SMILES IDX 69 56 88 57 53 58 54 59 68 61 89 62 56 63 40 64 41 65 49 66
REMARK SMILES IDX 42 67 43 68 47 69 50 70 44 71 45 72 48 73 46 74 72 75 73 76
REMARK SMILES IDX 81 77 74 78 75 79 79 80 82 81 76 82 77 83 80 84 78 85 57 86
REMARK SMILES IDX 58 87 66 88 59 89 60 90 64 91 67 92 61 93 62 94 65 95 63 96
REMARK H PARENT 6 17 87 49 55 60
REMARK Flexibility Score: inf
ROOT
ATOM      1  C   UNL A   1      34.259  29.684  26.880  1.00  0.00     0.188 C 
ENDROOT
BRANCH   1   2
ATOM      2  O   UNL A   1      33.666  28.614  26.152  1.00  0.00    -0.376 OA
BRANCH   2   3
ATOM      3  C   UNL A   1      34.053  27.271  26.415  1.00  0.00     0.202 C 
BRANCH   3   4
ATOM      4  C   UNL A   1      33.703  26.224  25.355  1.00  0.00     0.261 C 
BRANCH   4   5
ATOM      5  O   UNL A   1      32.793  25.226  25.845  1.00  0.00    -0.460 OA
BRANCH   5   6
ATOM      6  C   UNL A   1      31.853  24.812  24.947  1.00  0.00     0.341 C 
ATOM      7  O   UNL A   1      31.158  23.820  25.074  1.00  0.00    -0.246 OA
BRANCH   6   8
ATOM      8  C   UNL A   1      31.615  25.777  23.886  1.00  0.00     0.101 A 
ATOM      9  C   UNL A   1      32.810  24.853  21.715  1.00  0.00     0.088 C 
ATOM     10  C   UNL A   1      32.035  25.784  22.567  1.00  0.00     0.115 A 
ATOM     11  O   UNL A   1      31.554  26.894  21.927  1.00  0.00    -0.464 OA
ATOM     12  C   UNL A   1      30.821  27.599  22.831  1.00  0.00     0.124 A 
ATOM     13  C   UNL A   1      30.847  26.963  24.048  1.00  0.00     0.063 A 
BRANCH  12  14
ATOM     14  C   UNL A   1      30.041  28.771  22.377  1.00  0.00     0.191 C 
BRANCH  14  15
ATOM     15  N   UNL A   1      28.640  28.679  22.704  1.00  0.00    -0.343 N 
ATOM     16  C   UNL A   1      27.744  29.698  22.892  1.00  0.00     0.269 C 
ATOM     17  H   UNL A   1      28.281  27.768  22.803  1.00  0.00     0.164 HD
ATOM     18  O   UNL A   1      26.592  29.405  23.205  1.00  0.00    -0.268 OA
BRANCH  16  19
ATOM     19  C   UNL A   1      28.198  31.059  22.788  1.00  0.00     0.125 A 
ATOM     20  C   UNL A   1      28.630  31.873  23.821  1.00  0.00     0.055 A 
ATOM     21  N   UNL A   1      28.242  31.862  21.673  1.00  0.00    -0.263 N 
ATOM     22  C   UNL A   1      29.029  33.071  23.213  1.00  0.00     0.136 A 
ATOM     23  N   UNL A   1      28.824  33.059  21.895  1.00  0.00    -0.181 NA
ATOM     24  C   UNL A   1      27.769  31.578  20.338  1.00  0.00     0.174 C 
ENDBRANCH  16  19
ENDBRANCH  14  15
ENDBRANCH  12  14
ENDBRANCH   6   8
ENDBRANCH   5   6
ENDBRANCH   4   5
ENDBRANCH   3   4
ENDBRANCH   2   3
ENDBRANCH   1   2
BRANCH   1  25
ATOM     25  C   UNL A   1      33.387  30.812  27.463  1.00  0.00     0.188 C 
BRANCH  25  26
ATOM     26  O   UNL A   1      32.156  31.003  26.787  1.00  0.00    -0.376 OA
BRANCH  26  27
ATOM     27  C   UNL A   1      31.657  32.331  26.770  1.00  0.00     0.202 C 
BRANCH  27  28
ATOM     28  C   UNL A   1      32.672  33.371  27.255  1.00  0.00     0.261 C 
BRANCH  28  29
ATOM     29  O   UNL A   1      32.237  34.162  28.375  1.00  0.00    -0.460 OA
BRANCH  29  30
ATOM     30  C   UNL A   1      33.046  35.174  28.758  1.00  0.00     0.338 C 
ATOM     31  O   UNL A   1      32.831  36.368  28.658  1.00  0.00    -0.246 OA
BRANCH  30  32
ATOM     32  C   UNL A   1      34.196  34.589  29.477  1.00  0.00     0.060 A 
ATOM     33  C   UNL A   1      35.461  34.630  28.880  1.00  0.00     0.016 A 
ATOM     34  C   UNL A   1      34.022  33.994  30.730  1.00  0.00     0.016 A 
ATOM     35  C   UNL A   1      36.555  34.046  29.527  1.00  0.00     0.010 A 
ATOM     36  C   UNL A   1      35.113  33.398  31.368  1.00  0.00     0.010 A 
ATOM     37  C   UNL A   1      36.380  33.399  30.759  1.00  0.00    -0.014 A 
BRANCH  37  38
ATOM     38  C   UNL A   1      37.474  32.581  31.337  1.00  0.00     0.031 A 
ATOM     39  C   UNL A   1      38.000  32.939  32.699  1.00  0.00     0.074 A 
ATOM     40  C   UNL A   1      38.004  31.543  30.664  1.00  0.00     0.049 A 
ATOM     41  N   UNL A   1      38.978  32.400  33.383  1.00  0.00    -0.248 NA
ATOM     42  C   UNL A   1      37.331  34.057  33.382  1.00  0.00     0.031 C 
ATOM     43  C   UNL A   1      37.574  31.082  29.347  1.00  0.00     0.029 A 
ATOM     44  N   UNL A   1      39.035  30.700  30.999  1.00  0.00    -0.354 N 
ATOM     45  C   UNL A   1      39.040  33.111  34.573  1.00  0.00     0.074 A 
ATOM     46  C   UNL A   1      38.021  34.138  34.509  1.00  0.00     0.031 C 
ATOM     47  C   UNL A   1      38.347  30.044  28.977  1.00  0.00     0.029 A 
ATOM     48  C   UNL A   1      39.341  29.788  30.019  1.00  0.00     0.049 A 
ATOM     49  H   UNL A   1      39.509  30.744  31.861  1.00  0.00     0.167 HD
ATOM     50  C   UNL A   1      39.866  32.924  35.629  1.00  0.00     0.037 A 
ATOM     51  C   UNL A   1      40.325  28.869  29.964  1.00  0.00     0.037 A 
ATOM     52  C   UNL A   1      40.889  31.915  35.695  1.00  0.00     0.049 A 
ATOM     53  C   UNL A   1      41.279  28.725  31.123  1.00  0.00     0.074 A 
ATOM     54  C   UNL A   1      41.764  31.637  36.730  1.00  0.00     0.029 A 
ATOM     55  N   UNL A   1      41.182  31.024  34.672  1.00  0.00    -0.354 N 
ATOM     56  N   UNL A   1      41.305  29.376  32.260  1.00  0.00    -0.248 NA
ATOM     57  C   UNL A   1      42.341  27.716  30.988  1.00  0.00     0.031 C 
ATOM     58  C   UNL A   1      42.615  30.606  36.319  1.00  0.00     0.029 A 
ATOM     59  C   UNL A   1      42.240  30.211  35.045  1.00  0.00     0.049 A 
ATOM     60  H   UNL A   1      40.708  30.977  33.811  1.00  0.00     0.167 HD
ATOM     61  C   UNL A   1      42.362  28.840  32.985  1.00  0.00     0.074 A 
ATOM     62  C   UNL A   1      42.950  27.802  32.163  1.00  0.00     0.031 C 
ATOM     63  C   UNL A   1      42.808  29.175  34.221  1.00  0.00     0.037 A 
BRANCH  50  64
ATOM     64  C   UNL A   1      39.708  33.849  36.798  1.00  0.00     0.064 A 
ATOM     65  C   UNL A   1      38.902  33.512  37.895  1.00  0.00     0.173 A 
ATOM     66  C   UNL A   1      40.393  35.073  36.834  1.00  0.00     0.173 A 
ATOM     67  F   UNL A   1      38.216  32.360  37.899  1.00  0.00    -0.203 F 
ATOM     68  C   UNL A   1      38.768  34.379  38.977  1.00  0.00     0.198 A 
ATOM     69  C   UNL A   1      40.276  35.925  37.928  1.00  0.00     0.198 A 
ATOM     70  F   UNL A   1      41.177  35.439  35.810  1.00  0.00    -0.203 F 
ATOM     71  F   UNL A   1      37.959  34.055  39.996  1.00  0.00    -0.200 F 
ATOM     72  C   UNL A   1      39.460  35.580  38.995  1.00  0.00     0.200 A 
ATOM     73  F   UNL A   1      40.950  37.084  37.948  1.00  0.00    -0.200 F 
ATOM     74  F   UNL A   1      39.333  36.412  40.039  1.00  0.00    -0.200 F 
ENDBRANCH  50  64
BRANCH  51  75
ATOM     75  C   UNL A   1      40.474  28.009  28.761  1.00  0.00     0.064 A 
ATOM     76  C   UNL A   1      41.241  28.428  27.665  1.00  0.00     0.173 A 
ATOM     77  C   UNL A   1      39.830  26.767  28.671  1.00  0.00     0.173 A 
ATOM     78  F   UNL A   1      41.853  29.621  27.694  1.00  0.00    -0.203 F 
ATOM     79  C   UNL A   1      41.344  27.644  26.517  1.00  0.00     0.198 A 
ATOM     80  C   UNL A   1      39.953  25.973  27.533  1.00  0.00     0.198 A 
ATOM     81  F   UNL A   1      39.079  26.325  29.691  1.00  0.00    -0.203 F 
ATOM     82  F   UNL A   1      42.047  28.088  25.467  1.00  0.00    -0.200 F 
ATOM     83  C   UNL A   1      40.704  26.415  26.455  1.00  0.00     0.200 A 
ATOM     84  F   UNL A   1      39.338  24.783  27.479  1.00  0.00    -0.200 F 
ATOM     85  F   UNL A   1      40.803  25.663  25.351  1.00  0.00    -0.200 F 
ENDBRANCH  51  75
BRANCH  63  86
ATOM     86  C   UNL A   1      43.960  28.394  34.779  1.00  0.00     0.064 A 
ATOM     87  C   UNL A   1      45.286  28.819  34.614  1.00  0.00     0.173 A 
ATOM     88  C   UNL A   1      43.731  27.232  35.533  1.00  0.00     0.173 A 
ATOM     89  F   UNL A   1      45.558  29.915  33.891  1.00  0.00    -0.203 F 
ATOM     90  C   UNL A   1      46.343  28.098  35.166  1.00  0.00     0.198 A 
ATOM     91  C   UNL A   1      44.787  26.529  36.105  1.00  0.00     0.198 A 
ATOM     92  F   UNL A   1      42.481  26.787  35.725  1.00  0.00    -0.203 F 
ATOM     93  F   UNL A   1      47.604  28.501  34.964  1.00  0.00    -0.200 F 
ATOM     94  C   UNL A   1      46.092  26.959  35.917  1.00  0.00     0.200 A 
ATOM     95  F   UNL A   1      44.542  25.435  36.840  1.00  0.00    -0.200 F 
ATOM     96  F   UNL A   1      47.109  26.271  36.454  1.00  0.00    -0.200 F 
ENDBRANCH  63  86
ENDBRANCH  37  38
ENDBRANCH  30  32
ENDBRANCH  29  30
ENDBRANCH  28  29
ENDBRANCH  27  28
ENDBRANCH  26  27
ENDBRANCH  25  26
ENDBRANCH   1  25
TORSDOF 20
ENDMDL
