MODEL 1
REMARK VINA RESULT:     -11.4      0.000      0.000
REMARK SMILES CS(=O)(=O)N1C[C@@H]2CN(C(=O)C3CCOCC3)C[C@@]2(C(=O)OCCOCCOCCOC(=O)c2ccc(-c3c4nc(c(-c5c(F)c(F)c(F)c(F)c5F)c5ccc([nH]5)c(-c5c(F)c(F)c(F)c(F)c5F)c5nc(c(-c6c(F)c(F)c(F)c(F)c6F)c6ccc3[nH]6)C=C5)C=C4)cc2)C1
REMARK SMILES IDX 26 1 25 2 24 3 23 4 22 5 20 6 21 7 19 8 5 9 6 10 97 11 7 12
REMARK SMILES IDX 8 13 18 14 9 15 2 16 1 17 3 18 4 19 10 20 11 21 12 22 13 23
REMARK SMILES IDX 17 24 14 25 16 26 15 27 27 28 28 29 29 30 30 31 31 32 32 33
REMARK SMILES IDX 33 34 34 35 35 36 96 37 36 38 95 39 37 40 38 41 39 42 89 43
REMARK SMILES IDX 40 44 94 45 88 46 90 47 41 48 93 49 87 50 86 51 42 53 74 54
REMARK SMILES IDX 54 55 73 56 55 57 58 58 72 59 91 60 56 61 57 62 71 64 92 65
REMARK SMILES IDX 59 66 43 67 44 68 52 69 45 70 46 71 50 72 53 73 47 74 48 75
REMARK SMILES IDX 51 76 49 77 75 78 76 79 84 80 77 81 78 82 82 83 85 84 79 85
REMARK SMILES IDX 80 86 83 87 81 88 60 89 61 90 69 91 62 92 63 93 67 94 70 95
REMARK SMILES IDX 64 96 65 97 68 98 66 99
REMARK H PARENT 90 52 58 63
REMARK Flexibility Score: inf
ROOT
ATOM      1  C   UNL A   1      34.625  31.707  27.885  1.00  0.00     0.188 C 
ENDROOT
BRANCH   1   2
ATOM      2  O   UNL A   1      33.379  31.071  27.654  1.00  0.00    -0.376 OA
BRANCH   2   3
ATOM      3  C   UNL A   1      33.194  30.314  26.457  1.00  0.00     0.202 C 
BRANCH   3   4
ATOM      4  C   UNL A   1      33.728  28.872  26.375  1.00  0.00     0.261 C 
BRANCH   4   5
ATOM      5  O   UNL A   1      32.653  28.004  26.004  1.00  0.00    -0.463 OA
BRANCH   5   6
ATOM      6  C   UNL A   1      32.165  27.832  24.744  1.00  0.00     0.315 C 
ATOM      7  O   UNL A   1      32.722  28.180  23.718  1.00  0.00    -0.251 OA
BRANCH   6   8
ATOM      8  C   UNL A   1      30.763  27.142  24.963  1.00  0.00     0.105 C 
ATOM      9  N   UNL A   1      31.668  24.873  24.529  1.00  0.00    -0.201 NA
ATOM     10  C   UNL A   1      30.468  24.998  23.701  1.00  0.00     0.109 C 
ATOM     11  C   UNL A   1      31.622  25.956  25.546  1.00  0.00     0.123 C 
ATOM     12  C   UNL A   1      29.726  26.114  24.392  1.00  0.00     0.044 C 
ATOM     13  C   UNL A   1      28.622  26.749  23.574  1.00  0.00     0.125 C 
ATOM     14  C   UNL A   1      30.295  28.303  24.019  1.00  0.00     0.140 C 
ATOM     15  N   UNL A   1      28.924  28.141  23.626  1.00  0.00    -0.341 N 
BRANCH   9  16
ATOM     16  S   UNL A   1      32.133  23.325  25.018  1.00  0.00     0.211 S 
ATOM     17  C   UNL A   1      30.923  22.984  26.276  1.00  0.00     0.176 C 
ATOM     18  O   UNL A   1      33.419  23.423  25.661  1.00  0.00    -0.213 OA
ATOM     19  O   UNL A   1      31.909  22.423  23.903  1.00  0.00    -0.213 OA
ENDBRANCH   9  16
BRANCH  15  20
ATOM     20  C   UNL A   1      28.056  29.079  23.107  1.00  0.00     0.225 C 
ATOM     21  O   UNL A   1      26.838  28.859  23.129  1.00  0.00    -0.275 OA
BRANCH  20  22
ATOM     22  C   UNL A   1      28.532  30.463  22.621  1.00  0.00     0.083 C 
ATOM     23  C   UNL A   1      28.409  31.670  23.561  1.00  0.00     0.042 C 
ATOM     24  C   UNL A   1      27.960  30.723  21.224  1.00  0.00     0.042 C 
ATOM     25  C   UNL A   1      28.744  32.978  22.856  1.00  0.00     0.161 C 
ATOM     26  C   UNL A   1      28.311  32.109  20.706  1.00  0.00     0.161 C 
ATOM     27  O   UNL A   1      27.984  33.116  21.659  1.00  0.00    -0.381 OA
ENDBRANCH  20  22
ENDBRANCH  15  20
ENDBRANCH   6   8
ENDBRANCH   5   6
ENDBRANCH   4   5
ENDBRANCH   3   4
ENDBRANCH   2   3
ENDBRANCH   1   2
BRANCH   1  28
ATOM     28  C   UNL A   1      34.675  32.509  29.199  1.00  0.00     0.188 C 
BRANCH  28  29
ATOM     29  O   UNL A   1      34.770  33.921  29.144  1.00  0.00    -0.376 OA
BRANCH  29  30
ATOM     30  C   UNL A   1      33.654  34.651  28.647  1.00  0.00     0.202 C 
BRANCH  30  31
ATOM     31  C   UNL A   1      32.966  35.671  29.567  1.00  0.00     0.261 C 
BRANCH  31  32
ATOM     32  O   UNL A   1      32.396  35.109  30.764  1.00  0.00    -0.460 OA
BRANCH  32  33
ATOM     33  C   UNL A   1      32.783  35.702  31.924  1.00  0.00     0.338 C 
ATOM     34  O   UNL A   1      32.190  36.561  32.553  1.00  0.00    -0.246 OA
BRANCH  33  35
ATOM     35  C   UNL A   1      33.942  34.966  32.475  1.00  0.00     0.060 A 
ATOM     36  C   UNL A   1      35.179  35.628  32.541  1.00  0.00     0.016 A 
ATOM     37  C   UNL A   1      33.818  33.651  32.921  1.00  0.00     0.016 A 
ATOM     38  C   UNL A   1      36.302  34.970  33.040  1.00  0.00     0.010 A 
ATOM     39  C   UNL A   1      34.950  32.984  33.395  1.00  0.00     0.010 A 
ATOM     40  C   UNL A   1      36.199  33.630  33.431  1.00  0.00    -0.014 A 
BRANCH  40  41
ATOM     41  C   UNL A   1      37.428  32.853  33.715  1.00  0.00     0.031 A 
ATOM     42  C   UNL A   1      38.166  33.121  34.996  1.00  0.00     0.074 A 
ATOM     43  C   UNL A   1      37.872  31.920  32.855  1.00  0.00     0.049 A 
ATOM     44  N   UNL A   1      39.289  32.613  35.433  1.00  0.00    -0.248 NA
ATOM     45  C   UNL A   1      37.554  34.101  35.907  1.00  0.00     0.031 C 
ATOM     46  C   UNL A   1      37.217  31.544  31.604  1.00  0.00     0.029 A 
ATOM     47  N   UNL A   1      38.990  31.126  32.905  1.00  0.00    -0.354 N 
ATOM     48  C   UNL A   1      39.523  33.219  36.662  1.00  0.00     0.074 A 
ATOM     49  C   UNL A   1      38.444  34.156  36.885  1.00  0.00     0.031 C 
ATOM     50  C   UNL A   1      37.953  30.598  30.997  1.00  0.00     0.029 A 
ATOM     51  C   UNL A   1      39.147  30.330  31.797  1.00  0.00     0.049 A 
ATOM     52  H   UNL A   1      39.619  31.126  33.663  1.00  0.00     0.167 HD
ATOM     53  C   UNL A   1      40.541  33.004  37.527  1.00  0.00     0.037 A 
ATOM     54  C   UNL A   1      40.154  29.502  31.462  1.00  0.00     0.037 A 
ATOM     55  C   UNL A   1      41.613  32.070  37.295  1.00  0.00     0.049 A 
ATOM     56  C   UNL A   1      41.314  29.333  32.411  1.00  0.00     0.074 A 
ATOM     57  C   UNL A   1      42.681  31.760  38.118  1.00  0.00     0.029 A 
ATOM     58  N   UNL A   1      41.758  31.304  36.146  1.00  0.00    -0.354 N 
ATOM     59  N   UNL A   1      41.516  29.886  33.583  1.00  0.00    -0.248 NA
ATOM     60  C   UNL A   1      42.383  28.417  31.991  1.00  0.00     0.031 C 
ATOM     61  C   UNL A   1      43.508  30.858  37.439  1.00  0.00     0.029 A 
ATOM     62  C   UNL A   1      42.917  30.548  36.224  1.00  0.00     0.049 A 
ATOM     63  H   UNL A   1      41.130  31.299  35.389  1.00  0.00     0.167 HD
ATOM     64  C   UNL A   1      42.716  29.365  34.052  1.00  0.00     0.074 A 
ATOM     65  C   UNL A   1      43.183  28.433  33.047  1.00  0.00     0.031 C 
ATOM     66  C   UNL A   1      43.373  29.630  35.210  1.00  0.00     0.037 A 
BRANCH  53  67
ATOM     67  C   UNL A   1      40.562  33.820  38.789  1.00  0.00     0.064 A 
ATOM     68  C   UNL A   1      39.873  33.420  39.944  1.00  0.00     0.173 A 
ATOM     69  C   UNL A   1      41.305  35.009  38.848  1.00  0.00     0.173 A 
ATOM     70  F   UNL A   1      39.134  32.301  39.937  1.00  0.00    -0.203 F 
ATOM     71  C   UNL A   1      39.902  34.196  41.101  1.00  0.00     0.198 A 
ATOM     72  C   UNL A   1      41.360  35.764  40.017  1.00  0.00     0.198 A 
ATOM     73  F   UNL A   1      41.985  35.437  37.774  1.00  0.00    -0.203 F 
ATOM     74  F   UNL A   1      39.191  33.824  42.174  1.00  0.00    -0.200 F 
ATOM     75  C   UNL A   1      40.652  35.363  41.139  1.00  0.00     0.200 A 
ATOM     76  F   UNL A   1      42.097  36.883  40.055  1.00  0.00    -0.200 F 
ATOM     77  F   UNL A   1      40.686  36.104  42.255  1.00  0.00    -0.200 F 
ENDBRANCH  53  67
BRANCH  54  78
ATOM     78  C   UNL A   1      40.122  28.776  30.163  1.00  0.00     0.064 A 
ATOM     79  C   UNL A   1      39.504  27.523  30.045  1.00  0.00     0.173 A 
ATOM     80  C   UNL A   1      40.731  29.311  29.018  1.00  0.00     0.173 A 
ATOM     81  F   UNL A   1      38.935  26.954  31.118  1.00  0.00    -0.203 F 
ATOM     82  C   UNL A   1      39.518  26.824  28.840  1.00  0.00     0.198 A 
ATOM     83  C   UNL A   1      40.714  28.627  27.805  1.00  0.00     0.198 A 
ATOM     84  F   UNL A   1      41.341  30.505  29.075  1.00  0.00    -0.203 F 
ATOM     85  F   UNL A   1      38.972  25.602  28.770  1.00  0.00    -0.200 F 
ATOM     86  C   UNL A   1      40.115  27.380  27.719  1.00  0.00     0.200 A 
ATOM     87  F   UNL A   1      41.282  29.173  26.721  1.00  0.00    -0.200 F 
ATOM     88  F   UNL A   1      40.126  26.708  26.559  1.00  0.00    -0.200 F 
ENDBRANCH  54  78
BRANCH  66  89
ATOM     89  C   UNL A   1      44.651  28.878  35.461  1.00  0.00     0.064 A 
ATOM     90  C   UNL A   1      44.663  27.633  36.108  1.00  0.00     0.173 A 
ATOM     91  C   UNL A   1      45.881  29.406  35.038  1.00  0.00     0.173 A 
ATOM     92  F   UNL A   1      43.516  27.086  36.542  1.00  0.00    -0.203 F 
ATOM     93  C   UNL A   1      45.859  26.968  36.363  1.00  0.00     0.198 A 
ATOM     94  C   UNL A   1      47.072  28.720  35.259  1.00  0.00     0.198 A 
ATOM     95  F   UNL A   1      45.930  30.587  34.403  1.00  0.00    -0.203 F 
ATOM     96  F   UNL A   1      45.850  25.815  37.046  1.00  0.00    -0.200 F 
ATOM     97  C   UNL A   1      47.062  27.509  35.935  1.00  0.00     0.200 A 
ATOM     98  F   UNL A   1      48.231  29.234  34.826  1.00  0.00    -0.200 F 
ATOM     99  F   UNL A   1      48.213  26.868  36.180  1.00  0.00    -0.200 F 
ENDBRANCH  66  89
ENDBRANCH  40  41
ENDBRANCH  33  35
ENDBRANCH  32  33
ENDBRANCH  31  32
ENDBRANCH  30  31
ENDBRANCH  29  30
ENDBRANCH  28  29
ENDBRANCH   1  28
TORSDOF 20
ENDMDL
MODEL 2
REMARK VINA RESULT:     -11.2      5.155      8.018
REMARK SMILES CS(=O)(=O)N1C[C@@H]2CN(C(=O)C3CCOCC3)C[C@@]2(C(=O)OCCOCCOCCOC(=O)c2ccc(-c3c4nc(c(-c5c(F)c(F)c(F)c(F)c5F)c5ccc([nH]5)c(-c5c(F)c(F)c(F)c(F)c5F)c5nc(c(-c6c(F)c(F)c(F)c(F)c6F)c6ccc3[nH]6)C=C5)C=C4)cc2)C1
REMARK SMILES IDX 26 1 25 2 24 3 23 4 22 5 20 6 21 7 19 8 5 9 6 10 97 11 7 12
REMARK SMILES IDX 8 13 18 14 9 15 2 16 1 17 3 18 4 19 10 20 11 21 12 22 13 23
REMARK SMILES IDX 17 24 14 25 16 26 15 27 27 28 28 29 29 30 30 31 31 32 32 33
REMARK SMILES IDX 33 34 34 35 35 36 96 37 36 38 95 39 37 40 38 41 39 42 89 43
REMARK SMILES IDX 40 44 94 45 88 46 90 47 41 48 93 49 87 50 86 51 42 53 74 54
REMARK SMILES IDX 54 55 73 56 55 57 58 58 72 59 91 60 56 61 57 62 71 64 92 65
REMARK SMILES IDX 59 66 43 67 44 68 52 69 45 70 46 71 50 72 53 73 47 74 48 75
REMARK SMILES IDX 51 76 49 77 75 78 76 79 84 80 77 81 78 82 82 83 85 84 79 85
REMARK SMILES IDX 80 86 83 87 81 88 60 89 61 90 69 91 62 92 63 93 67 94 70 95
REMARK SMILES IDX 64 96 65 97 68 98 66 99
REMARK H PARENT 90 52 58 63
REMARK Flexibility Score: inf
ROOT
ATOM      1  C   UNL A   1      33.877  31.083  27.647  1.00  0.00     0.188 C 
ENDROOT
BRANCH   1   2
ATOM      2  O   UNL A   1      32.755  30.224  27.524  1.00  0.00    -0.376 OA
BRANCH   2   3
ATOM      3  C   UNL A   1      32.768  29.200  26.528  1.00  0.00     0.202 C 
BRANCH   3   4
ATOM      4  C   UNL A   1      33.967  29.080  25.571  1.00  0.00     0.261 C 
BRANCH   4   5
ATOM      5  O   UNL A   1      33.844  27.862  24.830  1.00  0.00    -0.463 OA
BRANCH   5   6
ATOM      6  C   UNL A   1      33.662  27.761  23.484  1.00  0.00     0.315 C 
ATOM      7  O   UNL A   1      34.297  28.366  22.639  1.00  0.00    -0.251 OA
BRANCH   6   8
ATOM      8  C   UNL A   1      32.464  26.746  23.331  1.00  0.00     0.105 C 
ATOM      9  N   UNL A   1      30.756  28.539  23.497  1.00  0.00    -0.201 NA
ATOM     10  C   UNL A   1      30.341  27.493  24.433  1.00  0.00     0.109 C 
ATOM     11  C   UNL A   1      31.763  27.942  22.581  1.00  0.00     0.123 C 
ATOM     12  C   UNL A   1      31.077  26.288  23.901  1.00  0.00     0.044 C 
ATOM     13  C   UNL A   1      31.167  25.120  24.860  1.00  0.00     0.125 C 
ATOM     14  C   UNL A   1      33.290  25.955  24.403  1.00  0.00     0.140 C 
ATOM     15  N   UNL A   1      32.560  24.822  24.897  1.00  0.00    -0.341 N 
BRANCH   9  16
ATOM     16  S   UNL A   1      29.559  29.535  22.845  1.00  0.00     0.211 S 
ATOM     17  C   UNL A   1      28.126  28.491  22.990  1.00  0.00     0.176 C 
ATOM     18  O   UNL A   1      29.834  29.710  21.441  1.00  0.00    -0.213 OA
ATOM     19  O   UNL A   1      29.397  30.671  23.734  1.00  0.00    -0.213 OA
ENDBRANCH   9  16
BRANCH  15  20
ATOM     20  C   UNL A   1      33.034  23.711  25.563  1.00  0.00     0.225 C 
ATOM     21  O   UNL A   1      33.092  23.721  26.800  1.00  0.00    -0.275 OA
BRANCH  20  22
ATOM     22  C   UNL A   1      33.369  22.394  24.834  1.00  0.00     0.083 C 
ATOM     23  C   UNL A   1      32.247  21.382  24.564  1.00  0.00     0.042 C 
ATOM     24  C   UNL A   1      34.607  21.767  25.484  1.00  0.00     0.042 C 
ATOM     25  C   UNL A   1      32.785  20.066  24.014  1.00  0.00     0.161 C 
ATOM     26  C   UNL A   1      34.953  20.415  24.879  1.00  0.00     0.161 C 
ATOM     27  O   UNL A   1      33.818  19.554  24.851  1.00  0.00    -0.381 OA
ENDBRANCH  20  22
ENDBRANCH  15  20
ENDBRANCH   6   8
ENDBRANCH   5   6
ENDBRANCH   4   5
ENDBRANCH   3   4
ENDBRANCH   2   3
ENDBRANCH   1   2
BRANCH   1  28
ATOM     28  C   UNL A   1      33.504  32.554  27.910  1.00  0.00     0.188 C 
BRANCH  28  29
ATOM     29  O   UNL A   1      34.470  33.422  28.474  1.00  0.00    -0.376 OA
BRANCH  29  30
ATOM     30  C   UNL A   1      34.045  34.341  29.475  1.00  0.00     0.202 C 
BRANCH  30  31
ATOM     31  C   UNL A   1      34.358  34.031  30.947  1.00  0.00     0.261 C 
BRANCH  31  32
ATOM     32  O   UNL A   1      34.490  32.630  31.250  1.00  0.00    -0.460 OA
BRANCH  32  33
ATOM     33  C   UNL A   1      35.404  32.327  32.209  1.00  0.00     0.338 C 
ATOM     34  O   UNL A   1      35.277  32.435  33.416  1.00  0.00    -0.246 OA
BRANCH  33  35
ATOM     35  C   UNL A   1      36.527  31.592  31.587  1.00  0.00     0.060 A 
ATOM     36  C   UNL A   1      37.532  31.080  32.425  1.00  0.00     0.016 A 
ATOM     37  C   UNL A   1      36.594  31.406  30.207  1.00  0.00     0.016 A 
ATOM     38  C   UNL A   1      38.616  30.393  31.882  1.00  0.00     0.010 A 
ATOM     39  C   UNL A   1      37.695  30.741  29.662  1.00  0.00     0.010 A 
ATOM     40  C   UNL A   1      38.722  30.256  30.493  1.00  0.00    -0.014 A 
BRANCH  40  41
ATOM     41  C   UNL A   1      39.985  29.762  29.899  1.00  0.00     0.031 A 
ATOM     42  C   UNL A   1      41.141  30.714  29.777  1.00  0.00     0.074 A 
ATOM     43  C   UNL A   1      40.105  28.488  29.486  1.00  0.00     0.049 A 
ATOM     44  N   UNL A   1      42.320  30.530  29.241  1.00  0.00    -0.248 NA
ATOM     45  C   UNL A   1      40.936  32.061  30.333  1.00  0.00     0.031 C 
ATOM     46  C   UNL A   1      39.068  27.464  29.594  1.00  0.00     0.029 A 
ATOM     47  N   UNL A   1      41.156  27.844  28.884  1.00  0.00    -0.354 N 
ATOM     48  C   UNL A   1      42.991  31.738  29.385  1.00  0.00     0.074 A 
ATOM     49  C   UNL A   1      42.077  32.657  30.027  1.00  0.00     0.031 C 
ATOM     50  C   UNL A   1      39.531  26.320  29.062  1.00  0.00     0.029 A 
ATOM     51  C   UNL A   1      40.881  26.543  28.545  1.00  0.00     0.049 A 
ATOM     52  H   UNL A   1      42.026  28.274  28.712  1.00  0.00     0.167 HD
ATOM     53  C   UNL A   1      44.258  32.047  29.022  1.00  0.00     0.037 A 
ATOM     54  C   UNL A   1      41.627  25.647  27.871  1.00  0.00     0.037 A 
ATOM     55  C   UNL A   1      45.160  31.125  28.380  1.00  0.00     0.049 A 
ATOM     56  C   UNL A   1      43.010  26.039  27.413  1.00  0.00     0.074 A 
ATOM     57  C   UNL A   1      46.471  31.331  27.991  1.00  0.00     0.029 A 
ATOM     58  N   UNL A   1      44.836  29.824  28.022  1.00  0.00    -0.354 N 
ATOM     59  N   UNL A   1      43.650  27.171  27.577  1.00  0.00    -0.248 NA
ATOM     60  C   UNL A   1      43.776  25.020  26.684  1.00  0.00     0.031 C 
ATOM     61  C   UNL A   1      46.919  30.177  27.337  1.00  0.00     0.029 A 
ATOM     62  C   UNL A   1      45.911  29.226  27.384  1.00  0.00     0.049 A 
ATOM     63  H   UNL A   1      43.969  29.390  28.194  1.00  0.00     0.167 HD
ATOM     64  C   UNL A   1      44.900  26.994  26.997  1.00  0.00     0.074 A 
ATOM     65  C   UNL A   1      44.935  25.634  26.500  1.00  0.00     0.031 C 
ATOM     66  C   UNL A   1      45.928  27.873  26.886  1.00  0.00     0.037 A 
BRANCH  53  67
ATOM     67  C   UNL A   1      44.730  33.450  29.278  1.00  0.00     0.064 A 
ATOM     68  C   UNL A   1      45.454  33.792  30.430  1.00  0.00     0.173 A 
ATOM     69  C   UNL A   1      44.473  34.464  28.341  1.00  0.00     0.173 A 
ATOM     70  F   UNL A   1      45.712  32.867  31.365  1.00  0.00    -0.203 F 
ATOM     71  C   UNL A   1      45.876  35.102  30.649  1.00  0.00     0.198 A 
ATOM     72  C   UNL A   1      44.927  35.763  28.547  1.00  0.00     0.198 A 
ATOM     73  F   UNL A   1      43.787  34.192  27.221  1.00  0.00    -0.203 F 
ATOM     74  F   UNL A   1      46.517  35.417  31.783  1.00  0.00    -0.200 F 
ATOM     75  C   UNL A   1      45.620  36.084  29.703  1.00  0.00     0.200 A 
ATOM     76  F   UNL A   1      44.690  36.708  27.625  1.00  0.00    -0.200 F 
ATOM     77  F   UNL A   1      46.034  37.342  29.912  1.00  0.00    -0.200 F 
ENDBRANCH  53  67
BRANCH  54  78
ATOM     78  C   UNL A   1      41.081  24.294  27.575  1.00  0.00     0.064 A 
ATOM     79  C   UNL A   1      41.609  23.148  28.185  1.00  0.00     0.173 A 
ATOM     80  C   UNL A   1      40.036  24.120  26.655  1.00  0.00     0.173 A 
ATOM     81  F   UNL A   1      42.629  23.258  29.048  1.00  0.00    -0.203 F 
ATOM     82  C   UNL A   1      41.128  21.878  27.869  1.00  0.00     0.198 A 
ATOM     83  C   UNL A   1      39.533  22.853  26.366  1.00  0.00     0.198 A 
ATOM     84  F   UNL A   1      39.497  25.183  26.039  1.00  0.00    -0.203 F 
ATOM     85  F   UNL A   1      41.691  20.795  28.422  1.00  0.00    -0.200 F 
ATOM     86  C   UNL A   1      40.086  21.732  26.966  1.00  0.00     0.200 A 
ATOM     87  F   UNL A   1      38.518  22.718  25.502  1.00  0.00    -0.200 F 
ATOM     88  F   UNL A   1      39.623  20.511  26.665  1.00  0.00    -0.200 F 
ENDBRANCH  54  78
BRANCH  66  89
ATOM     89  C   UNL A   1      47.187  27.378  26.228  1.00  0.00     0.064 A 
ATOM     90  C   UNL A   1      48.199  26.734  26.957  1.00  0.00     0.173 A 
ATOM     91  C   UNL A   1      47.377  27.538  24.847  1.00  0.00     0.173 A 
ATOM     92  F   UNL A   1      48.073  26.562  28.282  1.00  0.00    -0.203 F 
ATOM     93  C   UNL A   1      49.373  26.314  26.336  1.00  0.00     0.198 A 
ATOM     94  C   UNL A   1      48.535  27.081  24.223  1.00  0.00     0.198 A 
ATOM     95  F   UNL A   1      46.438  28.135  24.098  1.00  0.00    -0.203 F 
ATOM     96  F   UNL A   1      50.355  25.767  27.066  1.00  0.00    -0.200 F 
ATOM     97  C   UNL A   1      49.538  26.483  24.970  1.00  0.00     0.200 A 
ATOM     98  F   UNL A   1      48.683  27.227  22.899  1.00  0.00    -0.200 F 
ATOM     99  F   UNL A   1      50.668  26.078  24.374  1.00  0.00    -0.200 F 
ENDBRANCH  66  89
ENDBRANCH  40  41
ENDBRANCH  33  35
ENDBRANCH  32  33
ENDBRANCH  31  32
ENDBRANCH  30  31
ENDBRANCH  29  30
ENDBRANCH  28  29
ENDBRANCH   1  28
TORSDOF 20
ENDMDL
MODEL 3
REMARK VINA RESULT:     -11.1      1.706      4.315
REMARK SMILES CS(=O)(=O)N1C[C@@H]2CN(C(=O)C3CCOCC3)C[C@@]2(C(=O)OCCOCCOCCOC(=O)c2ccc(-c3c4nc(c(-c5c(F)c(F)c(F)c(F)c5F)c5ccc([nH]5)c(-c5c(F)c(F)c(F)c(F)c5F)c5nc(c(-c6c(F)c(F)c(F)c(F)c6F)c6ccc3[nH]6)C=C5)C=C4)cc2)C1
REMARK SMILES IDX 26 1 25 2 24 3 23 4 22 5 20 6 21 7 19 8 5 9 6 10 97 11 7 12
REMARK SMILES IDX 8 13 18 14 9 15 2 16 1 17 3 18 4 19 10 20 11 21 12 22 13 23
REMARK SMILES IDX 17 24 14 25 16 26 15 27 27 28 28 29 29 30 30 31 31 32 32 33
REMARK SMILES IDX 33 34 34 35 35 36 96 37 36 38 95 39 37 40 38 41 39 42 89 43
REMARK SMILES IDX 40 44 94 45 88 46 90 47 41 48 93 49 87 50 86 51 42 53 74 54
REMARK SMILES IDX 54 55 73 56 55 57 58 58 72 59 91 60 56 61 57 62 71 64 92 65
REMARK SMILES IDX 59 66 43 67 44 68 52 69 45 70 46 71 50 72 53 73 47 74 48 75
REMARK SMILES IDX 51 76 49 77 75 78 76 79 84 80 77 81 78 82 82 83 85 84 79 85
REMARK SMILES IDX 80 86 83 87 81 88 60 89 61 90 69 91 62 92 63 93 67 94 70 95
REMARK SMILES IDX 64 96 65 97 68 98 66 99
REMARK H PARENT 90 52 58 63
REMARK Flexibility Score: inf
ROOT
ATOM      1  C   UNL A   1      35.223  32.067  28.369  1.00  0.00     0.188 C 
ENDROOT
BRANCH   1   2
ATOM      2  O   UNL A   1      34.171  31.120  28.273  1.00  0.00    -0.376 OA
BRANCH   2   3
ATOM      3  C   UNL A   1      33.913  30.493  27.015  1.00  0.00     0.202 C 
BRANCH   3   4
ATOM      4  C   UNL A   1      34.257  29.005  26.819  1.00  0.00     0.261 C 
BRANCH   4   5
ATOM      5  O   UNL A   1      33.808  28.597  25.523  1.00  0.00    -0.463 OA
BRANCH   5   6
ATOM      6  C   UNL A   1      32.757  27.769  25.268  1.00  0.00     0.315 C 
ATOM      7  O   UNL A   1      31.986  27.329  26.101  1.00  0.00    -0.251 OA
BRANCH   6   8
ATOM      8  C   UNL A   1      32.829  27.523  23.711  1.00  0.00     0.105 C 
ATOM      9  N   UNL A   1      30.545  28.417  23.334  1.00  0.00    -0.201 NA
ATOM     10  C   UNL A   1      30.601  27.135  22.631  1.00  0.00     0.109 C 
ATOM     11  C   UNL A   1      31.944  28.824  23.630  1.00  0.00     0.123 C 
ATOM     12  C   UNL A   1      32.087  26.938  22.460  1.00  0.00     0.044 C 
ATOM     13  C   UNL A   1      32.506  25.527  22.104  1.00  0.00     0.125 C 
ATOM     14  C   UNL A   1      33.364  26.127  24.182  1.00  0.00     0.140 C 
ATOM     15  N   UNL A   1      33.496  25.215  23.080  1.00  0.00    -0.341 N 
BRANCH   9  16
ATOM     16  S   UNL A   1      29.467  29.585  22.764  1.00  0.00     0.211 S 
ATOM     17  C   UNL A   1      27.913  28.740  22.955  1.00  0.00     0.176 C 
ATOM     18  O   UNL A   1      29.699  29.762  21.353  1.00  0.00    -0.213 OA
ATOM     19  O   UNL A   1      29.501  30.705  23.685  1.00  0.00    -0.213 OA
ENDBRANCH   9  16
BRANCH  15  20
ATOM     20  C   UNL A   1      34.229  24.050  23.005  1.00  0.00     0.225 C 
ATOM     21  O   UNL A   1      34.251  23.411  21.945  1.00  0.00    -0.275 OA
BRANCH  20  22
ATOM     22  C   UNL A   1      35.143  23.575  24.154  1.00  0.00     0.083 C 
ATOM     23  C   UNL A   1      36.463  22.868  23.817  1.00  0.00     0.042 C 
ATOM     24  C   UNL A   1      34.297  22.820  25.183  1.00  0.00     0.042 C 
ATOM     25  C   UNL A   1      37.140  22.301  25.059  1.00  0.00     0.161 C 
ATOM     26  C   UNL A   1      35.140  22.240  26.309  1.00  0.00     0.161 C 
ATOM     27  O   UNL A   1      36.236  21.486  25.799  1.00  0.00    -0.381 OA
ENDBRANCH  20  22
ENDBRANCH  15  20
ENDBRANCH   6   8
ENDBRANCH   5   6
ENDBRANCH   4   5
ENDBRANCH   3   4
ENDBRANCH   2   3
ENDBRANCH   1   2
BRANCH   1  28
ATOM     28  C   UNL A   1      34.995  33.135  29.456  1.00  0.00     0.188 C 
BRANCH  28  29
ATOM     29  O   UNL A   1      34.980  34.502  29.087  1.00  0.00    -0.376 OA
BRANCH  29  30
ATOM     30  C   UNL A   1      33.757  35.061  28.623  1.00  0.00     0.202 C 
BRANCH  30  31
ATOM     31  C   UNL A   1      32.905  35.893  29.594  1.00  0.00     0.261 C 
BRANCH  31  32
ATOM     32  O   UNL A   1      32.423  35.167  30.740  1.00  0.00    -0.460 OA
BRANCH  32  33
ATOM     33  C   UNL A   1      32.731  35.714  31.946  1.00  0.00     0.338 C 
ATOM     34  O   UNL A   1      32.071  36.509  32.591  1.00  0.00    -0.246 OA
BRANCH  33  35
ATOM     35  C   UNL A   1      33.902  35.007  32.508  1.00  0.00     0.060 A 
ATOM     36  C   UNL A   1      35.161  35.624  32.415  1.00  0.00     0.016 A 
ATOM     37  C   UNL A   1      33.769  33.761  33.119  1.00  0.00     0.016 A 
ATOM     38  C   UNL A   1      36.294  34.988  32.918  1.00  0.00     0.010 A 
ATOM     39  C   UNL A   1      34.910  33.112  33.599  1.00  0.00     0.010 A 
ATOM     40  C   UNL A   1      36.178  33.710  33.477  1.00  0.00    -0.014 A 
BRANCH  40  41
ATOM     41  C   UNL A   1      37.399  32.927  33.775  1.00  0.00     0.031 A 
ATOM     42  C   UNL A   1      38.137  33.208  35.054  1.00  0.00     0.074 A 
ATOM     43  C   UNL A   1      37.836  31.976  32.931  1.00  0.00     0.049 A 
ATOM     44  N   UNL A   1      39.254  32.697  35.501  1.00  0.00    -0.248 NA
ATOM     45  C   UNL A   1      37.531  34.209  35.947  1.00  0.00     0.031 C 
ATOM     46  C   UNL A   1      37.180  31.586  31.686  1.00  0.00     0.029 A 
ATOM     47  N   UNL A   1      38.946  31.173  32.996  1.00  0.00    -0.354 N 
ATOM     48  C   UNL A   1      39.491  33.321  36.720  1.00  0.00     0.074 A 
ATOM     49  C   UNL A   1      38.420  34.271  36.926  1.00  0.00     0.031 C 
ATOM     50  C   UNL A   1      37.908  30.623  31.095  1.00  0.00     0.029 A 
ATOM     51  C   UNL A   1      39.098  30.358  31.902  1.00  0.00     0.049 A 
ATOM     52  H   UNL A   1      39.574  31.179  33.756  1.00  0.00     0.167 HD
ATOM     53  C   UNL A   1      40.505  33.110  37.591  1.00  0.00     0.037 A 
ATOM     54  C   UNL A   1      40.098  29.515  31.582  1.00  0.00     0.037 A 
ATOM     55  C   UNL A   1      41.570  32.163  37.377  1.00  0.00     0.049 A 
ATOM     56  C   UNL A   1      41.255  29.351  32.536  1.00  0.00     0.074 A 
ATOM     57  C   UNL A   1      42.633  31.857  38.206  1.00  0.00     0.029 A 
ATOM     58  N   UNL A   1      41.709  31.377  36.240  1.00  0.00    -0.354 N 
ATOM     59  N   UNL A   1      41.459  29.921  33.700  1.00  0.00    -0.248 NA
ATOM     60  C   UNL A   1      42.316  28.418  32.134  1.00  0.00     0.031 C 
ATOM     61  C   UNL A   1      43.453  30.936  37.544  1.00  0.00     0.029 A 
ATOM     62  C   UNL A   1      42.861  30.613  36.332  1.00  0.00     0.049 A 
ATOM     63  H   UNL A   1      41.083  31.366  35.482  1.00  0.00     0.167 HD
ATOM     64  C   UNL A   1      42.653  29.396  34.180  1.00  0.00     0.074 A 
ATOM     65  C   UNL A   1      43.114  28.444  33.190  1.00  0.00     0.031 C 
ATOM     66  C   UNL A   1      43.311  29.674  35.334  1.00  0.00     0.037 A 
BRANCH  53  67
ATOM     67  C   UNL A   1      40.532  33.946  38.839  1.00  0.00     0.064 A 
ATOM     68  C   UNL A   1      41.217  35.169  38.900  1.00  0.00     0.173 A 
ATOM     69  C   UNL A   1      39.840  33.527  39.986  1.00  0.00     0.173 A 
ATOM     70  F   UNL A   1      41.909  35.609  37.839  1.00  0.00    -0.203 F 
ATOM     71  C   UNL A   1      41.234  35.925  40.070  1.00  0.00     0.198 A 
ATOM     72  C   UNL A   1      39.829  34.303  41.142  1.00  0.00     0.198 A 
ATOM     73  F   UNL A   1      39.166  32.367  39.984  1.00  0.00    -0.203 F 
ATOM     74  F   UNL A   1      41.942  37.062  40.122  1.00  0.00    -0.200 F 
ATOM     75  C   UNL A   1      40.533  35.495  41.187  1.00  0.00     0.200 A 
ATOM     76  F   UNL A   1      39.139  33.891  42.216  1.00  0.00    -0.200 F 
ATOM     77  F   UNL A   1      40.543  36.228  42.310  1.00  0.00    -0.200 F 
ENDBRANCH  53  67
BRANCH  54  78
ATOM     78  C   UNL A   1      40.062  28.769  30.295  1.00  0.00     0.064 A 
ATOM     79  C   UNL A   1      40.586  29.322  29.119  1.00  0.00     0.173 A 
ATOM     80  C   UNL A   1      39.477  27.495  30.211  1.00  0.00     0.173 A 
ATOM     81  F   UNL A   1      41.127  30.549  29.139  1.00  0.00    -0.203 F 
ATOM     82  C   UNL A   1      40.507  28.641  27.905  1.00  0.00     0.198 A 
ATOM     83  C   UNL A   1      39.429  26.801  29.005  1.00  0.00     0.198 A 
ATOM     84  F   UNL A   1      38.956  26.921  31.306  1.00  0.00    -0.203 F 
ATOM     85  F   UNL A   1      40.963  29.218  26.785  1.00  0.00    -0.200 F 
ATOM     86  C   UNL A   1      39.936  27.379  27.850  1.00  0.00     0.200 A 
ATOM     87  F   UNL A   1      38.888  25.577  28.959  1.00  0.00    -0.200 F 
ATOM     88  F   UNL A   1      39.863  26.724  26.683  1.00  0.00    -0.200 F 
ENDBRANCH  54  78
BRANCH  66  89
ATOM     89  C   UNL A   1      44.582  28.915  35.600  1.00  0.00     0.064 A 
ATOM     90  C   UNL A   1      45.828  29.376  35.148  1.00  0.00     0.173 A 
ATOM     91  C   UNL A   1      44.554  27.716  36.329  1.00  0.00     0.173 A 
ATOM     92  F   UNL A   1      45.912  30.511  34.438  1.00  0.00    -0.203 F 
ATOM     93  C   UNL A   1      46.989  28.641  35.374  1.00  0.00     0.198 A 
ATOM     94  C   UNL A   1      45.722  27.005  36.588  1.00  0.00     0.198 A 
ATOM     95  F   UNL A   1      43.393  27.234  36.798  1.00  0.00    -0.203 F 
ATOM     96  F   UNL A   1      48.156  29.065  34.870  1.00  0.00    -0.200 F 
ATOM     97  C   UNL A   1      46.937  27.460  36.098  1.00  0.00     0.200 A 
ATOM     98  F   UNL A   1      45.672  25.874  37.306  1.00  0.00    -0.200 F 
ATOM     99  F   UNL A   1      48.055  26.754  36.316  1.00  0.00    -0.200 F 
ENDBRANCH  66  89
ENDBRANCH  40  41
ENDBRANCH  33  35
ENDBRANCH  32  33
ENDBRANCH  31  32
ENDBRANCH  30  31
ENDBRANCH  29  30
ENDBRANCH  28  29
ENDBRANCH   1  28
TORSDOF 20
ENDMDL
