MODEL 1
REMARK VINA RESULT:     -11.2      0.000      0.000
REMARK SMILES COc1cc(NC(=O)C2CCN(S(=O)(=O)c3cccs3)CC2)c(Cl)cc1C(=O)OCCOCCOCCOC(=O)c1ccc(-c2c3nc(c(-c4c(F)c(F)c(F)c(F)c4F)c4ccc([nH]4)c(-c4c(F)c(F)c(F)c(F)c4F)c4nc(c(-c5c(F)c(F)c(F)c(F)c5F)c5ccc2[nH]5)C=C4)C=C3)cc1
REMARK SMILES IDX 33 1 32 2 31 3 30 4 29 5 27 6 28 7 26 8 3 9 4 10 5 11 25 12
REMARK SMILES IDX 23 13 24 14 2 15 1 16 6 17 7 18 8 20 9 21 10 22 22 23 11 24
REMARK SMILES IDX 21 25 12 26 13 27 14 28 15 29 16 30 17 31 20 32 18 33 19 34
REMARK SMILES IDX 34 35 35 36 36 37 37 38 38 39 39 40 40 41 41 42 42 43 103 44
REMARK SMILES IDX 43 45 102 46 44 47 45 48 46 49 96 50 47 51 101 52 95 53
REMARK SMILES IDX 97 54 48 55 100 56 94 57 93 58 49 60 81 61 61 62 80 63 62 64
REMARK SMILES IDX 65 65 79 66 98 67 63 68 64 69 78 71 99 72 66 73 50 74 51 75
REMARK SMILES IDX 59 76 52 77 53 78 57 79 60 80 54 81 55 82 58 83 56 84 82 85
REMARK SMILES IDX 83 86 91 87 84 88 85 89 89 90 92 91 86 92 87 93 90 94 88 95
REMARK SMILES IDX 67 96 68 97 76 98 69 99 70 100 74 101 77 102 71 103 72 104
REMARK SMILES IDX 75 105 73 106
REMARK H PARENT 6 19 97 59 65 70
REMARK Flexibility Score: inf
ROOT
ATOM      1  C   UNL A   1      43.775  19.139  25.016  1.00  0.00     0.188 C 
ENDROOT
BRANCH   1   2
ATOM      2  O   UNL A   1      42.488  19.031  25.600  1.00  0.00    -0.376 OA
BRANCH   2   3
ATOM      3  C   UNL A   1      42.343  19.228  27.005  1.00  0.00     0.202 C 
BRANCH   3   4
ATOM      4  C   UNL A   1      40.961  19.571  27.572  1.00  0.00     0.261 C 
BRANCH   4   5
ATOM      5  O   UNL A   1      40.919  20.923  28.044  1.00  0.00    -0.460 OA
BRANCH   5   6
ATOM      6  C   UNL A   1      41.071  21.902  27.126  1.00  0.00     0.342 C 
ATOM      7  O   UNL A   1      42.126  22.346  26.702  1.00  0.00    -0.246 OA
BRANCH   6   8
ATOM      8  C   UNL A   1      39.761  22.239  26.508  1.00  0.00     0.103 A 
ATOM      9  C   UNL A   1      39.171  23.513  26.581  1.00  0.00     0.135 A 
ATOM     10  C   UNL A   1      37.937  23.718  25.959  1.00  0.00     0.075 A 
ATOM     11  C   UNL A   1      37.421  22.757  25.085  1.00  0.00     0.063 A 
ATOM     12  C   UNL A   1      39.084  21.188  25.860  1.00  0.00     0.042 A 
ATOM     13  C   UNL A   1      37.912  21.446  25.148  1.00  0.00     0.065 A 
ATOM     14  Cl  UNL A   1      37.213  20.174  24.217  1.00  0.00    -0.082 Cl
BRANCH   9  15
ATOM     15  O   UNL A   1      39.872  24.512  27.198  1.00  0.00    -0.496 OA
ATOM     16  C   UNL A   1      39.272  25.798  27.301  1.00  0.00     0.278 C 
ENDBRANCH   9  15
BRANCH  11  17
ATOM     17  N   UNL A   1      36.654  23.159  23.960  1.00  0.00    -0.324 N 
ATOM     18  C   UNL A   1      35.312  23.536  23.945  1.00  0.00     0.227 C 
ATOM     19  H   UNL A   1      37.121  23.173  23.094  1.00  0.00     0.169 HD
ATOM     20  O   UNL A   1      34.838  23.987  22.901  1.00  0.00    -0.274 OA
BRANCH  18  21
ATOM     21  C   UNL A   1      34.469  23.464  25.238  1.00  0.00     0.081 C 
ATOM     22  C   UNL A   1      33.013  22.954  25.103  1.00  0.00     0.030 C 
ATOM     23  C   UNL A   1      34.535  24.789  26.003  1.00  0.00     0.030 C 
ATOM     24  C   UNL A   1      31.876  23.997  25.130  1.00  0.00     0.103 C 
ATOM     25  C   UNL A   1      33.470  25.743  25.546  1.00  0.00     0.103 C 
ATOM     26  N   UNL A   1      32.218  25.151  26.009  1.00  0.00    -0.197 NA
BRANCH  26  27
ATOM     27  S   UNL A   1      30.959  26.270  26.289  1.00  0.00     0.252 S 
ATOM     28  O   UNL A   1      29.737  25.507  26.427  1.00  0.00    -0.206 OA
ATOM     29  O   UNL A   1      31.401  27.191  27.313  1.00  0.00    -0.206 OA
BRANCH  27  30
ATOM     30  C   UNL A   1      30.715  27.210  24.772  1.00  0.00     0.135 A 
ATOM     31  C   UNL A   1      29.909  26.957  23.670  1.00  0.00     0.033 A 
ATOM     32  S   UNL A   1      31.618  28.645  24.553  1.00  0.00    -0.131 S 
ATOM     33  C   UNL A   1      30.082  27.908  22.627  1.00  0.00     0.013 A 
ATOM     34  C   UNL A   1      30.957  28.905  22.992  1.00  0.00     0.066 A 
ENDBRANCH  27  30
ENDBRANCH  26  27
ENDBRANCH  18  21
ENDBRANCH  11  17
ENDBRANCH   6   8
ENDBRANCH   5   6
ENDBRANCH   4   5
ENDBRANCH   3   4
ENDBRANCH   2   3
ENDBRANCH   1   2
BRANCH   1  35
ATOM     35  C   UNL A   1      44.527  20.483  25.048  1.00  0.00     0.188 C 
BRANCH  35  36
ATOM     36  O   UNL A   1      44.717  21.211  23.865  1.00  0.00    -0.376 OA
BRANCH  36  37
ATOM     37  C   UNL A   1      45.419  22.441  23.883  1.00  0.00     0.202 C 
BRANCH  37  38
ATOM     38  C   UNL A   1      45.433  23.450  25.049  1.00  0.00     0.261 C 
BRANCH  38  39
ATOM     39  O   UNL A   1      44.514  24.546  25.013  1.00  0.00    -0.460 OA
BRANCH  39  40
ATOM     40  C   UNL A   1      45.052  25.764  25.276  1.00  0.00     0.338 C 
ATOM     41  O   UNL A   1      45.951  26.322  24.672  1.00  0.00    -0.246 OA
BRANCH  40  42
ATOM     42  C   UNL A   1      44.225  26.441  26.296  1.00  0.00     0.060 A 
ATOM     43  C   UNL A   1      44.410  27.815  26.507  1.00  0.00     0.016 A 
ATOM     44  C   UNL A   1      43.307  25.722  27.060  1.00  0.00     0.016 A 
ATOM     45  C   UNL A   1      43.693  28.470  27.507  1.00  0.00     0.010 A 
ATOM     46  C   UNL A   1      42.607  26.375  28.079  1.00  0.00     0.010 A 
ATOM     47  C   UNL A   1      42.820  27.743  28.328  1.00  0.00    -0.014 A 
BRANCH  47  48
ATOM     48  C   UNL A   1      42.275  28.368  29.558  1.00  0.00     0.031 A 
ATOM     49  C   UNL A   1      40.938  29.053  29.483  1.00  0.00     0.074 A 
ATOM     50  C   UNL A   1      42.943  28.319  30.723  1.00  0.00     0.049 A 
ATOM     51  N   UNL A   1      40.282  29.706  30.408  1.00  0.00    -0.248 NA
ATOM     52  C   UNL A   1      40.249  28.996  28.183  1.00  0.00     0.031 C 
ATOM     53  C   UNL A   1      44.226  27.653  30.935  1.00  0.00     0.029 A 
ATOM     54  N   UNL A   1      42.631  28.852  31.949  1.00  0.00    -0.354 N 
ATOM     55  C   UNL A   1      39.111  30.143  29.802  1.00  0.00     0.074 A 
ATOM     56  C   UNL A   1      39.158  29.707  28.423  1.00  0.00     0.031 C 
ATOM     57  C   UNL A   1      44.600  27.828  32.214  1.00  0.00     0.029 A 
ATOM     58  C   UNL A   1      43.598  28.643  32.901  1.00  0.00     0.049 A 
ATOM     59  H   UNL A   1      41.794  29.337  32.128  1.00  0.00     0.167 HD
ATOM     60  C   UNL A   1      38.085  30.837  30.348  1.00  0.00     0.037 A 
ATOM     61  C   UNL A   1      43.672  29.081  34.174  1.00  0.00     0.037 A 
ATOM     62  C   UNL A   1      38.040  31.272  31.719  1.00  0.00     0.049 A 
ATOM     63  C   UNL A   1      42.549  29.916  34.737  1.00  0.00     0.074 A 
ATOM     64  C   UNL A   1      37.034  31.963  32.372  1.00  0.00     0.029 A 
ATOM     65  N   UNL A   1      39.050  31.066  32.646  1.00  0.00    -0.354 N 
ATOM     66  N   UNL A   1      41.429  30.296  34.169  1.00  0.00    -0.248 NA
ATOM     67  C   UNL A   1      42.699  30.377  36.125  1.00  0.00     0.031 C 
ATOM     68  C   UNL A   1      37.460  32.225  33.678  1.00  0.00     0.029 A 
ATOM     69  C   UNL A   1      38.703  31.641  33.859  1.00  0.00     0.049 A 
ATOM     70  H   UNL A   1      39.889  30.583  32.469  1.00  0.00     0.167 HD
ATOM     71  C   UNL A   1      40.729  31.005  35.138  1.00  0.00     0.074 A 
ATOM     72  C   UNL A   1      41.544  30.994  36.334  1.00  0.00     0.031 C 
ATOM     73  C   UNL A   1      39.518  31.610  35.047  1.00  0.00     0.037 A 
BRANCH  60  74
ATOM     74  C   UNL A   1      36.936  31.197  29.451  1.00  0.00     0.064 A 
ATOM     75  C   UNL A   1      36.797  32.483  28.909  1.00  0.00     0.173 A 
ATOM     76  C   UNL A   1      35.981  30.230  29.101  1.00  0.00     0.173 A 
ATOM     77  F   UNL A   1      37.674  33.448  29.223  1.00  0.00    -0.203 F 
ATOM     78  C   UNL A   1      35.729  32.795  28.070  1.00  0.00     0.198 A 
ATOM     79  C   UNL A   1      34.932  30.537  28.239  1.00  0.00     0.198 A 
ATOM     80  F   UNL A   1      36.069  28.985  29.591  1.00  0.00    -0.203 F 
ATOM     81  F   UNL A   1      35.588  34.043  27.602  1.00  0.00    -0.200 F 
ATOM     82  C   UNL A   1      34.803  31.820  27.730  1.00  0.00     0.200 A 
ATOM     83  F   UNL A   1      34.046  29.590  27.901  1.00  0.00    -0.200 F 
ATOM     84  F   UNL A   1      33.781  32.120  26.917  1.00  0.00    -0.200 F 
ENDBRANCH  60  74
BRANCH  61  85
ATOM     85  C   UNL A   1      44.855  28.749  35.012  1.00  0.00     0.064 A 
ATOM     86  C   UNL A   1      44.863  27.613  35.833  1.00  0.00     0.173 A 
ATOM     87  C   UNL A   1      45.985  29.580  35.039  1.00  0.00     0.173 A 
ATOM     88  F   UNL A   1      43.794  26.803  35.866  1.00  0.00    -0.203 F 
ATOM     89  C   UNL A   1      45.944  27.335  36.668  1.00  0.00     0.198 A 
ATOM     90  C   UNL A   1      47.079  29.283  35.849  1.00  0.00     0.198 A 
ATOM     91  F   UNL A   1      46.028  30.682  34.275  1.00  0.00    -0.203 F 
ATOM     92  F   UNL A   1      45.900  26.273  37.485  1.00  0.00    -0.200 F 
ATOM     93  C   UNL A   1      47.053  28.167  36.671  1.00  0.00     0.200 A 
ATOM     94  F   UNL A   1      48.153  30.085  35.842  1.00  0.00    -0.200 F 
ATOM     95  F   UNL A   1      48.091  27.899  37.474  1.00  0.00    -0.200 F 
ENDBRANCH  61  85
BRANCH  73  96
ATOM     96  C   UNL A   1      38.975  32.263  36.286  1.00  0.00     0.064 A 
ATOM     97  C   UNL A   1      38.134  31.581  37.178  1.00  0.00     0.173 A 
ATOM     98  C   UNL A   1      39.331  33.585  36.603  1.00  0.00     0.173 A 
ATOM     99  F   UNL A   1      37.755  30.322  36.917  1.00  0.00    -0.203 F 
ATOM    100  C   UNL A   1      37.641  32.209  38.321  1.00  0.00     0.198 A 
ATOM    101  C   UNL A   1      38.864  34.197  37.764  1.00  0.00     0.198 A 
ATOM    102  F   UNL A   1      40.141  34.281  35.790  1.00  0.00    -0.203 F 
ATOM    103  F   UNL A   1      36.794  31.556  39.127  1.00  0.00    -0.200 F 
ATOM    104  C   UNL A   1      38.012  33.512  38.616  1.00  0.00     0.200 A 
ATOM    105  F   UNL A   1      39.238  35.450  38.055  1.00  0.00    -0.200 F 
ATOM    106  F   UNL A   1      37.542  34.111  39.718  1.00  0.00    -0.200 F 
ENDBRANCH  73  96
ENDBRANCH  47  48
ENDBRANCH  40  42
ENDBRANCH  39  40
ENDBRANCH  38  39
ENDBRANCH  37  38
ENDBRANCH  36  37
ENDBRANCH  35  36
ENDBRANCH   1  35
TORSDOF 22
ENDMDL
MODEL 2
REMARK VINA RESULT:     -10.8      5.572     11.628
REMARK SMILES COc1cc(NC(=O)C2CCN(S(=O)(=O)c3cccs3)CC2)c(Cl)cc1C(=O)OCCOCCOCCOC(=O)c1ccc(-c2c3nc(c(-c4c(F)c(F)c(F)c(F)c4F)c4ccc([nH]4)c(-c4c(F)c(F)c(F)c(F)c4F)c4nc(c(-c5c(F)c(F)c(F)c(F)c5F)c5ccc2[nH]5)C=C4)C=C3)cc1
REMARK SMILES IDX 33 1 32 2 31 3 30 4 29 5 27 6 28 7 26 8 3 9 4 10 5 11 25 12
REMARK SMILES IDX 23 13 24 14 2 15 1 16 6 17 7 18 8 20 9 21 10 22 22 23 11 24
REMARK SMILES IDX 21 25 12 26 13 27 14 28 15 29 16 30 17 31 20 32 18 33 19 34
REMARK SMILES IDX 34 35 35 36 36 37 37 38 38 39 39 40 40 41 41 42 42 43 103 44
REMARK SMILES IDX 43 45 102 46 44 47 45 48 46 49 96 50 47 51 101 52 95 53
REMARK SMILES IDX 97 54 48 55 100 56 94 57 93 58 49 60 81 61 61 62 80 63 62 64
REMARK SMILES IDX 65 65 79 66 98 67 63 68 64 69 78 71 99 72 66 73 50 74 51 75
REMARK SMILES IDX 59 76 52 77 53 78 57 79 60 80 54 81 55 82 58 83 56 84 82 85
REMARK SMILES IDX 83 86 91 87 84 88 85 89 89 90 92 91 86 92 87 93 90 94 88 95
REMARK SMILES IDX 67 96 68 97 76 98 69 99 70 100 74 101 77 102 71 103 72 104
REMARK SMILES IDX 75 105 73 106
REMARK H PARENT 6 19 97 59 65 70
REMARK Flexibility Score: inf
ROOT
ATOM      1  C   UNL A   1      32.799  37.306  32.638  1.00  0.00     0.188 C 
ENDROOT
BRANCH   1   2
ATOM      2  O   UNL A   1      32.649  37.167  31.235  1.00  0.00    -0.376 OA
BRANCH   2   3
ATOM      3  C   UNL A   1      32.761  35.872  30.649  1.00  0.00     0.202 C 
BRANCH   3   4
ATOM      4  C   UNL A   1      33.418  35.729  29.272  1.00  0.00     0.261 C 
BRANCH   4   5
ATOM      5  O   UNL A   1      34.269  34.578  29.223  1.00  0.00    -0.460 OA
BRANCH   5   6
ATOM      6  C   UNL A   1      34.659  34.149  28.004  1.00  0.00     0.342 C 
ATOM      7  O   UNL A   1      35.107  34.835  27.099  1.00  0.00    -0.246 OA
BRANCH   6   8
ATOM      8  C   UNL A   1      34.684  32.662  27.963  1.00  0.00     0.103 A 
ATOM      9  C   UNL A   1      33.527  31.864  27.930  1.00  0.00     0.135 A 
ATOM     10  C   UNL A   1      33.670  30.475  27.889  1.00  0.00     0.075 A 
ATOM     11  C   UNL A   1      34.921  29.904  27.641  1.00  0.00     0.063 A 
ATOM     12  C   UNL A   1      35.954  32.055  28.004  1.00  0.00     0.042 A 
ATOM     13  C   UNL A   1      36.074  30.674  27.844  1.00  0.00     0.065 A 
ATOM     14  Cl  UNL A   1      37.651  29.990  27.715  1.00  0.00    -0.082 Cl
BRANCH   9  15
ATOM     15  O   UNL A   1      32.314  32.493  27.866  1.00  0.00    -0.496 OA
ATOM     16  C   UNL A   1      31.387  32.078  26.870  1.00  0.00     0.278 C 
ENDBRANCH   9  15
BRANCH  11  17
ATOM     17  N   UNL A   1      35.015  28.690  26.910  1.00  0.00    -0.324 N 
ATOM     18  C   UNL A   1      33.993  28.035  26.225  1.00  0.00     0.227 C 
ATOM     19  H   UNL A   1      35.902  28.264  26.883  1.00  0.00     0.169 HD
ATOM     20  O   UNL A   1      34.281  27.061  25.529  1.00  0.00    -0.274 OA
BRANCH  18  21
ATOM     21  C   UNL A   1      32.548  28.580  26.278  1.00  0.00     0.081 C 
ATOM     22  C   UNL A   1      31.404  27.537  26.339  1.00  0.00     0.030 C 
ATOM     23  C   UNL A   1      32.315  29.609  25.170  1.00  0.00     0.030 C 
ATOM     24  C   UNL A   1      30.615  27.254  25.045  1.00  0.00     0.103 C 
ATOM     25  C   UNL A   1      31.858  28.957  23.898  1.00  0.00     0.103 C 
ATOM     26  N   UNL A   1      30.512  28.471  24.193  1.00  0.00    -0.197 NA
BRANCH  26  27
ATOM     27  S   UNL A   1      29.485  28.344  22.835  1.00  0.00     0.252 S 
ATOM     28  O   UNL A   1      30.319  27.996  21.705  1.00  0.00    -0.206 OA
ATOM     29  O   UNL A   1      28.342  27.542  23.213  1.00  0.00    -0.206 OA
BRANCH  27  30
ATOM     30  C   UNL A   1      28.890  29.999  22.442  1.00  0.00     0.135 A 
ATOM     31  C   UNL A   1      28.367  30.516  21.265  1.00  0.00     0.033 A 
ATOM     32  S   UNL A   1      28.986  31.203  23.651  1.00  0.00    -0.131 S 
ATOM     33  C   UNL A   1      28.105  31.912  21.342  1.00  0.00     0.013 A 
ATOM     34  C   UNL A   1      28.362  32.406  22.600  1.00  0.00     0.066 A 
ENDBRANCH  27  30
ENDBRANCH  26  27
ENDBRANCH  18  21
ENDBRANCH  11  17
ENDBRANCH   6   8
ENDBRANCH   5   6
ENDBRANCH   4   5
ENDBRANCH   3   4
ENDBRANCH   2   3
ENDBRANCH   1   2
BRANCH   1  35
ATOM     35  C   UNL A   1      34.064  36.773  33.336  1.00  0.00     0.188 C 
BRANCH  35  36
ATOM     36  O   UNL A   1      34.943  35.924  32.648  1.00  0.00    -0.376 OA
BRANCH  36  37
ATOM     37  C   UNL A   1      35.675  34.931  33.344  1.00  0.00     0.202 C 
BRANCH  37  38
ATOM     38  C   UNL A   1      35.087  33.640  33.948  1.00  0.00     0.261 C 
BRANCH  38  39
ATOM     39  O   UNL A   1      35.704  32.391  33.618  1.00  0.00    -0.460 OA
BRANCH  39  40
ATOM     40  C   UNL A   1      35.640  32.039  32.309  1.00  0.00     0.338 C 
ATOM     41  O   UNL A   1      34.696  32.176  31.550  1.00  0.00    -0.246 OA
BRANCH  40  42
ATOM     42  C   UNL A   1      36.990  31.651  31.854  1.00  0.00     0.060 A 
ATOM     43  C   UNL A   1      37.630  32.446  30.891  1.00  0.00     0.016 A 
ATOM     44  C   UNL A   1      37.602  30.497  32.342  1.00  0.00     0.016 A 
ATOM     45  C   UNL A   1      38.876  32.071  30.392  1.00  0.00     0.010 A 
ATOM     46  C   UNL A   1      38.841  30.110  31.823  1.00  0.00     0.010 A 
ATOM     47  C   UNL A   1      39.468  30.876  30.823  1.00  0.00    -0.014 A 
BRANCH  47  48
ATOM     48  C   UNL A   1      40.644  30.335  30.099  1.00  0.00     0.031 A 
ATOM     49  C   UNL A   1      41.819  31.243  29.858  1.00  0.00     0.074 A 
ATOM     50  C   UNL A   1      40.678  29.060  29.675  1.00  0.00     0.049 A 
ATOM     51  N   UNL A   1      42.934  31.011  29.214  1.00  0.00    -0.248 NA
ATOM     52  C   UNL A   1      41.719  32.600  30.420  1.00  0.00     0.031 C 
ATOM     53  C   UNL A   1      39.623  28.072  29.880  1.00  0.00     0.029 A 
ATOM     54  N   UNL A   1      41.645  28.383  28.972  1.00  0.00    -0.354 N 
ATOM     55  C   UNL A   1      43.662  32.192  29.285  1.00  0.00     0.074 A 
ATOM     56  C   UNL A   1      42.853  33.147  30.009  1.00  0.00     0.031 C 
ATOM     57  C   UNL A   1      39.993  26.915  29.303  1.00  0.00     0.029 A 
ATOM     58  C   UNL A   1      41.296  27.092  28.664  1.00  0.00     0.049 A 
ATOM     59  H   UNL A   1      42.504  28.786  28.714  1.00  0.00     0.167 HD
ATOM     60  C   UNL A   1      44.897  32.452  28.797  1.00  0.00     0.037 A 
ATOM     61  C   UNL A   1      41.948  26.169  27.928  1.00  0.00     0.037 A 
ATOM     62  C   UNL A   1      45.702  31.502  28.075  1.00  0.00     0.049 A 
ATOM     63  C   UNL A   1      43.292  26.509  27.334  1.00  0.00     0.074 A 
ATOM     64  C   UNL A   1      46.975  31.666  27.559  1.00  0.00     0.029 A 
ATOM     65  N   UNL A   1      45.304  30.212  27.757  1.00  0.00    -0.354 N 
ATOM     66  N   UNL A   1      43.990  27.616  27.434  1.00  0.00    -0.248 NA
ATOM     67  C   UNL A   1      43.943  25.466  26.528  1.00  0.00     0.031 C 
ATOM     68  C   UNL A   1      47.325  30.494  26.880  1.00  0.00     0.029 A 
ATOM     69  C   UNL A   1      46.298  29.577  27.028  1.00  0.00     0.049 A 
ATOM     70  H   UNL A   1      44.444  29.807  28.012  1.00  0.00     0.167 HD
ATOM     71  C   UNL A   1      45.172  27.388  26.739  1.00  0.00     0.074 A 
ATOM     72  C   UNL A   1      45.102  26.035  26.231  1.00  0.00     0.031 C 
ATOM     73  C   UNL A   1      46.222  28.224  26.540  1.00  0.00     0.037 A 
BRANCH  60  74
ATOM     74  C   UNL A   1      45.447  33.835  29.004  1.00  0.00     0.064 A 
ATOM     75  C   UNL A   1      45.278  34.847  28.048  1.00  0.00     0.173 A 
ATOM     76  C   UNL A   1      46.120  34.159  30.191  1.00  0.00     0.173 A 
ATOM     77  F   UNL A   1      44.654  34.586  26.889  1.00  0.00    -0.203 F 
ATOM     78  C   UNL A   1      45.786  36.126  28.262  1.00  0.00     0.198 A 
ATOM     79  C   UNL A   1      46.601  35.446  30.414  1.00  0.00     0.198 A 
ATOM     80  F   UNL A   1      46.308  33.228  31.138  1.00  0.00    -0.203 F 
ATOM     81  F   UNL A   1      45.656  37.065  27.314  1.00  0.00    -0.200 F 
ATOM     82  C   UNL A   1      46.440  36.426  29.448  1.00  0.00     0.200 A 
ATOM     83  F   UNL A   1      47.220  35.737  31.567  1.00  0.00    -0.200 F 
ATOM     84  F   UNL A   1      46.921  37.660  29.656  1.00  0.00    -0.200 F 
ENDBRANCH  60  74
BRANCH  61  85
ATOM     85  C   UNL A   1      41.343  24.829  27.701  1.00  0.00     0.064 A 
ATOM     86  C   UNL A   1      41.851  23.689  28.338  1.00  0.00     0.173 A 
ATOM     87  C   UNL A   1      40.271  24.656  26.813  1.00  0.00     0.173 A 
ATOM     88  F   UNL A   1      42.895  23.798  29.173  1.00  0.00    -0.203 F 
ATOM     89  C   UNL A   1      41.328  22.424  28.077  1.00  0.00     0.198 A 
ATOM     90  C   UNL A   1      39.726  23.395  26.577  1.00  0.00     0.198 A 
ATOM     91  F   UNL A   1      39.750  25.713  26.173  1.00  0.00    -0.203 F 
ATOM     92  F   UNL A   1      41.871  21.345  28.657  1.00  0.00    -0.200 F 
ATOM     93  C   UNL A   1      40.262  22.279  27.201  1.00  0.00     0.200 A 
ATOM     94  F   UNL A   1      38.691  23.261  25.738  1.00  0.00    -0.200 F 
ATOM     95  F   UNL A   1      39.760  21.063  26.950  1.00  0.00    -0.200 F 
ENDBRANCH  61  85
BRANCH  73  96
ATOM     96  C   UNL A   1      47.405  27.683  25.787  1.00  0.00     0.064 A 
ATOM     97  C   UNL A   1      47.518  27.805  24.394  1.00  0.00     0.173 A 
ATOM     98  C   UNL A   1      48.459  27.063  26.478  1.00  0.00     0.173 A 
ATOM     99  F   UNL A   1      46.534  28.378  23.686  1.00  0.00    -0.203 F 
ATOM    100  C   UNL A   1      48.624  27.295  23.717  1.00  0.00     0.198 A 
ATOM    101  C   UNL A   1      49.579  26.586  25.801  1.00  0.00     0.198 A 
ATOM    102  F   UNL A   1      48.409  26.929  27.812  1.00  0.00    -0.203 F 
ATOM    103  F   UNL A   1      48.682  27.372  22.381  1.00  0.00    -0.200 F 
ATOM    104  C   UNL A   1      49.655  26.693  24.421  1.00  0.00     0.200 A 
ATOM    105  F   UNL A   1      50.583  26.020  26.486  1.00  0.00    -0.200 F 
ATOM    106  F   UNL A   1      50.721  26.208  23.769  1.00  0.00    -0.200 F 
ENDBRANCH  73  96
ENDBRANCH  47  48
ENDBRANCH  40  42
ENDBRANCH  39  40
ENDBRANCH  38  39
ENDBRANCH  37  38
ENDBRANCH  36  37
ENDBRANCH  35  36
ENDBRANCH   1  35
TORSDOF 22
ENDMDL
MODEL 3
REMARK VINA RESULT:      -9.9      5.035      7.841
REMARK SMILES COc1cc(NC(=O)C2CCN(S(=O)(=O)c3cccs3)CC2)c(Cl)cc1C(=O)OCCOCCOCCOC(=O)c1ccc(-c2c3nc(c(-c4c(F)c(F)c(F)c(F)c4F)c4ccc([nH]4)c(-c4c(F)c(F)c(F)c(F)c4F)c4nc(c(-c5c(F)c(F)c(F)c(F)c5F)c5ccc2[nH]5)C=C4)C=C3)cc1
REMARK SMILES IDX 33 1 32 2 31 3 30 4 29 5 27 6 28 7 26 8 3 9 4 10 5 11 25 12
REMARK SMILES IDX 23 13 24 14 2 15 1 16 6 17 7 18 8 20 9 21 10 22 22 23 11 24
REMARK SMILES IDX 21 25 12 26 13 27 14 28 15 29 16 30 17 31 20 32 18 33 19 34
REMARK SMILES IDX 34 35 35 36 36 37 37 38 38 39 39 40 40 41 41 42 42 43 103 44
REMARK SMILES IDX 43 45 102 46 44 47 45 48 46 49 96 50 47 51 101 52 95 53
REMARK SMILES IDX 97 54 48 55 100 56 94 57 93 58 49 60 81 61 61 62 80 63 62 64
REMARK SMILES IDX 65 65 79 66 98 67 63 68 64 69 78 71 99 72 66 73 50 74 51 75
REMARK SMILES IDX 59 76 52 77 53 78 57 79 60 80 54 81 55 82 58 83 56 84 82 85
REMARK SMILES IDX 83 86 91 87 84 88 85 89 89 90 92 91 86 92 87 93 90 94 88 95
REMARK SMILES IDX 67 96 68 97 76 98 69 99 70 100 74 101 77 102 71 103 72 104
REMARK SMILES IDX 75 105 73 106
REMARK H PARENT 6 19 97 59 65 70
REMARK Flexibility Score: inf
ROOT
ATOM      1  C   UNL A   1      42.711  25.161  26.438  1.00  0.00     0.188 C 
ENDROOT
BRANCH   1   2
ATOM      2  O   UNL A   1      43.411  24.652  27.561  1.00  0.00    -0.376 OA
BRANCH   2   3
ATOM      3  C   UNL A   1      42.681  24.012  28.604  1.00  0.00     0.202 C 
BRANCH   3   4
ATOM      4  C   UNL A   1      42.360  22.518  28.483  1.00  0.00     0.261 C 
BRANCH   4   5
ATOM      5  O   UNL A   1      41.030  22.315  27.991  1.00  0.00    -0.460 OA
BRANCH   5   6
ATOM      6  C   UNL A   1      40.902  21.802  26.749  1.00  0.00     0.342 C 
ATOM      7  O   UNL A   1      41.705  21.087  26.170  1.00  0.00    -0.246 OA
BRANCH   6   8
ATOM      8  C   UNL A   1      39.527  22.036  26.232  1.00  0.00     0.103 A 
ATOM      9  C   UNL A   1      38.933  23.308  26.149  1.00  0.00     0.135 A 
ATOM     10  C   UNL A   1      37.635  23.411  25.642  1.00  0.00     0.075 A 
ATOM     11  C   UNL A   1      37.038  22.317  25.010  1.00  0.00     0.063 A 
ATOM     12  C   UNL A   1      38.795  20.894  25.855  1.00  0.00     0.042 A 
ATOM     13  C   UNL A   1      37.548  21.033  25.244  1.00  0.00     0.065 A 
ATOM     14  Cl  UNL A   1      36.766  19.624  24.631  1.00  0.00    -0.082 Cl
BRANCH   9  15
ATOM     15  O   UNL A   1      39.686  24.394  26.501  1.00  0.00    -0.496 OA
ATOM     16  C   UNL A   1      39.259  25.187  27.602  1.00  0.00     0.278 C 
ENDBRANCH   9  15
BRANCH  11  17
ATOM     17  N   UNL A   1      36.145  22.523  23.926  1.00  0.00    -0.324 N 
ATOM     18  C   UNL A   1      34.808  22.909  23.995  1.00  0.00     0.227 C 
ATOM     19  H   UNL A   1      36.511  22.376  23.024  1.00  0.00     0.169 HD
ATOM     20  O   UNL A   1      34.217  23.174  22.947  1.00  0.00    -0.274 OA
BRANCH  18  21
ATOM     21  C   UNL A   1      34.118  23.081  25.366  1.00  0.00     0.081 C 
ATOM     22  C   UNL A   1      32.633  22.650  25.466  1.00  0.00     0.030 C 
ATOM     23  C   UNL A   1      34.333  24.495  25.909  1.00  0.00     0.030 C 
ATOM     24  C   UNL A   1      31.558  23.757  25.456  1.00  0.00     0.103 C 
ATOM     25  C   UNL A   1      33.270  25.439  25.430  1.00  0.00     0.103 C 
ATOM     26  N   UNL A   1      32.052  25.002  26.108  1.00  0.00    -0.197 NA
BRANCH  26  27
ATOM     27  S   UNL A   1      30.888  26.228  26.348  1.00  0.00     0.252 S 
ATOM     28  O   UNL A   1      29.595  25.580  26.397  1.00  0.00    -0.206 OA
ATOM     29  O   UNL A   1      31.354  27.080  27.421  1.00  0.00    -0.206 OA
BRANCH  27  30
ATOM     30  C   UNL A   1      30.822  27.220  24.846  1.00  0.00     0.135 A 
ATOM     31  C   UNL A   1      31.323  28.485  24.575  1.00  0.00     0.033 A 
ATOM     32  S   UNL A   1      29.985  26.591  23.495  1.00  0.00    -0.131 S 
ATOM     33  C   UNL A   1      30.967  28.958  23.281  1.00  0.00     0.013 A 
ATOM     34  C   UNL A   1      30.269  28.008  22.571  1.00  0.00     0.066 A 
ENDBRANCH  27  30
ENDBRANCH  26  27
ENDBRANCH  18  21
ENDBRANCH  11  17
ENDBRANCH   6   8
ENDBRANCH   5   6
ENDBRANCH   4   5
ENDBRANCH   3   4
ENDBRANCH   2   3
ENDBRANCH   1   2
BRANCH   1  35
ATOM     35  C   UNL A   1      42.972  24.579  25.036  1.00  0.00     0.188 C 
BRANCH  35  36
ATOM     36  O   UNL A   1      43.436  23.263  24.896  1.00  0.00    -0.376 OA
BRANCH  36  37
ATOM     37  C   UNL A   1      44.713  23.006  24.341  1.00  0.00     0.202 C 
BRANCH  37  38
ATOM     38  C   UNL A   1      45.988  22.670  25.141  1.00  0.00     0.261 C 
BRANCH  38  39
ATOM     39  O   UNL A   1      46.598  23.705  25.918  1.00  0.00    -0.460 OA
BRANCH  39  40
ATOM     40  C   UNL A   1      46.942  24.822  25.228  1.00  0.00     0.338 C 
ATOM     41  O   UNL A   1      47.482  24.883  24.137  1.00  0.00    -0.246 OA
BRANCH  40  42
ATOM     42  C   UNL A   1      46.356  25.998  25.902  1.00  0.00     0.060 A 
ATOM     43  C   UNL A   1      45.637  26.926  25.134  1.00  0.00     0.016 A 
ATOM     44  C   UNL A   1      46.546  26.204  27.268  1.00  0.00     0.016 A 
ATOM     45  C   UNL A   1      45.128  28.080  25.728  1.00  0.00     0.010 A 
ATOM     46  C   UNL A   1      46.056  27.373  27.857  1.00  0.00     0.010 A 
ATOM     47  C   UNL A   1      45.374  28.331  27.085  1.00  0.00    -0.014 A 
BRANCH  47  48
ATOM     48  C   UNL A   1      45.082  29.671  27.649  1.00  0.00     0.031 A 
ATOM     49  C   UNL A   1      46.099  30.764  27.464  1.00  0.00     0.074 A 
ATOM     50  C   UNL A   1      43.934  29.920  28.301  1.00  0.00     0.049 A 
ATOM     51  N   UNL A   1      46.088  31.996  27.903  1.00  0.00    -0.248 NA
ATOM     52  C   UNL A   1      47.294  30.416  26.677  1.00  0.00     0.031 C 
ATOM     53  C   UNL A   1      42.855  28.960  28.513  1.00  0.00     0.029 A 
ATOM     54  N   UNL A   1      43.493  31.067  28.915  1.00  0.00    -0.354 N 
ATOM     55  C   UNL A   1      47.273  32.566  27.455  1.00  0.00     0.074 A 
ATOM     56  C   UNL A   1      47.992  31.540  26.734  1.00  0.00     0.031 C 
ATOM     57  C   UNL A   1      41.878  29.553  29.221  1.00  0.00     0.029 A 
ATOM     58  C   UNL A   1      42.277  30.923  29.537  1.00  0.00     0.049 A 
ATOM     59  H   UNL A   1      44.000  31.910  28.910  1.00  0.00     0.167 HD
ATOM     60  C   UNL A   1      47.716  33.834  27.622  1.00  0.00     0.037 A 
ATOM     61  C   UNL A   1      41.581  31.796  30.293  1.00  0.00     0.037 A 
ATOM     62  C   UNL A   1      47.001  34.856  28.341  1.00  0.00     0.049 A 
ATOM     63  C   UNL A   1      42.133  33.181  30.526  1.00  0.00     0.074 A 
ATOM     64  C   UNL A   1      47.359  36.177  28.547  1.00  0.00     0.029 A 
ATOM     65  N   UNL A   1      45.786  34.665  28.981  1.00  0.00    -0.354 N 
ATOM     66  N   UNL A   1      43.236  33.724  30.070  1.00  0.00    -0.248 NA
ATOM     67  C   UNL A   1      41.334  34.077  31.374  1.00  0.00     0.031 C 
ATOM     68  C   UNL A   1      46.387  36.770  29.359  1.00  0.00     0.029 A 
ATOM     69  C   UNL A   1      45.392  35.839  29.606  1.00  0.00     0.049 A 
ATOM     70  H   UNL A   1      45.278  33.823  28.990  1.00  0.00     0.167 HD
ATOM     71  C   UNL A   1      43.245  35.030  30.543  1.00  0.00     0.074 A 
ATOM     72  C   UNL A   1      42.031  35.203  31.313  1.00  0.00     0.031 C 
ATOM     73  C   UNL A   1      44.173  36.001  30.357  1.00  0.00     0.037 A 
BRANCH  60  74
ATOM     74  C   UNL A   1      49.056  34.183  27.040  1.00  0.00     0.064 A 
ATOM     75  C   UNL A   1      49.183  34.738  25.758  1.00  0.00     0.173 A 
ATOM     76  C   UNL A   1      50.225  33.990  27.790  1.00  0.00     0.173 A 
ATOM     77  F   UNL A   1      48.097  34.928  24.993  1.00  0.00    -0.203 F 
ATOM     78  C   UNL A   1      50.434  35.064  25.239  1.00  0.00     0.198 A 
ATOM     79  C   UNL A   1      51.472  34.345  27.280  1.00  0.00     0.198 A 
ATOM     80  F   UNL A   1      50.160  33.464  29.022  1.00  0.00    -0.203 F 
ATOM     81  F   UNL A   1      50.536  35.547  23.993  1.00  0.00    -0.200 F 
ATOM     82  C   UNL A   1      51.576  34.874  26.003  1.00  0.00     0.200 A 
ATOM     83  F   UNL A   1      52.572  34.173  28.026  1.00  0.00    -0.200 F 
ATOM     84  F   UNL A   1      52.777  35.196  25.506  1.00  0.00    -0.200 F 
ENDBRANCH  60  74
BRANCH  61  85
ATOM     85  C   UNL A   1      40.284  31.392  30.899  1.00  0.00     0.064 A 
ATOM     86  C   UNL A   1      39.067  31.704  30.276  1.00  0.00     0.173 A 
ATOM     87  C   UNL A   1      40.232  30.720  32.129  1.00  0.00     0.173 A 
ATOM     88  F   UNL A   1      39.063  32.372  29.113  1.00  0.00    -0.203 F 
ATOM     89  C   UNL A   1      37.849  31.384  30.873  1.00  0.00     0.198 A 
ATOM     90  C   UNL A   1      39.014  30.371  32.710  1.00  0.00     0.198 A 
ATOM     91  F   UNL A   1      41.367  30.401  32.769  1.00  0.00    -0.203 F 
ATOM     92  F   UNL A   1      36.702  31.746  30.283  1.00  0.00    -0.200 F 
ATOM     93  C   UNL A   1      37.824  30.713  32.086  1.00  0.00     0.200 A 
ATOM     94  F   UNL A   1      38.994  29.715  33.878  1.00  0.00    -0.200 F 
ATOM     95  F   UNL A   1      36.653  30.407  32.660  1.00  0.00    -0.200 F 
ENDBRANCH  61  85
BRANCH  73  96
ATOM     96  C   UNL A   1      43.890  37.354  30.948  1.00  0.00     0.064 A 
ATOM     97  C   UNL A   1      44.095  37.628  32.309  1.00  0.00     0.173 A 
ATOM     98  C   UNL A   1      43.438  38.402  30.130  1.00  0.00     0.173 A 
ATOM     99  F   UNL A   1      44.514  36.659  33.136  1.00  0.00    -0.203 F 
ATOM    100  C   UNL A   1      43.823  38.890  32.835  1.00  0.00     0.198 A 
ATOM    101  C   UNL A   1      43.202  39.671  30.653  1.00  0.00     0.198 A 
ATOM    102  F   UNL A   1      43.235  38.199  28.819  1.00  0.00    -0.203 F 
ATOM    103  F   UNL A   1      43.972  39.111  34.147  1.00  0.00    -0.200 F 
ATOM    104  C   UNL A   1      43.385  39.911  32.006  1.00  0.00     0.200 A 
ATOM    105  F   UNL A   1      42.794  40.661  29.846  1.00  0.00    -0.200 F 
ATOM    106  F   UNL A   1      43.130  41.125  32.512  1.00  0.00    -0.200 F 
ENDBRANCH  73  96
ENDBRANCH  47  48
ENDBRANCH  40  42
ENDBRANCH  39  40
ENDBRANCH  38  39
ENDBRANCH  37  38
ENDBRANCH  36  37
ENDBRANCH  35  36
ENDBRANCH   1  35
TORSDOF 22
ENDMDL
