MODEL 1
REMARK VINA RESULT:     -12.3      0.000      0.000
REMARK SMILES Cc1ccc(NC(=O)C[NH+]2CCN(c3ccc(C(=O)OCCOCCOCCOC(=O)c4ccc(-c5c6nc(c(-c7c(F)c(F)c(F)c(F)c7F)c7ccc([nH]7)c(-c7c(F)c(F)c(F)c(F)c7F)c7nc(c(-c8c(F)c(F)c(F)c(F)c8F)c8ccc5[nH]8)C=C7)C=C6)cc4)cc3NS(C)(=O)=O)CC2)cc1
REMARK SMILES IDX 24 1 23 2 22 3 21 4 20 5 18 6 19 7 17 8 14 9 15 10 96 11
REMARK SMILES IDX 16 12 95 13 13 14 10 15 11 16 103 17 12 19 102 20 9 21 7 22
REMARK SMILES IDX 6 23 8 25 5 26 1 27 2 28 3 29 105 30 4 31 104 32 97 33 98 35
REMARK SMILES IDX 99 36 100 37 101 38 25 39 26 40 27 41 28 42 29 43 30 44
REMARK SMILES IDX 31 45 32 46 33 47 94 48 34 49 93 50 35 51 36 52 37 53 87 54
REMARK SMILES IDX 38 55 92 56 86 57 88 58 39 59 91 60 85 61 84 62 40 64 72 65
REMARK SMILES IDX 52 66 71 67 53 68 56 69 70 70 89 71 54 72 55 73 69 75 90 76
REMARK SMILES IDX 57 77 41 78 42 79 50 80 43 81 44 82 48 83 51 84 45 85 46 86
REMARK SMILES IDX 49 87 47 88 73 89 74 90 82 91 75 92 76 93 80 94 83 95 77 96
REMARK SMILES IDX 78 97 81 98 79 99 58 100 59 101 67 102 60 103 61 104 65 105
REMARK SMILES IDX 68 106 62 107 63 108 66 109 64 110
REMARK H PARENT 10 18 6 24 97 34 88 63 56 74
REMARK Flexibility Score: inf
ROOT
ATOM      1  C   UNL A   1      40.539  21.000  26.223  1.00  0.00     0.188 C 
ENDROOT
BRANCH   1   2
ATOM      2  O   UNL A   1      39.291  21.590  26.643  1.00  0.00    -0.376 OA
BRANCH   2   3
ATOM      3  C   UNL A   1      38.264  22.047  25.763  1.00  0.00     0.202 C 
BRANCH   3   4
ATOM      4  C   UNL A   1      37.270  21.120  24.764  1.00  0.00     0.261 C 
BRANCH   4   5
ATOM      5  O   UNL A   1      35.718  20.378  24.969  1.00  0.00    -0.460 OA
BRANCH   5   6
ATOM      6  C   UNL A   1      34.363  20.671  25.284  1.00  0.00     0.338 C 
ATOM      7  O   UNL A   1      33.477  19.944  25.728  1.00  0.00    -0.246 OA
BRANCH   6   8
ATOM      8  C   UNL A   1      33.659  21.955  25.126  1.00  0.00     0.062 A 
ATOM      9  C   UNL A   1      33.404  24.737  25.335  1.00  0.00     0.062 A 
ATOM     10  C   UNL A   1      33.175  23.890  26.440  1.00  0.00     0.029 A 
ATOM     11  C   UNL A   1      33.895  24.221  24.113  1.00  0.00     0.073 A 
ATOM     12  C   UNL A   1      33.287  22.514  26.339  1.00  0.00     0.018 A 
ATOM     13  C   UNL A   1      34.010  22.830  24.022  1.00  0.00     0.044 A 
BRANCH   9  14
ATOM     14  N   UNL A   1      32.954  26.062  25.433  1.00  0.00    -0.359 N 
ATOM     15  N   UNL A   1      31.905  28.400  26.822  1.00  0.00    -0.324 N 
ATOM     16  C   UNL A   1      31.145  27.141  26.865  1.00  0.00     0.284 C 
ATOM     17  C   UNL A   1      33.333  28.027  26.967  1.00  0.00     0.284 C 
ATOM     18  H   UNL A   1      31.596  29.020  27.571  1.00  0.00     0.348 HD
ATOM     19  C   UNL A   1      31.532  26.087  25.825  1.00  0.00     0.178 C 
ATOM     20  C   UNL A   1      33.899  27.103  25.863  1.00  0.00     0.178 C 
BRANCH  15  21
ATOM     21  C   UNL A   1      31.681  29.165  25.565  1.00  0.00     0.364 C 
BRANCH  21  22
ATOM     22  C   UNL A   1      31.481  30.671  25.815  1.00  0.00     0.279 C 
ATOM     23  N   UNL A   1      30.583  31.439  25.118  1.00  0.00    -0.321 N 
ATOM     24  H   UNL A   1      30.545  32.378  25.415  1.00  0.00     0.170 HD
ATOM     25  O   UNL A   1      32.089  31.236  26.735  1.00  0.00    -0.268 OA
BRANCH  23  26
ATOM     26  C   UNL A   1      29.709  31.139  24.065  1.00  0.00     0.041 A 
ATOM     27  C   UNL A   1      27.855  31.117  20.206  1.00  0.00     0.044 C 
ATOM     28  C   UNL A   1      28.385  30.950  21.600  1.00  0.00    -0.051 A 
ATOM     29  C   UNL A   1      27.802  31.612  22.681  1.00  0.00     0.005 A 
ATOM     30  C   UNL A   1      29.533  30.195  21.834  1.00  0.00     0.005 A 
ATOM     31  C   UNL A   1      28.450  31.701  23.917  1.00  0.00     0.026 A 
ATOM     32  C   UNL A   1      30.182  30.276  23.070  1.00  0.00     0.026 A 
ENDBRANCH  23  26
ENDBRANCH  21  22
ENDBRANCH  15  21
ENDBRANCH   9  14
BRANCH  11  33
ATOM     33  N   UNL A   1      34.038  25.175  23.015  1.00  0.00    -0.282 N 
ATOM     34  H   UNL A   1      34.749  25.850  23.098  1.00  0.00     0.180 HD
BRANCH  33  35
ATOM     35  S   UNL A   1      33.094  25.224  21.617  1.00  0.00     0.229 S 
ATOM     36  C   UNL A   1      31.429  25.325  22.272  1.00  0.00     0.183 C 
ATOM     37  O   UNL A   1      33.353  26.502  20.994  1.00  0.00    -0.207 OA
ATOM     38  O   UNL A   1      33.190  23.979  20.882  1.00  0.00    -0.207 OA
ENDBRANCH  33  35
ENDBRANCH  11  33
ENDBRANCH   6   8
ENDBRANCH   5   6
ENDBRANCH   4   5
ENDBRANCH   3   4
ENDBRANCH   2   3
ENDBRANCH   1   2
BRANCH   1  39
ATOM     39  C   UNL A   1      41.884  21.691  26.428  1.00  0.00     0.188 C 
BRANCH  39  40
ATOM     40  O   UNL A   1      42.625  21.625  25.227  1.00  0.00    -0.376 OA
BRANCH  40  41
ATOM     41  C   UNL A   1      43.778  22.441  25.168  1.00  0.00     0.202 C 
BRANCH  41  42
ATOM     42  C   UNL A   1      44.285  22.794  26.575  1.00  0.00     0.261 C 
BRANCH  42  43
ATOM     43  O   UNL A   1      44.433  24.231  26.710  1.00  0.00    -0.460 OA
BRANCH  43  44
ATOM     44  C   UNL A   1      43.972  25.024  25.683  1.00  0.00     0.338 C 
ATOM     45  O   UNL A   1      44.578  25.236  24.650  1.00  0.00    -0.246 OA
BRANCH  44  46
ATOM     46  C   UNL A   1      42.733  25.773  26.119  1.00  0.00     0.060 A 
ATOM     47  C   UNL A   1      42.348  27.063  25.717  1.00  0.00     0.016 A 
ATOM     48  C   UNL A   1      42.176  25.350  27.269  1.00  0.00     0.016 A 
ATOM     49  C   UNL A   1      41.594  27.969  26.601  1.00  0.00     0.010 A 
ATOM     50  C   UNL A   1      41.816  26.374  28.146  1.00  0.00     0.010 A 
ATOM     51  C   UNL A   1      41.363  27.700  27.959  1.00  0.00    -0.014 A 
BRANCH  51  52
ATOM     52  C   UNL A   1      40.892  28.810  29.140  1.00  0.00     0.031 A 
ATOM     53  C   UNL A   1      39.564  29.837  29.376  1.00  0.00     0.074 A 
ATOM     54  C   UNL A   1      41.811  29.066  30.105  1.00  0.00     0.049 A 
ATOM     55  N   UNL A   1      39.677  31.137  29.614  1.00  0.00    -0.248 NA
ATOM     56  C   UNL A   1      38.086  29.576  29.256  1.00  0.00     0.031 C 
ATOM     57  C   UNL A   1      41.681  29.951  31.263  1.00  0.00     0.029 A 
ATOM     58  N   UNL A   1      43.144  28.636  30.166  1.00  0.00    -0.354 N 
ATOM     59  C   UNL A   1      38.403  31.733  29.621  1.00  0.00     0.074 A 
ATOM     60  C   UNL A   1      37.463  30.736  29.323  1.00  0.00     0.031 C 
ATOM     61  C   UNL A   1      42.910  30.276  31.693  1.00  0.00     0.029 A 
ATOM     62  C   UNL A   1      43.866  29.664  30.791  1.00  0.00     0.049 A 
ATOM     63  H   UNL A   1      43.504  27.780  29.837  1.00  0.00     0.167 HD
ATOM     64  C   UNL A   1      38.095  33.014  29.951  1.00  0.00     0.037 A 
ATOM     65  C   UNL A   1      44.914  30.268  30.172  1.00  0.00     0.037 A 
ATOM     66  C   UNL A   1      39.236  33.624  30.548  1.00  0.00     0.049 A 
ATOM     67  C   UNL A   1      44.708  31.756  30.010  1.00  0.00     0.074 A 
ATOM     68  C   UNL A   1      39.707  33.533  31.845  1.00  0.00     0.029 A 
ATOM     69  N   UNL A   1      40.298  33.978  29.741  1.00  0.00    -0.354 N 
ATOM     70  N   UNL A   1      43.566  32.364  30.178  1.00  0.00    -0.248 NA
ATOM     71  C   UNL A   1      45.776  32.674  29.625  1.00  0.00     0.031 C 
ATOM     72  C   UNL A   1      41.101  33.754  31.803  1.00  0.00     0.029 A 
ATOM     73  C   UNL A   1      41.443  34.080  30.503  1.00  0.00     0.049 A 
ATOM     74  H   UNL A   1      40.246  34.132  28.770  1.00  0.00     0.167 HD
ATOM     75  C   UNL A   1      43.711  33.695  29.882  1.00  0.00     0.074 A 
ATOM     76  C   UNL A   1      45.118  33.845  29.577  1.00  0.00     0.031 C 
ATOM     77  C   UNL A   1      42.662  34.566  29.896  1.00  0.00     0.037 A 
BRANCH  64  78
ATOM     78  C   UNL A   1      36.643  33.441  30.074  1.00  0.00     0.064 A 
ATOM     79  C   UNL A   1      35.891  33.779  28.937  1.00  0.00     0.173 A 
ATOM     80  C   UNL A   1      36.017  33.703  31.316  1.00  0.00     0.173 A 
ATOM     81  F   UNL A   1      36.342  33.501  27.707  1.00  0.00    -0.203 F 
ATOM     82  C   UNL A   1      34.676  34.468  29.032  1.00  0.00     0.198 A 
ATOM     83  C   UNL A   1      34.832  34.445  31.410  1.00  0.00     0.198 A 
ATOM     84  F   UNL A   1      36.604  33.335  32.467  1.00  0.00    -0.203 F 
ATOM     85  F   UNL A   1      34.020  34.816  27.916  1.00  0.00    -0.200 F 
ATOM     86  C   UNL A   1      34.174  34.847  30.264  1.00  0.00     0.200 A 
ATOM     87  F   UNL A   1      34.369  34.827  32.610  1.00  0.00    -0.200 F 
ATOM     88  F   UNL A   1      33.070  35.605  30.344  1.00  0.00    -0.200 F 
ENDBRANCH  64  78
BRANCH  65  89
ATOM     89  C   UNL A   1      45.684  29.364  29.265  1.00  0.00     0.064 A 
ATOM     90  C   UNL A   1      46.521  28.386  29.852  1.00  0.00     0.173 A 
ATOM     91  C   UNL A   1      45.404  29.219  27.902  1.00  0.00     0.173 A 
ATOM     92  F   UNL A   1      46.851  28.476  31.152  1.00  0.00    -0.203 F 
ATOM     93  C   UNL A   1      46.937  27.255  29.153  1.00  0.00     0.198 A 
ATOM     94  C   UNL A   1      45.837  28.088  27.198  1.00  0.00     0.198 A 
ATOM     95  F   UNL A   1      44.625  30.106  27.273  1.00  0.00    -0.203 F 
ATOM     96  F   UNL A   1      47.616  26.286  29.785  1.00  0.00    -0.200 F 
ATOM     97  C   UNL A   1      46.575  27.097  27.831  1.00  0.00     0.200 A 
ATOM     98  F   UNL A   1      45.442  27.892  25.931  1.00  0.00    -0.200 F 
ATOM     99  F   UNL A   1      46.874  25.961  27.183  1.00  0.00    -0.200 F 
ENDBRANCH  65  89
BRANCH  77 100
ATOM    100  C   UNL A   1      42.653  35.993  29.405  1.00  0.00     0.064 A 
ATOM    101  C   UNL A   1      43.165  37.073  30.134  1.00  0.00     0.173 A 
ATOM    102  C   UNL A   1      42.273  36.281  28.067  1.00  0.00     0.173 A 
ATOM    103  F   UNL A   1      43.656  36.911  31.369  1.00  0.00    -0.203 F 
ATOM    104  C   UNL A   1      43.241  38.356  29.586  1.00  0.00     0.198 A 
ATOM    105  C   UNL A   1      42.421  37.543  27.502  1.00  0.00     0.198 A 
ATOM    106  F   UNL A   1      41.771  35.337  27.256  1.00  0.00    -0.203 F 
ATOM    107  F   UNL A   1      43.688  39.371  30.339  1.00  0.00    -0.200 F 
ATOM    108  C   UNL A   1      42.888  38.587  28.269  1.00  0.00     0.200 A 
ATOM    109  F   UNL A   1      42.126  37.733  26.208  1.00  0.00    -0.200 F 
ATOM    110  F   UNL A   1      43.012  39.809  27.736  1.00  0.00    -0.200 F 
ENDBRANCH  77 100
ENDBRANCH  51  52
ENDBRANCH  44  46
ENDBRANCH  43  44
ENDBRANCH  42  43
ENDBRANCH  41  42
ENDBRANCH  40  41
ENDBRANCH  39  40
ENDBRANCH   1  39
TORSDOF 23
ENDMDL
MODEL 2
REMARK VINA RESULT:     -11.4      2.195      3.074
REMARK SMILES Cc1ccc(NC(=O)C[NH+]2CCN(c3ccc(C(=O)OCCOCCOCCOC(=O)c4ccc(-c5c6nc(c(-c7c(F)c(F)c(F)c(F)c7F)c7ccc([nH]7)c(-c7c(F)c(F)c(F)c(F)c7F)c7nc(c(-c8c(F)c(F)c(F)c(F)c8F)c8ccc5[nH]8)C=C7)C=C6)cc4)cc3NS(C)(=O)=O)CC2)cc1
REMARK SMILES IDX 24 1 23 2 22 3 21 4 20 5 18 6 19 7 17 8 14 9 15 10 96 11
REMARK SMILES IDX 16 12 95 13 13 14 10 15 11 16 103 17 12 19 102 20 9 21 7 22
REMARK SMILES IDX 6 23 8 25 5 26 1 27 2 28 3 29 105 30 4 31 104 32 97 33 98 35
REMARK SMILES IDX 99 36 100 37 101 38 25 39 26 40 27 41 28 42 29 43 30 44
REMARK SMILES IDX 31 45 32 46 33 47 94 48 34 49 93 50 35 51 36 52 37 53 87 54
REMARK SMILES IDX 38 55 92 56 86 57 88 58 39 59 91 60 85 61 84 62 40 64 72 65
REMARK SMILES IDX 52 66 71 67 53 68 56 69 70 70 89 71 54 72 55 73 69 75 90 76
REMARK SMILES IDX 57 77 41 78 42 79 50 80 43 81 44 82 48 83 51 84 45 85 46 86
REMARK SMILES IDX 49 87 47 88 73 89 74 90 82 91 75 92 76 93 80 94 83 95 77 96
REMARK SMILES IDX 78 97 81 98 79 99 58 100 59 101 67 102 60 103 61 104 65 105
REMARK SMILES IDX 68 106 62 107 63 108 66 109 64 110
REMARK H PARENT 10 18 6 24 97 34 88 63 56 74
REMARK Flexibility Score: inf
ROOT
ATOM      1  C   UNL A   1      40.645  19.412  25.884  1.00  0.00     0.188 C 
ENDROOT
BRANCH   1   2
ATOM      2  O   UNL A   1      39.247  19.768  25.835  1.00  0.00    -0.376 OA
BRANCH   2   3
ATOM      3  C   UNL A   1      38.262  19.112  25.037  1.00  0.00     0.202 C 
BRANCH   3   4
ATOM      4  C   UNL A   1      37.376  17.729  25.419  1.00  0.00     0.261 C 
BRANCH   4   5
ATOM      5  O   UNL A   1      35.756  17.212  25.087  1.00  0.00    -0.460 OA
BRANCH   5   6
ATOM      6  C   UNL A   1      34.483  17.692  24.675  1.00  0.00     0.338 C 
ATOM      7  O   UNL A   1      33.423  17.091  24.513  1.00  0.00    -0.246 OA
BRANCH   6   8
ATOM      8  C   UNL A   1      34.116  19.070  24.306  1.00  0.00     0.062 A 
ATOM      9  C   UNL A   1      32.916  21.565  24.735  1.00  0.00     0.062 A 
ATOM     10  C   UNL A   1      32.167  20.451  24.302  1.00  0.00     0.029 A 
ATOM     11  C   UNL A   1      34.278  21.431  25.092  1.00  0.00     0.073 A 
ATOM     12  C   UNL A   1      32.757  19.218  24.075  1.00  0.00     0.018 A 
ATOM     13  C   UNL A   1      34.864  20.181  24.865  1.00  0.00     0.044 A 
BRANCH   9  14
ATOM     14  N   UNL A   1      32.318  22.828  24.621  1.00  0.00    -0.359 N 
ATOM     15  N   UNL A   1      30.096  24.674  24.236  1.00  0.00    -0.324 N 
ATOM     16  C   UNL A   1      30.378  23.669  23.201  1.00  0.00     0.284 C 
ATOM     17  C   UNL A   1      30.277  23.990  25.539  1.00  0.00     0.284 C 
ATOM     18  H   UNL A   1      29.148  25.034  24.124  1.00  0.00     0.348 HD
ATOM     19  C   UNL A   1      31.754  23.003  23.269  1.00  0.00     0.178 C 
ATOM     20  C   UNL A   1      31.693  23.428  25.809  1.00  0.00     0.178 C 
BRANCH  15  21
ATOM     21  C   UNL A   1      30.980  25.868  24.136  1.00  0.00     0.364 C 
BRANCH  21  22
ATOM     22  C   UNL A   1      30.191  27.191  24.123  1.00  0.00     0.279 C 
ATOM     23  N   UNL A   1      30.657  28.353  24.684  1.00  0.00    -0.321 N 
ATOM     24  H   UNL A   1      30.055  29.124  24.566  1.00  0.00     0.170 HD
ATOM     25  O   UNL A   1      29.114  27.268  23.517  1.00  0.00    -0.268 OA
BRANCH  23  26
ATOM     26  C   UNL A   1      31.828  28.649  25.394  1.00  0.00     0.041 A 
ATOM     27  C   UNL A   1      34.599  30.549  28.049  1.00  0.00     0.044 C 
ATOM     28  C   UNL A   1      33.771  29.721  27.109  1.00  0.00    -0.051 A 
ATOM     29  C   UNL A   1      33.860  29.888  25.726  1.00  0.00     0.005 A 
ATOM     30  C   UNL A   1      32.825  28.825  27.602  1.00  0.00     0.005 A 
ATOM     31  C   UNL A   1      32.902  29.347  24.864  1.00  0.00     0.026 A 
ATOM     32  C   UNL A   1      31.868  28.275  26.743  1.00  0.00     0.026 A 
ENDBRANCH  23  26
ENDBRANCH  21  22
ENDBRANCH  15  21
ENDBRANCH   9  14
BRANCH  11  33
ATOM     33  N   UNL A   1      34.975  22.659  25.468  1.00  0.00    -0.282 N 
ATOM     34  H   UNL A   1      34.982  22.895  26.423  1.00  0.00     0.180 HD
BRANCH  33  35
ATOM     35  S   UNL A   1      35.772  23.708  24.413  1.00  0.00     0.229 S 
ATOM     36  C   UNL A   1      34.784  25.198  24.522  1.00  0.00     0.183 C 
ATOM     37  O   UNL A   1      37.039  24.025  25.032  1.00  0.00    -0.207 OA
ATOM     38  O   UNL A   1      35.684  23.235  23.047  1.00  0.00    -0.207 OA
ENDBRANCH  33  35
ENDBRANCH  11  33
ENDBRANCH   6   8
ENDBRANCH   5   6
ENDBRANCH   4   5
ENDBRANCH   3   4
ENDBRANCH   2   3
ENDBRANCH   1   2
BRANCH   1  39
ATOM     39  C   UNL A   1      41.517  19.673  27.108  1.00  0.00     0.188 C 
BRANCH  39  40
ATOM     40  O   UNL A   1      42.857  19.347  26.798  1.00  0.00    -0.376 OA
BRANCH  40  41
ATOM     41  C   UNL A   1      43.345  19.850  25.570  1.00  0.00     0.202 C 
BRANCH  41  42
ATOM     42  C   UNL A   1      44.083  21.184  25.767  1.00  0.00     0.261 C 
BRANCH  42  43
ATOM     43  O   UNL A   1      43.138  22.237  26.093  1.00  0.00    -0.460 OA
BRANCH  43  44
ATOM     44  C   UNL A   1      43.042  23.305  25.229  1.00  0.00     0.338 C 
ATOM     45  O   UNL A   1      43.787  23.499  24.287  1.00  0.00    -0.246 OA
BRANCH  44  46
ATOM     46  C   UNL A   1      42.043  24.311  25.755  1.00  0.00     0.060 A 
ATOM     47  C   UNL A   1      42.037  25.693  25.506  1.00  0.00     0.016 A 
ATOM     48  C   UNL A   1      41.361  23.930  26.851  1.00  0.00     0.016 A 
ATOM     49  C   UNL A   1      41.536  26.667  26.493  1.00  0.00     0.010 A 
ATOM     50  C   UNL A   1      41.271  24.909  27.843  1.00  0.00     0.010 A 
ATOM     51  C   UNL A   1      41.203  26.320  27.812  1.00  0.00    -0.014 A 
BRANCH  51  52
ATOM     52  C   UNL A   1      41.022  27.377  29.116  1.00  0.00     0.031 A 
ATOM     53  C   UNL A   1      39.832  28.468  29.634  1.00  0.00     0.074 A 
ATOM     54  C   UNL A   1      42.107  27.509  29.919  1.00  0.00     0.049 A 
ATOM     55  N   UNL A   1      40.080  29.740  29.920  1.00  0.00    -0.248 NA
ATOM     56  C   UNL A   1      38.339  28.310  29.757  1.00  0.00     0.031 C 
ATOM     57  C   UNL A   1      42.240  28.321  31.130  1.00  0.00     0.029 A 
ATOM     58  N   UNL A   1      43.396  26.992  29.725  1.00  0.00    -0.354 N 
ATOM     59  C   UNL A   1      38.873  30.413  30.180  1.00  0.00     0.074 A 
ATOM     60  C   UNL A   1      37.825  29.500  29.995  1.00  0.00     0.031 C 
ATOM     61  C   UNL A   1      43.545  28.538  31.358  1.00  0.00     0.029 A 
ATOM     62  C   UNL A   1      44.286  27.929  30.271  1.00  0.00     0.049 A 
ATOM     63  H   UNL A   1      43.631  26.139  29.293  1.00  0.00     0.167 HD
ATOM     64  C   UNL A   1      38.720  31.687  30.628  1.00  0.00     0.037 A 
ATOM     65  C   UNL A   1      45.256  28.504  29.514  1.00  0.00     0.037 A 
ATOM     66  C   UNL A   1      39.988  32.181  31.051  1.00  0.00     0.049 A 
ATOM     67  C   UNL A   1      45.137  30.010  29.473  1.00  0.00     0.074 A 
ATOM     68  C   UNL A   1      40.663  31.975  32.239  1.00  0.00     0.029 A 
ATOM     69  N   UNL A   1      40.921  32.520  30.093  1.00  0.00    -0.354 N 
ATOM     70  N   UNL A   1      44.088  30.677  29.868  1.00  0.00    -0.248 NA
ATOM     71  C   UNL A   1      46.189  30.882  28.960  1.00  0.00     0.031 C 
ATOM     72  C   UNL A   1      42.043  32.108  31.969  1.00  0.00     0.029 A 
ATOM     73  C   UNL A   1      42.183  32.499  30.650  1.00  0.00     0.049 A 
ATOM     74  H   UNL A   1      40.718  32.742  29.155  1.00  0.00     0.167 HD
ATOM     75  C   UNL A   1      44.279  32.013  29.626  1.00  0.00     0.074 A 
ATOM     76  C   UNL A   1      45.621  32.093  29.090  1.00  0.00     0.031 C 
ATOM     77  C   UNL A   1      43.314  32.946  29.869  1.00  0.00     0.037 A 
BRANCH  64  78
ATOM     78  C   UNL A   1      37.346  32.195  31.023  1.00  0.00     0.064 A 
ATOM     79  C   UNL A   1      36.567  32.944  30.127  1.00  0.00     0.173 A 
ATOM     80  C   UNL A   1      36.843  32.117  32.344  1.00  0.00     0.173 A 
ATOM     81  F   UNL A   1      36.895  33.021  28.830  1.00  0.00    -0.203 F 
ATOM     82  C   UNL A   1      35.458  33.686  30.550  1.00  0.00     0.198 A 
ATOM     83  C   UNL A   1      35.770  32.906  32.780  1.00  0.00     0.198 A 
ATOM     84  F   UNL A   1      37.455  31.352  33.263  1.00  0.00    -0.203 F 
ATOM     85  F   UNL A   1      34.777  34.429  29.666  1.00  0.00    -0.200 F 
ATOM     86  C   UNL A   1      35.092  33.709  31.884  1.00  0.00     0.200 A 
ATOM     87  F   UNL A   1      35.441  32.938  34.081  1.00  0.00    -0.200 F 
ATOM     88  F   UNL A   1      34.101  34.509  32.303  1.00  0.00    -0.200 F 
ENDBRANCH  64  78
BRANCH  65  89
ATOM     89  C   UNL A   1      45.793  27.616  28.439  1.00  0.00     0.064 A 
ATOM     90  C   UNL A   1      46.652  26.557  28.817  1.00  0.00     0.173 A 
ATOM     91  C   UNL A   1      45.271  27.573  27.143  1.00  0.00     0.173 A 
ATOM     92  F   UNL A   1      47.208  26.546  30.040  1.00  0.00    -0.203 F 
ATOM     93  C   UNL A   1      46.861  25.450  27.998  1.00  0.00     0.198 A 
ATOM     94  C   UNL A   1      45.496  26.465  26.315  1.00  0.00     0.198 A 
ATOM     95  F   UNL A   1      44.456  28.542  26.708  1.00  0.00    -0.203 F 
ATOM     96  F   UNL A   1      47.573  24.405  28.449  1.00  0.00    -0.200 F 
ATOM     97  C   UNL A   1      46.264  25.396  26.755  1.00  0.00     0.200 A 
ATOM     98  F   UNL A   1      44.875  26.372  25.131  1.00  0.00    -0.200 F 
ATOM     99  F   UNL A   1      46.368  24.287  26.007  1.00  0.00    -0.200 F 
ENDBRANCH  65  89
BRANCH  77 100
ATOM    100  C   UNL A   1      43.328  34.399  29.466  1.00  0.00     0.064 A 
ATOM    101  C   UNL A   1      43.410  35.462  30.375  1.00  0.00     0.173 A 
ATOM    102  C   UNL A   1      43.441  34.755  28.095  1.00  0.00     0.173 A 
ATOM    103  F   UNL A   1      43.424  35.249  31.696  1.00  0.00    -0.203 F 
ATOM    104  C   UNL A   1      43.539  36.785  29.945  1.00  0.00     0.198 A 
ATOM    105  C   UNL A   1      43.645  36.065  27.676  1.00  0.00     0.198 A 
ATOM    106  F   UNL A   1      43.383  33.836  27.119  1.00  0.00    -0.203 F 
ATOM    107  F   UNL A   1      43.559  37.774  30.849  1.00  0.00    -0.200 F 
ATOM    108  C   UNL A   1      43.675  37.085  28.601  1.00  0.00     0.200 A 
ATOM    109  F   UNL A   1      43.830  36.328  26.374  1.00  0.00    -0.200 F 
ATOM    110  F   UNL A   1      43.850  38.350  28.202  1.00  0.00    -0.200 F 
ENDBRANCH  77 100
ENDBRANCH  51  52
ENDBRANCH  44  46
ENDBRANCH  43  44
ENDBRANCH  42  43
ENDBRANCH  41  42
ENDBRANCH  40  41
ENDBRANCH  39  40
ENDBRANCH   1  39
TORSDOF 23
ENDMDL
MODEL 3
REMARK VINA RESULT:     -11.2      4.065     10.168
REMARK SMILES Cc1ccc(NC(=O)C[NH+]2CCN(c3ccc(C(=O)OCCOCCOCCOC(=O)c4ccc(-c5c6nc(c(-c7c(F)c(F)c(F)c(F)c7F)c7ccc([nH]7)c(-c7c(F)c(F)c(F)c(F)c7F)c7nc(c(-c8c(F)c(F)c(F)c(F)c8F)c8ccc5[nH]8)C=C7)C=C6)cc4)cc3NS(C)(=O)=O)CC2)cc1
REMARK SMILES IDX 24 1 23 2 22 3 21 4 20 5 18 6 19 7 17 8 14 9 15 10 96 11
REMARK SMILES IDX 16 12 95 13 13 14 10 15 11 16 103 17 12 19 102 20 9 21 7 22
REMARK SMILES IDX 6 23 8 25 5 26 1 27 2 28 3 29 105 30 4 31 104 32 97 33 98 35
REMARK SMILES IDX 99 36 100 37 101 38 25 39 26 40 27 41 28 42 29 43 30 44
REMARK SMILES IDX 31 45 32 46 33 47 94 48 34 49 93 50 35 51 36 52 37 53 87 54
REMARK SMILES IDX 38 55 92 56 86 57 88 58 39 59 91 60 85 61 84 62 40 64 72 65
REMARK SMILES IDX 52 66 71 67 53 68 56 69 70 70 89 71 54 72 55 73 69 75 90 76
REMARK SMILES IDX 57 77 41 78 42 79 50 80 43 81 44 82 48 83 51 84 45 85 46 86
REMARK SMILES IDX 49 87 47 88 73 89 74 90 82 91 75 92 76 93 80 94 83 95 77 96
REMARK SMILES IDX 78 97 81 98 79 99 58 100 59 101 67 102 60 103 61 104 65 105
REMARK SMILES IDX 68 106 62 107 63 108 66 109 64 110
REMARK H PARENT 10 18 6 24 97 34 88 63 56 74
REMARK Flexibility Score: inf
ROOT
ATOM      1  C   UNL A   1      37.040  33.535  30.401  1.00  0.00     0.188 C 
ENDROOT
BRANCH   1   2
ATOM      2  O   UNL A   1      36.184  33.704  29.252  1.00  0.00    -0.376 OA
BRANCH   2   3
ATOM      3  C   UNL A   1      34.904  33.095  29.088  1.00  0.00     0.202 C 
BRANCH   3   4
ATOM      4  C   UNL A   1      34.502  31.778  28.114  1.00  0.00     0.261 C 
BRANCH   4   5
ATOM      5  O   UNL A   1      33.011  31.164  27.480  1.00  0.00    -0.460 OA
BRANCH   5   6
ATOM      6  C   UNL A   1      32.484  30.229  26.548  1.00  0.00     0.338 C 
ATOM      7  O   UNL A   1      31.624  30.371  25.682  1.00  0.00    -0.246 OA
BRANCH   6   8
ATOM      8  C   UNL A   1      32.836  28.806  26.403  1.00  0.00     0.062 A 
ATOM      9  C   UNL A   1      32.400  26.169  25.561  1.00  0.00     0.062 A 
ATOM     10  C   UNL A   1      31.804  26.677  26.736  1.00  0.00     0.029 A 
ATOM     11  C   UNL A   1      33.137  27.012  24.697  1.00  0.00     0.073 A 
ATOM     12  C   UNL A   1      32.027  27.975  27.164  1.00  0.00     0.018 A 
ATOM     13  C   UNL A   1      33.351  28.324  25.135  1.00  0.00     0.044 A 
BRANCH   9  14
ATOM     14  N   UNL A   1      32.391  24.778  25.383  1.00  0.00    -0.359 N 
ATOM     15  N   UNL A   1      31.875  22.018  26.163  1.00  0.00    -0.324 N 
ATOM     16  C   UNL A   1      32.734  22.853  27.015  1.00  0.00     0.284 C 
ATOM     17  C   UNL A   1      30.758  22.888  25.721  1.00  0.00     0.284 C 
ATOM     18  H   UNL A   1      31.542  21.209  26.688  1.00  0.00     0.348 HD
ATOM     19  C   UNL A   1      33.273  24.134  26.375  1.00  0.00     0.178 C 
ATOM     20  C   UNL A   1      31.164  24.132  24.897  1.00  0.00     0.178 C 
BRANCH  15  21
ATOM     21  C   UNL A   1      32.600  21.451  24.993  1.00  0.00     0.364 C 
BRANCH  21  22
ATOM     22  C   UNL A   1      33.015  19.983  25.206  1.00  0.00     0.279 C 
ATOM     23  N   UNL A   1      34.322  19.569  25.265  1.00  0.00    -0.321 N 
ATOM     24  H   UNL A   1      34.429  18.606  25.441  1.00  0.00     0.170 HD
ATOM     25  O   UNL A   1      32.155  19.118  25.417  1.00  0.00    -0.268 OA
BRANCH  23  26
ATOM     26  C   UNL A   1      35.533  20.260  25.122  1.00  0.00     0.041 A 
ATOM     27  C   UNL A   1      39.448  21.801  25.913  1.00  0.00     0.044 C 
ATOM     28  C   UNL A   1      38.107  21.329  25.432  1.00  0.00    -0.051 A 
ATOM     29  C   UNL A   1      36.974  22.137  25.538  1.00  0.00     0.005 A 
ATOM     30  C   UNL A   1      37.945  20.031  24.950  1.00  0.00     0.005 A 
ATOM     31  C   UNL A   1      35.688  21.615  25.372  1.00  0.00     0.026 A 
ATOM     32  C   UNL A   1      36.660  19.505  24.778  1.00  0.00     0.026 A 
ENDBRANCH  23  26
ENDBRANCH  21  22
ENDBRANCH  15  21
ENDBRANCH   9  14
BRANCH  11  33
ATOM     33  N   UNL A   1      33.761  26.372  23.542  1.00  0.00    -0.282 N 
ATOM     34  H   UNL A   1      34.552  25.812  23.713  1.00  0.00     0.180 HD
BRANCH  33  35
ATOM     35  S   UNL A   1      33.249  26.505  21.939  1.00  0.00     0.229 S 
ATOM     36  C   UNL A   1      31.554  27.058  22.114  1.00  0.00     0.183 C 
ATOM     37  O   UNL A   1      33.973  27.619  21.370  1.00  0.00    -0.207 OA
ATOM     38  O   UNL A   1      33.212  25.207  21.297  1.00  0.00    -0.207 OA
ENDBRANCH  33  35
ENDBRANCH  11  33
ENDBRANCH   6   8
ENDBRANCH   5   6
ENDBRANCH   4   5
ENDBRANCH   3   4
ENDBRANCH   2   3
ENDBRANCH   1   2
BRANCH   1  39
ATOM     39  C   UNL A   1      38.105  32.446  30.480  1.00  0.00     0.188 C 
BRANCH  39  40
ATOM     40  O   UNL A   1      37.950  31.735  31.692  1.00  0.00    -0.376 OA
BRANCH  40  41
ATOM     41  C   UNL A   1      39.124  31.150  32.218  1.00  0.00     0.202 C 
BRANCH  41  42
ATOM     42  C   UNL A   1      39.401  31.643  33.647  1.00  0.00     0.261 C 
BRANCH  42  43
ATOM     43  O   UNL A   1      39.695  33.065  33.640  1.00  0.00    -0.460 OA
BRANCH  43  44
ATOM     44  C   UNL A   1      40.965  33.462  33.996  1.00  0.00     0.338 C 
ATOM     45  O   UNL A   1      41.272  33.890  35.092  1.00  0.00    -0.246 OA
BRANCH  44  46
ATOM     46  C   UNL A   1      41.854  33.513  32.775  1.00  0.00     0.060 A 
ATOM     47  C   UNL A   1      41.507  34.003  31.505  1.00  0.00     0.016 A 
ATOM     48  C   UNL A   1      42.905  32.672  32.788  1.00  0.00     0.016 A 
ATOM     49  C   UNL A   1      42.084  33.452  30.266  1.00  0.00     0.010 A 
ATOM     50  C   UNL A   1      43.101  31.975  31.594  1.00  0.00     0.010 A 
ATOM     51  C   UNL A   1      42.872  32.291  30.236  1.00  0.00    -0.014 A 
BRANCH  51  52
ATOM     52  C   UNL A   1      43.234  31.354  28.880  1.00  0.00     0.031 A 
ATOM     53  C   UNL A   1      43.103  29.714  28.471  1.00  0.00     0.074 A 
ATOM     54  C   UNL A   1      43.894  31.994  27.882  1.00  0.00     0.049 A 
ATOM     55  N   UNL A   1      44.114  28.991  28.008  1.00  0.00    -0.248 NA
ATOM     56  C   UNL A   1      41.961  28.746  28.640  1.00  0.00     0.031 C 
ATOM     57  C   UNL A   1      44.312  31.458  26.586  1.00  0.00     0.029 A 
ATOM     58  N   UNL A   1      44.433  33.289  27.893  1.00  0.00    -0.354 N 
ATOM     59  C   UNL A   1      43.727  27.644  27.900  1.00  0.00     0.074 A 
ATOM     60  C   UNL A   1      42.411  27.537  28.371  1.00  0.00     0.031 C 
ATOM     61  C   UNL A   1      45.298  32.229  26.102  1.00  0.00     0.029 A 
ATOM     62  C   UNL A   1      45.586  33.245  27.095  1.00  0.00     0.049 A 
ATOM     63  H   UNL A   1      44.074  34.074  28.366  1.00  0.00     0.167 HD
ATOM     64  C   UNL A   1      44.438  26.624  27.351  1.00  0.00     0.037 A 
ATOM     65  C   UNL A   1      46.804  33.583  27.595  1.00  0.00     0.037 A 
ATOM     66  C   UNL A   1      45.556  27.165  26.653  1.00  0.00     0.049 A 
ATOM     67  C   UNL A   1      47.802  32.454  27.493  1.00  0.00     0.074 A 
ATOM     68  C   UNL A   1      45.620  27.726  25.391  1.00  0.00     0.029 A 
ATOM     69  N   UNL A   1      46.621  27.652  27.382  1.00  0.00    -0.354 N 
ATOM     70  N   UNL A   1      47.488  31.216  27.225  1.00  0.00    -0.248 NA
ATOM     71  C   UNL A   1      49.235  32.630  27.707  1.00  0.00     0.031 C 
ATOM     72  C   UNL A   1      46.699  28.637  25.389  1.00  0.00     0.029 A 
ATOM     73  C   UNL A   1      47.341  28.540  26.610  1.00  0.00     0.049 A 
ATOM     74  H   UNL A   1      46.834  27.405  28.311  1.00  0.00     0.167 HD
ATOM     75  C   UNL A   1      48.616  30.438  27.281  1.00  0.00     0.074 A 
ATOM     76  C   UNL A   1      49.686  31.375  27.551  1.00  0.00     0.031 C 
ATOM     77  C   UNL A   1      48.580  29.084  27.118  1.00  0.00     0.037 A 
BRANCH  64  78
ATOM     78  C   UNL A   1      43.793  25.263  27.160  1.00  0.00     0.064 A 
ATOM     79  C   UNL A   1      43.725  24.341  28.217  1.00  0.00     0.173 A 
ATOM     80  C   UNL A   1      43.396  24.766  25.895  1.00  0.00     0.173 A 
ATOM     81  F   UNL A   1      43.994  24.715  29.474  1.00  0.00    -0.203 F 
ATOM     82  C   UNL A   1      43.435  22.988  28.001  1.00  0.00     0.198 A 
ATOM     83  C   UNL A   1      43.164  23.403  25.671  1.00  0.00     0.198 A 
ATOM     84  F   UNL A   1      43.332  25.584  24.831  1.00  0.00    -0.203 F 
ATOM     85  F   UNL A   1      43.433  22.135  29.036  1.00  0.00    -0.200 F 
ATOM     86  C   UNL A   1      43.206  22.510  26.724  1.00  0.00     0.200 A 
ATOM     87  F   UNL A   1      42.968  22.949  24.422  1.00  0.00    -0.200 F 
ATOM     88  F   UNL A   1      43.041  21.197  26.509  1.00  0.00    -0.200 F 
ENDBRANCH  64  78
BRANCH  65  89
ATOM     89  C   UNL A   1      46.754  34.646  28.644  1.00  0.00     0.064 A 
ATOM     90  C   UNL A   1      46.551  35.983  28.229  1.00  0.00     0.173 A 
ATOM     91  C   UNL A   1      46.591  34.376  30.006  1.00  0.00     0.173 A 
ATOM     92  F   UNL A   1      46.715  36.319  26.938  1.00  0.00    -0.203 F 
ATOM     93  C   UNL A   1      46.076  36.961  29.100  1.00  0.00     0.198 A 
ATOM     94  C   UNL A   1      46.126  35.366  30.883  1.00  0.00     0.198 A 
ATOM     95  F   UNL A   1      46.771  33.137  30.478  1.00  0.00    -0.203 F 
ATOM     96  F   UNL A   1      45.769  38.182  28.636  1.00  0.00    -0.200 F 
ATOM     97  C   UNL A   1      45.843  36.645  30.423  1.00  0.00     0.200 A 
ATOM     98  F   UNL A   1      45.839  35.057  32.156  1.00  0.00    -0.200 F 
ATOM     99  F   UNL A   1      45.280  37.547  31.241  1.00  0.00    -0.200 F 
ENDBRANCH  65  89
BRANCH  77 100
ATOM    100  C   UNL A   1      49.705  28.107  27.351  1.00  0.00     0.064 A 
ATOM    101  C   UNL A   1      50.371  27.423  26.325  1.00  0.00     0.173 A 
ATOM    102  C   UNL A   1      50.270  27.970  28.647  1.00  0.00     0.173 A 
ATOM    103  F   UNL A   1      50.002  27.555  25.046  1.00  0.00    -0.203 F 
ATOM    104  C   UNL A   1      51.484  26.618  26.584  1.00  0.00     0.198 A 
ATOM    105  C   UNL A   1      51.422  27.229  28.887  1.00  0.00     0.198 A 
ATOM    106  F   UNL A   1      49.735  28.575  29.719  1.00  0.00    -0.203 F 
ATOM    107  F   UNL A   1      52.056  25.940  25.580  1.00  0.00    -0.200 F 
ATOM    108  C   UNL A   1      52.020  26.537  27.857  1.00  0.00     0.200 A 
ATOM    109  F   UNL A   1      51.958  27.207  30.116  1.00  0.00    -0.200 F 
ATOM    110  F   UNL A   1      53.117  25.805  28.086  1.00  0.00    -0.200 F 
ENDBRANCH  77 100
ENDBRANCH  51  52
ENDBRANCH  44  46
ENDBRANCH  43  44
ENDBRANCH  42  43
ENDBRANCH  41  42
ENDBRANCH  40  41
ENDBRANCH  39  40
ENDBRANCH   1  39
TORSDOF 23
ENDMDL
