MODEL 1
REMARK VINA RESULT:     -13.2      0.000      0.000
REMARK SMILES Cc1cccc(-n2ncc(C(=O)Nc3cccc(C(=O)OCCOCCOCCOC(=O)c4ccc(-c5c6nc(c(-c7c(F)c(F)c(F)c(F)c7F)c7ccc([nH]7)c(-c7c(F)c(F)c(F)c(F)c7F)c7nc(c(-c8c(F)c(F)c(F)c(F)c8F)c8ccc5[nH]8)C=C7)C=C6)cc4)c3C)c2C)c1
REMARK SMILES IDX 25 1 24 2 23 3 22 4 21 5 19 6 20 7 18 8 14 9 15 10 96 11
REMARK SMILES IDX 16 12 97 13 17 14 13 15 11 16 12 17 10 19 7 20 8 21 98 22
REMARK SMILES IDX 9 23 99 24 6 25 1 26 2 27 3 28 100 29 4 30 5 31 26 32 27 33
REMARK SMILES IDX 28 34 29 35 30 36 31 37 32 38 33 39 34 40 95 41 35 42 94 43
REMARK SMILES IDX 36 44 37 45 38 46 88 47 39 48 93 49 87 50 89 51 40 52 92 53
REMARK SMILES IDX 86 54 85 55 41 57 73 58 53 59 72 60 54 61 57 62 71 63 90 64
REMARK SMILES IDX 55 65 56 66 70 68 91 69 58 70 42 71 43 72 51 73 44 74 45 75
REMARK SMILES IDX 49 76 52 77 46 78 47 79 50 80 48 81 74 82 75 83 83 84 76 85
REMARK SMILES IDX 77 86 81 87 84 88 78 89 79 90 82 91 80 92 59 93 60 94 68 95
REMARK SMILES IDX 61 96 62 97 66 98 69 99 63 100 64 101 67 102 65 103
REMARK H PARENT 13 18 89 56 57 67
REMARK Flexibility Score: inf
ROOT
ATOM      1  C   UNL A   1      33.616  33.659  28.184  1.00  0.00     0.188 C 
ENDROOT
BRANCH   1   2
ATOM      2  O   UNL A   1      34.807  33.100  27.605  1.00  0.00    -0.376 OA
BRANCH   2   3
ATOM      3  C   UNL A   1      35.385  31.875  28.088  1.00  0.00     0.202 C 
BRANCH   3   4
ATOM      4  C   UNL A   1      34.942  30.396  27.595  1.00  0.00     0.261 C 
BRANCH   4   5
ATOM      5  O   UNL A   1      33.494  30.058  27.437  1.00  0.00    -0.460 OA
BRANCH   5   6
ATOM      6  C   UNL A   1      32.496  30.196  26.488  1.00  0.00     0.338 C 
ATOM      7  O   UNL A   1      31.748  31.167  26.564  1.00  0.00    -0.246 OA
BRANCH   6   8
ATOM      8  C   UNL A   1      32.227  28.959  25.232  1.00  0.00     0.065 A 
ATOM      9  C   UNL A   1      31.884  26.741  23.933  1.00  0.00     0.045 A 
ATOM     10  C   UNL A   1      32.964  27.064  23.139  1.00  0.00     0.026 A 
ATOM     11  C   UNL A   1      31.476  27.607  25.012  1.00  0.00    -0.013 A 
ATOM     12  C   UNL A   1      33.601  28.292  23.295  1.00  0.00     0.003 A 
ATOM     13  C   UNL A   1      30.552  26.686  25.900  1.00  0.00     0.047 C 
ATOM     14  C   UNL A   1      33.221  29.222  24.274  1.00  0.00     0.016 A 
BRANCH   9  15
ATOM     15  N   UNL A   1      31.147  25.573  23.611  1.00  0.00    -0.322 N 
ATOM     16  C   UNL A   1      31.404  24.225  23.783  1.00  0.00     0.259 C 
ATOM     17  O   UNL A   1      30.609  23.432  23.275  1.00  0.00    -0.269 OA
ATOM     18  H   UNL A   1      30.281  25.757  23.182  1.00  0.00     0.170 HD
BRANCH  16  19
ATOM     19  C   UNL A   1      32.494  23.754  24.628  1.00  0.00     0.081 A 
ATOM     20  N   UNL A   1      34.455  22.969  25.343  1.00  0.00    -0.237 N 
ATOM     21  N   UNL A   1      33.630  22.885  26.414  1.00  0.00    -0.175 NA
ATOM     22  C   UNL A   1      33.749  23.312  24.199  1.00  0.00     0.054 A 
ATOM     23  C   UNL A   1      32.496  23.432  25.995  1.00  0.00     0.149 A 
ATOM     24  C   UNL A   1      34.247  23.095  22.809  1.00  0.00     0.068 C 
BRANCH  20  25
ATOM     25  C   UNL A   1      35.839  22.723  25.535  1.00  0.00     0.065 A 
ATOM     26  C   UNL A   1      38.847  24.667  26.825  1.00  0.00     0.044 C 
ATOM     27  C   UNL A   1      38.011  23.576  26.225  1.00  0.00    -0.049 A 
ATOM     28  C   UNL A   1      38.588  22.356  25.855  1.00  0.00     0.003 A 
ATOM     29  C   UNL A   1      36.639  23.762  26.036  1.00  0.00     0.031 A 
ATOM     30  C   UNL A   1      37.800  21.331  25.323  1.00  0.00     0.002 A 
ATOM     31  C   UNL A   1      36.422  21.507  25.172  1.00  0.00     0.028 A 
ENDBRANCH  20  25
ENDBRANCH  16  19
ENDBRANCH   9  15
ENDBRANCH   6   8
ENDBRANCH   5   6
ENDBRANCH   4   5
ENDBRANCH   3   4
ENDBRANCH   2   3
ENDBRANCH   1   2
BRANCH   1  32
ATOM     32  C   UNL A   1      33.565  35.047  28.778  1.00  0.00     0.188 C 
BRANCH  32  33
ATOM     33  O   UNL A   1      32.675  35.023  29.880  1.00  0.00    -0.376 OA
BRANCH  33  34
ATOM     34  C   UNL A   1      32.617  36.228  30.623  1.00  0.00     0.202 C 
BRANCH  34  35
ATOM     35  C   UNL A   1      32.632  36.005  32.147  1.00  0.00     0.261 C 
BRANCH  35  36
ATOM     36  O   UNL A   1      33.298  34.762  32.482  1.00  0.00    -0.460 OA
BRANCH  36  37
ATOM     37  C   UNL A   1      34.636  34.822  32.771  1.00  0.00     0.338 C 
ATOM     38  O   UNL A   1      35.202  35.799  33.242  1.00  0.00    -0.246 OA
BRANCH  37  39
ATOM     39  C   UNL A   1      35.332  33.606  32.235  1.00  0.00     0.060 A 
ATOM     40  C   UNL A   1      35.519  32.404  32.934  1.00  0.00     0.016 A 
ATOM     41  C   UNL A   1      36.118  33.804  31.144  1.00  0.00     0.016 A 
ATOM     42  C   UNL A   1      36.626  31.517  32.636  1.00  0.00     0.010 A 
ATOM     43  C   UNL A   1      37.304  33.079  31.080  1.00  0.00     0.010 A 
ATOM     44  C   UNL A   1      37.652  31.851  31.734  1.00  0.00    -0.014 A 
BRANCH  44  45
ATOM     45  C   UNL A   1      39.129  31.018  31.601  1.00  0.00     0.031 A 
ATOM     46  C   UNL A   1      39.577  29.453  30.997  1.00  0.00     0.074 A 
ATOM     47  C   UNL A   1      40.227  31.702  31.991  1.00  0.00     0.049 A 
ATOM     48  N   UNL A   1      40.837  29.113  30.858  1.00  0.00    -0.248 NA
ATOM     49  C   UNL A   1      38.817  28.232  30.534  1.00  0.00     0.031 C 
ATOM     50  C   UNL A   1      41.630  31.472  31.653  1.00  0.00     0.029 A 
ATOM     51  N   UNL A   1      40.304  32.773  32.883  1.00  0.00    -0.354 N 
ATOM     52  C   UNL A   1      40.954  28.004  30.042  1.00  0.00     0.074 A 
ATOM     53  C   UNL A   1      39.683  27.423  29.942  1.00  0.00     0.031 C 
ATOM     54  C   UNL A   1      42.402  32.071  32.566  1.00  0.00     0.029 A 
ATOM     55  C   UNL A   1      41.516  32.590  33.580  1.00  0.00     0.049 A 
ATOM     56  H   UNL A   1      39.653  33.502  33.000  1.00  0.00     0.167 HD
ATOM     57  C   UNL A   1      42.124  27.652  29.463  1.00  0.00     0.037 A 
ATOM     58  C   UNL A   1      41.489  32.288  34.905  1.00  0.00     0.037 A 
ATOM     59  C   UNL A   1      43.204  28.048  30.337  1.00  0.00     0.049 A 
ATOM     60  C   UNL A   1      42.066  30.912  35.166  1.00  0.00     0.074 A 
ATOM     61  C   UNL A   1      44.169  29.028  30.389  1.00  0.00     0.029 A 
ATOM     62  N   UNL A   1      43.134  27.521  31.613  1.00  0.00    -0.354 N 
ATOM     63  N   UNL A   1      42.765  30.240  34.288  1.00  0.00    -0.248 NA
ATOM     64  C   UNL A   1      41.848  30.142  36.388  1.00  0.00     0.031 C 
ATOM     65  C   UNL A   1      44.514  29.199  31.781  1.00  0.00     0.029 A 
ATOM     66  C   UNL A   1      43.806  28.279  32.544  1.00  0.00     0.049 A 
ATOM     67  H   UNL A   1      42.654  26.691  31.832  1.00  0.00     0.167 HD
ATOM     68  C   UNL A   1      42.976  28.966  34.728  1.00  0.00     0.074 A 
ATOM     69  C   UNL A   1      42.414  28.963  36.071  1.00  0.00     0.031 C 
ATOM     70  C   UNL A   1      43.540  27.987  33.955  1.00  0.00     0.037 A 
BRANCH  57  71
ATOM     71  C   UNL A   1      42.201  26.941  28.130  1.00  0.00     0.064 A 
ATOM     72  C   UNL A   1      42.321  25.543  28.079  1.00  0.00     0.173 A 
ATOM     73  C   UNL A   1      42.336  27.594  26.874  1.00  0.00     0.173 A 
ATOM     74  F   UNL A   1      42.234  24.808  29.196  1.00  0.00    -0.203 F 
ATOM     75  C   UNL A   1      42.571  24.859  26.879  1.00  0.00     0.198 A 
ATOM     76  C   UNL A   1      42.528  26.906  25.673  1.00  0.00     0.198 A 
ATOM     77  F   UNL A   1      42.346  28.928  26.759  1.00  0.00    -0.203 F 
ATOM     78  F   UNL A   1      42.747  23.530  26.899  1.00  0.00    -0.200 F 
ATOM     79  C   UNL A   1      42.668  25.537  25.678  1.00  0.00     0.200 A 
ATOM     80  F   UNL A   1      42.617  27.586  24.520  1.00  0.00    -0.200 F 
ATOM     81  F   UNL A   1      42.921  24.881  24.538  1.00  0.00    -0.200 F 
ENDBRANCH  57  71
BRANCH  58  82
ATOM     82  C   UNL A   1      40.398  33.057  35.587  1.00  0.00     0.064 A 
ATOM     83  C   UNL A   1      39.226  32.319  35.905  1.00  0.00     0.173 A 
ATOM     84  C   UNL A   1      40.594  34.248  36.292  1.00  0.00     0.173 A 
ATOM     85  F   UNL A   1      38.975  31.161  35.272  1.00  0.00    -0.203 F 
ATOM     86  C   UNL A   1      38.403  32.658  36.979  1.00  0.00     0.198 A 
ATOM     87  C   UNL A   1      39.723  34.621  37.331  1.00  0.00     0.198 A 
ATOM     88  F   UNL A   1      41.706  34.975  36.109  1.00  0.00    -0.203 F 
ATOM     89  F   UNL A   1      37.428  31.824  37.365  1.00  0.00    -0.200 F 
ATOM     90  C   UNL A   1      38.667  33.800  37.705  1.00  0.00     0.200 A 
ATOM     91  F   UNL A   1      40.006  35.698  38.078  1.00  0.00    -0.200 F 
ATOM     92  F   UNL A   1      37.957  34.071  38.811  1.00  0.00    -0.200 F 
ENDBRANCH  58  82
BRANCH  70  93
ATOM     93  C   UNL A   1      43.798  26.612  34.522  1.00  0.00     0.064 A 
ATOM     94  C   UNL A   1      45.111  26.147  34.691  1.00  0.00     0.173 A 
ATOM     95  C   UNL A   1      42.776  25.685  34.827  1.00  0.00     0.173 A 
ATOM     96  F   UNL A   1      46.157  26.927  34.376  1.00  0.00    -0.203 F 
ATOM     97  C   UNL A   1      45.383  24.872  35.189  1.00  0.00     0.198 A 
ATOM     98  C   UNL A   1      43.049  24.388  35.253  1.00  0.00     0.198 A 
ATOM     99  F   UNL A   1      41.478  26.014  34.761  1.00  0.00    -0.203 F 
ATOM    100  F   UNL A   1      46.651  24.504  35.411  1.00  0.00    -0.200 F 
ATOM    101  C   UNL A   1      44.352  23.988  35.455  1.00  0.00     0.200 A 
ATOM    102  F   UNL A   1      42.038  23.537  35.477  1.00  0.00    -0.200 F 
ATOM    103  F   UNL A   1      44.615  22.758  35.916  1.00  0.00    -0.200 F 
ENDBRANCH  70  93
ENDBRANCH  44  45
ENDBRANCH  37  39
ENDBRANCH  36  37
ENDBRANCH  35  36
ENDBRANCH  34  35
ENDBRANCH  33  34
ENDBRANCH  32  33
ENDBRANCH   1  32
TORSDOF 20
ENDMDL
MODEL 2
REMARK VINA RESULT:     -13.1      4.868     11.137
REMARK SMILES Cc1cccc(-n2ncc(C(=O)Nc3cccc(C(=O)OCCOCCOCCOC(=O)c4ccc(-c5c6nc(c(-c7c(F)c(F)c(F)c(F)c7F)c7ccc([nH]7)c(-c7c(F)c(F)c(F)c(F)c7F)c7nc(c(-c8c(F)c(F)c(F)c(F)c8F)c8ccc5[nH]8)C=C7)C=C6)cc4)c3C)c2C)c1
REMARK SMILES IDX 25 1 24 2 23 3 22 4 21 5 19 6 20 7 18 8 14 9 15 10 96 11
REMARK SMILES IDX 16 12 97 13 17 14 13 15 11 16 12 17 10 19 7 20 8 21 98 22
REMARK SMILES IDX 9 23 99 24 6 25 1 26 2 27 3 28 100 29 4 30 5 31 26 32 27 33
REMARK SMILES IDX 28 34 29 35 30 36 31 37 32 38 33 39 34 40 95 41 35 42 94 43
REMARK SMILES IDX 36 44 37 45 38 46 88 47 39 48 93 49 87 50 89 51 40 52 92 53
REMARK SMILES IDX 86 54 85 55 41 57 73 58 53 59 72 60 54 61 57 62 71 63 90 64
REMARK SMILES IDX 55 65 56 66 70 68 91 69 58 70 42 71 43 72 51 73 44 74 45 75
REMARK SMILES IDX 49 76 52 77 46 78 47 79 50 80 48 81 74 82 75 83 83 84 76 85
REMARK SMILES IDX 77 86 81 87 84 88 78 89 79 90 82 91 80 92 59 93 60 94 68 95
REMARK SMILES IDX 61 96 62 97 66 98 69 99 63 100 64 101 67 102 65 103
REMARK H PARENT 13 18 89 56 57 67
REMARK Flexibility Score: inf
ROOT
ATOM      1  C   UNL A   1      40.639  20.128  26.509  1.00  0.00     0.188 C 
ENDROOT
BRANCH   1   2
ATOM      2  O   UNL A   1      40.404  21.428  27.074  1.00  0.00    -0.376 OA
BRANCH   2   3
ATOM      3  C   UNL A   1      39.532  22.383  26.446  1.00  0.00     0.202 C 
BRANCH   3   4
ATOM      4  C   UNL A   1      38.176  21.998  25.646  1.00  0.00     0.261 C 
BRANCH   4   5
ATOM      5  O   UNL A   1      37.459  23.033  24.839  1.00  0.00    -0.460 OA
BRANCH   5   6
ATOM      6  C   UNL A   1      36.437  23.095  23.907  1.00  0.00     0.338 C 
ATOM      7  O   UNL A   1      36.720  22.961  22.720  1.00  0.00    -0.246 OA
BRANCH   6   8
ATOM      8  C   UNL A   1      34.757  23.451  24.390  1.00  0.00     0.065 A 
ATOM      9  C   UNL A   1      32.463  24.575  24.833  1.00  0.00     0.045 A 
ATOM     10  C   UNL A   1      32.602  24.280  26.173  1.00  0.00     0.026 A 
ATOM     11  C   UNL A   1      33.499  24.231  23.890  1.00  0.00    -0.013 A 
ATOM     12  C   UNL A   1      33.694  23.537  26.613  1.00  0.00     0.003 A 
ATOM     13  C   UNL A   1      33.161  25.113  22.626  1.00  0.00     0.047 C 
ATOM     14  C   UNL A   1      34.711  23.102  25.750  1.00  0.00     0.016 A 
BRANCH   9  15
ATOM     15  N   UNL A   1      31.245  25.159  24.403  1.00  0.00    -0.322 N 
ATOM     16  C   UNL A   1      30.769  26.458  24.423  1.00  0.00     0.259 C 
ATOM     17  O   UNL A   1      29.597  26.632  24.085  1.00  0.00    -0.269 OA
ATOM     18  H   UNL A   1      30.612  24.514  24.012  1.00  0.00     0.170 HD
BRANCH  16  19
ATOM     19  C   UNL A   1      31.642  27.590  24.710  1.00  0.00     0.081 A 
ATOM     20  N   UNL A   1      32.814  29.169  25.761  1.00  0.00    -0.237 N 
ATOM     21  N   UNL A   1      32.825  29.531  24.456  1.00  0.00    -0.175 NA
ATOM     22  C   UNL A   1      31.949  28.104  25.973  1.00  0.00     0.054 A 
ATOM     23  C   UNL A   1      32.198  28.539  23.837  1.00  0.00     0.149 A 
ATOM     24  C   UNL A   1      31.390  27.729  27.305  1.00  0.00     0.068 C 
BRANCH  20  25
ATOM     25  C   UNL A   1      33.646  29.876  26.666  1.00  0.00     0.065 A 
ATOM     26  C   UNL A   1      37.047  29.352  28.293  1.00  0.00     0.044 C 
ATOM     27  C   UNL A   1      35.714  29.944  27.948  1.00  0.00    -0.049 A 
ATOM     28  C   UNL A   1      35.302  31.154  28.515  1.00  0.00     0.003 A 
ATOM     29  C   UNL A   1      34.867  29.296  27.044  1.00  0.00     0.031 A 
ATOM     30  C   UNL A   1      34.070  31.718  28.168  1.00  0.00     0.002 A 
ATOM     31  C   UNL A   1      33.244  31.088  27.235  1.00  0.00     0.028 A 
ENDBRANCH  20  25
ENDBRANCH  16  19
ENDBRANCH   9  15
ENDBRANCH   6   8
ENDBRANCH   5   6
ENDBRANCH   4   5
ENDBRANCH   3   4
ENDBRANCH   2   3
ENDBRANCH   1   2
BRANCH   1  32
ATOM     32  C   UNL A   1      41.969  19.417  26.609  1.00  0.00     0.188 C 
BRANCH  32  33
ATOM     33  O   UNL A   1      42.541  19.366  25.313  1.00  0.00    -0.376 OA
BRANCH  33  34
ATOM     34  C   UNL A   1      43.774  18.672  25.235  1.00  0.00     0.202 C 
BRANCH  34  35
ATOM     35  C   UNL A   1      44.761  19.295  24.230  1.00  0.00     0.261 C 
BRANCH  35  36
ATOM     36  O   UNL A   1      44.515  20.714  24.074  1.00  0.00    -0.460 OA
BRANCH  36  37
ATOM     37  C   UNL A   1      45.236  21.570  24.864  1.00  0.00     0.338 C 
ATOM     38  O   UNL A   1      46.316  21.301  25.374  1.00  0.00    -0.246 OA
BRANCH  37  39
ATOM     39  C   UNL A   1      44.421  22.788  25.181  1.00  0.00     0.060 A 
ATOM     40  C   UNL A   1      44.584  24.050  24.592  1.00  0.00     0.016 A 
ATOM     41  C   UNL A   1      43.718  22.746  26.344  1.00  0.00     0.016 A 
ATOM     42  C   UNL A   1      44.207  25.267  25.284  1.00  0.00     0.010 A 
ATOM     43  C   UNL A   1      43.632  23.928  27.073  1.00  0.00     0.010 A 
ATOM     44  C   UNL A   1      43.782  25.283  26.624  1.00  0.00    -0.014 A 
BRANCH  44  45
ATOM     45  C   UNL A   1      43.657  26.684  27.580  1.00  0.00     0.031 A 
ATOM     46  C   UNL A   1      42.422  27.885  27.798  1.00  0.00     0.074 A 
ATOM     47  C   UNL A   1      44.700  26.930  28.403  1.00  0.00     0.049 A 
ATOM     48  N   UNL A   1      42.517  28.795  28.739  1.00  0.00    -0.248 NA
ATOM     49  C   UNL A   1      41.113  28.203  27.114  1.00  0.00     0.031 C 
ATOM     50  C   UNL A   1      44.759  27.766  29.600  1.00  0.00     0.029 A 
ATOM     51  N   UNL A   1      46.021  26.495  28.275  1.00  0.00    -0.354 N 
ATOM     52  C   UNL A   1      41.292  29.394  28.961  1.00  0.00     0.074 A 
ATOM     53  C   UNL A   1      40.469  29.079  27.872  1.00  0.00     0.031 C 
ATOM     54  C   UNL A   1      46.035  28.080  29.850  1.00  0.00     0.029 A 
ATOM     55  C   UNL A   1      46.811  27.562  28.749  1.00  0.00     0.049 A 
ATOM     56  H   UNL A   1      46.334  25.629  27.929  1.00  0.00     0.167 HD
ATOM     57  C   UNL A   1      41.026  30.104  30.081  1.00  0.00     0.037 A 
ATOM     58  C   UNL A   1      47.601  28.249  27.883  1.00  0.00     0.037 A 
ATOM     59  C   UNL A   1      42.250  30.729  30.527  1.00  0.00     0.049 A 
ATOM     60  C   UNL A   1      47.159  29.692  27.763  1.00  0.00     0.074 A 
ATOM     61  C   UNL A   1      43.177  30.558  31.530  1.00  0.00     0.029 A 
ATOM     62  N   UNL A   1      42.857  31.542  29.589  1.00  0.00    -0.354 N 
ATOM     63  N   UNL A   1      46.332  30.270  28.597  1.00  0.00    -0.248 NA
ATOM     64  C   UNL A   1      47.535  30.584  26.669  1.00  0.00     0.031 C 
ATOM     65  C   UNL A   1      44.417  31.124  31.052  1.00  0.00     0.029 A 
ATOM     66  C   UNL A   1      44.208  31.688  29.800  1.00  0.00     0.049 A 
ATOM     67  H   UNL A   1      42.373  31.971  28.848  1.00  0.00     0.167 HD
ATOM     68  C   UNL A   1      45.967  31.496  28.126  1.00  0.00     0.074 A 
ATOM     69  C   UNL A   1      46.779  31.667  26.930  1.00  0.00     0.031 C 
ATOM     70  C   UNL A   1      44.992  32.265  28.704  1.00  0.00     0.037 A 
BRANCH  57  71
ATOM     71  C   UNL A   1      39.643  30.198  30.686  1.00  0.00     0.064 A 
ATOM     72  C   UNL A   1      38.873  31.361  30.518  1.00  0.00     0.173 A 
ATOM     73  C   UNL A   1      39.090  29.246  31.587  1.00  0.00     0.173 A 
ATOM     74  F   UNL A   1      39.291  32.346  29.711  1.00  0.00    -0.203 F 
ATOM     75  C   UNL A   1      37.665  31.562  31.203  1.00  0.00     0.198 A 
ATOM     76  C   UNL A   1      37.860  29.424  32.224  1.00  0.00     0.198 A 
ATOM     77  F   UNL A   1      39.742  28.129  31.935  1.00  0.00    -0.203 F 
ATOM     78  F   UNL A   1      37.007  32.720  31.059  1.00  0.00    -0.200 F 
ATOM     79  C   UNL A   1      37.156  30.594  32.049  1.00  0.00     0.200 A 
ATOM     80  F   UNL A   1      37.384  28.470  33.039  1.00  0.00    -0.200 F 
ATOM     81  F   UNL A   1      36.009  30.796  32.713  1.00  0.00    -0.200 F 
ENDBRANCH  57  71
BRANCH  58  82
ATOM     82  C   UNL A   1      48.217  27.309  26.890  1.00  0.00     0.064 A 
ATOM     83  C   UNL A   1      47.645  27.321  25.590  1.00  0.00     0.173 A 
ATOM     84  C   UNL A   1      49.506  26.780  26.999  1.00  0.00     0.173 A 
ATOM     85  F   UNL A   1      46.411  27.821  25.408  1.00  0.00    -0.203 F 
ATOM     86  C   UNL A   1      48.381  26.993  24.452  1.00  0.00     0.198 A 
ATOM     87  C   UNL A   1      50.221  26.388  25.853  1.00  0.00     0.198 A 
ATOM     88  F   UNL A   1      50.152  26.791  28.174  1.00  0.00    -0.203 F 
ATOM     89  F   UNL A   1      47.865  27.212  23.234  1.00  0.00    -0.200 F 
ATOM     90  C   UNL A   1      49.678  26.546  24.584  1.00  0.00     0.200 A 
ATOM     91  F   UNL A   1      51.502  26.007  25.970  1.00  0.00    -0.200 F 
ATOM     92  F   UNL A   1      50.434  26.344  23.495  1.00  0.00    -0.200 F 
ENDBRANCH  58  82
BRANCH  70  93
ATOM     93  C   UNL A   1      44.675  33.638  28.165  1.00  0.00     0.064 A 
ATOM     94  C   UNL A   1      44.961  34.784  28.925  1.00  0.00     0.173 A 
ATOM     95  C   UNL A   1      44.006  33.866  26.942  1.00  0.00     0.173 A 
ATOM     96  F   UNL A   1      45.543  34.675  30.129  1.00  0.00    -0.203 F 
ATOM     97  C   UNL A   1      44.657  36.066  28.467  1.00  0.00     0.198 A 
ATOM     98  C   UNL A   1      43.637  35.141  26.521  1.00  0.00     0.198 A 
ATOM     99  F   UNL A   1      43.720  32.868  26.094  1.00  0.00    -0.203 F 
ATOM    100  F   UNL A   1      45.024  37.132  29.190  1.00  0.00    -0.200 F 
ATOM    101  C   UNL A   1      43.982  36.243  27.273  1.00  0.00     0.200 A 
ATOM    102  F   UNL A   1      42.957  35.290  25.374  1.00  0.00    -0.200 F 
ATOM    103  F   UNL A   1      43.675  37.474  26.842  1.00  0.00    -0.200 F 
ENDBRANCH  70  93
ENDBRANCH  44  45
ENDBRANCH  37  39
ENDBRANCH  36  37
ENDBRANCH  35  36
ENDBRANCH  34  35
ENDBRANCH  33  34
ENDBRANCH  32  33
ENDBRANCH   1  32
TORSDOF 20
ENDMDL
MODEL 3
REMARK VINA RESULT:     -12.1      3.520      9.478
REMARK SMILES Cc1cccc(-n2ncc(C(=O)Nc3cccc(C(=O)OCCOCCOCCOC(=O)c4ccc(-c5c6nc(c(-c7c(F)c(F)c(F)c(F)c7F)c7ccc([nH]7)c(-c7c(F)c(F)c(F)c(F)c7F)c7nc(c(-c8c(F)c(F)c(F)c(F)c8F)c8ccc5[nH]8)C=C7)C=C6)cc4)c3C)c2C)c1
REMARK SMILES IDX 25 1 24 2 23 3 22 4 21 5 19 6 20 7 18 8 14 9 15 10 96 11
REMARK SMILES IDX 16 12 97 13 17 14 13 15 11 16 12 17 10 19 7 20 8 21 98 22
REMARK SMILES IDX 9 23 99 24 6 25 1 26 2 27 3 28 100 29 4 30 5 31 26 32 27 33
REMARK SMILES IDX 28 34 29 35 30 36 31 37 32 38 33 39 34 40 95 41 35 42 94 43
REMARK SMILES IDX 36 44 37 45 38 46 88 47 39 48 93 49 87 50 89 51 40 52 92 53
REMARK SMILES IDX 86 54 85 55 41 57 73 58 53 59 72 60 54 61 57 62 71 63 90 64
REMARK SMILES IDX 55 65 56 66 70 68 91 69 58 70 42 71 43 72 51 73 44 74 45 75
REMARK SMILES IDX 49 76 52 77 46 78 47 79 50 80 48 81 74 82 75 83 83 84 76 85
REMARK SMILES IDX 77 86 81 87 84 88 78 89 79 90 82 91 80 92 59 93 60 94 68 95
REMARK SMILES IDX 61 96 62 97 66 98 69 99 63 100 64 101 67 102 65 103
REMARK H PARENT 13 18 89 56 57 67
REMARK Flexibility Score: inf
ROOT
ATOM      1  C   UNL A   1      41.187  22.665  26.505  1.00  0.00     0.188 C 
ENDROOT
BRANCH   1   2
ATOM      2  O   UNL A   1      40.552  23.623  27.368  1.00  0.00    -0.376 OA
BRANCH   2   3
ATOM      3  C   UNL A   1      39.473  24.457  26.912  1.00  0.00     0.202 C 
BRANCH   3   4
ATOM      4  C   UNL A   1      38.171  23.916  26.112  1.00  0.00     0.261 C 
BRANCH   4   5
ATOM      5  O   UNL A   1      37.840  22.458  26.113  1.00  0.00    -0.460 OA
BRANCH   5   6
ATOM      6  C   UNL A   1      37.065  21.571  25.386  1.00  0.00     0.338 C 
ATOM      7  O   UNL A   1      37.620  20.626  24.834  1.00  0.00    -0.246 OA
BRANCH   6   8
ATOM      8  C   UNL A   1      35.313  21.828  25.168  1.00  0.00     0.065 A 
ATOM      9  C   UNL A   1      32.970  22.817  24.663  1.00  0.00     0.045 A 
ATOM     10  C   UNL A   1      32.590  22.520  25.956  1.00  0.00     0.026 A 
ATOM     11  C   UNL A   1      34.309  22.538  24.205  1.00  0.00    -0.013 A 
ATOM     12  C   UNL A   1      33.462  21.837  26.798  1.00  0.00     0.003 A 
ATOM     13  C   UNL A   1      34.444  23.410  22.896  1.00  0.00     0.047 C 
ATOM     14  C   UNL A   1      34.758  21.466  26.407  1.00  0.00     0.016 A 
BRANCH   9  15
ATOM     15  N   UNL A   1      31.986  23.334  23.782  1.00  0.00    -0.322 N 
ATOM     16  C   UNL A   1      31.122  24.410  23.870  1.00  0.00     0.259 C 
ATOM     17  O   UNL A   1      30.281  24.530  22.977  1.00  0.00    -0.269 OA
ATOM     18  H   UNL A   1      31.902  22.828  22.942  1.00  0.00     0.170 HD
BRANCH  16  19
ATOM     19  C   UNL A   1      31.270  25.431  24.900  1.00  0.00     0.081 A 
ATOM     20  N   UNL A   1      32.018  27.146  26.114  1.00  0.00    -0.237 N 
ATOM     21  N   UNL A   1      31.094  26.537  26.895  1.00  0.00    -0.175 NA
ATOM     22  C   UNL A   1      32.283  26.391  24.980  1.00  0.00     0.054 A 
ATOM     23  C   UNL A   1      30.602  25.574  26.127  1.00  0.00     0.149 A 
ATOM     24  C   UNL A   1      33.505  26.545  24.137  1.00  0.00     0.068 C 
BRANCH  20  25
ATOM     25  C   UNL A   1      32.539  28.396  26.533  1.00  0.00     0.065 A 
ATOM     26  C   UNL A   1      31.398  32.028  26.500  1.00  0.00     0.044 C 
ATOM     27  C   UNL A   1      32.251  30.808  26.683  1.00  0.00    -0.049 A 
ATOM     28  C   UNL A   1      33.530  30.909  27.241  1.00  0.00     0.003 A 
ATOM     29  C   UNL A   1      31.773  29.551  26.306  1.00  0.00     0.031 A 
ATOM     30  C   UNL A   1      34.310  29.766  27.436  1.00  0.00     0.002 A 
ATOM     31  C   UNL A   1      33.814  28.506  27.094  1.00  0.00     0.028 A 
ENDBRANCH  20  25
ENDBRANCH  16  19
ENDBRANCH   9  15
ENDBRANCH   6   8
ENDBRANCH   5   6
ENDBRANCH   4   5
ENDBRANCH   3   4
ENDBRANCH   2   3
ENDBRANCH   1   2
BRANCH   1  32
ATOM     32  C   UNL A   1      42.630  22.246  26.666  1.00  0.00     0.188 C 
BRANCH  32  33
ATOM     33  O   UNL A   1      43.291  22.456  25.430  1.00  0.00    -0.376 OA
BRANCH  33  34
ATOM     34  C   UNL A   1      43.285  23.797  24.974  1.00  0.00     0.202 C 
BRANCH  34  35
ATOM     35  C   UNL A   1      43.993  24.771  25.935  1.00  0.00     0.261 C 
BRANCH  35  36
ATOM     36  O   UNL A   1      43.190  25.958  26.153  1.00  0.00    -0.460 OA
BRANCH  36  37
ATOM     37  C   UNL A   1      43.736  27.162  25.796  1.00  0.00     0.338 C 
ATOM     38  O   UNL A   1      44.818  27.297  25.242  1.00  0.00    -0.246 OA
BRANCH  37  39
ATOM     39  C   UNL A   1      42.922  28.285  26.368  1.00  0.00     0.060 A 
ATOM     40  C   UNL A   1      43.437  29.386  27.068  1.00  0.00     0.016 A 
ATOM     41  C   UNL A   1      41.592  28.043  26.509  1.00  0.00     0.016 A 
ATOM     42  C   UNL A   1      42.643  30.102  28.048  1.00  0.00     0.010 A 
ATOM     43  C   UNL A   1      40.970  28.568  27.637  1.00  0.00     0.010 A 
ATOM     44  C   UNL A   1      41.370  29.673  28.461  1.00  0.00    -0.014 A 
BRANCH  44  45
ATOM     45  C   UNL A   1      40.550  30.263  29.829  1.00  0.00     0.031 A 
ATOM     46  C   UNL A   1      39.777  31.770  30.211  1.00  0.00     0.074 A 
ATOM     47  C   UNL A   1      40.398  29.387  30.847  1.00  0.00     0.049 A 
ATOM     48  N   UNL A   1      39.062  31.910  31.302  1.00  0.00    -0.248 NA
ATOM     49  C   UNL A   1      39.697  33.125  29.546  1.00  0.00     0.031 C 
ATOM     50  C   UNL A   1      39.441  29.409  31.952  1.00  0.00     0.029 A 
ATOM     51  N   UNL A   1      41.171  28.263  31.140  1.00  0.00    -0.354 N 
ATOM     52  C   UNL A   1      38.264  33.036  31.219  1.00  0.00     0.074 A 
ATOM     53  C   UNL A   1      38.755  33.820  30.167  1.00  0.00     0.031 C 
ATOM     54  C   UNL A   1      39.902  28.635  32.941  1.00  0.00     0.029 A 
ATOM     55  C   UNL A   1      41.221  28.203  32.548  1.00  0.00     0.049 A 
ATOM     56  H   UNL A   1      41.591  27.643  30.501  1.00  0.00     0.167 HD
ATOM     57  C   UNL A   1      37.200  33.231  32.032  1.00  0.00     0.037 A 
ATOM     58  C   UNL A   1      42.401  28.421  33.187  1.00  0.00     0.037 A 
ATOM     59  C   UNL A   1      37.480  32.610  33.306  1.00  0.00     0.049 A 
ATOM     60  C   UNL A   1      42.337  29.665  34.048  1.00  0.00     0.074 A 
ATOM     61  C   UNL A   1      37.095  31.486  34.001  1.00  0.00     0.029 A 
ATOM     62  N   UNL A   1      38.632  33.059  33.925  1.00  0.00    -0.354 N 
ATOM     63  N   UNL A   1      41.223  30.271  34.367  1.00  0.00    -0.248 NA
ATOM     64  C   UNL A   1      43.505  30.381  34.554  1.00  0.00     0.031 C 
ATOM     65  C   UNL A   1      38.171  31.173  34.914  1.00  0.00     0.029 A 
ATOM     66  C   UNL A   1      39.157  32.144  34.808  1.00  0.00     0.049 A 
ATOM     67  H   UNL A   1      39.033  33.940  33.751  1.00  0.00     0.167 HD
ATOM     68  C   UNL A   1      41.489  31.463  34.974  1.00  0.00     0.074 A 
ATOM     69  C   UNL A   1      42.939  31.471  35.104  1.00  0.00     0.031 C 
ATOM     70  C   UNL A   1      40.525  32.386  35.277  1.00  0.00     0.037 A 
BRANCH  57  71
ATOM     71  C   UNL A   1      35.972  34.003  31.607  1.00  0.00     0.064 A 
ATOM     72  C   UNL A   1      35.395  34.948  32.471  1.00  0.00     0.173 A 
ATOM     73  C   UNL A   1      35.215  33.734  30.433  1.00  0.00     0.173 A 
ATOM     74  F   UNL A   1      35.997  35.277  33.623  1.00  0.00    -0.203 F 
ATOM     75  C   UNL A   1      34.162  35.557  32.195  1.00  0.00     0.198 A 
ATOM     76  C   UNL A   1      34.015  34.384  30.133  1.00  0.00     0.198 A 
ATOM     77  F   UNL A   1      35.572  32.789  29.554  1.00  0.00    -0.203 F 
ATOM     78  F   UNL A   1      33.624  36.399  33.088  1.00  0.00    -0.200 F 
ATOM     79  C   UNL A   1      33.476  35.282  31.026  1.00  0.00     0.200 A 
ATOM     80  F   UNL A   1      33.369  34.102  28.992  1.00  0.00    -0.200 F 
ATOM     81  F   UNL A   1      32.292  35.855  30.774  1.00  0.00    -0.200 F 
ENDBRANCH  57  71
BRANCH  58  82
ATOM     82  C   UNL A   1      43.527  27.796  32.419  1.00  0.00     0.064 A 
ATOM     83  C   UNL A   1      43.709  26.401  32.613  1.00  0.00     0.173 A 
ATOM     84  C   UNL A   1      44.094  28.344  31.265  1.00  0.00     0.173 A 
ATOM     85  F   UNL A   1      43.186  25.804  33.697  1.00  0.00    -0.203 F 
ATOM     86  C   UNL A   1      44.264  25.581  31.631  1.00  0.00     0.198 A 
ATOM     87  C   UNL A   1      44.713  27.521  30.308  1.00  0.00     0.198 A 
ATOM     88  F   UNL A   1      43.915  29.638  30.964  1.00  0.00    -0.203 F 
ATOM     89  F   UNL A   1      44.232  24.248  31.774  1.00  0.00    -0.200 F 
ATOM     90  C   UNL A   1      44.747  26.141  30.468  1.00  0.00     0.200 A 
ATOM     91  F   UNL A   1      45.133  28.052  29.150  1.00  0.00    -0.200 F 
ATOM     92  F   UNL A   1      45.172  25.354  29.468  1.00  0.00    -0.200 F 
ENDBRANCH  58  82
BRANCH  70  93
ATOM     93  C   UNL A   1      40.881  33.662  36.000  1.00  0.00     0.064 A 
ATOM     94  C   UNL A   1      40.585  33.813  37.364  1.00  0.00     0.173 A 
ATOM     95  C   UNL A   1      41.431  34.796  35.363  1.00  0.00     0.173 A 
ATOM     96  F   UNL A   1      40.007  32.815  38.051  1.00  0.00    -0.203 F 
ATOM     97  C   UNL A   1      40.878  34.988  38.055  1.00  0.00     0.198 A 
ATOM     98  C   UNL A   1      41.655  35.994  36.038  1.00  0.00     0.198 A 
ATOM     99  F   UNL A   1      41.810  34.774  34.077  1.00  0.00    -0.203 F 
ATOM    100  F   UNL A   1      40.655  35.056  39.374  1.00  0.00    -0.200 F 
ATOM    101  C   UNL A   1      41.399  36.084  37.389  1.00  0.00     0.200 A 
ATOM    102  F   UNL A   1      42.132  37.053  35.368  1.00  0.00    -0.200 F 
ATOM    103  F   UNL A   1      41.663  37.218  38.050  1.00  0.00    -0.200 F 
ENDBRANCH  70  93
ENDBRANCH  44  45
ENDBRANCH  37  39
ENDBRANCH  36  37
ENDBRANCH  35  36
ENDBRANCH  34  35
ENDBRANCH  33  34
ENDBRANCH  32  33
ENDBRANCH   1  32
TORSDOF 20
ENDMDL
