MODEL 1
REMARK VINA RESULT:     -12.2      0.000      0.000
REMARK SMILES Cn1cc(C[C@@H](NC(=O)OCC2c3ccccc3-c3ccccc32)C(=O)OCCOCCOCCOC(=O)c2ccc(-c3c4nc(c(-c5c(F)c(F)c(F)c(F)c5F)c5ccc([nH]5)c(-c5c(F)c(F)c(F)c(F)c5F)c5nc(c(-c6c(F)c(F)c(F)c(F)c6F)c6ccc3[nH]6)C=C5)C=C4)cc2)c2ccccc21
REMARK SMILES IDX 31 1 30 2 29 3 28 4 27 5 25 6 26 7 6 8 5 9 4 10 1 11 2 12
REMARK SMILES IDX 3 13 107 14 102 15 106 16 103 17 105 18 104 19 7 20 8 21
REMARK SMILES IDX 9 23 10 24 11 25 12 26 13 27 24 28 14 29 18 30 19 31 23 32
REMARK SMILES IDX 15 33 17 34 20 35 22 36 16 37 21 38 32 39 33 40 34 41 35 42
REMARK SMILES IDX 36 43 37 44 38 45 39 46 40 47 101 48 41 49 100 50 42 51
REMARK SMILES IDX 43 52 44 53 94 54 45 55 99 56 93 57 95 58 46 59 98 60 92 61
REMARK SMILES IDX 91 62 47 64 79 65 59 66 78 67 60 68 63 69 77 70 96 71 61 72
REMARK SMILES IDX 62 73 76 75 97 76 64 77 48 78 49 79 57 80 50 81 51 82 55 83
REMARK SMILES IDX 58 84 52 85 53 86 56 87 54 88 80 89 81 90 89 91 82 92 83 93
REMARK SMILES IDX 87 94 90 95 84 96 85 97 88 98 86 99 65 100 66 101 74 102
REMARK SMILES IDX 67 103 68 104 72 105 75 106 69 107 70 108 73 109 71 110
REMARK H PARENT 7 22 95 63 63 74
REMARK Flexibility Score: inf
ROOT
ATOM      1  C   UNL A   1      34.530  31.534  28.316  1.00  0.00     0.188 C 
ENDROOT
BRANCH   1   2
ATOM      2  O   UNL A   1      33.524  31.249  27.353  1.00  0.00    -0.376 OA
BRANCH   2   3
ATOM      3  C   UNL A   1      33.398  29.909  26.876  1.00  0.00     0.202 C 
BRANCH   3   4
ATOM      4  C   UNL A   1      33.324  29.694  25.361  1.00  0.00     0.261 C 
BRANCH   4   5
ATOM      5  O   UNL A   1      34.050  28.533  24.893  1.00  0.00    -0.462 OA
BRANCH   5   6
ATOM      6  C   UNL A   1      33.907  28.227  23.570  1.00  0.00     0.329 C 
ATOM      7  O   UNL A   1      34.405  28.875  22.653  1.00  0.00    -0.250 OA
BRANCH   6   8
ATOM      8  C   UNL A   1      32.945  27.050  23.320  1.00  0.00     0.200 C 
BRANCH   8   9
ATOM      9  C   UNL A   1      31.623  26.961  24.120  1.00  0.00     0.075 C 
BRANCH   9  10
ATOM     10  C   UNL A   1      30.535  27.826  23.498  1.00  0.00    -0.020 A 
ATOM     11  C   UNL A   1      29.258  30.734  21.717  1.00  0.00     0.149 C 
ATOM     12  N   UNL A   1      29.489  29.535  22.493  1.00  0.00    -0.350 N 
ATOM     13  C   UNL A   1      30.719  29.014  22.807  1.00  0.00     0.090 A 
ATOM     14  C   UNL A   1      28.491  28.741  23.015  1.00  0.00     0.048 A 
ATOM     15  C   UNL A   1      29.115  27.614  23.557  1.00  0.00     0.003 A 
ATOM     16  C   UNL A   1      27.097  28.916  23.044  1.00  0.00     0.027 A 
ATOM     17  C   UNL A   1      28.296  26.584  24.065  1.00  0.00     0.010 A 
ATOM     18  C   UNL A   1      26.320  27.910  23.628  1.00  0.00     0.002 A 
ATOM     19  C   UNL A   1      26.909  26.752  24.116  1.00  0.00     0.001 A 
ENDBRANCH   9  10
ENDBRANCH   8   9
BRANCH   8  20
ATOM     20  N   UNL A   1      32.722  26.810  21.897  1.00  0.00    -0.308 N 
ATOM     21  C   UNL A   1      32.892  25.631  21.239  1.00  0.00     0.407 C 
ATOM     22  H   UNL A   1      32.419  27.577  21.360  1.00  0.00     0.168 HD
ATOM     23  O   UNL A   1      33.274  25.592  20.079  1.00  0.00    -0.225 OA
BRANCH  21  24
ATOM     24  O   UNL A   1      32.423  24.571  21.942  1.00  0.00    -0.449 OA
BRANCH  24  25
ATOM     25  C   UNL A   1      33.192  23.359  21.837  1.00  0.00     0.248 C 
BRANCH  25  26
ATOM     26  C   UNL A   1      33.479  22.719  23.216  1.00  0.00     0.088 C 
ATOM     27  C   UNL A   1      34.854  23.052  23.802  1.00  0.00    -0.029 A 
ATOM     28  C   UNL A   1      32.552  23.163  24.347  1.00  0.00    -0.029 A 
ATOM     29  C   UNL A   1      36.110  22.768  23.287  1.00  0.00     0.005 A 
ATOM     30  C   UNL A   1      34.708  23.618  25.088  1.00  0.00    -0.014 A 
ATOM     31  C   UNL A   1      33.301  23.749  25.389  1.00  0.00    -0.014 A 
ATOM     32  C   UNL A   1      31.169  23.093  24.418  1.00  0.00     0.005 A 
ATOM     33  C   UNL A   1      37.230  23.040  24.082  1.00  0.00     0.000 A 
ATOM     34  C   UNL A   1      35.818  23.888  25.875  1.00  0.00     0.009 A 
ATOM     35  C   UNL A   1      32.666  24.345  26.468  1.00  0.00     0.009 A 
ATOM     36  C   UNL A   1      30.527  23.717  25.490  1.00  0.00     0.000 A 
ATOM     37  C   UNL A   1      37.085  23.588  25.366  1.00  0.00     0.001 A 
ATOM     38  C   UNL A   1      31.269  24.344  26.501  1.00  0.00     0.001 A 
ENDBRANCH  25  26
ENDBRANCH  24  25
ENDBRANCH  21  24
ENDBRANCH   8  20
ENDBRANCH   6   8
ENDBRANCH   5   6
ENDBRANCH   4   5
ENDBRANCH   3   4
ENDBRANCH   2   3
ENDBRANCH   1   2
BRANCH   1  39
ATOM     39  C   UNL A   1      35.263  32.875  28.201  1.00  0.00     0.188 C 
BRANCH  39  40
ATOM     40  O   UNL A   1      34.784  33.886  29.062  1.00  0.00    -0.376 OA
BRANCH  40  41
ATOM     41  C   UNL A   1      34.165  35.017  28.464  1.00  0.00     0.202 C 
BRANCH  41  42
ATOM     42  C   UNL A   1      33.086  35.761  29.268  1.00  0.00     0.261 C 
BRANCH  42  43
ATOM     43  O   UNL A   1      32.549  35.054  30.403  1.00  0.00    -0.460 OA
BRANCH  43  44
ATOM     44  C   UNL A   1      32.745  35.591  31.630  1.00  0.00     0.338 C 
ATOM     45  O   UNL A   1      31.996  36.329  32.239  1.00  0.00    -0.246 OA
BRANCH  44  46
ATOM     46  C   UNL A   1      33.915  34.896  32.230  1.00  0.00     0.060 A 
ATOM     47  C   UNL A   1      35.158  35.546  32.219  1.00  0.00     0.016 A 
ATOM     48  C   UNL A   1      33.779  33.653  32.854  1.00  0.00     0.016 A 
ATOM     49  C   UNL A   1      36.277  34.937  32.792  1.00  0.00     0.010 A 
ATOM     50  C   UNL A   1      34.904  33.030  33.404  1.00  0.00     0.010 A 
ATOM     51  C   UNL A   1      36.165  33.651  33.338  1.00  0.00    -0.014 A 
BRANCH  51  52
ATOM     52  C   UNL A   1      37.394  32.852  33.569  1.00  0.00     0.031 A 
ATOM     53  C   UNL A   1      38.161  33.112  34.838  1.00  0.00     0.074 A 
ATOM     54  C   UNL A   1      37.814  31.906  32.710  1.00  0.00     0.049 A 
ATOM     55  N   UNL A   1      39.273  32.577  35.270  1.00  0.00    -0.248 NA
ATOM     56  C   UNL A   1      37.589  34.123  35.745  1.00  0.00     0.031 C 
ATOM     57  C   UNL A   1      37.144  31.525  31.470  1.00  0.00     0.029 A 
ATOM     58  N   UNL A   1      38.921  31.094  32.761  1.00  0.00    -0.354 N 
ATOM     59  C   UNL A   1      39.532  33.184  36.492  1.00  0.00     0.074 A 
ATOM     60  C   UNL A   1      38.481  34.151  36.720  1.00  0.00     0.031 C 
ATOM     61  C   UNL A   1      37.863  30.559  30.867  1.00  0.00     0.029 A 
ATOM     62  C   UNL A   1      39.054  30.273  31.668  1.00  0.00     0.049 A 
ATOM     63  H   UNL A   1      39.559  31.100  33.510  1.00  0.00     0.167 HD
ATOM     64  C   UNL A   1      40.547  32.953  37.354  1.00  0.00     0.037 A 
ATOM     65  C   UNL A   1      40.035  29.405  31.348  1.00  0.00     0.037 A 
ATOM     66  C   UNL A   1      41.601  32.002  37.129  1.00  0.00     0.049 A 
ATOM     67  C   UNL A   1      41.196  29.214  32.296  1.00  0.00     0.074 A 
ATOM     68  C   UNL A   1      42.677  31.697  37.941  1.00  0.00     0.029 A 
ATOM     69  N   UNL A   1      41.711  31.206  35.999  1.00  0.00    -0.354 N 
ATOM     70  N   UNL A   1      41.422  29.775  33.460  1.00  0.00    -0.248 NA
ATOM     71  C   UNL A   1      42.237  28.259  31.883  1.00  0.00     0.031 C 
ATOM     72  C   UNL A   1      43.465  30.747  37.283  1.00  0.00     0.029 A 
ATOM     73  C   UNL A   1      42.848  30.419  36.087  1.00  0.00     0.049 A 
ATOM     74  H   UNL A   1      41.076  31.199  35.248  1.00  0.00     0.167 HD
ATOM     75  C   UNL A   1      42.602  29.215  33.934  1.00  0.00     0.074 A 
ATOM     76  C   UNL A   1      43.043  28.264  32.936  1.00  0.00     0.031 C 
ATOM     77  C   UNL A   1      43.262  29.461  35.093  1.00  0.00     0.037 A 
BRANCH  64  78
ATOM     78  C   UNL A   1      40.579  33.771  38.611  1.00  0.00     0.064 A 
ATOM     79  C   UNL A   1      39.837  33.407  39.745  1.00  0.00     0.173 A 
ATOM     80  C   UNL A   1      41.368  34.928  38.684  1.00  0.00     0.173 A 
ATOM     81  F   UNL A   1      39.048  32.321  39.717  1.00  0.00    -0.203 F 
ATOM     82  C   UNL A   1      39.865  34.186  40.899  1.00  0.00     0.198 A 
ATOM     83  C   UNL A   1      41.416  35.688  39.849  1.00  0.00     0.198 A 
ATOM     84  F   UNL A   1      42.092  35.321  37.626  1.00  0.00    -0.203 F 
ATOM     85  F   UNL A   1      39.110  33.848  41.952  1.00  0.00    -0.200 F 
ATOM     86  C   UNL A   1      40.661  35.321  40.952  1.00  0.00     0.200 A 
ATOM     87  F   UNL A   1      42.192  36.781  39.902  1.00  0.00    -0.200 F 
ATOM     88  F   UNL A   1      40.691  36.067  42.064  1.00  0.00    -0.200 F 
ENDBRANCH  64  78
BRANCH  65  89
ATOM     89  C   UNL A   1      39.978  28.645  30.072  1.00  0.00     0.064 A 
ATOM     90  C   UNL A   1      39.386  27.376  30.010  1.00  0.00     0.173 A 
ATOM     91  C   UNL A   1      40.555  29.152  28.898  1.00  0.00     0.173 A 
ATOM     92  F   UNL A   1      38.850  26.833  31.112  1.00  0.00    -0.203 F 
ATOM     93  C   UNL A   1      39.394  26.633  28.830  1.00  0.00     0.198 A 
ATOM     94  C   UNL A   1      40.537  28.421  27.712  1.00  0.00     0.198 A 
ATOM     95  F   UNL A   1      41.143  30.357  28.906  1.00  0.00    -0.203 F 
ATOM     96  F   UNL A   1      38.872  25.399  28.813  1.00  0.00    -0.200 F 
ATOM     97  C   UNL A   1      39.965  27.159  27.681  1.00  0.00     0.200 A 
ATOM     98  F   UNL A   1      41.087  28.934  26.602  1.00  0.00    -0.200 F 
ATOM     99  F   UNL A   1      39.977  26.442  26.548  1.00  0.00    -0.200 F 
ENDBRANCH  65  89
BRANCH  77 100
ATOM    100  C   UNL A   1      44.495  28.652  35.378  1.00  0.00     0.064 A 
ATOM    101  C   UNL A   1      45.765  29.056  34.942  1.00  0.00     0.173 A 
ATOM    102  C   UNL A   1      44.406  27.474  36.136  1.00  0.00     0.173 A 
ATOM    103  F   UNL A   1      45.904  30.170  34.207  1.00  0.00    -0.203 F 
ATOM    104  C   UNL A   1      46.895  28.294  35.226  1.00  0.00     0.198 A 
ATOM    105  C   UNL A   1      45.541  26.731  36.445  1.00  0.00     0.198 A 
ATOM    106  F   UNL A   1      43.216  27.048  36.588  1.00  0.00    -0.203 F 
ATOM    107  F   UNL A   1      48.092  28.671  34.755  1.00  0.00    -0.200 F 
ATOM    108  C   UNL A   1      46.783  27.135  35.982  1.00  0.00     0.200 A 
ATOM    109  F   UNL A   1      45.433  25.621  37.190  1.00  0.00    -0.200 F 
ATOM    110  F   UNL A   1      47.873  26.407  36.258  1.00  0.00    -0.200 F 
ENDBRANCH  77 100
ENDBRANCH  51  52
ENDBRANCH  44  46
ENDBRANCH  43  44
ENDBRANCH  42  43
ENDBRANCH  41  42
ENDBRANCH  40  41
ENDBRANCH  39  40
ENDBRANCH   1  39
TORSDOF 23
ENDMDL
MODEL 2
REMARK VINA RESULT:     -11.7      1.090      2.217
REMARK SMILES Cn1cc(C[C@@H](NC(=O)OCC2c3ccccc3-c3ccccc32)C(=O)OCCOCCOCCOC(=O)c2ccc(-c3c4nc(c(-c5c(F)c(F)c(F)c(F)c5F)c5ccc([nH]5)c(-c5c(F)c(F)c(F)c(F)c5F)c5nc(c(-c6c(F)c(F)c(F)c(F)c6F)c6ccc3[nH]6)C=C5)C=C4)cc2)c2ccccc21
REMARK SMILES IDX 31 1 30 2 29 3 28 4 27 5 25 6 26 7 6 8 5 9 4 10 1 11 2 12
REMARK SMILES IDX 3 13 107 14 102 15 106 16 103 17 105 18 104 19 7 20 8 21
REMARK SMILES IDX 9 23 10 24 11 25 12 26 13 27 24 28 14 29 18 30 19 31 23 32
REMARK SMILES IDX 15 33 17 34 20 35 22 36 16 37 21 38 32 39 33 40 34 41 35 42
REMARK SMILES IDX 36 43 37 44 38 45 39 46 40 47 101 48 41 49 100 50 42 51
REMARK SMILES IDX 43 52 44 53 94 54 45 55 99 56 93 57 95 58 46 59 98 60 92 61
REMARK SMILES IDX 91 62 47 64 79 65 59 66 78 67 60 68 63 69 77 70 96 71 61 72
REMARK SMILES IDX 62 73 76 75 97 76 64 77 48 78 49 79 57 80 50 81 51 82 55 83
REMARK SMILES IDX 58 84 52 85 53 86 56 87 54 88 80 89 81 90 89 91 82 92 83 93
REMARK SMILES IDX 87 94 90 95 84 96 85 97 88 98 86 99 65 100 66 101 74 102
REMARK SMILES IDX 67 103 68 104 72 105 75 106 69 107 70 108 73 109 71 110
REMARK H PARENT 7 22 95 63 63 74
REMARK Flexibility Score: inf
ROOT
ATOM      1  C   UNL A   1      34.950  31.554  28.483  1.00  0.00     0.188 C 
ENDROOT
BRANCH   1   2
ATOM      2  O   UNL A   1      35.571  30.494  27.769  1.00  0.00    -0.376 OA
BRANCH   2   3
ATOM      3  C   UNL A   1      34.765  29.391  27.350  1.00  0.00     0.202 C 
BRANCH   3   4
ATOM      4  C   UNL A   1      34.290  29.366  25.893  1.00  0.00     0.261 C 
BRANCH   4   5
ATOM      5  O   UNL A   1      34.252  28.044  25.307  1.00  0.00    -0.462 OA
BRANCH   5   6
ATOM      6  C   UNL A   1      33.813  27.971  24.016  1.00  0.00     0.329 C 
ATOM      7  O   UNL A   1      34.239  28.670  23.101  1.00  0.00    -0.250 OA
BRANCH   6   8
ATOM      8  C   UNL A   1      32.627  27.005  23.832  1.00  0.00     0.200 C 
BRANCH   8   9
ATOM      9  C   UNL A   1      31.307  27.260  24.600  1.00  0.00     0.075 C 
BRANCH   9  10
ATOM     10  C   UNL A   1      30.924  28.734  24.574  1.00  0.00    -0.020 A 
ATOM     11  C   UNL A   1      30.894  32.150  25.834  1.00  0.00     0.149 C 
ATOM     12  N   UNL A   1      30.690  30.883  25.167  1.00  0.00    -0.350 N 
ATOM     13  C   UNL A   1      31.327  29.708  25.476  1.00  0.00     0.090 A 
ATOM     14  C   UNL A   1      29.826  30.691  24.111  1.00  0.00     0.048 A 
ATOM     15  C   UNL A   1      30.029  29.385  23.656  1.00  0.00     0.003 A 
ATOM     16  C   UNL A   1      28.895  31.557  23.513  1.00  0.00     0.027 A 
ATOM     17  C   UNL A   1      29.336  28.969  22.501  1.00  0.00     0.010 A 
ATOM     18  C   UNL A   1      28.165  31.086  22.418  1.00  0.00     0.002 A 
ATOM     19  C   UNL A   1      28.394  29.815  21.907  1.00  0.00     0.001 A 
ENDBRANCH   9  10
ENDBRANCH   8   9
BRANCH   8  20
ATOM     20  N   UNL A   1      32.373  26.701  22.426  1.00  0.00    -0.308 N 
ATOM     21  C   UNL A   1      32.807  25.606  21.745  1.00  0.00     0.407 C 
ATOM     22  H   UNL A   1      31.835  27.352  21.923  1.00  0.00     0.168 HD
ATOM     23  O   UNL A   1      33.100  25.662  20.559  1.00  0.00    -0.225 OA
BRANCH  21  24
ATOM     24  O   UNL A   1      32.697  24.465  22.468  1.00  0.00    -0.449 OA
BRANCH  24  25
ATOM     25  C   UNL A   1      33.920  23.738  22.685  1.00  0.00     0.248 C 
BRANCH  25  26
ATOM     26  C   UNL A   1      33.943  23.014  24.052  1.00  0.00     0.088 C 
ATOM     27  C   UNL A   1      33.603  21.522  23.992  1.00  0.00    -0.029 A 
ATOM     28  C   UNL A   1      35.302  22.986  24.752  1.00  0.00    -0.029 A 
ATOM     29  C   UNL A   1      32.429  20.916  23.567  1.00  0.00     0.005 A 
ATOM     30  C   UNL A   1      34.642  20.763  24.573  1.00  0.00    -0.014 A 
ATOM     31  C   UNL A   1      35.709  21.652  24.973  1.00  0.00    -0.014 A 
ATOM     32  C   UNL A   1      36.118  24.046  25.113  1.00  0.00     0.005 A 
ATOM     33  C   UNL A   1      32.295  19.534  23.747  1.00  0.00     0.000 A 
ATOM     34  C   UNL A   1      34.508  19.394  24.751  1.00  0.00     0.009 A 
ATOM     35  C   UNL A   1      36.969  21.372  25.479  1.00  0.00     0.009 A 
ATOM     36  C   UNL A   1      37.397  23.765  25.597  1.00  0.00     0.000 A 
ATOM     37  C   UNL A   1      33.321  18.782  24.340  1.00  0.00     0.001 A 
ATOM     38  C   UNL A   1      37.822  22.440  25.770  1.00  0.00     0.001 A 
ENDBRANCH  25  26
ENDBRANCH  24  25
ENDBRANCH  21  24
ENDBRANCH   8  20
ENDBRANCH   6   8
ENDBRANCH   5   6
ENDBRANCH   4   5
ENDBRANCH   3   4
ENDBRANCH   2   3
ENDBRANCH   1   2
BRANCH   1  39
ATOM     39  C   UNL A   1      35.452  32.978  28.218  1.00  0.00     0.188 C 
BRANCH  39  40
ATOM     40  O   UNL A   1      34.896  33.966  29.059  1.00  0.00    -0.376 OA
BRANCH  40  41
ATOM     41  C   UNL A   1      34.217  35.049  28.437  1.00  0.00     0.202 C 
BRANCH  41  42
ATOM     42  C   UNL A   1      33.073  35.725  29.210  1.00  0.00     0.261 C 
BRANCH  42  43
ATOM     43  O   UNL A   1      32.592  35.017  30.369  1.00  0.00    -0.460 OA
BRANCH  43  44
ATOM     44  C   UNL A   1      32.806  35.576  31.583  1.00  0.00     0.338 C 
ATOM     45  O   UNL A   1      32.071  36.336  32.183  1.00  0.00    -0.246 OA
BRANCH  44  46
ATOM     46  C   UNL A   1      33.973  34.880  32.187  1.00  0.00     0.060 A 
ATOM     47  C   UNL A   1      35.219  35.524  32.171  1.00  0.00     0.016 A 
ATOM     48  C   UNL A   1      33.831  33.642  32.819  1.00  0.00     0.016 A 
ATOM     49  C   UNL A   1      36.335  34.913  32.747  1.00  0.00     0.010 A 
ATOM     50  C   UNL A   1      34.954  33.017  33.372  1.00  0.00     0.010 A 
ATOM     51  C   UNL A   1      36.217  33.631  33.302  1.00  0.00    -0.014 A 
BRANCH  51  52
ATOM     52  C   UNL A   1      37.443  32.827  33.537  1.00  0.00     0.031 A 
ATOM     53  C   UNL A   1      38.206  33.085  34.808  1.00  0.00     0.074 A 
ATOM     54  C   UNL A   1      37.862  31.880  32.680  1.00  0.00     0.049 A 
ATOM     55  N   UNL A   1      39.315  32.546  35.244  1.00  0.00    -0.248 NA
ATOM     56  C   UNL A   1      37.634  34.098  35.713  1.00  0.00     0.031 C 
ATOM     57  C   UNL A   1      37.196  31.501  31.437  1.00  0.00     0.029 A 
ATOM     58  N   UNL A   1      38.966  31.064  32.734  1.00  0.00    -0.354 N 
ATOM     59  C   UNL A   1      39.571  33.153  36.467  1.00  0.00     0.074 A 
ATOM     60  C   UNL A   1      38.523  34.122  36.692  1.00  0.00     0.031 C 
ATOM     61  C   UNL A   1      37.913  30.533  30.837  1.00  0.00     0.029 A 
ATOM     62  C   UNL A   1      39.100  30.243  31.642  1.00  0.00     0.049 A 
ATOM     63  H   UNL A   1      39.602  31.069  33.485  1.00  0.00     0.167 HD
ATOM     64  C   UNL A   1      40.583  32.918  37.334  1.00  0.00     0.037 A 
ATOM     65  C   UNL A   1      40.080  29.372  31.326  1.00  0.00     0.037 A 
ATOM     66  C   UNL A   1      41.633  31.963  37.112  1.00  0.00     0.049 A 
ATOM     67  C   UNL A   1      41.237  29.176  32.277  1.00  0.00     0.074 A 
ATOM     68  C   UNL A   1      42.706  31.654  37.928  1.00  0.00     0.029 A 
ATOM     69  N   UNL A   1      41.745  31.166  35.982  1.00  0.00    -0.354 N 
ATOM     70  N   UNL A   1      41.460  29.736  33.442  1.00  0.00    -0.248 NA
ATOM     71  C   UNL A   1      42.276  28.218  31.868  1.00  0.00     0.031 C 
ATOM     72  C   UNL A   1      43.492  30.701  37.272  1.00  0.00     0.029 A 
ATOM     73  C   UNL A   1      42.879  30.375  36.074  1.00  0.00     0.049 A 
ATOM     74  H   UNL A   1      41.113  31.162  35.229  1.00  0.00     0.167 HD
ATOM     75  C   UNL A   1      42.637  29.172  33.921  1.00  0.00     0.074 A 
ATOM     76  C   UNL A   1      43.078  28.219  32.924  1.00  0.00     0.031 C 
ATOM     77  C   UNL A   1      43.293  29.416  35.082  1.00  0.00     0.037 A 
BRANCH  64  78
ATOM     78  C   UNL A   1      40.613  33.735  38.590  1.00  0.00     0.064 A 
ATOM     79  C   UNL A   1      39.829  33.401  39.705  1.00  0.00     0.173 A 
ATOM     80  C   UNL A   1      41.442  34.863  38.683  1.00  0.00     0.173 A 
ATOM     81  F   UNL A   1      39.001  32.345  39.657  1.00  0.00    -0.203 F 
ATOM     82  C   UNL A   1      39.857  34.180  40.859  1.00  0.00     0.198 A 
ATOM     83  C   UNL A   1      41.489  35.621  39.849  1.00  0.00     0.198 A 
ATOM     84  F   UNL A   1      42.207  35.227  37.644  1.00  0.00    -0.203 F 
ATOM     85  F   UNL A   1      39.063  33.871  41.893  1.00  0.00    -0.200 F 
ATOM     86  C   UNL A   1      40.692  35.284  40.932  1.00  0.00     0.200 A 
ATOM     87  F   UNL A   1      42.303  36.684  39.921  1.00  0.00    -0.200 F 
ATOM     88  F   UNL A   1      40.722  36.030  42.045  1.00  0.00    -0.200 F 
ENDBRANCH  64  78
BRANCH  65  89
ATOM     89  C   UNL A   1      40.024  28.612  30.048  1.00  0.00     0.064 A 
ATOM     90  C   UNL A   1      39.387  27.365  29.974  1.00  0.00     0.173 A 
ATOM     91  C   UNL A   1      40.648  29.095  28.888  1.00  0.00     0.173 A 
ATOM     92  F   UNL A   1      38.805  26.845  31.064  1.00  0.00    -0.203 F 
ATOM     93  C   UNL A   1      39.395  26.621  28.795  1.00  0.00     0.198 A 
ATOM     94  C   UNL A   1      40.631  28.363  27.703  1.00  0.00     0.198 A 
ATOM     95  F   UNL A   1      41.281  30.277  28.909  1.00  0.00    -0.203 F 
ATOM     96  F   UNL A   1      38.828  25.407  28.768  1.00  0.00    -0.200 F 
ATOM     97  C   UNL A   1      40.013  27.123  27.660  1.00  0.00     0.200 A 
ATOM     98  F   UNL A   1      41.225  28.853  26.606  1.00  0.00    -0.200 F 
ATOM     99  F   UNL A   1      40.025  26.404  26.528  1.00  0.00    -0.200 F 
ENDBRANCH  65  89
BRANCH  77 100
ATOM    100  C   UNL A   1      44.523  28.603  35.372  1.00  0.00     0.064 A 
ATOM    101  C   UNL A   1      44.457  27.360  36.018  1.00  0.00     0.173 A 
ATOM    102  C   UNL A   1      45.783  29.062  34.958  1.00  0.00     0.173 A 
ATOM    103  F   UNL A   1      43.277  26.882  36.442  1.00  0.00    -0.203 F 
ATOM    104  C   UNL A   1      45.610  26.622  36.267  1.00  0.00     0.198 A 
ATOM    105  C   UNL A   1      46.931  28.306  35.180  1.00  0.00     0.198 A 
ATOM    106  F   UNL A   1      45.902  30.238  34.324  1.00  0.00    -0.203 F 
ATOM    107  F   UNL A   1      45.530  25.461  36.933  1.00  0.00    -0.200 F 
ATOM    108  C   UNL A   1      46.845  27.092  35.843  1.00  0.00     0.200 A 
ATOM    109  F   UNL A   1      48.121  28.754  34.754  1.00  0.00    -0.200 F 
ATOM    110  F   UNL A   1      47.953  26.376  36.080  1.00  0.00    -0.200 F 
ENDBRANCH  77 100
ENDBRANCH  51  52
ENDBRANCH  44  46
ENDBRANCH  43  44
ENDBRANCH  42  43
ENDBRANCH  41  42
ENDBRANCH  40  41
ENDBRANCH  39  40
ENDBRANCH   1  39
TORSDOF 23
ENDMDL
MODEL 3
REMARK VINA RESULT:     -11.1      1.350      4.851
REMARK SMILES Cn1cc(C[C@@H](NC(=O)OCC2c3ccccc3-c3ccccc32)C(=O)OCCOCCOCCOC(=O)c2ccc(-c3c4nc(c(-c5c(F)c(F)c(F)c(F)c5F)c5ccc([nH]5)c(-c5c(F)c(F)c(F)c(F)c5F)c5nc(c(-c6c(F)c(F)c(F)c(F)c6F)c6ccc3[nH]6)C=C5)C=C4)cc2)c2ccccc21
REMARK SMILES IDX 31 1 30 2 29 3 28 4 27 5 25 6 26 7 6 8 5 9 4 10 1 11 2 12
REMARK SMILES IDX 3 13 107 14 102 15 106 16 103 17 105 18 104 19 7 20 8 21
REMARK SMILES IDX 9 23 10 24 11 25 12 26 13 27 24 28 14 29 18 30 19 31 23 32
REMARK SMILES IDX 15 33 17 34 20 35 22 36 16 37 21 38 32 39 33 40 34 41 35 42
REMARK SMILES IDX 36 43 37 44 38 45 39 46 40 47 101 48 41 49 100 50 42 51
REMARK SMILES IDX 43 52 44 53 94 54 45 55 99 56 93 57 95 58 46 59 98 60 92 61
REMARK SMILES IDX 91 62 47 64 79 65 59 66 78 67 60 68 63 69 77 70 96 71 61 72
REMARK SMILES IDX 62 73 76 75 97 76 64 77 48 78 49 79 57 80 50 81 51 82 55 83
REMARK SMILES IDX 58 84 52 85 53 86 56 87 54 88 80 89 81 90 89 91 82 92 83 93
REMARK SMILES IDX 87 94 90 95 84 96 85 97 88 98 86 99 65 100 66 101 74 102
REMARK SMILES IDX 67 103 68 104 72 105 75 106 69 107 70 108 73 109 71 110
REMARK H PARENT 7 22 95 63 63 74
REMARK Flexibility Score: inf
ROOT
ATOM      1  C   UNL A   1      34.707  31.629  28.357  1.00  0.00     0.188 C 
ENDROOT
BRANCH   1   2
ATOM      2  O   UNL A   1      35.281  30.552  27.629  1.00  0.00    -0.376 OA
BRANCH   2   3
ATOM      3  C   UNL A   1      34.514  29.359  27.461  1.00  0.00     0.202 C 
BRANCH   3   4
ATOM      4  C   UNL A   1      34.988  28.345  26.414  1.00  0.00     0.261 C 
BRANCH   4   5
ATOM      5  O   UNL A   1      33.984  27.998  25.431  1.00  0.00    -0.462 OA
BRANCH   5   6
ATOM      6  C   UNL A   1      33.549  26.704  25.448  1.00  0.00     0.329 C 
ATOM      7  O   UNL A   1      33.850  25.885  26.311  1.00  0.00    -0.250 OA
BRANCH   6   8
ATOM      8  C   UNL A   1      32.732  26.322  24.198  1.00  0.00     0.200 C 
BRANCH   8   9
ATOM      9  C   UNL A   1      33.437  25.627  23.009  1.00  0.00     0.075 C 
BRANCH   9  10
ATOM     10  C   UNL A   1      33.496  24.117  23.200  1.00  0.00    -0.020 A 
ATOM     11  C   UNL A   1      32.219  20.715  22.963  1.00  0.00     0.149 C 
ATOM     12  N   UNL A   1      32.919  21.952  23.238  1.00  0.00    -0.350 N 
ATOM     13  C   UNL A   1      32.543  23.195  22.795  1.00  0.00     0.090 A 
ATOM     14  C   UNL A   1      34.075  22.042  23.980  1.00  0.00     0.048 A 
ATOM     15  C   UNL A   1      34.513  23.366  23.885  1.00  0.00     0.003 A 
ATOM     16  C   UNL A   1      34.777  21.070  24.714  1.00  0.00     0.027 A 
ATOM     17  C   UNL A   1      35.749  23.700  24.476  1.00  0.00     0.010 A 
ATOM     18  C   UNL A   1      35.958  21.455  25.355  1.00  0.00     0.002 A 
ATOM     19  C   UNL A   1      36.449  22.748  25.224  1.00  0.00     0.001 A 
ENDBRANCH   9  10
ENDBRANCH   8   9
BRANCH   8  20
ATOM     20  N   UNL A   1      31.480  25.652  24.539  1.00  0.00    -0.308 N 
ATOM     21  C   UNL A   1      30.229  26.180  24.444  1.00  0.00     0.407 C 
ATOM     22  H   UNL A   1      31.547  24.728  24.870  1.00  0.00     0.168 HD
ATOM     23  O   UNL A   1      29.345  25.882  25.234  1.00  0.00    -0.225 OA
BRANCH  21  24
ATOM     24  O   UNL A   1      30.050  26.893  23.306  1.00  0.00    -0.449 OA
BRANCH  24  25
ATOM     25  C   UNL A   1      29.224  28.066  23.423  1.00  0.00     0.248 C 
BRANCH  25  26
ATOM     26  C   UNL A   1      29.983  29.364  23.058  1.00  0.00     0.088 C 
ATOM     27  C   UNL A   1      29.127  30.436  22.377  1.00  0.00    -0.029 A 
ATOM     28  C   UNL A   1      30.554  30.141  24.243  1.00  0.00    -0.029 A 
ATOM     29  C   UNL A   1      28.444  30.366  21.172  1.00  0.00     0.005 A 
ATOM     30  C   UNL A   1      29.205  31.648  23.097  1.00  0.00    -0.014 A 
ATOM     31  C   UNL A   1      30.020  31.447  24.274  1.00  0.00    -0.014 A 
ATOM     32  C   UNL A   1      31.431  29.709  25.227  1.00  0.00     0.005 A 
ATOM     33  C   UNL A   1      27.849  31.532  20.678  1.00  0.00     0.000 A 
ATOM     34  C   UNL A   1      28.615  32.804  22.608  1.00  0.00     0.009 A 
ATOM     35  C   UNL A   1      30.292  32.298  25.333  1.00  0.00     0.009 A 
ATOM     36  C   UNL A   1      31.684  30.555  26.308  1.00  0.00     0.000 A 
ATOM     37  C   UNL A   1      27.940  32.742  21.386  1.00  0.00     0.001 A 
ATOM     38  C   UNL A   1      31.113  31.835  26.365  1.00  0.00     0.001 A 
ENDBRANCH  25  26
ENDBRANCH  24  25
ENDBRANCH  21  24
ENDBRANCH   8  20
ENDBRANCH   6   8
ENDBRANCH   5   6
ENDBRANCH   4   5
ENDBRANCH   3   4
ENDBRANCH   2   3
ENDBRANCH   1   2
BRANCH   1  39
ATOM     39  C   UNL A   1      35.302  33.026  28.144  1.00  0.00     0.188 C 
BRANCH  39  40
ATOM     40  O   UNL A   1      34.869  34.000  29.069  1.00  0.00    -0.376 OA
BRANCH  40  41
ATOM     41  C   UNL A   1      34.292  35.190  28.546  1.00  0.00     0.202 C 
BRANCH  41  42
ATOM     42  C   UNL A   1      33.099  35.805  29.295  1.00  0.00     0.261 C 
BRANCH  42  43
ATOM     43  O   UNL A   1      32.605  35.050  30.419  1.00  0.00    -0.460 OA
BRANCH  43  44
ATOM     44  C   UNL A   1      32.761  35.583  31.653  1.00  0.00     0.338 C 
ATOM     45  O   UNL A   1      31.982  36.303  32.247  1.00  0.00    -0.246 OA
BRANCH  44  46
ATOM     46  C   UNL A   1      33.928  34.907  32.279  1.00  0.00     0.060 A 
ATOM     47  C   UNL A   1      35.154  35.589  32.319  1.00  0.00     0.016 A 
ATOM     48  C   UNL A   1      33.805  33.651  32.876  1.00  0.00     0.016 A 
ATOM     49  C   UNL A   1      36.269  34.998  32.917  1.00  0.00     0.010 A 
ATOM     50  C   UNL A   1      34.927  33.046  33.452  1.00  0.00     0.010 A 
ATOM     51  C   UNL A   1      36.173  33.700  33.438  1.00  0.00    -0.014 A 
BRANCH  51  52
ATOM     52  C   UNL A   1      37.414  32.928  33.694  1.00  0.00     0.031 A 
ATOM     53  C   UNL A   1      38.147  33.204  34.980  1.00  0.00     0.074 A 
ATOM     54  C   UNL A   1      37.874  31.993  32.844  1.00  0.00     0.049 A 
ATOM     55  N   UNL A   1      39.261  32.692  35.435  1.00  0.00    -0.248 NA
ATOM     56  C   UNL A   1      37.533  34.199  35.875  1.00  0.00     0.031 C 
ATOM     57  C   UNL A   1      37.240  31.599  31.589  1.00  0.00     0.029 A 
ATOM     58  N   UNL A   1      38.997  31.206  32.917  1.00  0.00    -0.354 N 
ATOM     59  C   UNL A   1      39.480  33.304  36.663  1.00  0.00     0.074 A 
ATOM     60  C   UNL A   1      38.403  34.246  36.870  1.00  0.00     0.031 C 
ATOM     61  C   UNL A   1      37.993  30.651  31.001  1.00  0.00     0.029 A 
ATOM     62  C   UNL A   1      39.172  30.391  31.827  1.00  0.00     0.049 A 
ATOM     63  H   UNL A   1      39.619  31.226  33.680  1.00  0.00     0.167 HD
ATOM     64  C   UNL A   1      40.481  33.094  37.548  1.00  0.00     0.037 A 
ATOM     65  C   UNL A   1      40.180  29.545  31.528  1.00  0.00     0.037 A 
ATOM     66  C   UNL A   1      41.560  32.167  37.344  1.00  0.00     0.049 A 
ATOM     67  C   UNL A   1      41.324  29.378  32.500  1.00  0.00     0.074 A 
ATOM     68  C   UNL A   1      42.625  31.884  38.180  1.00  0.00     0.029 A 
ATOM     69  N   UNL A   1      41.713  31.375  36.216  1.00  0.00    -0.354 N 
ATOM     70  N   UNL A   1      41.511  29.942  33.670  1.00  0.00    -0.248 NA
ATOM     71  C   UNL A   1      42.395  28.448  32.110  1.00  0.00     0.031 C 
ATOM     72  C   UNL A   1      43.448  30.954  37.537  1.00  0.00     0.029 A 
ATOM     73  C   UNL A   1      42.865  30.614  36.328  1.00  0.00     0.049 A 
ATOM     74  H   UNL A   1      41.095  31.355  35.451  1.00  0.00     0.167 HD
ATOM     75  C   UNL A   1      42.694  29.408  34.169  1.00  0.00     0.074 A 
ATOM     76  C   UNL A   1      43.177  28.469  33.179  1.00  0.00     0.031 C 
ATOM     77  C   UNL A   1      43.322  29.667  35.343  1.00  0.00     0.037 A 
BRANCH  64  78
ATOM     78  C   UNL A   1      40.467  33.910  38.806  1.00  0.00     0.064 A 
ATOM     79  C   UNL A   1      41.178  35.116  38.909  1.00  0.00     0.173 A 
ATOM     80  C   UNL A   1      39.726  33.485  39.918  1.00  0.00     0.173 A 
ATOM     81  F   UNL A   1      41.920  35.552  37.881  1.00  0.00    -0.203 F 
ATOM     82  C   UNL A   1      41.166  35.853  40.090  1.00  0.00     0.198 A 
ATOM     83  C   UNL A   1      39.694  34.240  41.087  1.00  0.00     0.198 A 
ATOM     84  F   UNL A   1      39.033  32.337  39.872  1.00  0.00    -0.203 F 
ATOM     85  F   UNL A   1      41.893  36.975  40.184  1.00  0.00    -0.200 F 
ATOM     86  C   UNL A   1      40.418  35.419  41.175  1.00  0.00     0.200 A 
ATOM     87  F   UNL A   1      38.964  33.823  42.132  1.00  0.00    -0.200 F 
ATOM     88  F   UNL A   1      40.405  36.132  42.309  1.00  0.00    -0.200 F 
ENDBRANCH  64  78
BRANCH  65  89
ATOM     89  C   UNL A   1      40.168  28.787  30.249  1.00  0.00     0.064 A 
ATOM     90  C   UNL A   1      40.744  29.317  29.086  1.00  0.00     0.173 A 
ATOM     91  C   UNL A   1      39.538  27.537  30.152  1.00  0.00     0.173 A 
ATOM     92  F   UNL A   1      41.328  30.523  29.119  1.00  0.00    -0.203 F 
ATOM     93  C   UNL A   1      40.671  28.638  27.871  1.00  0.00     0.198 A 
ATOM     94  C   UNL A   1      39.491  26.846  28.944  1.00  0.00     0.198 A 
ATOM     95  F   UNL A   1      38.963  26.990  31.233  1.00  0.00    -0.203 F 
ATOM     96  F   UNL A   1      41.180  29.193  26.763  1.00  0.00    -0.200 F 
ATOM     97  C   UNL A   1      40.049  27.400  27.802  1.00  0.00     0.200 A 
ATOM     98  F   UNL A   1      38.893  25.648  28.882  1.00  0.00    -0.200 F 
ATOM     99  F   UNL A   1      39.974  26.749  26.632  1.00  0.00    -0.200 F 
ENDBRANCH  65  89
BRANCH  77 100
ATOM    100  C   UNL A   1      44.567  28.886  35.654  1.00  0.00     0.064 A 
ATOM    101  C   UNL A   1      44.524  27.653  36.321  1.00  0.00     0.173 A 
ATOM    102  C   UNL A   1      45.820  29.364  35.239  1.00  0.00     0.173 A 
ATOM    103  F   UNL A   1      43.351  27.157  36.746  1.00  0.00    -0.203 F 
ATOM    104  C   UNL A   1      45.691  26.944  36.590  1.00  0.00     0.198 A 
ATOM    105  C   UNL A   1      46.982  28.637  35.482  1.00  0.00     0.198 A 
ATOM    106  F   UNL A   1      45.917  30.532  34.587  1.00  0.00    -0.203 F 
ATOM    107  F   UNL A   1      45.631  25.793  37.275  1.00  0.00    -0.200 F 
ATOM    108  C   UNL A   1      46.918  27.433  36.166  1.00  0.00     0.200 A 
ATOM    109  F   UNL A   1      48.164  29.104  35.056  1.00  0.00    -0.200 F 
ATOM    110  F   UNL A   1      48.039  26.746  36.421  1.00  0.00    -0.200 F 
ENDBRANCH  77 100
ENDBRANCH  51  52
ENDBRANCH  44  46
ENDBRANCH  43  44
ENDBRANCH  42  43
ENDBRANCH  41  42
ENDBRANCH  40  41
ENDBRANCH  39  40
ENDBRANCH   1  39
TORSDOF 23
ENDMDL
