MODEL 1
REMARK VINA RESULT:      -8.6      0.000      0.000
REMARK SMILES CCCC[C@@H](Sc1nc(OCCC2CCCCC2)cc(OCCC2CCCCC2)n1)C(=O)OCCOCCOCCOC(=O)c1ccc(-c2c3nc(c(-c4c(F)c(F)c(F)c(F)c4F)c4ccc([nH]4)c(-c4c(F)c(F)c(F)c(F)c4F)c4nc(c(-c5c(F)c(F)c(F)c(F)c5F)c5ccc2[nH]5)C=C4)C=C3)cc1
REMARK SMILES IDX 35 1 34 2 33 3 31 4 32 5 5 6 4 7 3 8 2 9 1 10 6 11 7 12 8 13
REMARK SMILES IDX 30 14 9 15 20 16 19 17 10 18 11 19 12 20 13 21 14 22 18 23
REMARK SMILES IDX 15 24 17 25 16 26 21 27 22 28 23 29 24 30 25 31 29 32 26 33
REMARK SMILES IDX 28 34 27 35 36 36 37 37 38 38 39 39 40 40 41 41 42 42 43 43
REMARK SMILES IDX 44 44 45 45 46 46 107 47 47 48 106 49 48 50 49 51 50 52
REMARK SMILES IDX 100 53 51 54 105 55 99 56 101 57 52 58 104 59 98 60 97 61
REMARK SMILES IDX 53 63 85 64 65 65 84 66 66 67 69 68 83 69 102 70 67 71 68 72
REMARK SMILES IDX 82 74 103 75 70 76 54 77 55 78 63 79 56 80 57 81 61 82 64 83
REMARK SMILES IDX 58 84 59 85 62 86 60 87 86 88 87 89 95 90 88 91 89 92 93 93
REMARK SMILES IDX 96 94 90 95 91 96 94 97 92 98 71 99 72 100 80 101 73 102
REMARK SMILES IDX 74 103 78 104 81 105 75 106 76 107 79 108 77 109
REMARK H PARENT 101 62 69 73
REMARK Flexibility Score: inf
ROOT
ATOM      1  C   UNL A   1      42.955  19.177  24.926  1.00  0.00     0.202 C 
ENDROOT
BRANCH   1   2
ATOM      2  C   UNL A   1      42.676  20.151  26.083  1.00  0.00     0.261 C 
BRANCH   2   3
ATOM      3  O   UNL A   1      41.401  20.823  26.045  1.00  0.00    -0.462 OA
BRANCH   3   4
ATOM      4  C   UNL A   1      40.798  20.986  27.250  1.00  0.00     0.319 C 
ATOM      5  O   UNL A   1      40.693  20.094  28.091  1.00  0.00    -0.251 OA
BRANCH   4   6
ATOM      6  C   UNL A   1      40.219  22.382  27.487  1.00  0.00     0.164 C 
BRANCH   6   7
ATOM      7  C   UNL A   1      41.169  23.451  28.090  1.00  0.00     0.027 C 
BRANCH   7   8
ATOM      8  C   UNL A   1      42.101  24.246  27.138  1.00  0.00     0.001 C 
BRANCH   8   9
ATOM      9  C   UNL A   1      42.010  25.783  27.150  1.00  0.00    -0.003 C 
ATOM     10  C   UNL A   1      41.361  26.397  25.931  1.00  0.00     0.004 C 
ENDBRANCH   8   9
ENDBRANCH   7   8
ENDBRANCH   6   7
BRANCH   6  11
ATOM     11  S   UNL A   1      39.585  22.804  25.801  1.00  0.00    -0.071 SA
BRANCH  11  12
ATOM     12  C   UNL A   1      37.852  22.549  26.049  1.00  0.00     0.195 A 
ATOM     13  N   UNL A   1      37.405  21.314  25.783  1.00  0.00    -0.187 NA
ATOM     14  N   UNL A   1      37.113  23.659  26.007  1.00  0.00    -0.187 NA
ATOM     15  C   UNL A   1      36.225  21.253  25.170  1.00  0.00     0.221 A 
ATOM     16  C   UNL A   1      35.973  23.573  25.340  1.00  0.00     0.221 A 
ATOM     17  C   UNL A   1      35.572  22.396  24.793  1.00  0.00     0.136 A 
BRANCH  15  18
ATOM     18  O   UNL A   1      35.748  19.986  24.958  1.00  0.00    -0.477 OA
BRANCH  18  19
ATOM     19  C   UNL A   1      34.354  19.753  25.152  1.00  0.00     0.231 C 
BRANCH  19  20
ATOM     20  C   UNL A   1      33.437  20.205  23.985  1.00  0.00     0.045 C 
BRANCH  20  21
ATOM     21  C   UNL A   1      32.659  21.517  24.194  1.00  0.00    -0.008 C 
ATOM     22  C   UNL A   1      31.714  21.903  23.051  1.00  0.00     0.004 C 
ATOM     23  C   UNL A   1      31.910  21.581  25.522  1.00  0.00     0.004 C 
ATOM     24  C   UNL A   1      31.202  23.339  23.245  1.00  0.00     0.000 C 
ATOM     25  C   UNL A   1      31.497  23.028  25.792  1.00  0.00     0.000 C 
ATOM     26  C   UNL A   1      30.675  23.631  24.652  1.00  0.00     0.000 C 
ENDBRANCH  20  21
ENDBRANCH  19  20
ENDBRANCH  18  19
ENDBRANCH  15  18
BRANCH  16  27
ATOM     27  O   UNL A   1      35.459  24.777  24.977  1.00  0.00    -0.477 OA
BRANCH  27  28
ATOM     28  C   UNL A   1      34.393  24.854  24.038  1.00  0.00     0.231 C 
BRANCH  28  29
ATOM     29  C   UNL A   1      33.865  26.310  23.991  1.00  0.00     0.045 C 
BRANCH  29  30
ATOM     30  C   UNL A   1      33.306  26.777  25.345  1.00  0.00    -0.008 C 
ATOM     31  C   UNL A   1      33.877  28.135  25.743  1.00  0.00     0.004 C 
ATOM     32  C   UNL A   1      31.781  26.922  25.437  1.00  0.00     0.004 C 
ATOM     33  C   UNL A   1      33.645  28.341  27.230  1.00  0.00     0.000 C 
ATOM     34  C   UNL A   1      31.370  27.275  26.882  1.00  0.00     0.000 C 
ATOM     35  C   UNL A   1      32.157  28.436  27.505  1.00  0.00     0.000 C 
ENDBRANCH  29  30
ENDBRANCH  28  29
ENDBRANCH  27  28
ENDBRANCH  16  27
ENDBRANCH  11  12
ENDBRANCH   6  11
ENDBRANCH   4   6
ENDBRANCH   3   4
ENDBRANCH   2   3
ENDBRANCH   1   2
BRANCH   1  36
ATOM     36  O   UNL A   1      44.264  19.133  24.363  1.00  0.00    -0.376 OA
BRANCH  36  37
ATOM     37  C   UNL A   1      45.361  19.542  25.162  1.00  0.00     0.188 C 
BRANCH  37  38
ATOM     38  C   UNL A   1      46.302  20.615  24.614  1.00  0.00     0.188 C 
BRANCH  38  39
ATOM     39  O   UNL A   1      46.405  21.784  25.396  1.00  0.00    -0.376 OA
BRANCH  39  40
ATOM     40  C   UNL A   1      45.809  22.982  24.910  1.00  0.00     0.202 C 
BRANCH  40  41
ATOM     41  C   UNL A   1      46.732  24.142  24.454  1.00  0.00     0.261 C 
BRANCH  41  42
ATOM     42  O   UNL A   1      46.175  25.475  24.422  1.00  0.00    -0.460 OA
BRANCH  42  43
ATOM     43  C   UNL A   1      47.024  26.498  24.670  1.00  0.00     0.338 C 
ATOM     44  O   UNL A   1      48.067  26.731  24.068  1.00  0.00    -0.246 OA
BRANCH  43  45
ATOM     45  C   UNL A   1      46.358  27.492  25.559  1.00  0.00     0.060 A 
ATOM     46  C   UNL A   1      47.190  28.384  26.247  1.00  0.00     0.016 A 
ATOM     47  C   UNL A   1      44.979  27.592  25.722  1.00  0.00     0.016 A 
ATOM     48  C   UNL A   1      46.684  29.317  27.149  1.00  0.00     0.010 A 
ATOM     49  C   UNL A   1      44.461  28.509  26.655  1.00  0.00     0.010 A 
ATOM     50  C   UNL A   1      45.315  29.338  27.415  1.00  0.00    -0.014 A 
BRANCH  50  51
ATOM     51  C   UNL A   1      44.846  29.986  28.671  1.00  0.00     0.031 A 
ATOM     52  C   UNL A   1      44.590  31.473  28.636  1.00  0.00     0.074 A 
ATOM     53  C   UNL A   1      44.548  29.292  29.785  1.00  0.00     0.049 A 
ATOM     54  N   UNL A   1      44.255  32.293  29.599  1.00  0.00    -0.248 NA
ATOM     55  C   UNL A   1      44.734  32.122  27.322  1.00  0.00     0.031 C 
ATOM     56  C   UNL A   1      44.638  27.842  29.934  1.00  0.00     0.029 A 
ATOM     57  N   UNL A   1      44.103  29.729  31.012  1.00  0.00    -0.354 N 
ATOM     58  C   UNL A   1      44.182  33.552  29.013  1.00  0.00     0.074 A 
ATOM     59  C   UNL A   1      44.533  33.394  27.621  1.00  0.00     0.031 C 
ATOM     60  C   UNL A   1      44.275  27.509  31.186  1.00  0.00     0.029 A 
ATOM     61  C   UNL A   1      43.968  28.724  31.940  1.00  0.00     0.049 A 
ATOM     62  H   UNL A   1      43.901  30.673  31.206  1.00  0.00     0.167 HD
ATOM     63  C   UNL A   1      43.846  34.734  29.582  1.00  0.00     0.037 A 
ATOM     64  C   UNL A   1      43.662  28.786  33.252  1.00  0.00     0.037 A 
ATOM     65  C   UNL A   1      43.472  34.892  30.961  1.00  0.00     0.049 A 
ATOM     66  C   UNL A   1      43.381  30.128  33.887  1.00  0.00     0.074 A 
ATOM     67  C   UNL A   1      43.119  36.048  31.634  1.00  0.00     0.029 A 
ATOM     68  N   UNL A   1      43.402  33.857  31.882  1.00  0.00    -0.354 N 
ATOM     69  N   UNL A   1      43.343  31.319  33.337  1.00  0.00    -0.248 NA
ATOM     70  C   UNL A   1      43.098  30.131  35.330  1.00  0.00     0.031 C 
ATOM     71  C   UNL A   1      42.893  35.722  32.975  1.00  0.00     0.029 A 
ATOM     72  C   UNL A   1      43.034  34.351  33.123  1.00  0.00     0.049 A 
ATOM     73  H   UNL A   1      43.586  32.910  31.684  1.00  0.00     0.167 HD
ATOM     74  C   UNL A   1      43.000  32.202  34.356  1.00  0.00     0.074 A 
ATOM     75  C   UNL A   1      42.821  31.407  35.551  1.00  0.00     0.031 C 
ATOM     76  C   UNL A   1      42.849  33.550  34.306  1.00  0.00     0.037 A 
BRANCH  63  77
ATOM     77  C   UNL A   1      43.913  35.959  28.714  1.00  0.00     0.064 A 
ATOM     78  C   UNL A   1      45.101  36.685  28.537  1.00  0.00     0.173 A 
ATOM     79  C   UNL A   1      42.766  36.407  28.040  1.00  0.00     0.173 A 
ATOM     80  F   UNL A   1      46.221  36.313  29.174  1.00  0.00    -0.203 F 
ATOM     81  C   UNL A   1      45.128  37.832  27.747  1.00  0.00     0.198 A 
ATOM     82  C   UNL A   1      42.806  37.532  27.222  1.00  0.00     0.198 A 
ATOM     83  F   UNL A   1      41.604  35.750  28.173  1.00  0.00    -0.203 F 
ATOM     84  F   UNL A   1      46.260  38.544  27.643  1.00  0.00    -0.200 F 
ATOM     85  C   UNL A   1      43.985  38.249  27.084  1.00  0.00     0.200 A 
ATOM     86  F   UNL A   1      41.703  37.926  26.572  1.00  0.00    -0.200 F 
ATOM     87  F   UNL A   1      44.015  39.349  26.319  1.00  0.00    -0.200 F 
ENDBRANCH  63  77
BRANCH  64  88
ATOM     88  C   UNL A   1      43.634  27.547  34.079  1.00  0.00     0.064 A 
ATOM     89  C   UNL A   1      44.816  26.973  34.570  1.00  0.00     0.173 A 
ATOM     90  C   UNL A   1      42.430  26.880  34.349  1.00  0.00     0.173 A 
ATOM     91  F   UNL A   1      45.999  27.550  34.310  1.00  0.00    -0.203 F 
ATOM     92  C   UNL A   1      44.797  25.769  35.275  1.00  0.00     0.198 A 
ATOM     93  C   UNL A   1      42.408  25.696  35.083  1.00  0.00     0.198 A 
ATOM     94  F   UNL A   1      41.271  27.376  33.892  1.00  0.00    -0.203 F 
ATOM     95  F   UNL A   1      45.947  25.211  35.674  1.00  0.00    -0.200 F 
ATOM     96  C   UNL A   1      43.592  25.135  35.537  1.00  0.00     0.200 A 
ATOM     97  F   UNL A   1      41.240  25.090  35.340  1.00  0.00    -0.200 F 
ATOM     98  F   UNL A   1      43.574  23.978  36.211  1.00  0.00    -0.200 F 
ENDBRANCH  64  88
BRANCH  76  99
ATOM     99  C   UNL A   1      42.417  34.245  35.569  1.00  0.00     0.064 A 
ATOM    100  C   UNL A   1      43.343  34.786  36.474  1.00  0.00     0.173 A 
ATOM    101  C   UNL A   1      41.053  34.386  35.869  1.00  0.00     0.173 A 
ATOM    102  F   UNL A   1      44.660  34.673  36.242  1.00  0.00    -0.203 F 
ATOM    103  C   UNL A   1      42.922  35.399  37.652  1.00  0.00     0.198 A 
ATOM    104  C   UNL A   1      40.634  35.034  37.028  1.00  0.00     0.198 A 
ATOM    105  F   UNL A   1      40.122  33.900  35.034  1.00  0.00    -0.203 F 
ATOM    106  F   UNL A   1      43.826  35.845  38.534  1.00  0.00    -0.200 F 
ATOM    107  C   UNL A   1      41.568  35.526  37.925  1.00  0.00     0.200 A 
ATOM    108  F   UNL A   1      39.325  35.173  37.280  1.00  0.00    -0.200 F 
ATOM    109  F   UNL A   1      41.164  36.115  39.059  1.00  0.00    -0.200 F 
ENDBRANCH  76  99
ENDBRANCH  50  51
ENDBRANCH  43  45
ENDBRANCH  42  43
ENDBRANCH  41  42
ENDBRANCH  40  41
ENDBRANCH  39  40
ENDBRANCH  38  39
ENDBRANCH  37  38
ENDBRANCH  36  37
ENDBRANCH   1  36
TORSDOF 30
ENDMDL
MODEL 2
REMARK VINA RESULT:      -8.1      5.021     12.085
REMARK SMILES CCCC[C@@H](Sc1nc(OCCC2CCCCC2)cc(OCCC2CCCCC2)n1)C(=O)OCCOCCOCCOC(=O)c1ccc(-c2c3nc(c(-c4c(F)c(F)c(F)c(F)c4F)c4ccc([nH]4)c(-c4c(F)c(F)c(F)c(F)c4F)c4nc(c(-c5c(F)c(F)c(F)c(F)c5F)c5ccc2[nH]5)C=C4)C=C3)cc1
REMARK SMILES IDX 35 1 34 2 33 3 31 4 32 5 5 6 4 7 3 8 2 9 1 10 6 11 7 12 8 13
REMARK SMILES IDX 30 14 9 15 20 16 19 17 10 18 11 19 12 20 13 21 14 22 18 23
REMARK SMILES IDX 15 24 17 25 16 26 21 27 22 28 23 29 24 30 25 31 29 32 26 33
REMARK SMILES IDX 28 34 27 35 36 36 37 37 38 38 39 39 40 40 41 41 42 42 43 43
REMARK SMILES IDX 44 44 45 45 46 46 107 47 47 48 106 49 48 50 49 51 50 52
REMARK SMILES IDX 100 53 51 54 105 55 99 56 101 57 52 58 104 59 98 60 97 61
REMARK SMILES IDX 53 63 85 64 65 65 84 66 66 67 69 68 83 69 102 70 67 71 68 72
REMARK SMILES IDX 82 74 103 75 70 76 54 77 55 78 63 79 56 80 57 81 61 82 64 83
REMARK SMILES IDX 58 84 59 85 62 86 60 87 86 88 87 89 95 90 88 91 89 92 93 93
REMARK SMILES IDX 96 94 90 95 91 96 94 97 92 98 71 99 72 100 80 101 73 102
REMARK SMILES IDX 74 103 78 104 81 105 75 106 76 107 79 108 77 109
REMARK H PARENT 101 62 69 73
REMARK Flexibility Score: inf
ROOT
ATOM      1  C   UNL A   1      39.864  34.515  30.785  1.00  0.00     0.202 C 
ENDROOT
BRANCH   1   2
ATOM      2  C   UNL A   1      41.280  33.916  30.807  1.00  0.00     0.261 C 
BRANCH   2   3
ATOM      3  O   UNL A   1      42.043  34.064  29.593  1.00  0.00    -0.462 OA
BRANCH   3   4
ATOM      4  C   UNL A   1      43.084  33.203  29.456  1.00  0.00     0.319 C 
ATOM      5  O   UNL A   1      43.682  32.693  30.403  1.00  0.00    -0.251 OA
BRANCH   4   6
ATOM      6  C   UNL A   1      43.492  32.925  28.009  1.00  0.00     0.164 C 
BRANCH   6   7
ATOM      7  C   UNL A   1      44.699  33.722  27.445  1.00  0.00     0.027 C 
BRANCH   7   8
ATOM      8  C   UNL A   1      44.810  35.236  27.766  1.00  0.00     0.001 C 
BRANCH   8   9
ATOM      9  C   UNL A   1      43.974  36.219  26.927  1.00  0.00    -0.003 C 
ATOM     10  C   UNL A   1      42.758  35.619  26.260  1.00  0.00     0.004 C 
ENDBRANCH   8   9
ENDBRANCH   7   8
ENDBRANCH   6   7
BRANCH   6  11
ATOM     11  S   UNL A   1      43.752  31.093  28.048  1.00  0.00    -0.071 SA
BRANCH  11  12
ATOM     12  C   UNL A   1      45.470  31.015  27.634  1.00  0.00     0.195 A 
ATOM     13  N   UNL A   1      45.760  30.391  26.485  1.00  0.00    -0.187 NA
ATOM     14  N   UNL A   1      46.300  31.142  28.671  1.00  0.00    -0.187 NA
ATOM     15  C   UNL A   1      46.843  29.617  26.513  1.00  0.00     0.221 A 
ATOM     16  C   UNL A   1      47.334  30.316  28.691  1.00  0.00     0.221 A 
ATOM     17  C   UNL A   1      47.549  29.443  27.673  1.00  0.00     0.136 A 
BRANCH  15  18
ATOM     18  O   UNL A   1      47.166  29.032  25.317  1.00  0.00    -0.477 OA
BRANCH  18  19
ATOM     19  C   UNL A   1      46.273  28.055  24.784  1.00  0.00     0.231 C 
BRANCH  19  20
ATOM     20  C   UNL A   1      46.690  26.578  25.012  1.00  0.00     0.045 C 
BRANCH  20  21
ATOM     21  C   UNL A   1      47.999  26.348  25.788  1.00  0.00    -0.008 C 
ATOM     22  C   UNL A   1      47.908  25.334  26.934  1.00  0.00     0.004 C 
ATOM     23  C   UNL A   1      49.190  26.008  24.897  1.00  0.00     0.004 C 
ATOM     24  C   UNL A   1      49.182  25.384  27.792  1.00  0.00     0.000 C 
ATOM     25  C   UNL A   1      50.479  26.170  25.702  1.00  0.00     0.000 C 
ATOM     26  C   UNL A   1      50.482  25.340  26.987  1.00  0.00     0.000 C 
ENDBRANCH  20  21
ENDBRANCH  19  20
ENDBRANCH  18  19
ENDBRANCH  15  18
BRANCH  16  27
ATOM     27  O   UNL A   1      47.911  30.190  29.915  1.00  0.00    -0.477 OA
BRANCH  27  28
ATOM     28  C   UNL A   1      47.545  31.060  30.980  1.00  0.00     0.231 C 
BRANCH  28  29
ATOM     29  C   UNL A   1      48.795  31.855  31.434  1.00  0.00     0.045 C 
BRANCH  29  30
ATOM     30  C   UNL A   1      49.023  31.775  32.953  1.00  0.00    -0.008 C 
ATOM     31  C   UNL A   1      47.797  32.253  33.725  1.00  0.00     0.004 C 
ATOM     32  C   UNL A   1      49.357  30.389  33.518  1.00  0.00     0.004 C 
ATOM     33  C   UNL A   1      48.213  32.560  35.153  1.00  0.00     0.000 C 
ATOM     34  C   UNL A   1      49.678  30.494  35.024  1.00  0.00     0.000 C 
ATOM     35  C   UNL A   1      48.647  31.282  35.843  1.00  0.00     0.000 C 
ENDBRANCH  29  30
ENDBRANCH  28  29
ENDBRANCH  27  28
ENDBRANCH  16  27
ENDBRANCH  11  12
ENDBRANCH   6  11
ENDBRANCH   4   6
ENDBRANCH   3   4
ENDBRANCH   2   3
ENDBRANCH   1   2
BRANCH   1  36
ATOM     36  O   UNL A   1      38.744  33.638  30.888  1.00  0.00    -0.376 OA
BRANCH  36  37
ATOM     37  C   UNL A   1      37.638  34.038  31.679  1.00  0.00     0.188 C 
BRANCH  37  38
ATOM     38  C   UNL A   1      36.261  33.462  31.350  1.00  0.00     0.188 C 
BRANCH  38  39
ATOM     39  O   UNL A   1      35.649  33.985  30.193  1.00  0.00    -0.376 OA
BRANCH  39  40
ATOM     40  C   UNL A   1      34.446  33.382  29.729  1.00  0.00     0.202 C 
BRANCH  40  41
ATOM     41  C   UNL A   1      34.297  33.083  28.215  1.00  0.00     0.261 C 
BRANCH  41  42
ATOM     42  O   UNL A   1      35.237  32.166  27.612  1.00  0.00    -0.460 OA
BRANCH  42  43
ATOM     43  C   UNL A   1      35.161  30.872  27.997  1.00  0.00     0.338 C 
ATOM     44  O   UNL A   1      34.399  30.027  27.538  1.00  0.00    -0.246 OA
BRANCH  43  45
ATOM     45  C   UNL A   1      36.351  30.530  28.826  1.00  0.00     0.060 A 
ATOM     46  C   UNL A   1      37.549  31.184  28.515  1.00  0.00     0.016 A 
ATOM     47  C   UNL A   1      36.329  29.627  29.886  1.00  0.00     0.016 A 
ATOM     48  C   UNL A   1      38.738  30.903  29.185  1.00  0.00     0.010 A 
ATOM     49  C   UNL A   1      37.532  29.312  30.546  1.00  0.00     0.010 A 
ATOM     50  C   UNL A   1      38.753  29.908  30.161  1.00  0.00    -0.014 A 
BRANCH  50  51
ATOM     51  C   UNL A   1      40.060  29.300  30.534  1.00  0.00     0.031 A 
ATOM     52  C   UNL A   1      40.773  29.861  31.740  1.00  0.00     0.074 A 
ATOM     53  C   UNL A   1      40.570  28.220  29.911  1.00  0.00     0.049 A 
ATOM     54  N   UNL A   1      41.950  29.572  32.233  1.00  0.00    -0.248 NA
ATOM     55  C   UNL A   1      40.048  30.898  32.493  1.00  0.00     0.031 C 
ATOM     56  C   UNL A   1      39.943  27.502  28.805  1.00  0.00     0.029 A 
ATOM     57  N   UNL A   1      41.745  27.539  30.131  1.00  0.00    -0.354 N 
ATOM     58  C   UNL A   1      42.116  30.412  33.328  1.00  0.00     0.074 A 
ATOM     59  C   UNL A   1      40.934  31.239  33.412  1.00  0.00     0.031 C 
ATOM     60  C   UNL A   1      40.746  26.488  28.432  1.00  0.00     0.029 A 
ATOM     61  C   UNL A   1      41.963  26.513  29.244  1.00  0.00     0.049 A 
ATOM     62  H   UNL A   1      42.371  27.766  30.856  1.00  0.00     0.167 HD
ATOM     63  C   UNL A   1      43.156  30.485  34.192  1.00  0.00     0.037 A 
ATOM     64  C   UNL A   1      43.035  25.709  29.087  1.00  0.00     0.037 A 
ATOM     65  C   UNL A   1      44.323  29.648  34.126  1.00  0.00     0.049 A 
ATOM     66  C   UNL A   1      44.224  25.871  30.005  1.00  0.00     0.074 A 
ATOM     67  C   UNL A   1      45.434  29.647  34.951  1.00  0.00     0.029 A 
ATOM     68  N   UNL A   1      44.531  28.657  33.177  1.00  0.00    -0.354 N 
ATOM     69  N   UNL A   1      44.390  26.686  31.020  1.00  0.00    -0.248 NA
ATOM     70  C   UNL A   1      45.378  24.994  29.753  1.00  0.00     0.031 C 
ATOM     71  C   UNL A   1      46.339  28.697  34.467  1.00  0.00     0.029 A 
ATOM     72  C   UNL A   1      45.762  28.056  33.382  1.00  0.00     0.049 A 
ATOM     73  H   UNL A   1      43.897  28.418  32.463  1.00  0.00     0.167 HD
ATOM     74  C   UNL A   1      45.645  26.397  31.544  1.00  0.00     0.074 A 
ATOM     75  C   UNL A   1      46.189  25.317  30.749  1.00  0.00     0.031 C 
ATOM     76  C   UNL A   1      46.290  26.974  32.590  1.00  0.00     0.037 A 
BRANCH  63  77
ATOM     77  C   UNL A   1      43.093  31.542  35.258  1.00  0.00     0.064 A 
ATOM     78  C   UNL A   1      42.547  31.291  36.527  1.00  0.00     0.173 A 
ATOM     79  C   UNL A   1      43.600  32.826  35.007  1.00  0.00     0.173 A 
ATOM     80  F   UNL A   1      42.029  30.088  36.814  1.00  0.00    -0.203 F 
ATOM     81  C   UNL A   1      42.479  32.296  37.489  1.00  0.00     0.198 A 
ATOM     82  C   UNL A   1      43.565  33.818  35.983  1.00  0.00     0.198 A 
ATOM     83  F   UNL A   1      44.135  33.120  33.812  1.00  0.00    -0.203 F 
ATOM     84  F   UNL A   1      41.896  32.051  38.671  1.00  0.00    -0.200 F 
ATOM     85  C   UNL A   1      42.995  33.555  37.220  1.00  0.00     0.200 A 
ATOM     86  F   UNL A   1      44.076  35.029  35.725  1.00  0.00    -0.200 F 
ATOM     87  F   UNL A   1      42.935  34.519  38.148  1.00  0.00    -0.200 F 
ENDBRANCH  63  77
BRANCH  64  88
ATOM     88  C   UNL A   1      43.063  24.693  27.998  1.00  0.00     0.064 A 
ATOM     89  C   UNL A   1      43.500  25.023  26.706  1.00  0.00     0.173 A 
ATOM     90  C   UNL A   1      42.602  23.385  28.211  1.00  0.00     0.173 A 
ATOM     91  F   UNL A   1      43.917  26.270  26.438  1.00  0.00    -0.203 F 
ATOM     92  C   UNL A   1      43.450  24.094  25.667  1.00  0.00     0.198 A 
ATOM     93  C   UNL A   1      42.585  22.447  27.181  1.00  0.00     0.198 A 
ATOM     94  F   UNL A   1      42.160  23.019  29.423  1.00  0.00    -0.203 F 
ATOM     95  F   UNL A   1      43.811  24.457  24.429  1.00  0.00    -0.200 F 
ATOM     96  C   UNL A   1      42.998  22.805  25.907  1.00  0.00     0.200 A 
ATOM     97  F   UNL A   1      42.155  21.201  27.420  1.00  0.00    -0.200 F 
ATOM     98  F   UNL A   1      42.948  21.914  24.908  1.00  0.00    -0.200 F 
ENDBRANCH  64  88
BRANCH  76  99
ATOM     99  C   UNL A   1      47.634  26.414  32.969  1.00  0.00     0.064 A 
ATOM    100  C   UNL A   1      47.770  25.369  33.895  1.00  0.00     0.173 A 
ATOM    101  C   UNL A   1      48.805  26.921  32.382  1.00  0.00     0.173 A 
ATOM    102  F   UNL A   1      46.686  24.851  34.494  1.00  0.00    -0.203 F 
ATOM    103  C   UNL A   1      49.027  24.886  34.254  1.00  0.00     0.198 A 
ATOM    104  C   UNL A   1      50.056  26.410  32.712  1.00  0.00     0.198 A 
ATOM    105  F   UNL A   1      48.735  27.912  31.479  1.00  0.00    -0.203 F 
ATOM    106  F   UNL A   1      49.135  23.936  35.192  1.00  0.00    -0.200 F 
ATOM    107  C   UNL A   1      50.168  25.403  33.658  1.00  0.00     0.200 A 
ATOM    108  F   UNL A   1      51.155  26.897  32.121  1.00  0.00    -0.200 F 
ATOM    109  F   UNL A   1      51.376  24.937  34.005  1.00  0.00    -0.200 F 
ENDBRANCH  76  99
ENDBRANCH  50  51
ENDBRANCH  43  45
ENDBRANCH  42  43
ENDBRANCH  41  42
ENDBRANCH  40  41
ENDBRANCH  39  40
ENDBRANCH  38  39
ENDBRANCH  37  38
ENDBRANCH  36  37
ENDBRANCH   1  36
TORSDOF 30
ENDMDL
MODEL 3
REMARK VINA RESULT:      -7.3      5.096     10.490
REMARK SMILES CCCC[C@@H](Sc1nc(OCCC2CCCCC2)cc(OCCC2CCCCC2)n1)C(=O)OCCOCCOCCOC(=O)c1ccc(-c2c3nc(c(-c4c(F)c(F)c(F)c(F)c4F)c4ccc([nH]4)c(-c4c(F)c(F)c(F)c(F)c4F)c4nc(c(-c5c(F)c(F)c(F)c(F)c5F)c5ccc2[nH]5)C=C4)C=C3)cc1
REMARK SMILES IDX 35 1 34 2 33 3 31 4 32 5 5 6 4 7 3 8 2 9 1 10 6 11 7 12 8 13
REMARK SMILES IDX 30 14 9 15 20 16 19 17 10 18 11 19 12 20 13 21 14 22 18 23
REMARK SMILES IDX 15 24 17 25 16 26 21 27 22 28 23 29 24 30 25 31 29 32 26 33
REMARK SMILES IDX 28 34 27 35 36 36 37 37 38 38 39 39 40 40 41 41 42 42 43 43
REMARK SMILES IDX 44 44 45 45 46 46 107 47 47 48 106 49 48 50 49 51 50 52
REMARK SMILES IDX 100 53 51 54 105 55 99 56 101 57 52 58 104 59 98 60 97 61
REMARK SMILES IDX 53 63 85 64 65 65 84 66 66 67 69 68 83 69 102 70 67 71 68 72
REMARK SMILES IDX 82 74 103 75 70 76 54 77 55 78 63 79 56 80 57 81 61 82 64 83
REMARK SMILES IDX 58 84 59 85 62 86 60 87 86 88 87 89 95 90 88 91 89 92 93 93
REMARK SMILES IDX 96 94 90 95 91 96 94 97 92 98 71 99 72 100 80 101 73 102
REMARK SMILES IDX 74 103 78 104 81 105 75 106 76 107 79 108 77 109
REMARK H PARENT 101 62 69 73
REMARK Flexibility Score: inf
ROOT
ATOM      1  C   UNL A   1      44.542  24.101  30.994  1.00  0.00     0.202 C 
ENDROOT
BRANCH   1   2
ATOM      2  C   UNL A   1      44.874  24.382  29.519  1.00  0.00     0.261 C 
BRANCH   2   3
ATOM      3  O   UNL A   1      44.927  23.229  28.656  1.00  0.00    -0.462 OA
BRANCH   3   4
ATOM      4  C   UNL A   1      44.330  23.385  27.446  1.00  0.00     0.319 C 
ATOM      5  O   UNL A   1      43.116  23.511  27.291  1.00  0.00    -0.251 OA
BRANCH   4   6
ATOM      6  C   UNL A   1      45.291  23.365  26.257  1.00  0.00     0.164 C 
BRANCH   6   7
ATOM      7  C   UNL A   1      45.687  21.975  25.688  1.00  0.00     0.027 C 
BRANCH   7   8
ATOM      8  C   UNL A   1      44.906  21.416  24.471  1.00  0.00     0.001 C 
BRANCH   8   9
ATOM      9  C   UNL A   1      45.102  19.934  24.101  1.00  0.00    -0.003 C 
ATOM     10  C   UNL A   1      44.552  18.945  25.103  1.00  0.00     0.004 C 
ENDBRANCH   8   9
ENDBRANCH   7   8
ENDBRANCH   6   7
BRANCH   6  11
ATOM     11  S   UNL A   1      44.400  24.446  25.049  1.00  0.00    -0.071 SA
BRANCH  11  12
ATOM     12  C   UNL A   1      45.347  25.933  25.207  1.00  0.00     0.195 A 
ATOM     13  N   UNL A   1      46.547  25.796  25.786  1.00  0.00    -0.187 NA
ATOM     14  N   UNL A   1      44.628  27.056  25.184  1.00  0.00    -0.187 NA
ATOM     15  C   UNL A   1      46.891  26.771  26.624  1.00  0.00     0.221 A 
ATOM     16  C   UNL A   1      44.967  27.980  26.070  1.00  0.00     0.221 A 
ATOM     17  C   UNL A   1      46.026  27.795  26.900  1.00  0.00     0.136 A 
BRANCH  15  18
ATOM     18  O   UNL A   1      48.145  26.654  27.163  1.00  0.00    -0.477 OA
BRANCH  18  19
ATOM     19  C   UNL A   1      48.385  27.245  28.440  1.00  0.00     0.231 C 
BRANCH  19  20
ATOM     20  C   UNL A   1      49.432  28.389  28.457  1.00  0.00     0.045 C 
BRANCH  20  21
ATOM     21  C   UNL A   1      49.021  29.683  29.181  1.00  0.00    -0.008 C 
ATOM     22  C   UNL A   1      47.517  29.982  29.179  1.00  0.00     0.004 C 
ATOM     23  C   UNL A   1      49.562  29.789  30.604  1.00  0.00     0.004 C 
ATOM     24  C   UNL A   1      47.257  31.408  29.688  1.00  0.00     0.000 C 
ATOM     25  C   UNL A   1      49.422  31.233  31.085  1.00  0.00     0.000 C 
ATOM     26  C   UNL A   1      47.986  31.752  30.989  1.00  0.00     0.000 C 
ENDBRANCH  20  21
ENDBRANCH  19  20
ENDBRANCH  18  19
ENDBRANCH  15  18
BRANCH  16  27
ATOM     27  O   UNL A   1      43.997  28.905  26.294  1.00  0.00    -0.477 OA
BRANCH  27  28
ATOM     28  C   UNL A   1      42.751  28.524  26.864  1.00  0.00     0.231 C 
BRANCH  28  29
ATOM     29  C   UNL A   1      42.857  28.601  28.407  1.00  0.00     0.045 C 
BRANCH  29  30
ATOM     30  C   UNL A   1      41.610  28.042  29.112  1.00  0.00    -0.008 C 
ATOM     31  C   UNL A   1      40.851  29.138  29.853  1.00  0.00     0.004 C 
ATOM     32  C   UNL A   1      40.574  27.352  28.214  1.00  0.00     0.004 C 
ATOM     33  C   UNL A   1      39.914  28.486  30.855  1.00  0.00     0.000 C 
ATOM     34  C   UNL A   1      39.451  26.739  29.076  1.00  0.00     0.000 C 
ATOM     35  C   UNL A   1      38.852  27.694  30.119  1.00  0.00     0.000 C 
ENDBRANCH  29  30
ENDBRANCH  28  29
ENDBRANCH  27  28
ENDBRANCH  16  27
ENDBRANCH  11  12
ENDBRANCH   6  11
ENDBRANCH   4   6
ENDBRANCH   3   4
ENDBRANCH   2   3
ENDBRANCH   1   2
BRANCH   1  36
ATOM     36  O   UNL A   1      45.209  24.853  32.005  1.00  0.00    -0.376 OA
BRANCH  36  37
ATOM     37  C   UNL A   1      44.679  24.844  33.320  1.00  0.00     0.188 C 
BRANCH  37  38
ATOM     38  C   UNL A   1      43.942  23.592  33.799  1.00  0.00     0.188 C 
BRANCH  38  39
ATOM     39  O   UNL A   1      44.053  23.318  35.177  1.00  0.00    -0.376 OA
BRANCH  39  40
ATOM     40  C   UNL A   1      43.796  24.368  36.102  1.00  0.00     0.202 C 
BRANCH  40  41
ATOM     41  C   UNL A   1      42.402  25.048  36.090  1.00  0.00     0.261 C 
BRANCH  41  42
ATOM     42  O   UNL A   1      42.230  26.221  35.264  1.00  0.00    -0.460 OA
BRANCH  42  43
ATOM     43  C   UNL A   1      41.654  27.299  35.845  1.00  0.00     0.338 C 
ATOM     44  O   UNL A   1      41.231  27.357  36.995  1.00  0.00    -0.246 OA
BRANCH  43  45
ATOM     45  C   UNL A   1      41.898  28.505  35.005  1.00  0.00     0.060 A 
ATOM     46  C   UNL A   1      43.230  28.907  34.845  1.00  0.00     0.016 A 
ATOM     47  C   UNL A   1      40.893  29.227  34.365  1.00  0.00     0.016 A 
ATOM     48  C   UNL A   1      43.574  30.052  34.130  1.00  0.00     0.010 A 
ATOM     49  C   UNL A   1      41.228  30.403  33.668  1.00  0.00     0.010 A 
ATOM     50  C   UNL A   1      42.565  30.852  33.595  1.00  0.00    -0.014 A 
BRANCH  50  51
ATOM     51  C   UNL A   1      42.887  32.264  33.249  1.00  0.00     0.031 A 
ATOM     52  C   UNL A   1      42.895  33.274  34.371  1.00  0.00     0.074 A 
ATOM     53  C   UNL A   1      43.268  32.646  32.015  1.00  0.00     0.049 A 
ATOM     54  N   UNL A   1      43.065  34.570  34.335  1.00  0.00    -0.248 NA
ATOM     55  C   UNL A   1      42.678  32.736  35.724  1.00  0.00     0.031 C 
ATOM     56  C   UNL A   1      43.416  31.767  30.859  1.00  0.00     0.029 A 
ATOM     57  N   UNL A   1      43.603  33.892  31.535  1.00  0.00    -0.354 N 
ATOM     58  C   UNL A   1      42.943  35.002  35.651  1.00  0.00     0.074 A 
ATOM     59  C   UNL A   1      42.658  33.836  36.456  1.00  0.00     0.031 C 
ATOM     60  C   UNL A   1      43.798  32.501  29.798  1.00  0.00     0.029 A 
ATOM     61  C   UNL A   1      43.880  33.908  30.189  1.00  0.00     0.049 A 
ATOM     62  H   UNL A   1      43.641  34.696  32.102  1.00  0.00     0.167 HD
ATOM     63  C   UNL A   1      43.063  36.256  36.148  1.00  0.00     0.037 A 
ATOM     64  C   UNL A   1      44.137  34.944  29.365  1.00  0.00     0.037 A 
ATOM     65  C   UNL A   1      43.370  37.415  35.354  1.00  0.00     0.049 A 
ATOM     66  C   UNL A   1      44.176  36.347  29.925  1.00  0.00     0.074 A 
ATOM     67  C   UNL A   1      43.510  38.729  35.763  1.00  0.00     0.029 A 
ATOM     68  N   UNL A   1      43.588  37.397  33.984  1.00  0.00    -0.354 N 
ATOM     69  N   UNL A   1      44.030  36.754  31.164  1.00  0.00    -0.248 NA
ATOM     70  C   UNL A   1      44.417  37.437  28.967  1.00  0.00     0.031 C 
ATOM     71  C   UNL A   1      43.753  39.516  34.632  1.00  0.00     0.029 A 
ATOM     72  C   UNL A   1      43.837  38.682  33.528  1.00  0.00     0.049 A 
ATOM     73  H   UNL A   1      43.568  36.591  33.419  1.00  0.00     0.167 HD
ATOM     74  C   UNL A   1      44.195  38.135  31.138  1.00  0.00     0.074 A 
ATOM     75  C   UNL A   1      44.474  38.493  29.764  1.00  0.00     0.031 C 
ATOM     76  C   UNL A   1      44.122  39.027  32.159  1.00  0.00     0.037 A 
BRANCH  63  77
ATOM     77  C   UNL A   1      42.817  36.441  37.619  1.00  0.00     0.064 A 
ATOM     78  C   UNL A   1      43.854  36.388  38.563  1.00  0.00     0.173 A 
ATOM     79  C   UNL A   1      41.517  36.687  38.089  1.00  0.00     0.173 A 
ATOM     80  F   UNL A   1      45.112  36.134  38.171  1.00  0.00    -0.203 F 
ATOM     81  C   UNL A   1      43.593  36.538  39.923  1.00  0.00     0.198 A 
ATOM     82  C   UNL A   1      41.266  36.874  39.445  1.00  0.00     0.198 A 
ATOM     83  F   UNL A   1      40.488  36.749  37.230  1.00  0.00    -0.203 F 
ATOM     84  F   UNL A   1      44.591  36.421  40.811  1.00  0.00    -0.200 F 
ATOM     85  C   UNL A   1      42.303  36.790  40.361  1.00  0.00     0.200 A 
ATOM     86  F   UNL A   1      40.020  37.130  39.865  1.00  0.00    -0.200 F 
ATOM     87  F   UNL A   1      42.055  36.941  41.669  1.00  0.00    -0.200 F 
ENDBRANCH  63  77
BRANCH  64  88
ATOM     88  C   UNL A   1      44.349  34.715  27.909  1.00  0.00     0.064 A 
ATOM     89  C   UNL A   1      45.625  34.446  27.392  1.00  0.00     0.173 A 
ATOM     90  C   UNL A   1      43.289  34.815  26.995  1.00  0.00     0.173 A 
ATOM     91  F   UNL A   1      46.681  34.377  28.217  1.00  0.00    -0.203 F 
ATOM     92  C   UNL A   1      45.836  34.312  26.019  1.00  0.00     0.198 A 
ATOM     93  C   UNL A   1      43.494  34.646  25.627  1.00  0.00     0.198 A 
ATOM     94  F   UNL A   1      42.050  35.084  27.431  1.00  0.00    -0.203 F 
ATOM     95  F   UNL A   1      47.076  34.122  25.550  1.00  0.00    -0.200 F 
ATOM     96  C   UNL A   1      44.769  34.406  25.138  1.00  0.00     0.200 A 
ATOM     97  F   UNL A   1      42.458  34.730  24.780  1.00  0.00    -0.200 F 
ATOM     98  F   UNL A   1      44.973  34.279  23.821  1.00  0.00    -0.200 F 
ENDBRANCH  64  88
BRANCH  76  99
ATOM     99  C   UNL A   1      44.400  40.470  31.838  1.00  0.00     0.064 A 
ATOM    100  C   UNL A   1      43.371  41.380  31.553  1.00  0.00     0.173 A 
ATOM    101  C   UNL A   1      45.719  40.953  31.832  1.00  0.00     0.173 A 
ATOM    102  F   UNL A   1      42.093  40.972  31.536  1.00  0.00    -0.203 F 
ATOM    103  C   UNL A   1      43.654  42.706  31.229  1.00  0.00     0.198 A 
ATOM    104  C   UNL A   1      45.995  42.287  31.547  1.00  0.00     0.198 A 
ATOM    105  F   UNL A   1      46.743  40.131  32.111  1.00  0.00    -0.203 F 
ATOM    106  F   UNL A   1      42.660  43.538  30.892  1.00  0.00    -0.200 F 
ATOM    107  C   UNL A   1      44.965  43.159  31.231  1.00  0.00     0.200 A 
ATOM    108  F   UNL A   1      47.261  42.727  31.569  1.00  0.00    -0.200 F 
ATOM    109  F   UNL A   1      45.236  44.434  30.919  1.00  0.00    -0.200 F 
ENDBRANCH  76  99
ENDBRANCH  50  51
ENDBRANCH  43  45
ENDBRANCH  42  43
ENDBRANCH  41  42
ENDBRANCH  40  41
ENDBRANCH  39  40
ENDBRANCH  38  39
ENDBRANCH  37  38
ENDBRANCH  36  37
ENDBRANCH   1  36
TORSDOF 30
ENDMDL
