MODEL 1
REMARK VINA RESULT:     -12.2      0.000      0.000
REMARK SMILES Cc1ccc(C(=O)OCCOCCOCCOC(=O)c2ccc(-c3c4nc(c(-c5c(F)c(F)c(F)c(F)c5F)c5ccc([nH]5)c(-c5c(F)c(F)c(F)c(F)c5F)c5nc(c(-c6c(F)c(F)c(F)c(F)c6F)c6ccc3[nH]6)C=C5)C=C4)cc2)c(Oc2cccc(F)c2C(N)=O)c1
REMARK SMILES IDX 12 1 11 2 10 3 9 4 8 5 6 6 7 7 5 8 1 9 2 10 3 11 95 12 4 13
REMARK SMILES IDX 83 14 84 15 85 16 86 17 91 18 87 19 89 20 88 21 90 22 92 23
REMARK SMILES IDX 93 24 94 25 13 28 14 29 15 30 16 31 17 32 18 33 19 34 20 35
REMARK SMILES IDX 21 36 82 37 22 38 81 39 23 40 24 41 25 42 75 43 26 44 80 45
REMARK SMILES IDX 74 46 76 47 27 48 79 49 73 50 72 51 28 53 60 54 40 55 59 56
REMARK SMILES IDX 41 57 44 58 58 59 77 60 42 61 43 62 57 64 78 65 45 66 29 67
REMARK SMILES IDX 30 68 38 69 31 70 32 71 36 72 39 73 33 74 34 75 37 76 35 77
REMARK SMILES IDX 61 78 62 79 70 80 63 81 64 82 68 83 71 84 65 85 66 86 69 87
REMARK SMILES IDX 67 88 46 89 47 90 55 91 48 92 49 93 53 94 56 95 50 96 51 97
REMARK SMILES IDX 54 98 52 99
REMARK H PARENT 93 26 93 27 76 52 44 63
REMARK Flexibility Score: inf
ROOT
ATOM      1  C   UNL A   1      34.371  33.171  28.416  1.00  0.00     0.188 C 
ENDROOT
BRANCH   1   2
ATOM      2  O   UNL A   1      34.431  32.021  27.539  1.00  0.00    -0.376 OA
BRANCH   2   3
ATOM      3  C   UNL A   1      34.886  30.701  27.859  1.00  0.00     0.202 C 
BRANCH   3   4
ATOM      4  C   UNL A   1      34.373  29.283  27.059  1.00  0.00     0.261 C 
BRANCH   4   5
ATOM      5  O   UNL A   1      33.270  28.182  27.346  1.00  0.00    -0.460 OA
BRANCH   5   6
ATOM      6  C   UNL A   1      32.217  27.531  26.733  1.00  0.00     0.342 C 
ATOM      7  O   UNL A   1      31.136  27.226  27.199  1.00  0.00    -0.246 OA
BRANCH   6   8
ATOM      8  C   UNL A   1      32.187  27.095  25.322  1.00  0.00     0.102 A 
ATOM      9  C   UNL A   1      31.979  25.933  21.182  1.00  0.00     0.044 C 
ATOM     10  C   UNL A   1      31.999  26.323  22.631  1.00  0.00    -0.047 A 
ATOM     11  C   UNL A   1      31.817  27.662  22.966  1.00  0.00     0.004 A 
ATOM     12  C   UNL A   1      32.285  25.386  23.646  1.00  0.00     0.051 A 
ATOM     13  C   UNL A   1      31.899  28.040  24.299  1.00  0.00     0.020 A 
ATOM     14  C   UNL A   1      32.394  25.785  24.986  1.00  0.00     0.142 A 
BRANCH  14  15
ATOM     15  O   UNL A   1      32.829  25.052  26.046  1.00  0.00    -0.455 OA
BRANCH  15  16
ATOM     16  C   UNL A   1      33.854  24.193  25.889  1.00  0.00     0.143 A 
ATOM     17  C   UNL A   1      35.102  24.756  25.609  1.00  0.00     0.048 A 
ATOM     18  C   UNL A   1      33.607  22.825  25.860  1.00  0.00     0.117 A 
ATOM     19  C   UNL A   1      36.172  23.916  25.357  1.00  0.00     0.007 A 
ATOM     20  C   UNL A   1      34.698  21.999  25.647  1.00  0.00     0.139 A 
ATOM     21  C   UNL A   1      35.970  22.536  25.396  1.00  0.00     0.040 A 
ATOM     22  F   UNL A   1      34.563  20.668  25.639  1.00  0.00    -0.206 F 
BRANCH  18  23
ATOM     23  C   UNL A   1      32.242  22.267  26.085  1.00  0.00     0.255 C 
ATOM     24  N   UNL A   1      31.615  22.547  27.275  1.00  0.00    -0.365 N 
ATOM     25  O   UNL A   1      31.699  21.544  25.262  1.00  0.00    -0.269 OA
ATOM     26  H   UNL A   1      32.054  23.129  27.937  1.00  0.00     0.159 HD
ATOM     27  H   UNL A   1      30.728  22.166  27.465  1.00  0.00     0.159 HD
ENDBRANCH  18  23
ENDBRANCH  15  16
ENDBRANCH  14  15
ENDBRANCH   6   8
ENDBRANCH   5   6
ENDBRANCH   4   5
ENDBRANCH   3   4
ENDBRANCH   2   3
ENDBRANCH   1   2
BRANCH   1  28
ATOM     28  C   UNL A   1      33.307  34.288  28.478  1.00  0.00     0.188 C 
BRANCH  28  29
ATOM     29  O   UNL A   1      32.792  34.566  29.766  1.00  0.00    -0.376 OA
BRANCH  29  30
ATOM     30  C   UNL A   1      32.883  35.941  30.156  1.00  0.00     0.202 C 
BRANCH  30  31
ATOM     31  C   UNL A   1      32.567  36.225  31.644  1.00  0.00     0.261 C 
BRANCH  31  32
ATOM     32  O   UNL A   1      32.955  35.120  32.489  1.00  0.00    -0.460 OA
BRANCH  32  33
ATOM     33  C   UNL A   1      34.025  35.357  33.307  1.00  0.00     0.338 C 
ATOM     34  O   UNL A   1      34.308  36.446  33.786  1.00  0.00    -0.246 OA
BRANCH  33  35
ATOM     35  C   UNL A   1      34.914  34.162  33.336  1.00  0.00     0.060 A 
ATOM     36  C   UNL A   1      35.756  33.824  34.403  1.00  0.00     0.016 A 
ATOM     37  C   UNL A   1      35.145  33.535  32.153  1.00  0.00     0.016 A 
ATOM     38  C   UNL A   1      36.942  33.036  34.196  1.00  0.00     0.010 A 
ATOM     39  C   UNL A   1      36.385  32.932  31.998  1.00  0.00     0.010 A 
ATOM     40  C   UNL A   1      37.376  32.631  32.940  1.00  0.00    -0.014 A 
BRANCH  40  41
ATOM     41  C   UNL A   1      38.788  32.009  32.543  1.00  0.00     0.031 A 
ATOM     42  C   UNL A   1      39.144  30.623  31.894  1.00  0.00     0.074 A 
ATOM     43  C   UNL A   1      39.909  32.716  32.770  1.00  0.00     0.049 A 
ATOM     44  N   UNL A   1      39.562  30.334  30.679  1.00  0.00    -0.248 NA
ATOM     45  C   UNL A   1      39.096  29.399  32.731  1.00  0.00     0.031 C 
ATOM     46  C   UNL A   1      41.269  32.377  32.360  1.00  0.00     0.029 A 
ATOM     47  N   UNL A   1      40.069  33.711  33.733  1.00  0.00    -0.354 N 
ATOM     48  C   UNL A   1      39.588  28.929  30.530  1.00  0.00     0.074 A 
ATOM     49  C   UNL A   1      39.097  28.433  31.813  1.00  0.00     0.031 C 
ATOM     50  C   UNL A   1      42.100  32.824  33.314  1.00  0.00     0.029 A 
ATOM     51  C   UNL A   1      41.257  33.335  34.388  1.00  0.00     0.049 A 
ATOM     52  H   UNL A   1      39.490  34.487  33.913  1.00  0.00     0.167 HD
ATOM     53  C   UNL A   1      40.677  28.254  30.044  1.00  0.00     0.037 A 
ATOM     54  C   UNL A   1      41.185  32.806  35.644  1.00  0.00     0.037 A 
ATOM     55  C   UNL A   1      41.853  28.441  30.854  1.00  0.00     0.049 A 
ATOM     56  C   UNL A   1      41.788  31.419  35.722  1.00  0.00     0.074 A 
ATOM     57  C   UNL A   1      42.936  29.287  30.759  1.00  0.00     0.029 A 
ATOM     58  N   UNL A   1      41.895  27.883  32.123  1.00  0.00    -0.354 N 
ATOM     59  N   UNL A   1      41.831  30.555  34.741  1.00  0.00    -0.248 NA
ATOM     60  C   UNL A   1      42.430  30.934  36.937  1.00  0.00     0.031 C 
ATOM     61  C   UNL A   1      43.460  29.432  32.073  1.00  0.00     0.029 A 
ATOM     62  C   UNL A   1      42.737  28.615  32.930  1.00  0.00     0.049 A 
ATOM     63  H   UNL A   1      41.395  27.084  32.405  1.00  0.00     0.167 HD
ATOM     64  C   UNL A   1      42.519  29.441  35.161  1.00  0.00     0.074 A 
ATOM     65  C   UNL A   1      42.862  29.727  36.543  1.00  0.00     0.031 C 
ATOM     66  C   UNL A   1      42.795  28.367  34.362  1.00  0.00     0.037 A 
BRANCH  53  67
ATOM     67  C   UNL A   1      40.561  27.442  28.777  1.00  0.00     0.064 A 
ATOM     68  C   UNL A   1      41.295  27.762  27.616  1.00  0.00     0.173 A 
ATOM     69  C   UNL A   1      39.729  26.304  28.671  1.00  0.00     0.173 A 
ATOM     70  F   UNL A   1      42.146  28.797  27.605  1.00  0.00    -0.203 F 
ATOM     71  C   UNL A   1      41.174  27.027  26.427  1.00  0.00     0.198 A 
ATOM     72  C   UNL A   1      39.610  25.571  27.481  1.00  0.00     0.198 A 
ATOM     73  F   UNL A   1      39.032  25.861  29.729  1.00  0.00    -0.203 F 
ATOM     74  F   UNL A   1      41.886  27.378  25.347  1.00  0.00    -0.200 F 
ATOM     75  C   UNL A   1      40.325  25.937  26.358  1.00  0.00     0.200 A 
ATOM     76  F   UNL A   1      38.802  24.500  27.435  1.00  0.00    -0.200 F 
ATOM     77  F   UNL A   1      40.205  25.240  25.219  1.00  0.00    -0.200 F 
ENDBRANCH  53  67
BRANCH  54  78
ATOM     78  C   UNL A   1      40.058  33.326  36.491  1.00  0.00     0.064 A 
ATOM     79  C   UNL A   1      38.998  32.444  36.827  1.00  0.00     0.173 A 
ATOM     80  C   UNL A   1      40.105  34.540  37.191  1.00  0.00     0.173 A 
ATOM     81  F   UNL A   1      38.877  31.265  36.191  1.00  0.00    -0.203 F 
ATOM     82  C   UNL A   1      38.131  32.696  37.888  1.00  0.00     0.198 A 
ATOM     83  C   UNL A   1      39.199  34.812  38.232  1.00  0.00     0.198 A 
ATOM     84  F   UNL A   1      41.084  35.424  36.957  1.00  0.00    -0.203 F 
ATOM     85  F   UNL A   1      37.257  31.754  38.274  1.00  0.00    -0.200 F 
ATOM     86  C   UNL A   1      38.239  33.876  38.599  1.00  0.00     0.200 A 
ATOM     87  F   UNL A   1      39.334  35.930  38.959  1.00  0.00    -0.200 F 
ATOM     88  F   UNL A   1      37.477  34.076  39.684  1.00  0.00    -0.200 F 
ENDBRANCH  54  78
BRANCH  66  89
ATOM     89  C   UNL A   1      43.246  27.017  34.876  1.00  0.00     0.064 A 
ATOM     90  C   UNL A   1      42.368  25.941  35.100  1.00  0.00     0.173 A 
ATOM     91  C   UNL A   1      44.620  26.718  35.029  1.00  0.00     0.173 A 
ATOM     92  F   UNL A   1      41.059  26.044  34.833  1.00  0.00    -0.203 F 
ATOM     93  C   UNL A   1      42.817  24.698  35.550  1.00  0.00     0.198 A 
ATOM     94  C   UNL A   1      45.071  25.455  35.414  1.00  0.00     0.198 A 
ATOM     95  F   UNL A   1      45.568  27.632  34.773  1.00  0.00    -0.203 F 
ATOM     96  F   UNL A   1      41.929  23.728  35.809  1.00  0.00    -0.200 F 
ATOM     97  C   UNL A   1      44.167  24.452  35.702  1.00  0.00     0.200 A 
ATOM     98  F   UNL A   1      46.386  25.210  35.483  1.00  0.00    -0.200 F 
ATOM     99  F   UNL A   1      44.597  23.246  36.096  1.00  0.00    -0.200 F 
ENDBRANCH  66  89
ENDBRANCH  40  41
ENDBRANCH  33  35
ENDBRANCH  32  33
ENDBRANCH  31  32
ENDBRANCH  30  31
ENDBRANCH  29  30
ENDBRANCH  28  29
ENDBRANCH   1  28
TORSDOF 20
ENDMDL
MODEL 2
REMARK VINA RESULT:     -12.1      0.657      1.673
REMARK SMILES Cc1ccc(C(=O)OCCOCCOCCOC(=O)c2ccc(-c3c4nc(c(-c5c(F)c(F)c(F)c(F)c5F)c5ccc([nH]5)c(-c5c(F)c(F)c(F)c(F)c5F)c5nc(c(-c6c(F)c(F)c(F)c(F)c6F)c6ccc3[nH]6)C=C5)C=C4)cc2)c(Oc2cccc(F)c2C(N)=O)c1
REMARK SMILES IDX 12 1 11 2 10 3 9 4 8 5 6 6 7 7 5 8 1 9 2 10 3 11 95 12 4 13
REMARK SMILES IDX 83 14 84 15 85 16 86 17 91 18 87 19 89 20 88 21 90 22 92 23
REMARK SMILES IDX 93 24 94 25 13 28 14 29 15 30 16 31 17 32 18 33 19 34 20 35
REMARK SMILES IDX 21 36 82 37 22 38 81 39 23 40 24 41 25 42 75 43 26 44 80 45
REMARK SMILES IDX 74 46 76 47 27 48 79 49 73 50 72 51 28 53 60 54 40 55 59 56
REMARK SMILES IDX 41 57 44 58 58 59 77 60 42 61 43 62 57 64 78 65 45 66 29 67
REMARK SMILES IDX 30 68 38 69 31 70 32 71 36 72 39 73 33 74 34 75 37 76 35 77
REMARK SMILES IDX 61 78 62 79 70 80 63 81 64 82 68 83 71 84 65 85 66 86 69 87
REMARK SMILES IDX 67 88 46 89 47 90 55 91 48 92 49 93 53 94 56 95 50 96 51 97
REMARK SMILES IDX 54 98 52 99
REMARK H PARENT 93 26 93 27 76 52 44 63
REMARK Flexibility Score: inf
ROOT
ATOM      1  C   UNL A   1      34.397  32.717  28.891  1.00  0.00     0.188 C 
ENDROOT
BRANCH   1   2
ATOM      2  O   UNL A   1      34.151  31.531  28.101  1.00  0.00    -0.376 OA
BRANCH   2   3
ATOM      3  C   UNL A   1      32.980  31.217  27.337  1.00  0.00     0.202 C 
BRANCH   3   4
ATOM      4  C   UNL A   1      32.739  29.750  26.499  1.00  0.00     0.261 C 
BRANCH   4   5
ATOM      5  O   UNL A   1      31.979  28.396  26.823  1.00  0.00    -0.460 OA
BRANCH   5   6
ATOM      6  C   UNL A   1      31.440  27.290  26.195  1.00  0.00     0.342 C 
ATOM      7  O   UNL A   1      30.592  26.521  26.604  1.00  0.00    -0.246 OA
BRANCH   6   8
ATOM      8  C   UNL A   1      31.778  26.833  24.832  1.00  0.00     0.102 A 
ATOM      9  C   UNL A   1      32.604  25.516  20.818  1.00  0.00     0.044 C 
ATOM     10  C   UNL A   1      32.281  25.933  22.222  1.00  0.00    -0.047 A 
ATOM     11  C   UNL A   1      31.346  26.946  22.421  1.00  0.00     0.004 A 
ATOM     12  C   UNL A   1      32.963  25.390  23.331  1.00  0.00     0.051 A 
ATOM     13  C   UNL A   1      31.091  27.381  23.714  1.00  0.00     0.020 A 
ATOM     14  C   UNL A   1      32.717  25.858  24.630  1.00  0.00     0.142 A 
BRANCH  14  15
ATOM     15  O   UNL A   1      33.402  25.570  25.769  1.00  0.00    -0.455 OA
BRANCH  15  16
ATOM     16  C   UNL A   1      34.076  24.409  25.867  1.00  0.00     0.143 A 
ATOM     17  C   UNL A   1      35.416  24.430  25.469  1.00  0.00     0.048 A 
ATOM     18  C   UNL A   1      33.395  23.244  26.203  1.00  0.00     0.117 A 
ATOM     19  C   UNL A   1      36.131  23.247  25.472  1.00  0.00     0.007 A 
ATOM     20  C   UNL A   1      34.138  22.076  26.240  1.00  0.00     0.139 A 
ATOM     21  C   UNL A   1      35.494  22.074  25.877  1.00  0.00     0.040 A 
ATOM     22  F   UNL A   1      33.577  20.913  26.588  1.00  0.00    -0.206 F 
BRANCH  18  23
ATOM     23  C   UNL A   1      31.943  23.252  26.545  1.00  0.00     0.255 C 
ATOM     24  N   UNL A   1      31.037  23.067  25.529  1.00  0.00    -0.365 N 
ATOM     25  O   UNL A   1      31.552  23.456  27.685  1.00  0.00    -0.269 OA
ATOM     26  H   UNL A   1      31.353  22.902  24.611  1.00  0.00     0.159 HD
ATOM     27  H   UNL A   1      30.071  23.099  25.719  1.00  0.00     0.159 HD
ENDBRANCH  18  23
ENDBRANCH  15  16
ENDBRANCH  14  15
ENDBRANCH   6   8
ENDBRANCH   5   6
ENDBRANCH   4   5
ENDBRANCH   3   4
ENDBRANCH   2   3
ENDBRANCH   1   2
BRANCH   1  28
ATOM     28  C   UNL A   1      33.816  34.137  28.715  1.00  0.00     0.188 C 
BRANCH  28  29
ATOM     29  O   UNL A   1      32.856  34.525  29.679  1.00  0.00    -0.376 OA
BRANCH  29  30
ATOM     30  C   UNL A   1      32.844  35.927  29.971  1.00  0.00     0.202 C 
BRANCH  30  31
ATOM     31  C   UNL A   1      32.845  36.285  31.477  1.00  0.00     0.261 C 
BRANCH  31  32
ATOM     32  O   UNL A   1      33.187  35.143  32.293  1.00  0.00    -0.460 OA
BRANCH  32  33
ATOM     33  C   UNL A   1      34.072  35.393  33.306  1.00  0.00     0.338 C 
ATOM     34  O   UNL A   1      34.194  36.469  33.875  1.00  0.00    -0.246 OA
BRANCH  33  35
ATOM     35  C   UNL A   1      35.012  34.246  33.451  1.00  0.00     0.060 A 
ATOM     36  C   UNL A   1      35.970  34.129  34.465  1.00  0.00     0.016 A 
ATOM     37  C   UNL A   1      35.151  33.423  32.380  1.00  0.00     0.016 A 
ATOM     38  C   UNL A   1      37.163  33.347  34.276  1.00  0.00     0.010 A 
ATOM     39  C   UNL A   1      36.395  32.834  32.202  1.00  0.00     0.010 A 
ATOM     40  C   UNL A   1      37.488  32.734  33.072  1.00  0.00    -0.014 A 
BRANCH  40  41
ATOM     41  C   UNL A   1      38.879  32.088  32.643  1.00  0.00     0.031 A 
ATOM     42  C   UNL A   1      39.197  30.691  31.996  1.00  0.00     0.074 A 
ATOM     43  C   UNL A   1      40.016  32.779  32.834  1.00  0.00     0.049 A 
ATOM     44  N   UNL A   1      39.578  30.387  30.773  1.00  0.00    -0.248 NA
ATOM     45  C   UNL A   1      39.153  29.475  32.844  1.00  0.00     0.031 C 
ATOM     46  C   UNL A   1      41.360  32.416  32.392  1.00  0.00     0.029 A 
ATOM     47  N   UNL A   1      40.216  33.779  33.786  1.00  0.00    -0.354 N 
ATOM     48  C   UNL A   1      39.580  28.980  30.635  1.00  0.00     0.074 A 
ATOM     49  C   UNL A   1      39.115  28.501  31.934  1.00  0.00     0.031 C 
ATOM     50  C   UNL A   1      42.222  32.858  33.320  1.00  0.00     0.029 A 
ATOM     51  C   UNL A   1      41.416  33.390  34.412  1.00  0.00     0.049 A 
ATOM     52  H   UNL A   1      39.654  34.565  33.973  1.00  0.00     0.167 HD
ATOM     53  C   UNL A   1      40.645  28.285  30.127  1.00  0.00     0.037 A 
ATOM     54  C   UNL A   1      41.369  32.872  35.673  1.00  0.00     0.037 A 
ATOM     55  C   UNL A   1      41.845  28.460  30.904  1.00  0.00     0.049 A 
ATOM     56  C   UNL A   1      41.952  31.477  35.747  1.00  0.00     0.074 A 
ATOM     57  C   UNL A   1      42.938  29.289  30.773  1.00  0.00     0.029 A 
ATOM     58  N   UNL A   1      41.911  27.912  32.175  1.00  0.00    -0.354 N 
ATOM     59  N   UNL A   1      41.956  30.604  34.772  1.00  0.00    -0.248 NA
ATOM     60  C   UNL A   1      42.619  30.991  36.948  1.00  0.00     0.031 C 
ATOM     61  C   UNL A   1      43.498  29.436  32.072  1.00  0.00     0.029 A 
ATOM     62  C   UNL A   1      42.786  28.637  32.954  1.00  0.00     0.049 A 
ATOM     63  H   UNL A   1      41.408  27.122  32.477  1.00  0.00     0.167 HD
ATOM     64  C   UNL A   1      42.639  29.484  35.184  1.00  0.00     0.074 A 
ATOM     65  C   UNL A   1      43.023  29.775  36.553  1.00  0.00     0.031 C 
ATOM     66  C   UNL A   1      42.878  28.399  34.386  1.00  0.00     0.037 A 
BRANCH  53  67
ATOM     67  C   UNL A   1      40.484  27.465  28.869  1.00  0.00     0.064 A 
ATOM     68  C   UNL A   1      39.629  26.344  28.813  1.00  0.00     0.173 A 
ATOM     69  C   UNL A   1      41.160  27.769  27.666  1.00  0.00     0.173 A 
ATOM     70  F   UNL A   1      38.906  25.978  29.881  1.00  0.00    -0.203 F 
ATOM     71  C   UNL A   1      39.493  25.563  27.656  1.00  0.00     0.198 A 
ATOM     72  C   UNL A   1      41.022  26.986  26.510  1.00  0.00     0.198 A 
ATOM     73  F   UNL A   1      41.950  28.851  27.575  1.00  0.00    -0.203 F 
ATOM     74  F   UNL A   1      38.675  24.501  27.657  1.00  0.00    -0.200 F 
ATOM     75  C   UNL A   1      40.197  25.879  26.508  1.00  0.00     0.200 A 
ATOM     76  F   UNL A   1      41.690  27.319  25.394  1.00  0.00    -0.200 F 
ATOM     77  F   UNL A   1      40.071  25.127  25.405  1.00  0.00    -0.200 F 
ENDBRANCH  53  67
BRANCH  54  78
ATOM     78  C   UNL A   1      40.272  33.416  36.546  1.00  0.00     0.064 A 
ATOM     79  C   UNL A   1      39.196  32.560  36.896  1.00  0.00     0.173 A 
ATOM     80  C   UNL A   1      40.364  34.623  37.252  1.00  0.00     0.173 A 
ATOM     81  F   UNL A   1      39.032  31.389  36.255  1.00  0.00    -0.203 F 
ATOM     82  C   UNL A   1      38.356  32.827  37.976  1.00  0.00     0.198 A 
ATOM     83  C   UNL A   1      39.486  34.912  38.312  1.00  0.00     0.198 A 
ATOM     84  F   UNL A   1      41.362  35.483  37.005  1.00  0.00    -0.203 F 
ATOM     85  F   UNL A   1      37.465  31.906  38.373  1.00  0.00    -0.200 F 
ATOM     86  C   UNL A   1      38.509  33.999  38.692  1.00  0.00     0.200 A 
ATOM     87  F   UNL A   1      39.664  36.021  39.043  1.00  0.00    -0.200 F 
ATOM     88  F   UNL A   1      37.773  34.212  39.793  1.00  0.00    -0.200 F 
ENDBRANCH  54  78
BRANCH  66  89
ATOM     89  C   UNL A   1      43.322  27.047  34.899  1.00  0.00     0.064 A 
ATOM     90  C   UNL A   1      44.639  26.768  35.306  1.00  0.00     0.173 A 
ATOM     91  C   UNL A   1      42.385  26.013  35.134  1.00  0.00     0.173 A 
ATOM     92  F   UNL A   1      45.587  27.715  35.290  1.00  0.00    -0.203 F 
ATOM     93  C   UNL A   1      45.015  25.518  35.801  1.00  0.00     0.198 A 
ATOM     94  C   UNL A   1      42.751  24.788  35.692  1.00  0.00     0.198 A 
ATOM     95  F   UNL A   1      41.082  26.175  34.863  1.00  0.00    -0.203 F 
ATOM     96  F   UNL A   1      46.298  25.287  36.112  1.00  0.00    -0.200 F 
ATOM     97  C   UNL A   1      44.071  24.530  36.000  1.00  0.00     0.200 A 
ATOM     98  F   UNL A   1      41.812  23.867  35.949  1.00  0.00    -0.200 F 
ATOM     99  F   UNL A   1      44.427  23.345  36.512  1.00  0.00    -0.200 F 
ENDBRANCH  66  89
ENDBRANCH  40  41
ENDBRANCH  33  35
ENDBRANCH  32  33
ENDBRANCH  31  32
ENDBRANCH  30  31
ENDBRANCH  29  30
ENDBRANCH  28  29
ENDBRANCH   1  28
TORSDOF 20
ENDMDL
MODEL 3
REMARK VINA RESULT:     -11.4      3.465      8.252
REMARK SMILES Cc1ccc(C(=O)OCCOCCOCCOC(=O)c2ccc(-c3c4nc(c(-c5c(F)c(F)c(F)c(F)c5F)c5ccc([nH]5)c(-c5c(F)c(F)c(F)c(F)c5F)c5nc(c(-c6c(F)c(F)c(F)c(F)c6F)c6ccc3[nH]6)C=C5)C=C4)cc2)c(Oc2cccc(F)c2C(N)=O)c1
REMARK SMILES IDX 12 1 11 2 10 3 9 4 8 5 6 6 7 7 5 8 1 9 2 10 3 11 95 12 4 13
REMARK SMILES IDX 83 14 84 15 85 16 86 17 91 18 87 19 89 20 88 21 90 22 92 23
REMARK SMILES IDX 93 24 94 25 13 28 14 29 15 30 16 31 17 32 18 33 19 34 20 35
REMARK SMILES IDX 21 36 82 37 22 38 81 39 23 40 24 41 25 42 75 43 26 44 80 45
REMARK SMILES IDX 74 46 76 47 27 48 79 49 73 50 72 51 28 53 60 54 40 55 59 56
REMARK SMILES IDX 41 57 44 58 58 59 77 60 42 61 43 62 57 64 78 65 45 66 29 67
REMARK SMILES IDX 30 68 38 69 31 70 32 71 36 72 39 73 33 74 34 75 37 76 35 77
REMARK SMILES IDX 61 78 62 79 70 80 63 81 64 82 68 83 71 84 65 85 66 86 69 87
REMARK SMILES IDX 67 88 46 89 47 90 55 91 48 92 49 93 53 94 56 95 50 96 51 97
REMARK SMILES IDX 54 98 52 99
REMARK H PARENT 93 26 93 27 76 52 44 63
REMARK Flexibility Score: inf
ROOT
ATOM      1  C   UNL A   1      34.344  32.155  28.017  1.00  0.00     0.188 C 
ENDROOT
BRANCH   1   2
ATOM      2  O   UNL A   1      33.545  30.951  27.955  1.00  0.00    -0.376 OA
BRANCH   2   3
ATOM      3  C   UNL A   1      32.979  30.337  26.791  1.00  0.00     0.202 C 
BRANCH   3   4
ATOM      4  C   UNL A   1      33.802  29.224  25.791  1.00  0.00     0.261 C 
BRANCH   4   5
ATOM      5  O   UNL A   1      33.891  28.992  24.225  1.00  0.00    -0.460 OA
BRANCH   5   6
ATOM      6  C   UNL A   1      33.123  28.573  23.156  1.00  0.00     0.342 C 
ATOM      7  O   UNL A   1      33.486  28.211  22.054  1.00  0.00    -0.246 OA
BRANCH   6   8
ATOM      8  C   UNL A   1      31.652  28.443  23.160  1.00  0.00     0.102 A 
ATOM      9  C   UNL A   1      27.352  28.227  23.164  1.00  0.00     0.044 C 
ATOM     10  C   UNL A   1      28.848  28.333  23.208  1.00  0.00    -0.047 A 
ATOM     11  C   UNL A   1      29.475  29.287  22.411  1.00  0.00     0.004 A 
ATOM     12  C   UNL A   1      29.631  27.437  23.964  1.00  0.00     0.051 A 
ATOM     13  C   UNL A   1      30.862  29.347  22.397  1.00  0.00     0.020 A 
ATOM     14  C   UNL A   1      31.032  27.488  23.920  1.00  0.00     0.142 A 
BRANCH  14  15
ATOM     15  O   UNL A   1      31.921  26.601  24.442  1.00  0.00    -0.455 OA
BRANCH  15  16
ATOM     16  C   UNL A   1      31.580  25.304  24.558  1.00  0.00     0.143 A 
ATOM     17  C   UNL A   1      30.964  24.926  25.755  1.00  0.00     0.048 A 
ATOM     18  C   UNL A   1      31.978  24.397  23.582  1.00  0.00     0.117 A 
ATOM     19  C   UNL A   1      30.667  23.591  25.959  1.00  0.00     0.007 A 
ATOM     20  C   UNL A   1      31.635  23.071  23.786  1.00  0.00     0.139 A 
ATOM     21  C   UNL A   1      30.987  22.668  24.963  1.00  0.00     0.040 A 
ATOM     22  F   UNL A   1      31.943  22.133  22.883  1.00  0.00    -0.206 F 
BRANCH  18  23
ATOM     23  C   UNL A   1      32.704  24.832  22.354  1.00  0.00     0.255 C 
ATOM     24  N   UNL A   1      31.973  25.374  21.325  1.00  0.00    -0.365 N 
ATOM     25  O   UNL A   1      33.912  24.680  22.233  1.00  0.00    -0.269 OA
ATOM     26  H   UNL A   1      31.001  25.496  21.423  1.00  0.00     0.159 HD
ATOM     27  H   UNL A   1      32.420  25.640  20.490  1.00  0.00     0.159 HD
ENDBRANCH  18  23
ENDBRANCH  15  16
ENDBRANCH  14  15
ENDBRANCH   6   8
ENDBRANCH   5   6
ENDBRANCH   4   5
ENDBRANCH   3   4
ENDBRANCH   2   3
ENDBRANCH   1   2
BRANCH   1  28
ATOM     28  C   UNL A   1      34.619  33.075  29.227  1.00  0.00     0.188 C 
BRANCH  28  29
ATOM     29  O   UNL A   1      34.520  34.463  28.970  1.00  0.00    -0.376 OA
BRANCH  29  30
ATOM     30  C   UNL A   1      33.179  34.964  28.927  1.00  0.00     0.202 C 
BRANCH  30  31
ATOM     31  C   UNL A   1      32.848  36.049  29.979  1.00  0.00     0.261 C 
BRANCH  31  32
ATOM     32  O   UNL A   1      32.367  35.466  31.209  1.00  0.00    -0.460 OA
BRANCH  32  33
ATOM     33  C   UNL A   1      33.042  35.843  32.338  1.00  0.00     0.338 C 
ATOM     34  O   UNL A   1      32.876  36.900  32.929  1.00  0.00    -0.246 OA
BRANCH  33  35
ATOM     35  C   UNL A   1      34.160  34.893  32.599  1.00  0.00     0.060 A 
ATOM     36  C   UNL A   1      34.042  33.716  33.349  1.00  0.00     0.016 A 
ATOM     37  C   UNL A   1      35.420  35.339  32.355  1.00  0.00     0.016 A 
ATOM     38  C   UNL A   1      35.180  33.143  34.019  1.00  0.00     0.010 A 
ATOM     39  C   UNL A   1      36.429  34.833  33.163  1.00  0.00     0.010 A 
ATOM     40  C   UNL A   1      36.431  33.745  34.043  1.00  0.00    -0.014 A 
BRANCH  40  41
ATOM     41  C   UNL A   1      37.681  33.375  34.959  1.00  0.00     0.031 A 
ATOM     42  C   UNL A   1      38.705  34.303  35.708  1.00  0.00     0.074 A 
ATOM     43  C   UNL A   1      37.983  32.083  35.176  1.00  0.00     0.049 A 
ATOM     44  N   UNL A   1      38.840  34.559  36.992  1.00  0.00    -0.248 NA
ATOM     45  C   UNL A   1      39.767  34.986  34.928  1.00  0.00     0.031 C 
ATOM     46  C   UNL A   1      38.997  31.549  36.082  1.00  0.00     0.029 A 
ATOM     47  N   UNL A   1      37.660  31.016  34.339  1.00  0.00    -0.354 N 
ATOM     48  C   UNL A   1      39.802  35.583  37.152  1.00  0.00     0.074 A 
ATOM     49  C   UNL A   1      40.188  35.916  35.784  1.00  0.00     0.031 C 
ATOM     50  C   UNL A   1      39.495  30.438  35.517  1.00  0.00     0.029 A 
ATOM     51  C   UNL A   1      38.886  30.338  34.197  1.00  0.00     0.049 A 
ATOM     52  H   UNL A   1      36.787  30.791  33.944  1.00  0.00     0.167 HD
ATOM     53  C   UNL A   1      40.852  35.485  38.026  1.00  0.00     0.037 A 
ATOM     54  C   UNL A   1      39.562  30.429  33.015  1.00  0.00     0.037 A 
ATOM     55  C   UNL A   1      41.719  34.373  37.731  1.00  0.00     0.049 A 
ATOM     56  C   UNL A   1      40.951  31.005  33.188  1.00  0.00     0.074 A 
ATOM     57  C   UNL A   1      41.808  33.091  38.229  1.00  0.00     0.029 A 
ATOM     58  N   UNL A   1      42.493  34.407  36.581  1.00  0.00    -0.354 N 
ATOM     59  N   UNL A   1      41.311  31.853  34.117  1.00  0.00    -0.248 NA
ATOM     60  C   UNL A   1      42.054  30.612  32.319  1.00  0.00     0.031 C 
ATOM     61  C   UNL A   1      42.418  32.300  37.216  1.00  0.00     0.029 A 
ATOM     62  C   UNL A   1      42.758  33.125  36.155  1.00  0.00     0.049 A 
ATOM     63  H   UNL A   1      42.806  35.227  36.136  1.00  0.00     0.167 HD
ATOM     64  C   UNL A   1      42.661  32.087  34.004  1.00  0.00     0.074 A 
ATOM     65  C   UNL A   1      43.073  31.295  32.860  1.00  0.00     0.031 C 
ATOM     66  C   UNL A   1      43.372  32.885  34.858  1.00  0.00     0.037 A 
BRANCH  53  67
ATOM     67  C   UNL A   1      40.991  36.474  39.158  1.00  0.00     0.064 A 
ATOM     68  C   UNL A   1      41.906  37.546  39.105  1.00  0.00     0.173 A 
ATOM     69  C   UNL A   1      40.209  36.406  40.333  1.00  0.00     0.173 A 
ATOM     70  F   UNL A   1      42.678  37.737  38.026  1.00  0.00    -0.203 F 
ATOM     71  C   UNL A   1      42.058  38.454  40.163  1.00  0.00     0.198 A 
ATOM     72  C   UNL A   1      40.362  37.315  41.390  1.00  0.00     0.198 A 
ATOM     73  F   UNL A   1      39.257  35.469  40.473  1.00  0.00    -0.203 F 
ATOM     74  F   UNL A   1      42.950  39.451  40.068  1.00  0.00    -0.200 F 
ATOM     75  C   UNL A   1      41.293  38.333  41.309  1.00  0.00     0.200 A 
ATOM     76  F   UNL A   1      39.595  37.202  42.486  1.00  0.00    -0.200 F 
ATOM     77  F   UNL A   1      41.444  39.198  42.322  1.00  0.00    -0.200 F 
ENDBRANCH  53  67
BRANCH  54  78
ATOM     78  C   UNL A   1      38.696  30.567  31.794  1.00  0.00     0.064 A 
ATOM     79  C   UNL A   1      38.551  31.850  31.207  1.00  0.00     0.173 A 
ATOM     80  C   UNL A   1      38.233  29.480  31.041  1.00  0.00     0.173 A 
ATOM     81  F   UNL A   1      38.959  32.945  31.872  1.00  0.00    -0.203 F 
ATOM     82  C   UNL A   1      38.106  32.021  29.897  1.00  0.00     0.198 A 
ATOM     83  C   UNL A   1      37.741  29.659  29.735  1.00  0.00     0.198 A 
ATOM     84  F   UNL A   1      38.351  28.228  31.506  1.00  0.00    -0.203 F 
ATOM     85  F   UNL A   1      38.148  33.236  29.330  1.00  0.00    -0.200 F 
ATOM     86  C   UNL A   1      37.711  30.923  29.156  1.00  0.00     0.200 A 
ATOM     87  F   UNL A   1      37.408  28.593  28.995  1.00  0.00    -0.200 F 
ATOM     88  F   UNL A   1      37.381  31.069  27.865  1.00  0.00    -0.200 F 
ENDBRANCH  54  78
BRANCH  66  89
ATOM     89  C   UNL A   1      44.758  33.418  34.569  1.00  0.00     0.064 A 
ATOM     90  C   UNL A   1      44.998  34.655  33.945  1.00  0.00     0.173 A 
ATOM     91  C   UNL A   1      45.909  32.749  35.048  1.00  0.00     0.173 A 
ATOM     92  F   UNL A   1      43.989  35.463  33.593  1.00  0.00    -0.203 F 
ATOM     93  C   UNL A   1      46.289  35.133  33.715  1.00  0.00     0.198 A 
ATOM     94  C   UNL A   1      47.196  33.262  34.876  1.00  0.00     0.198 A 
ATOM     95  F   UNL A   1      45.817  31.597  35.728  1.00  0.00    -0.203 F 
ATOM     96  F   UNL A   1      46.460  36.289  33.057  1.00  0.00    -0.200 F 
ATOM     97  C   UNL A   1      47.388  34.441  34.185  1.00  0.00     0.200 A 
ATOM     98  F   UNL A   1      48.245  32.617  35.404  1.00  0.00    -0.200 F 
ATOM     99  F   UNL A   1      48.624  34.922  33.998  1.00  0.00    -0.200 F 
ENDBRANCH  66  89
ENDBRANCH  40  41
ENDBRANCH  33  35
ENDBRANCH  32  33
ENDBRANCH  31  32
ENDBRANCH  30  31
ENDBRANCH  29  30
ENDBRANCH  28  29
ENDBRANCH   1  28
TORSDOF 20
ENDMDL
