MODEL 1
REMARK VINA RESULT:     -11.9      0.000      0.000
REMARK SMILES Cc1ccccc1NC(=O)c1ccccc1NC(=O)CCC(=O)OCCOCCOCCOC(=O)c1ccc(-c2c3nc(c(-c4c(F)c(F)c(F)c(F)c4F)c4ccc([nH]4)c(-c4c(F)c(F)c(F)c(F)c4F)c4nc(c(-c5c(F)c(F)c(F)c(F)c5F)c5ccc2[nH]5)C=C4)C=C3)cc1
REMARK SMILES IDX 27 1 26 2 25 3 24 4 22 5 23 6 21 7 20 8 18 9 17 10 19 12
REMARK SMILES IDX 16 13 11 14 12 15 13 16 15 17 14 18 9 19 8 20 10 22 7 23
REMARK SMILES IDX 1 24 2 25 3 26 4 27 6 28 5 29 28 30 29 31 30 32 31 33 32 34
REMARK SMILES IDX 33 35 34 36 35 37 36 38 37 39 98 40 38 41 97 42 39 43 40 44
REMARK SMILES IDX 41 45 91 46 42 47 96 48 90 49 92 50 43 51 95 52 89 53 88 54
REMARK SMILES IDX 44 56 76 57 56 58 75 59 57 60 60 61 74 62 93 63 58 64 59 65
REMARK SMILES IDX 73 67 94 68 61 69 45 70 46 71 54 72 47 73 48 74 52 75 55 76
REMARK SMILES IDX 49 77 50 78 53 79 51 80 77 81 78 82 86 83 79 84 80 85 84 86
REMARK SMILES IDX 87 87 81 88 82 89 85 90 83 91 62 92 63 93 71 94 64 95 65 96
REMARK SMILES IDX 69 97 72 98 66 99 67 100 70 101 68 102
REMARK H PARENT 17 11 8 21 92 55 60 66
REMARK Flexibility Score: inf
ROOT
ATOM      1  O   UNL A   1      42.326  21.116  25.606  1.00  0.00    -0.376 OA
ENDROOT
BRANCH   1   2
ATOM      2  C   UNL A   1      40.867  20.968  26.240  1.00  0.00     0.202 C 
BRANCH   2   3
ATOM      3  C   UNL A   1      39.017  22.099  25.834  1.00  0.00     0.261 C 
BRANCH   3   4
ATOM      4  O   UNL A   1      37.764  21.611  24.985  1.00  0.00    -0.463 OA
BRANCH   4   5
ATOM      5  C   UNL A   1      36.999  22.520  24.369  1.00  0.00     0.306 C 
ATOM      6  O   UNL A   1      36.900  22.575  23.152  1.00  0.00    -0.252 OA
BRANCH   5   7
ATOM      7  C   UNL A   1      36.121  23.352  25.276  1.00  0.00     0.132 C 
BRANCH   7   8
ATOM      8  C   UNL A   1      35.154  24.455  24.978  1.00  0.00     0.112 C 
BRANCH   8   9
ATOM      9  C   UNL A   1      34.166  24.646  26.015  1.00  0.00     0.224 C 
ATOM     10  N   UNL A   1      33.438  25.761  26.197  1.00  0.00    -0.325 N 
ATOM     11  H   UNL A   1      33.298  25.938  27.156  1.00  0.00     0.169 HD
ATOM     12  O   UNL A   1      33.982  23.677  26.754  1.00  0.00    -0.275 OA
BRANCH  10  13
ATOM     13  C   UNL A   1      32.819  26.748  25.407  1.00  0.00     0.054 A 
ATOM     14  C   UNL A   1      31.061  26.419  25.146  1.00  0.00     0.063 A 
ATOM     15  C   UNL A   1      30.185  27.211  23.761  1.00  0.00     0.016 A 
ATOM     16  C   UNL A   1      31.052  28.320  22.647  1.00  0.00     0.001 A 
ATOM     17  C   UNL A   1      33.672  27.889  24.280  1.00  0.00     0.027 A 
ATOM     18  C   UNL A   1      32.805  28.665  22.894  1.00  0.00     0.002 A 
BRANCH  14  19
ATOM     19  C   UNL A   1      30.297  25.271  25.750  1.00  0.00     0.257 C 
ATOM     20  N   UNL A   1      30.204  23.982  25.255  1.00  0.00    -0.322 N 
ATOM     21  H   UNL A   1      29.287  23.626  25.319  1.00  0.00     0.170 HD
ATOM     22  O   UNL A   1      29.530  25.579  26.668  1.00  0.00    -0.269 OA
BRANCH  20  23
ATOM     23  C   UNL A   1      31.097  23.046  24.681  1.00  0.00     0.044 A 
ATOM     24  C   UNL A   1      31.342  24.603  22.629  1.00  0.00     0.046 C 
ATOM     25  C   UNL A   1      31.675  23.353  23.420  1.00  0.00    -0.027 A 
ATOM     26  C   UNL A   1      32.779  22.598  22.971  1.00  0.00     0.005 A 
ATOM     27  C   UNL A   1      33.317  21.583  23.759  1.00  0.00     0.000 A 
ATOM     28  C   UNL A   1      31.606  21.979  25.431  1.00  0.00     0.026 A 
ATOM     29  C   UNL A   1      32.725  21.267  24.979  1.00  0.00     0.002 A 
ENDBRANCH  20  23
ENDBRANCH  14  19
ENDBRANCH  10  13
ENDBRANCH   8   9
ENDBRANCH   7   8
ENDBRANCH   5   7
ENDBRANCH   4   5
ENDBRANCH   3   4
ENDBRANCH   2   3
ENDBRANCH   1   2
BRANCH   1  30
ATOM     30  C   UNL A   1      43.083  22.318  25.884  1.00  0.00     0.188 C 
BRANCH  30  31
ATOM     31  C   UNL A   1      42.304  23.507  26.453  1.00  0.00     0.188 C 
BRANCH  31  32
ATOM     32  O   UNL A   1      43.164  24.629  26.589  1.00  0.00    -0.376 OA
BRANCH  32  33
ATOM     33  C   UNL A   1      42.573  25.760  27.223  1.00  0.00     0.202 C 
BRANCH  33  34
ATOM     34  C   UNL A   1      41.555  26.448  26.311  1.00  0.00     0.261 C 
BRANCH  34  35
ATOM     35  O   UNL A   1      40.330  26.623  27.057  1.00  0.00    -0.460 OA
BRANCH  35  36
ATOM     36  C   UNL A   1      40.059  27.882  27.503  1.00  0.00     0.338 C 
ATOM     37  O   UNL A   1      39.951  28.874  26.802  1.00  0.00    -0.246 OA
BRANCH  36  38
ATOM     38  C   UNL A   1      40.107  27.920  29.001  1.00  0.00     0.060 A 
ATOM     39  C   UNL A   1      38.992  27.654  29.819  1.00  0.00     0.016 A 
ATOM     40  C   UNL A   1      41.220  28.461  29.610  1.00  0.00     0.016 A 
ATOM     41  C   UNL A   1      38.977  27.993  31.214  1.00  0.00     0.010 A 
ATOM     42  C   UNL A   1      41.153  28.825  30.950  1.00  0.00     0.010 A 
ATOM     43  C   UNL A   1      40.067  28.632  31.809  1.00  0.00    -0.014 A 
BRANCH  43  44
ATOM     44  C   UNL A   1      40.081  29.510  33.040  1.00  0.00     0.031 A 
ATOM     45  C   UNL A   1      40.777  29.276  34.388  1.00  0.00     0.074 A 
ATOM     46  C   UNL A   1      39.916  30.816  32.693  1.00  0.00     0.049 A 
ATOM     47  N   UNL A   1      40.931  30.206  35.295  1.00  0.00    -0.248 NA
ATOM     48  C   UNL A   1      41.440  28.043  34.828  1.00  0.00     0.031 C 
ATOM     49  C   UNL A   1      40.543  32.002  33.280  1.00  0.00     0.029 A 
ATOM     50  N   UNL A   1      39.139  31.355  31.655  1.00  0.00    -0.354 N 
ATOM     51  C   UNL A   1      42.011  29.882  36.114  1.00  0.00     0.074 A 
ATOM     52  C   UNL A   1      42.172  28.462  35.884  1.00  0.00     0.031 C 
ATOM     53  C   UNL A   1      39.958  33.105  32.801  1.00  0.00     0.029 A 
ATOM     54  C   UNL A   1      38.812  32.672  32.049  1.00  0.00     0.049 A 
ATOM     55  H   UNL A   1      38.876  30.905  30.820  1.00  0.00     0.167 HD
ATOM     56  C   UNL A   1      42.748  30.887  36.722  1.00  0.00     0.037 A 
ATOM     57  C   UNL A   1      37.520  32.984  32.374  1.00  0.00     0.037 A 
ATOM     58  C   UNL A   1      42.042  32.167  36.660  1.00  0.00     0.049 A 
ATOM     59  C   UNL A   1      37.322  33.356  33.834  1.00  0.00     0.074 A 
ATOM     60  C   UNL A   1      42.277  33.452  36.190  1.00  0.00     0.029 A 
ATOM     61  N   UNL A   1      40.741  32.161  37.106  1.00  0.00    -0.354 N 
ATOM     62  N   UNL A   1      38.311  33.426  34.687  1.00  0.00    -0.248 NA
ATOM     63  C   UNL A   1      36.050  33.653  34.490  1.00  0.00     0.031 C 
ATOM     64  C   UNL A   1      41.030  34.152  36.211  1.00  0.00     0.029 A 
ATOM     65  C   UNL A   1      40.078  33.309  36.756  1.00  0.00     0.049 A 
ATOM     66  H   UNL A   1      40.336  31.423  37.614  1.00  0.00     0.167 HD
ATOM     67  C   UNL A   1      37.841  33.558  35.962  1.00  0.00     0.074 A 
ATOM     68  C   UNL A   1      36.423  33.778  35.780  1.00  0.00     0.031 C 
ATOM     69  C   UNL A   1      38.655  33.364  37.041  1.00  0.00     0.037 A 
BRANCH  56  70
ATOM     70  C   UNL A   1      44.180  30.855  37.298  1.00  0.00     0.064 A 
ATOM     71  C   UNL A   1      45.268  30.391  36.505  1.00  0.00     0.173 A 
ATOM     72  C   UNL A   1      44.528  31.116  38.638  1.00  0.00     0.173 A 
ATOM     73  F   UNL A   1      45.115  30.140  35.197  1.00  0.00    -0.203 F 
ATOM     74  C   UNL A   1      46.561  30.181  37.014  1.00  0.00     0.198 A 
ATOM     75  C   UNL A   1      45.824  30.907  39.147  1.00  0.00     0.198 A 
ATOM     76  F   UNL A   1      43.628  31.573  39.517  1.00  0.00    -0.203 F 
ATOM     77  F   UNL A   1      47.537  29.731  36.211  1.00  0.00    -0.200 F 
ATOM     78  C   UNL A   1      46.839  30.439  38.339  1.00  0.00     0.200 A 
ATOM     79  F   UNL A   1      46.078  31.164  40.440  1.00  0.00    -0.200 F 
ATOM     80  F   UNL A   1      48.074  30.254  38.829  1.00  0.00    -0.200 F 
ENDBRANCH  56  70
BRANCH  57  81
ATOM     81  C   UNL A   1      36.599  32.384  31.361  1.00  0.00     0.064 A 
ATOM     82  C   UNL A   1      36.618  33.053  30.114  1.00  0.00     0.173 A 
ATOM     83  C   UNL A   1      36.337  31.003  31.338  1.00  0.00     0.173 A 
ATOM     84  F   UNL A   1      36.880  34.370  30.075  1.00  0.00    -0.203 F 
ATOM     85  C   UNL A   1      36.605  32.350  28.911  1.00  0.00     0.198 A 
ATOM     86  C   UNL A   1      36.282  30.308  30.120  1.00  0.00     0.198 A 
ATOM     87  F   UNL A   1      36.336  30.295  32.478  1.00  0.00    -0.203 F 
ATOM     88  F   UNL A   1      36.854  32.995  27.761  1.00  0.00    -0.200 F 
ATOM     89  C   UNL A   1      36.476  30.973  28.917  1.00  0.00     0.200 A 
ATOM     90  F   UNL A   1      36.171  28.971  30.116  1.00  0.00    -0.200 F 
ATOM     91  F   UNL A   1      36.604  30.284  27.774  1.00  0.00    -0.200 F 
ENDBRANCH  57  81
BRANCH  69  92
ATOM     92  C   UNL A   1      38.210  33.027  38.450  1.00  0.00     0.064 A 
ATOM     93  C   UNL A   1      38.323  33.928  39.520  1.00  0.00     0.173 A 
ATOM     94  C   UNL A   1      37.397  31.888  38.692  1.00  0.00     0.173 A 
ATOM     95  F   UNL A   1      38.966  35.094  39.383  1.00  0.00    -0.203 F 
ATOM     96  C   UNL A   1      37.697  33.696  40.748  1.00  0.00     0.198 A 
ATOM     97  C   UNL A   1      36.717  31.698  39.895  1.00  0.00     0.198 A 
ATOM     98  F   UNL A   1      37.183  30.970  37.736  1.00  0.00    -0.203 F 
ATOM     99  F   UNL A   1      37.850  34.581  41.743  1.00  0.00    -0.200 F 
ATOM    100  C   UNL A   1      36.880  32.596  40.929  1.00  0.00     0.200 A 
ATOM    101  F   UNL A   1      35.869  30.668  40.031  1.00  0.00    -0.200 F 
ATOM    102  F   UNL A   1      36.229  32.420  42.087  1.00  0.00    -0.200 F 
ENDBRANCH  69  92
ENDBRANCH  43  44
ENDBRANCH  36  38
ENDBRANCH  35  36
ENDBRANCH  34  35
ENDBRANCH  33  34
ENDBRANCH  32  33
ENDBRANCH  31  32
ENDBRANCH  30  31
ENDBRANCH   1  30
TORSDOF 22
ENDMDL
MODEL 2
REMARK VINA RESULT:     -11.9      4.021      8.489
REMARK SMILES Cc1ccccc1NC(=O)c1ccccc1NC(=O)CCC(=O)OCCOCCOCCOC(=O)c1ccc(-c2c3nc(c(-c4c(F)c(F)c(F)c(F)c4F)c4ccc([nH]4)c(-c4c(F)c(F)c(F)c(F)c4F)c4nc(c(-c5c(F)c(F)c(F)c(F)c5F)c5ccc2[nH]5)C=C4)C=C3)cc1
REMARK SMILES IDX 27 1 26 2 25 3 24 4 22 5 23 6 21 7 20 8 18 9 17 10 19 12
REMARK SMILES IDX 16 13 11 14 12 15 13 16 15 17 14 18 9 19 8 20 10 22 7 23
REMARK SMILES IDX 1 24 2 25 3 26 4 27 6 28 5 29 28 30 29 31 30 32 31 33 32 34
REMARK SMILES IDX 33 35 34 36 35 37 36 38 37 39 98 40 38 41 97 42 39 43 40 44
REMARK SMILES IDX 41 45 91 46 42 47 96 48 90 49 92 50 43 51 95 52 89 53 88 54
REMARK SMILES IDX 44 56 76 57 56 58 75 59 57 60 60 61 74 62 93 63 58 64 59 65
REMARK SMILES IDX 73 67 94 68 61 69 45 70 46 71 54 72 47 73 48 74 52 75 55 76
REMARK SMILES IDX 49 77 50 78 53 79 51 80 77 81 78 82 86 83 79 84 80 85 84 86
REMARK SMILES IDX 87 87 81 88 82 89 85 90 83 91 62 92 63 93 71 94 64 95 65 96
REMARK SMILES IDX 69 97 72 98 66 99 67 100 70 101 68 102
REMARK H PARENT 17 11 8 21 92 55 60 66
REMARK Flexibility Score: inf
ROOT
ATOM      1  O   UNL A   1      34.230  20.657  25.966  1.00  0.00    -0.376 OA
ENDROOT
BRANCH   1   2
ATOM      2  C   UNL A   1      32.872  21.382  25.541  1.00  0.00     0.202 C 
BRANCH   2   3
ATOM      3  C   UNL A   1      32.246  22.207  23.593  1.00  0.00     0.261 C 
BRANCH   3   4
ATOM      4  O   UNL A   1      30.903  22.997  23.276  1.00  0.00    -0.463 OA
BRANCH   4   5
ATOM      5  C   UNL A   1      30.769  24.255  23.712  1.00  0.00     0.306 C 
ATOM      6  O   UNL A   1      30.736  24.535  24.901  1.00  0.00    -0.252 OA
BRANCH   5   7
ATOM      7  C   UNL A   1      30.849  25.325  22.646  1.00  0.00     0.132 C 
BRANCH   7   8
ATOM      8  C   UNL A   1      31.995  25.813  21.817  1.00  0.00     0.112 C 
BRANCH   8   9
ATOM      9  C   UNL A   1      33.254  25.820  22.528  1.00  0.00     0.224 C 
ATOM     10  N   UNL A   1      33.577  26.664  23.523  1.00  0.00    -0.325 N 
ATOM     11  H   UNL A   1      34.528  26.914  23.478  1.00  0.00     0.169 HD
ATOM     12  O   UNL A   1      34.058  24.951  22.189  1.00  0.00    -0.275 OA
BRANCH  10  13
ATOM     13  C   UNL A   1      32.942  27.293  24.611  1.00  0.00     0.054 A 
ATOM     14  C   UNL A   1      32.047  28.784  24.119  1.00  0.00     0.063 A 
ATOM     15  C   UNL A   1      31.617  30.038  25.367  1.00  0.00     0.016 A 
ATOM     16  C   UNL A   1      32.075  29.809  27.087  1.00  0.00     0.001 A 
ATOM     17  C   UNL A   1      33.378  27.072  26.361  1.00  0.00     0.027 A 
ATOM     18  C   UNL A   1      32.964  28.324  27.599  1.00  0.00     0.002 A 
BRANCH  14  19
ATOM     19  C   UNL A   1      31.914  29.286  22.707  1.00  0.00     0.257 C 
ATOM     20  N   UNL A   1      30.739  29.561  22.028  1.00  0.00    -0.322 N 
ATOM     21  H   UNL A   1      30.762  29.235  21.099  1.00  0.00     0.170 HD
ATOM     22  O   UNL A   1      32.954  29.257  22.041  1.00  0.00    -0.269 OA
BRANCH  20  23
ATOM     23  C   UNL A   1      29.512  30.195  22.337  1.00  0.00     0.044 A 
ATOM     24  C   UNL A   1      28.556  27.902  23.057  1.00  0.00     0.046 C 
ATOM     25  C   UNL A   1      28.457  29.402  22.863  1.00  0.00    -0.027 A 
ATOM     26  C   UNL A   1      27.347  30.043  23.452  1.00  0.00     0.005 A 
ATOM     27  C   UNL A   1      27.291  31.431  23.546  1.00  0.00     0.000 A 
ATOM     28  C   UNL A   1      29.410  31.592  22.377  1.00  0.00     0.026 A 
ATOM     29  C   UNL A   1      28.314  32.203  22.999  1.00  0.00     0.002 A 
ENDBRANCH  20  23
ENDBRANCH  14  19
ENDBRANCH  10  13
ENDBRANCH   8   9
ENDBRANCH   7   8
ENDBRANCH   5   7
ENDBRANCH   4   5
ENDBRANCH   3   4
ENDBRANCH   2   3
ENDBRANCH   1   2
BRANCH   1  30
ATOM     30  C   UNL A   1      35.162  20.269  24.928  1.00  0.00     0.188 C 
BRANCH  30  31
ATOM     31  C   UNL A   1      36.253  21.281  24.567  1.00  0.00     0.188 C 
BRANCH  31  32
ATOM     32  O   UNL A   1      37.145  21.441  25.661  1.00  0.00    -0.376 OA
BRANCH  32  33
ATOM     33  C   UNL A   1      38.498  21.696  25.294  1.00  0.00     0.202 C 
BRANCH  33  34
ATOM     34  C   UNL A   1      39.406  21.793  26.522  1.00  0.00     0.261 C 
BRANCH  34  35
ATOM     35  O   UNL A   1      39.275  23.122  27.074  1.00  0.00    -0.460 OA
BRANCH  35  36
ATOM     36  C   UNL A   1      40.428  23.748  27.443  1.00  0.00     0.338 C 
ATOM     37  O   UNL A   1      41.468  23.193  27.753  1.00  0.00    -0.246 OA
BRANCH  36  38
ATOM     38  C   UNL A   1      40.187  25.219  27.607  1.00  0.00     0.060 A 
ATOM     39  C   UNL A   1      40.488  26.169  26.611  1.00  0.00     0.016 A 
ATOM     40  C   UNL A   1      39.873  25.698  28.861  1.00  0.00     0.016 A 
ATOM     41  C   UNL A   1      40.541  27.574  26.896  1.00  0.00     0.010 A 
ATOM     42  C   UNL A   1      39.985  27.060  29.115  1.00  0.00     0.010 A 
ATOM     43  C   UNL A   1      40.321  28.053  28.190  1.00  0.00    -0.014 A 
BRANCH  43  44
ATOM     44  C   UNL A   1      40.814  29.342  28.808  1.00  0.00     0.031 A 
ATOM     45  C   UNL A   1      40.008  30.571  29.254  1.00  0.00     0.074 A 
ATOM     46  C   UNL A   1      41.970  29.128  29.494  1.00  0.00     0.049 A 
ATOM     47  N   UNL A   1      40.500  31.527  30.000  1.00  0.00    -0.248 NA
ATOM     48  C   UNL A   1      38.585  30.822  29.004  1.00  0.00     0.031 C 
ATOM     49  C   UNL A   1      42.409  29.732  30.754  1.00  0.00     0.029 A 
ATOM     50  N   UNL A   1      43.016  28.241  29.191  1.00  0.00    -0.354 N 
ATOM     51  C   UNL A   1      39.461  32.178  30.664  1.00  0.00     0.074 A 
ATOM     52  C   UNL A   1      38.302  31.813  29.879  1.00  0.00     0.031 C 
ATOM     53  C   UNL A   1      43.689  29.421  30.980  1.00  0.00     0.029 A 
ATOM     54  C   UNL A   1      44.178  28.781  29.789  1.00  0.00     0.049 A 
ATOM     55  H   UNL A   1      42.952  27.410  28.668  1.00  0.00     0.167 HD
ATOM     56  C   UNL A   1      39.689  32.774  31.895  1.00  0.00     0.037 A 
ATOM     57  C   UNL A   1      45.176  29.286  29.002  1.00  0.00     0.037 A 
ATOM     58  C   UNL A   1      41.123  32.906  32.158  1.00  0.00     0.049 A 
ATOM     59  C   UNL A   1      45.378  30.786  29.145  1.00  0.00     0.074 A 
ATOM     60  C   UNL A   1      42.032  32.520  33.133  1.00  0.00     0.029 A 
ATOM     61  N   UNL A   1      41.865  33.505  31.167  1.00  0.00    -0.354 N 
ATOM     62  N   UNL A   1      44.695  31.515  29.989  1.00  0.00    -0.248 NA
ATOM     63  C   UNL A   1      46.306  31.614  28.377  1.00  0.00     0.031 C 
ATOM     64  C   UNL A   1      43.344  32.751  32.614  1.00  0.00     0.029 A 
ATOM     65  C   UNL A   1      43.211  33.335  31.367  1.00  0.00     0.049 A 
ATOM     66  H   UNL A   1      41.478  33.995  30.407  1.00  0.00     0.167 HD
ATOM     67  C   UNL A   1      44.909  32.843  29.762  1.00  0.00     0.074 A 
ATOM     68  C   UNL A   1      45.987  32.854  28.799  1.00  0.00     0.031 C 
ATOM     69  C   UNL A   1      44.099  33.795  30.314  1.00  0.00     0.037 A 
BRANCH  56  70
ATOM     70  C   UNL A   1      38.691  33.166  33.006  1.00  0.00     0.064 A 
ATOM     71  C   UNL A   1      38.613  32.408  34.208  1.00  0.00     0.173 A 
ATOM     72  C   UNL A   1      37.697  34.159  32.898  1.00  0.00     0.173 A 
ATOM     73  F   UNL A   1      39.515  31.454  34.486  1.00  0.00    -0.203 F 
ATOM     74  C   UNL A   1      37.622  32.607  35.185  1.00  0.00     0.198 A 
ATOM     75  C   UNL A   1      36.705  34.358  33.877  1.00  0.00     0.198 A 
ATOM     76  F   UNL A   1      37.633  34.972  31.837  1.00  0.00    -0.203 F 
ATOM     77  F   UNL A   1      37.604  31.847  36.290  1.00  0.00    -0.200 F 
ATOM     78  C   UNL A   1      36.665  33.583  35.017  1.00  0.00     0.200 A 
ATOM     79  F   UNL A   1      35.780  35.314  33.699  1.00  0.00    -0.200 F 
ATOM     80  F   UNL A   1      35.724  33.787  35.951  1.00  0.00    -0.200 F 
ENDBRANCH  56  70
BRANCH  57  81
ATOM     81  C   UNL A   1      45.431  28.346  27.868  1.00  0.00     0.064 A 
ATOM     82  C   UNL A   1      45.995  27.113  28.272  1.00  0.00     0.173 A 
ATOM     83  C   UNL A   1      44.599  28.325  26.734  1.00  0.00     0.173 A 
ATOM     84  F   UNL A   1      46.783  27.072  29.358  1.00  0.00    -0.203 F 
ATOM     85  C   UNL A   1      45.573  25.904  27.722  1.00  0.00     0.198 A 
ATOM     86  C   UNL A   1      44.214  27.106  26.157  1.00  0.00     0.198 A 
ATOM     87  F   UNL A   1      44.004  29.449  26.310  1.00  0.00    -0.203 F 
ATOM     88  F   UNL A   1      45.956  24.748  28.283  1.00  0.00    -0.200 F 
ATOM     89  C   UNL A   1      44.652  25.900  26.690  1.00  0.00     0.200 A 
ATOM     90  F   UNL A   1      43.311  27.090  25.165  1.00  0.00    -0.200 F 
ATOM     91  F   UNL A   1      44.141  24.740  26.254  1.00  0.00    -0.200 F 
ENDBRANCH  57  81
BRANCH  69  92
ATOM     92  C   UNL A   1      43.918  35.215  29.816  1.00  0.00     0.064 A 
ATOM     93  C   UNL A   1      43.110  35.538  28.715  1.00  0.00     0.173 A 
ATOM     94  C   UNL A   1      44.330  36.313  30.616  1.00  0.00     0.173 A 
ATOM     95  F   UNL A   1      42.563  34.586  27.949  1.00  0.00    -0.203 F 
ATOM     96  C   UNL A   1      42.764  36.859  28.417  1.00  0.00     0.198 A 
ATOM     97  C   UNL A   1      43.923  37.622  30.355  1.00  0.00     0.198 A 
ATOM     98  F   UNL A   1      45.076  36.131  31.717  1.00  0.00    -0.203 F 
ATOM     99  F   UNL A   1      42.003  37.115  27.343  1.00  0.00    -0.200 F 
ATOM    100  C   UNL A   1      43.152  37.896  29.245  1.00  0.00     0.200 A 
ATOM    101  F   UNL A   1      44.242  38.607  31.208  1.00  0.00    -0.200 F 
ATOM    102  F   UNL A   1      42.756  39.150  28.989  1.00  0.00    -0.200 F 
ENDBRANCH  69  92
ENDBRANCH  43  44
ENDBRANCH  36  38
ENDBRANCH  35  36
ENDBRANCH  34  35
ENDBRANCH  33  34
ENDBRANCH  32  33
ENDBRANCH  31  32
ENDBRANCH  30  31
ENDBRANCH   1  30
TORSDOF 22
ENDMDL
MODEL 3
REMARK VINA RESULT:     -11.7      1.341      2.760
REMARK SMILES Cc1ccccc1NC(=O)c1ccccc1NC(=O)CCC(=O)OCCOCCOCCOC(=O)c1ccc(-c2c3nc(c(-c4c(F)c(F)c(F)c(F)c4F)c4ccc([nH]4)c(-c4c(F)c(F)c(F)c(F)c4F)c4nc(c(-c5c(F)c(F)c(F)c(F)c5F)c5ccc2[nH]5)C=C4)C=C3)cc1
REMARK SMILES IDX 27 1 26 2 25 3 24 4 22 5 23 6 21 7 20 8 18 9 17 10 19 12
REMARK SMILES IDX 16 13 11 14 12 15 13 16 15 17 14 18 9 19 8 20 10 22 7 23
REMARK SMILES IDX 1 24 2 25 3 26 4 27 6 28 5 29 28 30 29 31 30 32 31 33 32 34
REMARK SMILES IDX 33 35 34 36 35 37 36 38 37 39 98 40 38 41 97 42 39 43 40 44
REMARK SMILES IDX 41 45 91 46 42 47 96 48 90 49 92 50 43 51 95 52 89 53 88 54
REMARK SMILES IDX 44 56 76 57 56 58 75 59 57 60 60 61 74 62 93 63 58 64 59 65
REMARK SMILES IDX 73 67 94 68 61 69 45 70 46 71 54 72 47 73 48 74 52 75 55 76
REMARK SMILES IDX 49 77 50 78 53 79 51 80 77 81 78 82 86 83 79 84 80 85 84 86
REMARK SMILES IDX 87 87 81 88 82 89 85 90 83 91 62 92 63 93 71 94 64 95 65 96
REMARK SMILES IDX 69 97 72 98 66 99 67 100 70 101 68 102
REMARK H PARENT 17 11 8 21 92 55 60 66
REMARK Flexibility Score: inf
ROOT
ATOM      1  O   UNL A   1      42.688  24.514  25.233  1.00  0.00    -0.376 OA
ENDROOT
BRANCH   1   2
ATOM      2  C   UNL A   1      42.036  24.147  26.643  1.00  0.00     0.202 C 
BRANCH   2   3
ATOM      3  C   UNL A   1      40.158  23.088  27.113  1.00  0.00     0.261 C 
BRANCH   3   4
ATOM      4  O   UNL A   1      39.609  21.763  26.425  1.00  0.00    -0.463 OA
BRANCH   4   5
ATOM      5  C   UNL A   1      38.492  21.824  25.691  1.00  0.00     0.306 C 
ATOM      6  O   UNL A   1      38.020  20.843  25.135  1.00  0.00    -0.252 OA
BRANCH   5   7
ATOM      7  C   UNL A   1      37.748  23.139  25.747  1.00  0.00     0.132 C 
BRANCH   7   8
ATOM      8  C   UNL A   1      36.815  23.791  24.776  1.00  0.00     0.112 C 
BRANCH   8   9
ATOM      9  C   UNL A   1      36.167  22.853  23.887  1.00  0.00     0.224 C 
ATOM     10  N   UNL A   1      35.233  21.959  24.250  1.00  0.00    -0.325 N 
ATOM     11  H   UNL A   1      35.337  21.117  23.750  1.00  0.00     0.169 HD
ATOM     12  O   UNL A   1      36.503  22.930  22.703  1.00  0.00    -0.275 OA
BRANCH  10  13
ATOM     13  C   UNL A   1      34.147  21.882  25.143  1.00  0.00     0.054 A 
ATOM     14  C   UNL A   1      32.598  22.437  24.394  1.00  0.00     0.063 A 
ATOM     15  C   UNL A   1      31.207  22.942  25.453  1.00  0.00     0.016 A 
ATOM     16  C   UNL A   1      31.356  22.893  27.241  1.00  0.00     0.001 A 
ATOM     17  C   UNL A   1      34.269  21.823  26.954  1.00  0.00     0.027 A 
ATOM     18  C   UNL A   1      32.892  22.337  28.008  1.00  0.00     0.002 A 
BRANCH  14  19
ATOM     19  C   UNL A   1      32.438  22.869  22.961  1.00  0.00     0.257 C 
ATOM     20  N   UNL A   1      32.010  24.104  22.506  1.00  0.00    -0.322 N 
ATOM     21  H   UNL A   1      31.380  24.024  21.752  1.00  0.00     0.170 HD
ATOM     22  O   UNL A   1      32.513  21.958  22.129  1.00  0.00    -0.269 OA
BRANCH  20  23
ATOM     23  C   UNL A   1      32.252  25.454  22.853  1.00  0.00     0.044 A 
ATOM     24  C   UNL A   1      29.832  25.613  23.754  1.00  0.00     0.046 C 
ATOM     25  C   UNL A   1      31.210  26.185  23.485  1.00  0.00    -0.027 A 
ATOM     26  C   UNL A   1      31.515  27.416  24.104  1.00  0.00     0.005 A 
ATOM     27  C   UNL A   1      32.820  27.900  24.125  1.00  0.00     0.000 A 
ATOM     28  C   UNL A   1      33.547  25.987  22.824  1.00  0.00     0.026 A 
ATOM     29  C   UNL A   1      33.831  27.194  23.477  1.00  0.00     0.002 A 
ENDBRANCH  20  23
ENDBRANCH  14  19
ENDBRANCH  10  13
ENDBRANCH   8   9
ENDBRANCH   7   8
ENDBRANCH   5   7
ENDBRANCH   4   5
ENDBRANCH   3   4
ENDBRANCH   2   3
ENDBRANCH   1   2
BRANCH   1  30
ATOM     30  C   UNL A   1      43.833  25.399  25.208  1.00  0.00     0.188 C 
BRANCH  30  31
ATOM     31  C   UNL A   1      43.684  26.739  25.936  1.00  0.00     0.188 C 
BRANCH  31  32
ATOM     32  O   UNL A   1      43.279  27.744  25.018  1.00  0.00    -0.376 OA
BRANCH  32  33
ATOM     33  C   UNL A   1      42.053  28.391  25.346  1.00  0.00     0.202 C 
BRANCH  33  34
ATOM     34  C   UNL A   1      42.081  28.968  26.764  1.00  0.00     0.261 C 
BRANCH  34  35
ATOM     35  O   UNL A   1      40.737  28.926  27.293  1.00  0.00    -0.460 OA
BRANCH  35  36
ATOM     36  C   UNL A   1      40.323  27.738  27.816  1.00  0.00     0.338 C 
ATOM     37  O   UNL A   1      39.869  26.802  27.179  1.00  0.00    -0.246 OA
BRANCH  36  38
ATOM     38  C   UNL A   1      40.318  27.807  29.315  1.00  0.00     0.060 A 
ATOM     39  C   UNL A   1      39.163  27.605  30.095  1.00  0.00     0.016 A 
ATOM     40  C   UNL A   1      41.430  28.314  29.953  1.00  0.00     0.016 A 
ATOM     41  C   UNL A   1      39.111  27.975  31.481  1.00  0.00     0.010 A 
ATOM     42  C   UNL A   1      41.329  28.709  31.282  1.00  0.00     0.010 A 
ATOM     43  C   UNL A   1      40.205  28.581  32.104  1.00  0.00    -0.014 A 
BRANCH  43  44
ATOM     44  C   UNL A   1      40.211  29.485  33.316  1.00  0.00     0.031 A 
ATOM     45  C   UNL A   1      40.878  29.267  34.682  1.00  0.00     0.074 A 
ATOM     46  C   UNL A   1      40.076  30.786  32.939  1.00  0.00     0.049 A 
ATOM     47  N   UNL A   1      41.031  30.214  35.572  1.00  0.00    -0.248 NA
ATOM     48  C   UNL A   1      41.511  28.033  35.159  1.00  0.00     0.031 C 
ATOM     49  C   UNL A   1      40.712  31.973  33.513  1.00  0.00     0.029 A 
ATOM     50  N   UNL A   1      39.327  31.316  31.875  1.00  0.00    -0.354 N 
ATOM     51  C   UNL A   1      42.090  29.888  36.418  1.00  0.00     0.074 A 
ATOM     52  C   UNL A   1      42.230  28.462  36.220  1.00  0.00     0.031 C 
ATOM     53  C   UNL A   1      40.155  33.075  33.000  1.00  0.00     0.029 A 
ATOM     54  C   UNL A   1      39.015  32.646  32.235  1.00  0.00     0.049 A 
ATOM     55  H   UNL A   1      39.072  30.853  31.045  1.00  0.00     0.167 HD
ATOM     56  C   UNL A   1      42.832  30.893  37.019  1.00  0.00     0.037 A 
ATOM     57  C   UNL A   1      37.724  32.987  32.530  1.00  0.00     0.037 A 
ATOM     58  C   UNL A   1      42.150  32.184  36.917  1.00  0.00     0.049 A 
ATOM     59  C   UNL A   1      37.505  33.393  33.978  1.00  0.00     0.074 A 
ATOM     60  C   UNL A   1      42.415  33.454  36.425  1.00  0.00     0.029 A 
ATOM     61  N   UNL A   1      40.841  32.210  37.338  1.00  0.00    -0.354 N 
ATOM     62  N   UNL A   1      38.478  33.463  34.848  1.00  0.00    -0.248 NA
ATOM     63  C   UNL A   1      36.226  33.724  34.603  1.00  0.00     0.031 C 
ATOM     64  C   UNL A   1      41.181  34.176  36.408  1.00  0.00     0.029 A 
ATOM     65  C   UNL A   1      40.205  33.360  36.952  1.00  0.00     0.049 A 
ATOM     66  H   UNL A   1      40.413  31.489  37.854  1.00  0.00     0.167 HD
ATOM     67  C   UNL A   1      37.987  33.630  36.110  1.00  0.00     0.074 A 
ATOM     68  C   UNL A   1      36.577  33.871  35.896  1.00  0.00     0.031 C 
ATOM     69  C   UNL A   1      38.777  33.445  37.208  1.00  0.00     0.037 A 
BRANCH  56  70
ATOM     70  C   UNL A   1      44.253  30.850  37.622  1.00  0.00     0.064 A 
ATOM     71  C   UNL A   1      44.497  31.343  38.935  1.00  0.00     0.173 A 
ATOM     72  C   UNL A   1      45.424  30.487  36.929  1.00  0.00     0.173 A 
ATOM     73  F   UNL A   1      43.485  31.690  39.745  1.00  0.00    -0.203 F 
ATOM     74  C   UNL A   1      45.784  31.485  39.481  1.00  0.00     0.198 A 
ATOM     75  C   UNL A   1      46.713  30.629  37.476  1.00  0.00     0.198 A 
ATOM     76  F   UNL A   1      45.375  29.991  35.686  1.00  0.00    -0.203 F 
ATOM     77  F   UNL A   1      45.939  31.968  40.723  1.00  0.00    -0.200 F 
ATOM     78  C   UNL A   1      46.895  31.129  38.748  1.00  0.00     0.200 A 
ATOM     79  F   UNL A   1      47.785  30.276  36.749  1.00  0.00    -0.200 F 
ATOM     80  F   UNL A   1      48.125  31.249  39.268  1.00  0.00    -0.200 F 
ENDBRANCH  56  70
BRANCH  57  81
ATOM     81  C   UNL A   1      36.812  32.381  31.511  1.00  0.00     0.064 A 
ATOM     82  C   UNL A   1      36.894  32.998  30.241  1.00  0.00     0.173 A 
ATOM     83  C   UNL A   1      36.498  31.010  31.535  1.00  0.00     0.173 A 
ATOM     84  F   UNL A   1      37.207  34.301  30.159  1.00  0.00    -0.203 F 
ATOM     85  C   UNL A   1      36.891  32.249  29.066  1.00  0.00     0.198 A 
ATOM     86  C   UNL A   1      36.453  30.270  30.344  1.00  0.00     0.198 A 
ATOM     87  F   UNL A   1      36.434  30.350  32.701  1.00  0.00    -0.203 F 
ATOM     88  F   UNL A   1      37.199  32.837  27.901  1.00  0.00    -0.200 F 
ATOM     89  C   UNL A   1      36.709  30.879  29.122  1.00  0.00     0.200 A 
ATOM     90  F   UNL A   1      36.290  28.939  30.388  1.00  0.00    -0.200 F 
ATOM     91  F   UNL A   1      36.845  30.140  28.012  1.00  0.00    -0.200 F 
ENDBRANCH  57  81
BRANCH  69  92
ATOM     92  C   UNL A   1      38.301  33.146  38.615  1.00  0.00     0.064 A 
ATOM     93  C   UNL A   1      38.381  34.078  39.661  1.00  0.00     0.173 A 
ATOM     94  C   UNL A   1      37.490  32.008  38.870  1.00  0.00     0.173 A 
ATOM     95  F   UNL A   1      39.019  35.245  39.506  1.00  0.00    -0.203 F 
ATOM     96  C   UNL A   1      37.727  33.877  40.880  1.00  0.00     0.198 A 
ATOM     97  C   UNL A   1      36.782  31.848  40.062  1.00  0.00     0.198 A 
ATOM     98  F   UNL A   1      37.305  31.062  37.936  1.00  0.00    -0.203 F 
ATOM     99  F   UNL A   1      37.850  34.792  41.852  1.00  0.00    -0.200 F 
ATOM    100  C   UNL A   1      36.913  32.776  41.073  1.00  0.00     0.200 A 
ATOM    101  F   UNL A   1      35.938  30.815  40.207  1.00  0.00    -0.200 F 
ATOM    102  F   UNL A   1      36.236  32.629  42.219  1.00  0.00    -0.200 F 
ENDBRANCH  69  92
ENDBRANCH  43  44
ENDBRANCH  36  38
ENDBRANCH  35  36
ENDBRANCH  34  35
ENDBRANCH  33  34
ENDBRANCH  32  33
ENDBRANCH  31  32
ENDBRANCH  30  31
ENDBRANCH   1  30
TORSDOF 22
ENDMDL
