MODEL 1
REMARK VINA RESULT:     -10.9      0.000      0.000
REMARK SMILES Cc1cc(Nc2ccc(C(=O)OCCOCCOCCOC(=O)c3ccc(-c4c5nc(c(-c6c(F)c(F)c(F)c(F)c6F)c6ccc([nH]6)c(-c6c(F)c(F)c(F)c(F)c6F)c6nc(c(-c7c(F)c(F)c(F)c(F)c7F)c7ccc4[nH]7)C=C6)C=C5)cc3)cc2)nc(C(C)C)n1
REMARK SMILES IDX 16 1 15 2 14 3 13 4 12 5 10 6 11 7 9 8 6 9 7 10 88 11 8 12
REMARK SMILES IDX 87 13 5 14 4 16 1 17 2 18 3 19 94 20 90 21 89 22 91 23 92 24
REMARK SMILES IDX 93 25 17 26 18 27 19 28 20 29 21 30 22 31 23 32 24 33 25 34
REMARK SMILES IDX 86 35 26 36 85 37 27 38 28 39 29 40 79 41 30 42 84 43 78 44
REMARK SMILES IDX 80 45 31 46 83 47 77 48 76 49 32 51 64 52 44 53 63 54 45 55
REMARK SMILES IDX 48 56 62 57 81 58 46 59 47 60 61 62 82 63 49 64 33 65 34 66
REMARK SMILES IDX 42 67 35 68 36 69 40 70 43 71 37 72 38 73 41 74 39 75 65 76
REMARK SMILES IDX 66 77 74 78 67 79 68 80 72 81 75 82 69 83 70 84 73 85 71 86
REMARK SMILES IDX 50 87 51 88 59 89 52 90 53 91 57 92 60 93 54 94 55 95 58 96
REMARK SMILES IDX 56 97
REMARK H PARENT 5 15 80 50 48 61
REMARK Flexibility Score: inf
ROOT
ATOM      1  C   UNL A   1      39.877  21.999  26.365  1.00  0.00     0.188 C 
ENDROOT
BRANCH   1   2
ATOM      2  O   UNL A   1      38.606  22.006  25.757  1.00  0.00    -0.376 OA
BRANCH   2   3
ATOM      3  C   UNL A   1      38.094  20.858  25.101  1.00  0.00     0.202 C 
BRANCH   3   4
ATOM      4  C   UNL A   1      36.627  20.400  25.126  1.00  0.00     0.261 C 
BRANCH   4   5
ATOM      5  O   UNL A   1      35.680  21.308  25.690  1.00  0.00    -0.460 OA
BRANCH   5   6
ATOM      6  C   UNL A   1      34.383  21.012  25.425  1.00  0.00     0.338 C 
ATOM      7  O   UNL A   1      33.912  19.908  25.210  1.00  0.00    -0.246 OA
BRANCH   6   8
ATOM      8  C   UNL A   1      33.542  22.209  25.635  1.00  0.00     0.060 A 
ATOM      9  C   UNL A   1      32.086  24.533  26.191  1.00  0.00     0.040 A 
ATOM     10  C   UNL A   1      33.434  24.621  25.829  1.00  0.00     0.027 A 
ATOM     11  C   UNL A   1      31.460  23.274  26.194  1.00  0.00     0.027 A 
ATOM     12  C   UNL A   1      34.164  23.462  25.565  1.00  0.00     0.018 A 
ATOM     13  C   UNL A   1      32.178  22.112  25.907  1.00  0.00     0.018 A 
BRANCH   9  14
ATOM     14  N   UNL A   1      31.452  25.650  26.778  1.00  0.00    -0.340 N 
ATOM     15  H   UNL A   1      31.038  25.548  27.666  1.00  0.00     0.168 HD
BRANCH  14  16
ATOM     16  C   UNL A   1      31.388  26.909  26.139  1.00  0.00     0.134 A 
ATOM     17  C   UNL A   1      32.402  30.484  26.623  1.00  0.00     0.067 C 
ATOM     18  C   UNL A   1      31.838  29.216  26.058  1.00  0.00     0.043 A 
ATOM     19  C   UNL A   1      31.960  28.015  26.733  1.00  0.00     0.070 A 
ATOM     20  N   UNL A   1      31.216  29.320  24.865  1.00  0.00    -0.238 NA
ATOM     21  C   UNL A   1      30.706  28.191  24.349  1.00  0.00     0.133 A 
ATOM     22  N   UNL A   1      30.777  26.996  24.947  1.00  0.00    -0.216 NA
BRANCH  21  23
ATOM     23  C   UNL A   1      30.007  28.233  23.011  1.00  0.00     0.051 C 
ATOM     24  C   UNL A   1      28.494  28.119  23.177  1.00  0.00     0.016 C 
ATOM     25  C   UNL A   1      30.398  29.485  22.232  1.00  0.00     0.016 C 
ENDBRANCH  21  23
ENDBRANCH  14  16
ENDBRANCH   9  14
ENDBRANCH   6   8
ENDBRANCH   5   6
ENDBRANCH   4   5
ENDBRANCH   3   4
ENDBRANCH   2   3
ENDBRANCH   1   2
BRANCH   1  26
ATOM     26  C   UNL A   1      40.556  20.658  26.713  1.00  0.00     0.188 C 
BRANCH  26  27
ATOM     27  O   UNL A   1      41.658  20.185  25.967  1.00  0.00    -0.376 OA
BRANCH  27  28
ATOM     28  C   UNL A   1      42.210  18.911  26.249  1.00  0.00     0.202 C 
BRANCH  28  29
ATOM     29  C   UNL A   1      43.503  18.401  25.597  1.00  0.00     0.261 C 
BRANCH  29  30
ATOM     30  O   UNL A   1      43.858  19.008  24.351  1.00  0.00    -0.460 OA
BRANCH  30  31
ATOM     31  C   UNL A   1      45.079  19.600  24.323  1.00  0.00     0.338 C 
ATOM     32  O   UNL A   1      46.125  19.140  23.907  1.00  0.00    -0.246 OA
BRANCH  31  33
ATOM     33  C   UNL A   1      44.934  21.000  24.753  1.00  0.00     0.060 A 
ATOM     34  C   UNL A   1      44.517  21.959  23.818  1.00  0.00     0.016 A 
ATOM     35  C   UNL A   1      45.254  21.364  26.059  1.00  0.00     0.016 A 
ATOM     36  C   UNL A   1      44.420  23.299  24.192  1.00  0.00     0.010 A 
ATOM     37  C   UNL A   1      45.183  22.708  26.424  1.00  0.00     0.010 A 
ATOM     38  C   UNL A   1      44.787  23.682  25.488  1.00  0.00    -0.014 A 
BRANCH  38  39
ATOM     39  C   UNL A   1      44.927  25.111  25.845  1.00  0.00     0.031 A 
ATOM     40  C   UNL A   1      46.290  25.731  25.781  1.00  0.00     0.074 A 
ATOM     41  C   UNL A   1      43.876  25.823  26.284  1.00  0.00     0.049 A 
ATOM     42  N   UNL A   1      46.700  26.893  26.216  1.00  0.00    -0.248 NA
ATOM     43  C   UNL A   1      47.338  24.915  25.150  1.00  0.00     0.031 C 
ATOM     44  C   UNL A   1      42.500  25.338  26.356  1.00  0.00     0.029 A 
ATOM     45  N   UNL A   1      43.818  27.096  26.792  1.00  0.00    -0.354 N 
ATOM     46  C   UNL A   1      48.058  26.939  25.936  1.00  0.00     0.074 A 
ATOM     47  C   UNL A   1      48.406  25.680  25.311  1.00  0.00     0.031 C 
ATOM     48  C   UNL A   1      41.737  26.289  26.922  1.00  0.00     0.029 A 
ATOM     49  C   UNL A   1      42.583  27.425  27.290  1.00  0.00     0.049 A 
ATOM     50  H   UNL A   1      44.586  27.712  26.799  1.00  0.00     0.167 HD
ATOM     51  C   UNL A   1      48.936  27.940  26.186  1.00  0.00     0.037 A 
ATOM     52  C   UNL A   1      42.193  28.498  28.006  1.00  0.00     0.037 A 
ATOM     53  C   UNL A   1      48.581  29.180  26.823  1.00  0.00     0.049 A 
ATOM     54  C   UNL A   1      43.195  29.575  28.333  1.00  0.00     0.074 A 
ATOM     55  C   UNL A   1      49.384  30.273  27.095  1.00  0.00     0.029 A 
ATOM     56  N   UNL A   1      47.315  29.485  27.305  1.00  0.00    -0.354 N 
ATOM     57  N   UNL A   1      44.473  29.632  28.044  1.00  0.00    -0.248 NA
ATOM     58  C   UNL A   1      42.701  30.737  29.086  1.00  0.00     0.031 C 
ATOM     59  C   UNL A   1      48.622  31.211  27.799  1.00  0.00     0.029 A 
ATOM     60  C   UNL A   1      47.323  30.735  27.902  1.00  0.00     0.049 A 
ATOM     61  H   UNL A   1      46.526  28.899  27.233  1.00  0.00     0.167 HD
ATOM     62  C   UNL A   1      44.929  30.844  28.550  1.00  0.00     0.074 A 
ATOM     63  C   UNL A   1      43.788  31.493  29.163  1.00  0.00     0.031 C 
ATOM     64  C   UNL A   1      46.177  31.372  28.503  1.00  0.00     0.037 A 
BRANCH  51  65
ATOM     65  C   UNL A   1      50.372  27.701  25.817  1.00  0.00     0.064 A 
ATOM     66  C   UNL A   1      51.336  27.341  26.772  1.00  0.00     0.173 A 
ATOM     67  C   UNL A   1      50.792  27.847  24.486  1.00  0.00     0.173 A 
ATOM     68  F   UNL A   1      50.990  27.202  28.062  1.00  0.00    -0.203 F 
ATOM     69  C   UNL A   1      52.674  27.184  26.417  1.00  0.00     0.198 A 
ATOM     70  C   UNL A   1      52.124  27.653  24.129  1.00  0.00     0.198 A 
ATOM     71  F   UNL A   1      49.913  28.184  23.531  1.00  0.00    -0.203 F 
ATOM     72  F   UNL A   1      53.587  26.912  27.359  1.00  0.00    -0.200 F 
ATOM     73  C   UNL A   1      53.065  27.336  25.095  1.00  0.00     0.200 A 
ATOM     74  F   UNL A   1      52.498  27.785  22.848  1.00  0.00    -0.200 F 
ATOM     75  F   UNL A   1      54.354  27.188  24.755  1.00  0.00    -0.200 F 
ENDBRANCH  51  65
BRANCH  52  76
ATOM     76  C   UNL A   1      40.789  28.583  28.485  1.00  0.00     0.064 A 
ATOM     77  C   UNL A   1      40.441  28.189  29.783  1.00  0.00     0.173 A 
ATOM     78  C   UNL A   1      39.772  29.085  27.660  1.00  0.00     0.173 A 
ATOM     79  F   UNL A   1      41.374  27.679  30.601  1.00  0.00    -0.203 F 
ATOM     80  C   UNL A   1      39.127  28.290  30.237  1.00  0.00     0.198 A 
ATOM     81  C   UNL A   1      38.464  29.211  28.123  1.00  0.00     0.198 A 
ATOM     82  F   UNL A   1      40.053  29.474  26.407  1.00  0.00    -0.203 F 
ATOM     83  F   UNL A   1      38.814  27.875  31.472  1.00  0.00    -0.200 F 
ATOM     84  C   UNL A   1      38.142  28.810  29.411  1.00  0.00     0.200 A 
ATOM     85  F   UNL A   1      37.519  29.726  27.326  1.00  0.00    -0.200 F 
ATOM     86  F   UNL A   1      36.882  28.918  29.854  1.00  0.00    -0.200 F 
ENDBRANCH  52  76
BRANCH  64  87
ATOM     87  C   UNL A   1      46.378  32.743  29.087  1.00  0.00     0.064 A 
ATOM     88  C   UNL A   1      46.160  33.909  28.339  1.00  0.00     0.173 A 
ATOM     89  C   UNL A   1      46.726  32.888  30.440  1.00  0.00     0.173 A 
ATOM     90  F   UNL A   1      45.839  33.827  27.038  1.00  0.00    -0.203 F 
ATOM     91  C   UNL A   1      46.299  35.168  28.918  1.00  0.00     0.198 A 
ATOM     92  C   UNL A   1      46.833  34.147  31.024  1.00  0.00     0.198 A 
ATOM     93  F   UNL A   1      46.938  31.806  31.203  1.00  0.00    -0.203 F 
ATOM     94  F   UNL A   1      46.124  36.270  28.174  1.00  0.00    -0.200 F 
ATOM     95  C   UNL A   1      46.625  35.286  30.261  1.00  0.00     0.200 A 
ATOM     96  F   UNL A   1      47.130  34.257  32.325  1.00  0.00    -0.200 F 
ATOM     97  F   UNL A   1      46.741  36.498  30.820  1.00  0.00    -0.200 F 
ENDBRANCH  64  87
ENDBRANCH  38  39
ENDBRANCH  31  33
ENDBRANCH  30  31
ENDBRANCH  29  30
ENDBRANCH  28  29
ENDBRANCH  27  28
ENDBRANCH  26  27
ENDBRANCH   1  26
TORSDOF 20
ENDMDL
MODEL 2
REMARK VINA RESULT:     -10.5      5.573     11.433
REMARK SMILES Cc1cc(Nc2ccc(C(=O)OCCOCCOCCOC(=O)c3ccc(-c4c5nc(c(-c6c(F)c(F)c(F)c(F)c6F)c6ccc([nH]6)c(-c6c(F)c(F)c(F)c(F)c6F)c6nc(c(-c7c(F)c(F)c(F)c(F)c7F)c7ccc4[nH]7)C=C6)C=C5)cc3)cc2)nc(C(C)C)n1
REMARK SMILES IDX 16 1 15 2 14 3 13 4 12 5 10 6 11 7 9 8 6 9 7 10 88 11 8 12
REMARK SMILES IDX 87 13 5 14 4 16 1 17 2 18 3 19 94 20 90 21 89 22 91 23 92 24
REMARK SMILES IDX 93 25 17 26 18 27 19 28 20 29 21 30 22 31 23 32 24 33 25 34
REMARK SMILES IDX 86 35 26 36 85 37 27 38 28 39 29 40 79 41 30 42 84 43 78 44
REMARK SMILES IDX 80 45 31 46 83 47 77 48 76 49 32 51 64 52 44 53 63 54 45 55
REMARK SMILES IDX 48 56 62 57 81 58 46 59 47 60 61 62 82 63 49 64 33 65 34 66
REMARK SMILES IDX 42 67 35 68 36 69 40 70 43 71 37 72 38 73 41 74 39 75 65 76
REMARK SMILES IDX 66 77 74 78 67 79 68 80 72 81 75 82 69 83 70 84 73 85 71 86
REMARK SMILES IDX 50 87 51 88 59 89 52 90 53 91 57 92 60 93 54 94 55 95 58 96
REMARK SMILES IDX 56 97
REMARK H PARENT 5 15 80 50 48 61
REMARK Flexibility Score: inf
ROOT
ATOM      1  C   UNL A   1      35.060  35.187  32.051  1.00  0.00     0.188 C 
ENDROOT
BRANCH   1   2
ATOM      2  O   UNL A   1      35.563  34.388  33.096  1.00  0.00    -0.376 OA
BRANCH   2   3
ATOM      3  C   UNL A   1      35.232  33.013  33.200  1.00  0.00     0.202 C 
BRANCH   3   4
ATOM      4  C   UNL A   1      35.937  31.870  32.452  1.00  0.00     0.261 C 
BRANCH   4   5
ATOM      5  O   UNL A   1      37.354  31.786  32.595  1.00  0.00    -0.460 OA
BRANCH   5   6
ATOM      6  C   UNL A   1      37.780  31.439  33.836  1.00  0.00     0.338 C 
ATOM      7  O   UNL A   1      37.188  31.613  34.888  1.00  0.00    -0.246 OA
BRANCH   6   8
ATOM      8  C   UNL A   1      39.001  30.615  33.736  1.00  0.00     0.060 A 
ATOM      9  C   UNL A   1      41.416  29.227  33.465  1.00  0.00     0.040 A 
ATOM     10  C   UNL A   1      41.358  30.385  34.246  1.00  0.00     0.027 A 
ATOM     11  C   UNL A   1      40.234  28.733  32.886  1.00  0.00     0.027 A 
ATOM     12  C   UNL A   1      40.158  31.085  34.372  1.00  0.00     0.018 A 
ATOM     13  C   UNL A   1      39.024  29.414  33.027  1.00  0.00     0.018 A 
BRANCH   9  14
ATOM     14  N   UNL A   1      42.674  28.721  33.068  1.00  0.00    -0.340 N 
ATOM     15  H   UNL A   1      43.279  29.305  32.555  1.00  0.00     0.168 HD
BRANCH  14  16
ATOM     16  C   UNL A   1      43.098  27.410  33.379  1.00  0.00     0.134 A 
ATOM     17  C   UNL A   1      44.884  24.482  31.869  1.00  0.00     0.067 C 
ATOM     18  C   UNL A   1      44.151  25.384  32.814  1.00  0.00     0.043 A 
ATOM     19  C   UNL A   1      43.789  26.666  32.445  1.00  0.00     0.070 A 
ATOM     20  N   UNL A   1      43.873  24.873  34.032  1.00  0.00    -0.238 NA
ATOM     21  C   UNL A   1      43.217  25.671  34.887  1.00  0.00     0.133 A 
ATOM     22  N   UNL A   1      42.826  26.917  34.598  1.00  0.00    -0.216 NA
BRANCH  21  23
ATOM     23  C   UNL A   1      42.884  25.166  36.272  1.00  0.00     0.051 C 
ATOM     24  C   UNL A   1      43.998  25.500  37.261  1.00  0.00     0.016 C 
ATOM     25  C   UNL A   1      41.535  25.705  36.737  1.00  0.00     0.016 C 
ENDBRANCH  21  23
ENDBRANCH  14  16
ENDBRANCH   9  14
ENDBRANCH   6   8
ENDBRANCH   5   6
ENDBRANCH   4   5
ENDBRANCH   3   4
ENDBRANCH   2   3
ENDBRANCH   1   2
BRANCH   1  26
ATOM     26  C   UNL A   1      33.726  34.814  31.370  1.00  0.00     0.188 C 
BRANCH  26  27
ATOM     27  O   UNL A   1      33.507  35.081  30.001  1.00  0.00    -0.376 OA
BRANCH  27  28
ATOM     28  C   UNL A   1      34.299  34.437  29.018  1.00  0.00     0.202 C 
BRANCH  28  29
ATOM     29  C   UNL A   1      33.898  33.104  28.368  1.00  0.00     0.261 C 
BRANCH  29  30
ATOM     30  O   UNL A   1      34.447  31.926  28.968  1.00  0.00    -0.460 OA
BRANCH  30  31
ATOM     31  C   UNL A   1      34.604  30.871  28.128  1.00  0.00     0.338 C 
ATOM     32  O   UNL A   1      33.862  30.506  27.237  1.00  0.00    -0.246 OA
BRANCH  31  33
ATOM     33  C   UNL A   1      35.934  30.283  28.355  1.00  0.00     0.060 A 
ATOM     34  C   UNL A   1      36.220  29.705  29.602  1.00  0.00     0.016 A 
ATOM     35  C   UNL A   1      36.903  30.344  27.356  1.00  0.00     0.016 A 
ATOM     36  C   UNL A   1      37.489  29.186  29.853  1.00  0.00     0.010 A 
ATOM     37  C   UNL A   1      38.179  29.850  27.618  1.00  0.00     0.010 A 
ATOM     38  C   UNL A   1      38.484  29.289  28.873  1.00  0.00    -0.014 A 
BRANCH  38  39
ATOM     39  C   UNL A   1      39.894  28.970  29.187  1.00  0.00     0.031 A 
ATOM     40  C   UNL A   1      40.747  30.042  29.797  1.00  0.00     0.074 A 
ATOM     41  C   UNL A   1      40.422  27.776  28.874  1.00  0.00     0.049 A 
ATOM     42  N   UNL A   1      42.040  30.072  29.988  1.00  0.00    -0.248 NA
ATOM     43  C   UNL A   1      40.040  31.255  30.235  1.00  0.00     0.031 C 
ATOM     44  C   UNL A   1      39.684  26.648  28.312  1.00  0.00     0.029 A 
ATOM     45  N   UNL A   1      41.720  27.334  28.947  1.00  0.00    -0.354 N 
ATOM     46  C   UNL A   1      42.306  31.314  30.545  1.00  0.00     0.074 A 
ATOM     47  C   UNL A   1      41.043  32.016  30.643  1.00  0.00     0.031 C 
ATOM     48  C   UNL A   1      40.549  25.655  28.048  1.00  0.00     0.029 A 
ATOM     49  C   UNL A   1      41.904  26.098  28.382  1.00  0.00     0.049 A 
ATOM     50  H   UNL A   1      42.445  27.853  29.364  1.00  0.00     0.167 HD
ATOM     51  C   UNL A   1      43.499  31.825  30.933  1.00  0.00     0.037 A 
ATOM     52  C   UNL A   1      43.041  25.425  28.116  1.00  0.00     0.037 A 
ATOM     53  C   UNL A   1      44.750  31.123  30.816  1.00  0.00     0.049 A 
ATOM     54  C   UNL A   1      44.367  26.033  28.495  1.00  0.00     0.074 A 
ATOM     55  C   UNL A   1      46.011  31.535  31.206  1.00  0.00     0.029 A 
ATOM     56  N   UNL A   1      44.898  29.865  30.247  1.00  0.00    -0.354 N 
ATOM     57  N   UNL A   1      44.617  27.195  29.047  1.00  0.00    -0.248 NA
ATOM     58  C   UNL A   1      45.569  25.235  28.213  1.00  0.00     0.031 C 
ATOM     59  C   UNL A   1      46.930  30.555  30.815  1.00  0.00     0.029 A 
ATOM     60  C   UNL A   1      46.235  29.500  30.246  1.00  0.00     0.049 A 
ATOM     61  H   UNL A   1      44.161  29.314  29.895  1.00  0.00     0.167 HD
ATOM     62  C   UNL A   1      45.997  27.257  29.207  1.00  0.00     0.074 A 
ATOM     63  C   UNL A   1      46.530  26.012  28.695  1.00  0.00     0.031 C 
ATOM     64  C   UNL A   1      46.751  28.252  29.738  1.00  0.00     0.037 A 
BRANCH  51  65
ATOM     65  C   UNL A   1      43.504  33.229  31.466  1.00  0.00     0.064 A 
ATOM     66  C   UNL A   1      43.459  33.503  32.841  1.00  0.00     0.173 A 
ATOM     67  C   UNL A   1      43.540  34.318  30.582  1.00  0.00     0.173 A 
ATOM     68  F   UNL A   1      43.408  32.497  33.729  1.00  0.00    -0.203 F 
ATOM     69  C   UNL A   1      43.402  34.813  33.310  1.00  0.00     0.198 A 
ATOM     70  C   UNL A   1      43.521  35.628  31.056  1.00  0.00     0.198 A 
ATOM     71  F   UNL A   1      43.589  34.116  29.258  1.00  0.00    -0.203 F 
ATOM     72  F   UNL A   1      43.287  35.048  34.625  1.00  0.00    -0.200 F 
ATOM     73  C   UNL A   1      43.438  35.874  32.418  1.00  0.00     0.200 A 
ATOM     74  F   UNL A   1      43.570  36.652  30.193  1.00  0.00    -0.200 F 
ATOM     75  F   UNL A   1      43.379  37.135  32.870  1.00  0.00    -0.200 F 
ENDBRANCH  51  65
BRANCH  52  76
ATOM     76  C   UNL A   1      42.966  24.110  27.429  1.00  0.00     0.064 A 
ATOM     77  C   UNL A   1      42.612  22.948  28.125  1.00  0.00     0.173 A 
ATOM     78  C   UNL A   1      43.223  23.996  26.054  1.00  0.00     0.173 A 
ATOM     79  F   UNL A   1      42.381  23.002  29.445  1.00  0.00    -0.203 F 
ATOM     80  C   UNL A   1      42.521  21.719  27.474  1.00  0.00     0.198 A 
ATOM     81  C   UNL A   1      43.106  22.773  25.398  1.00  0.00     0.198 A 
ATOM     82  F   UNL A   1      43.569  25.080  25.343  1.00  0.00    -0.203 F 
ATOM     83  F   UNL A   1      42.213  20.616  28.169  1.00  0.00    -0.200 F 
ATOM     84  C   UNL A   1      42.759  21.634  26.109  1.00  0.00     0.200 A 
ATOM     85  F   UNL A   1      43.324  22.698  24.079  1.00  0.00    -0.200 F 
ATOM     86  F   UNL A   1      42.659  20.454  25.482  1.00  0.00    -0.200 F 
ENDBRANCH  52  76
BRANCH  64  87
ATOM     87  C   UNL A   1      48.233  28.026  29.841  1.00  0.00     0.064 A 
ATOM     88  C   UNL A   1      48.810  27.364  30.934  1.00  0.00     0.173 A 
ATOM     89  C   UNL A   1      49.080  28.419  28.792  1.00  0.00     0.173 A 
ATOM     90  F   UNL A   1      48.048  26.979  31.970  1.00  0.00    -0.203 F 
ATOM     91  C   UNL A   1      50.180  27.117  30.980  1.00  0.00     0.198 A 
ATOM     92  C   UNL A   1      50.444  28.144  28.827  1.00  0.00     0.198 A 
ATOM     93  F   UNL A   1      48.579  29.050  27.720  1.00  0.00    -0.203 F 
ATOM     94  F   UNL A   1      50.716  26.516  32.053  1.00  0.00    -0.200 F 
ATOM     95  C   UNL A   1      50.994  27.498  29.924  1.00  0.00     0.200 A 
ATOM     96  F   UNL A   1      51.224  28.497  27.797  1.00  0.00    -0.200 F 
ATOM     97  F   UNL A   1      52.309  27.245  29.963  1.00  0.00    -0.200 F 
ENDBRANCH  64  87
ENDBRANCH  38  39
ENDBRANCH  31  33
ENDBRANCH  30  31
ENDBRANCH  29  30
ENDBRANCH  28  29
ENDBRANCH  27  28
ENDBRANCH  26  27
ENDBRANCH   1  26
TORSDOF 20
ENDMDL
MODEL 3
REMARK VINA RESULT:     -10.4      0.920      2.033
REMARK SMILES Cc1cc(Nc2ccc(C(=O)OCCOCCOCCOC(=O)c3ccc(-c4c5nc(c(-c6c(F)c(F)c(F)c(F)c6F)c6ccc([nH]6)c(-c6c(F)c(F)c(F)c(F)c6F)c6nc(c(-c7c(F)c(F)c(F)c(F)c7F)c7ccc4[nH]7)C=C6)C=C5)cc3)cc2)nc(C(C)C)n1
REMARK SMILES IDX 16 1 15 2 14 3 13 4 12 5 10 6 11 7 9 8 6 9 7 10 88 11 8 12
REMARK SMILES IDX 87 13 5 14 4 16 1 17 2 18 3 19 94 20 90 21 89 22 91 23 92 24
REMARK SMILES IDX 93 25 17 26 18 27 19 28 20 29 21 30 22 31 23 32 24 33 25 34
REMARK SMILES IDX 86 35 26 36 85 37 27 38 28 39 29 40 79 41 30 42 84 43 78 44
REMARK SMILES IDX 80 45 31 46 83 47 77 48 76 49 32 51 64 52 44 53 63 54 45 55
REMARK SMILES IDX 48 56 62 57 81 58 46 59 47 60 61 62 82 63 49 64 33 65 34 66
REMARK SMILES IDX 42 67 35 68 36 69 40 70 43 71 37 72 38 73 41 74 39 75 65 76
REMARK SMILES IDX 66 77 74 78 67 79 68 80 72 81 75 82 69 83 70 84 73 85 71 86
REMARK SMILES IDX 50 87 51 88 59 89 52 90 53 91 57 92 60 93 54 94 55 95 58 96
REMARK SMILES IDX 56 97
REMARK H PARENT 5 15 80 50 48 61
REMARK Flexibility Score: inf
ROOT
ATOM      1  C   UNL A   1      39.721  21.961  25.915  1.00  0.00     0.188 C 
ENDROOT
BRANCH   1   2
ATOM      2  O   UNL A   1      38.454  21.655  25.380  1.00  0.00    -0.376 OA
BRANCH   2   3
ATOM      3  C   UNL A   1      38.129  20.343  24.952  1.00  0.00     0.202 C 
BRANCH   3   4
ATOM      4  C   UNL A   1      36.714  19.745  24.915  1.00  0.00     0.261 C 
BRANCH   4   5
ATOM      5  O   UNL A   1      35.644  20.645  24.626  1.00  0.00    -0.460 OA
BRANCH   5   6
ATOM      6  C   UNL A   1      34.408  20.174  24.930  1.00  0.00     0.338 C 
ATOM      7  O   UNL A   1      34.038  19.012  24.895  1.00  0.00    -0.246 OA
BRANCH   6   8
ATOM      8  C   UNL A   1      33.592  21.252  25.524  1.00  0.00     0.060 A 
ATOM      9  C   UNL A   1      31.972  23.338  26.449  1.00  0.00     0.040 A 
ATOM     10  C   UNL A   1      31.402  22.259  25.766  1.00  0.00     0.027 A 
ATOM     11  C   UNL A   1      33.349  23.319  26.729  1.00  0.00     0.027 A 
ATOM     12  C   UNL A   1      32.210  21.225  25.293  1.00  0.00     0.018 A 
ATOM     13  C   UNL A   1      34.161  22.276  26.280  1.00  0.00     0.018 A 
BRANCH   9  14
ATOM     14  N   UNL A   1      31.221  24.522  26.624  1.00  0.00    -0.340 N 
ATOM     15  H   UNL A   1      30.816  24.701  27.504  1.00  0.00     0.168 HD
BRANCH  14  16
ATOM     16  C   UNL A   1      31.027  25.458  25.584  1.00  0.00     0.134 A 
ATOM     17  C   UNL A   1      28.302  27.240  23.729  1.00  0.00     0.067 C 
ATOM     18  C   UNL A   1      29.641  26.759  24.199  1.00  0.00     0.043 A 
ATOM     19  C   UNL A   1      29.752  25.857  25.241  1.00  0.00     0.070 A 
ATOM     20  N   UNL A   1      30.715  27.258  23.552  1.00  0.00    -0.238 NA
ATOM     21  C   UNL A   1      31.919  26.834  23.964  1.00  0.00     0.133 A 
ATOM     22  N   UNL A   1      32.105  25.956  24.957  1.00  0.00    -0.216 NA
BRANCH  21  23
ATOM     23  C   UNL A   1      33.165  27.361  23.291  1.00  0.00     0.051 C 
ATOM     24  C   UNL A   1      33.565  26.483  22.109  1.00  0.00     0.016 C 
ATOM     25  C   UNL A   1      32.985  28.818  22.878  1.00  0.00     0.016 C 
ENDBRANCH  21  23
ENDBRANCH  14  16
ENDBRANCH   9  14
ENDBRANCH   6   8
ENDBRANCH   5   6
ENDBRANCH   4   5
ENDBRANCH   3   4
ENDBRANCH   2   3
ENDBRANCH   1   2
BRANCH   1  26
ATOM     26  C   UNL A   1      40.496  20.894  26.717  1.00  0.00     0.188 C 
BRANCH  26  27
ATOM     27  O   UNL A   1      41.755  20.426  26.280  1.00  0.00    -0.376 OA
BRANCH  27  28
ATOM     28  C   UNL A   1      42.050  19.041  26.324  1.00  0.00     0.202 C 
BRANCH  28  29
ATOM     29  C   UNL A   1      43.262  18.425  25.609  1.00  0.00     0.261 C 
BRANCH  29  30
ATOM     30  O   UNL A   1      43.662  19.063  24.392  1.00  0.00    -0.460 OA
BRANCH  30  31
ATOM     31  C   UNL A   1      44.903  19.614  24.410  1.00  0.00     0.338 C 
ATOM     32  O   UNL A   1      45.948  19.118  24.035  1.00  0.00    -0.246 OA
BRANCH  31  33
ATOM     33  C   UNL A   1      44.789  21.019  24.831  1.00  0.00     0.060 A 
ATOM     34  C   UNL A   1      44.385  21.981  23.892  1.00  0.00     0.016 A 
ATOM     35  C   UNL A   1      45.123  21.386  26.133  1.00  0.00     0.016 A 
ATOM     36  C   UNL A   1      44.318  23.324  24.257  1.00  0.00     0.010 A 
ATOM     37  C   UNL A   1      45.081  22.733  26.488  1.00  0.00     0.010 A 
ATOM     38  C   UNL A   1      44.700  23.709  25.548  1.00  0.00    -0.014 A 
BRANCH  38  39
ATOM     39  C   UNL A   1      44.870  25.137  25.895  1.00  0.00     0.031 A 
ATOM     40  C   UNL A   1      46.241  25.735  25.795  1.00  0.00     0.074 A 
ATOM     41  C   UNL A   1      43.841  25.867  26.354  1.00  0.00     0.049 A 
ATOM     42  N   UNL A   1      46.679  26.893  26.216  1.00  0.00    -0.248 NA
ATOM     43  C   UNL A   1      47.261  24.900  25.144  1.00  0.00     0.031 C 
ATOM     44  C   UNL A   1      42.460  25.405  26.461  1.00  0.00     0.029 A 
ATOM     45  N   UNL A   1      43.815  27.144  26.857  1.00  0.00    -0.354 N 
ATOM     46  C   UNL A   1      48.031  26.915  25.904  1.00  0.00     0.074 A 
ATOM     47  C   UNL A   1      48.345  25.648  25.277  1.00  0.00     0.031 C 
ATOM     48  C   UNL A   1      41.725  26.370  27.040  1.00  0.00     0.029 A 
ATOM     49  C   UNL A   1      42.597  27.495  27.382  1.00  0.00     0.049 A 
ATOM     50  H   UNL A   1      44.593  27.747  26.844  1.00  0.00     0.167 HD
ATOM     51  C   UNL A   1      48.930  27.903  26.128  1.00  0.00     0.037 A 
ATOM     52  C   UNL A   1      42.241  28.577  28.102  1.00  0.00     0.037 A 
ATOM     53  C   UNL A   1      48.609  29.153  26.766  1.00  0.00     0.049 A 
ATOM     54  C   UNL A   1      43.267  29.639  28.400  1.00  0.00     0.074 A 
ATOM     55  C   UNL A   1      49.436  30.233  27.014  1.00  0.00     0.029 A 
ATOM     56  N   UNL A   1      47.360  29.479  27.276  1.00  0.00    -0.354 N 
ATOM     57  N   UNL A   1      44.539  29.675  28.081  1.00  0.00    -0.248 NA
ATOM     58  C   UNL A   1      42.810  30.813  29.158  1.00  0.00     0.031 C 
ATOM     59  C   UNL A   1      48.705  31.187  27.731  1.00  0.00     0.029 A 
ATOM     60  C   UNL A   1      47.402  30.732  27.867  1.00  0.00     0.049 A 
ATOM     61  H   UNL A   1      46.561  28.905  27.226  1.00  0.00     0.167 HD
ATOM     62  C   UNL A   1      45.025  30.882  28.570  1.00  0.00     0.074 A 
ATOM     63  C   UNL A   1      43.910  31.552  29.206  1.00  0.00     0.031 C 
ATOM     64  C   UNL A   1      46.281  31.390  28.491  1.00  0.00     0.037 A 
BRANCH  51  65
ATOM     65  C   UNL A   1      50.353  27.640  25.727  1.00  0.00     0.064 A 
ATOM     66  C   UNL A   1      51.351  27.352  26.671  1.00  0.00     0.173 A 
ATOM     67  C   UNL A   1      50.726  27.690  24.375  1.00  0.00     0.173 A 
ATOM     68  F   UNL A   1      51.052  27.307  27.978  1.00  0.00    -0.203 F 
ATOM     69  C   UNL A   1      52.676  27.171  26.281  1.00  0.00     0.198 A 
ATOM     70  C   UNL A   1      52.045  27.472  23.986  1.00  0.00     0.198 A 
ATOM     71  F   UNL A   1      49.812  27.955  23.430  1.00  0.00    -0.203 F 
ATOM     72  F   UNL A   1      53.624  26.970  27.207  1.00  0.00    -0.200 F 
ATOM     73  C   UNL A   1      53.021  27.227  24.939  1.00  0.00     0.200 A 
ATOM     74  F   UNL A   1      52.373  27.511  22.687  1.00  0.00    -0.200 F 
ATOM     75  F   UNL A   1      54.297  27.057  24.565  1.00  0.00    -0.200 F 
ENDBRANCH  51  65
BRANCH  52  76
ATOM     76  C   UNL A   1      40.850  28.687  28.613  1.00  0.00     0.064 A 
ATOM     77  C   UNL A   1      39.794  29.048  27.768  1.00  0.00     0.173 A 
ATOM     78  C   UNL A   1      40.548  28.408  29.955  1.00  0.00     0.173 A 
ATOM     79  F   UNL A   1      40.038  29.349  26.484  1.00  0.00    -0.203 F 
ATOM     80  C   UNL A   1      38.487  29.129  28.244  1.00  0.00     0.198 A 
ATOM     81  C   UNL A   1      39.237  28.462  30.424  1.00  0.00     0.198 A 
ATOM     82  F   UNL A   1      41.525  28.060  30.805  1.00  0.00    -0.203 F 
ATOM     83  F   UNL A   1      37.499  29.510  27.423  1.00  0.00    -0.200 F 
ATOM     84  C   UNL A   1      38.208  28.828  29.570  1.00  0.00     0.200 A 
ATOM     85  F   UNL A   1      38.972  28.158  31.701  1.00  0.00    -0.200 F 
ATOM     86  F   UNL A   1      36.949  28.894  30.023  1.00  0.00    -0.200 F 
ENDBRANCH  52  76
BRANCH  64  87
ATOM     87  C   UNL A   1      46.516  32.760  29.063  1.00  0.00     0.064 A 
ATOM     88  C   UNL A   1      46.957  32.950  30.381  1.00  0.00     0.173 A 
ATOM     89  C   UNL A   1      46.364  33.897  28.253  1.00  0.00     0.173 A 
ATOM     90  F   UNL A   1      47.107  31.899  31.201  1.00  0.00    -0.203 F 
ATOM     91  C   UNL A   1      47.221  34.227  30.870  1.00  0.00     0.198 A 
ATOM     92  C   UNL A   1      46.659  35.169  28.736  1.00  0.00     0.198 A 
ATOM     93  F   UNL A   1      45.951  33.771  26.983  1.00  0.00    -0.203 F 
ATOM     94  F   UNL A   1      47.606  34.389  32.145  1.00  0.00    -0.200 F 
ATOM     95  C   UNL A   1      47.082  35.333  30.046  1.00  0.00     0.200 A 
ATOM     96  F   UNL A   1      46.540  36.234  27.931  1.00  0.00    -0.200 F 
ATOM     97  F   UNL A   1      47.353  36.559  30.514  1.00  0.00    -0.200 F 
ENDBRANCH  64  87
ENDBRANCH  38  39
ENDBRANCH  31  33
ENDBRANCH  30  31
ENDBRANCH  29  30
ENDBRANCH  28  29
ENDBRANCH  27  28
ENDBRANCH  26  27
ENDBRANCH   1  26
TORSDOF 20
ENDMDL
