MODEL 1
REMARK VINA RESULT:     -12.3      0.000      0.000
REMARK SMILES Cc1cc(NS(=O)(=O)c2ccc(NC(=O)[C@@H]3CCCC[C@@H]3C(=O)OCCOCCOCCOC(=O)c3ccc(-c4c5nc(c(-c6c(F)c(F)c(F)c(F)c6F)c6ccc([nH]6)c(-c6c(F)c(F)c(F)c(F)c6F)c6nc(c(-c7c(F)c(F)c(F)c(F)c7F)c7ccc4[nH]7)C=C6)C=C5)cc3)cc2)no1
REMARK SMILES IDX 27 1 26 2 25 3 24 4 22 5 23 6 21 7 16 8 17 9 18 10 20 11
REMARK SMILES IDX 19 12 14 13 13 14 15 16 12 17 9 18 10 19 100 20 11 21 99 22
REMARK SMILES IDX 6 23 7 24 8 25 5 26 4 28 1 29 2 30 3 31 102 32 101 33 28 34
REMARK SMILES IDX 29 35 30 36 31 37 32 38 33 39 34 40 35 41 36 42 37 43 98 44
REMARK SMILES IDX 38 45 97 46 39 47 40 48 41 49 91 50 42 51 96 52 90 53 92 54
REMARK SMILES IDX 43 55 95 56 89 57 88 58 44 60 76 61 56 62 75 63 57 64 60 65
REMARK SMILES IDX 74 66 93 67 58 68 59 69 73 71 94 72 61 73 45 74 46 75 54 76
REMARK SMILES IDX 47 77 48 78 52 79 55 80 49 81 50 82 53 83 51 84 77 85 78 86
REMARK SMILES IDX 86 87 79 88 80 89 84 90 87 91 81 92 82 93 85 94 83 95 62 96
REMARK SMILES IDX 63 97 71 98 64 99 65 100 69 101 72 102 66 103 67 104 70 105
REMARK SMILES IDX 68 106
REMARK H PARENT 13 15 5 27 92 59 60 70
REMARK Flexibility Score: inf
ROOT
ATOM      1  O   UNL A   1      38.596  21.507  25.370  1.00  0.00    -0.376 OA
ENDROOT
BRANCH   1   2
ATOM      2  C   UNL A   1      37.616  22.502  25.101  1.00  0.00     0.202 C 
BRANCH   2   3
ATOM      3  C   UNL A   1      36.633  22.306  23.933  1.00  0.00     0.261 C 
BRANCH   3   4
ATOM      4  O   UNL A   1      35.314  21.789  24.236  1.00  0.00    -0.463 OA
BRANCH   4   5
ATOM      5  C   UNL A   1      34.312  22.340  23.508  1.00  0.00     0.309 C 
ATOM      6  O   UNL A   1      34.539  23.070  22.546  1.00  0.00    -0.252 OA
BRANCH   5   7
ATOM      7  C   UNL A   1      32.884  22.094  24.048  1.00  0.00     0.111 C 
ATOM      8  C   UNL A   1      32.589  21.415  25.444  1.00  0.00     0.093 C 
ATOM      9  C   UNL A   1      32.670  19.886  25.386  1.00  0.00     0.014 C 
ATOM     10  C   UNL A   1      32.251  19.133  24.133  1.00  0.00     0.001 C 
ATOM     11  C   UNL A   1      32.171  21.275  22.930  1.00  0.00     0.016 C 
ATOM     12  C   UNL A   1      32.681  19.831  22.880  1.00  0.00     0.001 C 
BRANCH   8  13
ATOM     13  C   UNL A   1      33.110  22.228  26.696  1.00  0.00     0.228 C 
ATOM     14  N   UNL A   1      33.322  23.576  26.880  1.00  0.00    -0.326 N 
ATOM     15  H   UNL A   1      33.639  23.754  27.795  1.00  0.00     0.169 HD
ATOM     16  O   UNL A   1      33.417  21.547  27.692  1.00  0.00    -0.274 OA
BRANCH  14  17
ATOM     17  C   UNL A   1      33.219  24.779  26.147  1.00  0.00     0.041 A 
ATOM     18  C   UNL A   1      32.952  27.070  24.482  1.00  0.00     0.088 A 
ATOM     19  C   UNL A   1      34.018  26.208  24.366  1.00  0.00     0.024 A 
ATOM     20  C   UNL A   1      31.986  26.797  25.454  1.00  0.00     0.024 A 
ATOM     21  C   UNL A   1      34.205  25.215  25.308  1.00  0.00     0.027 A 
ATOM     22  C   UNL A   1      32.100  25.624  26.251  1.00  0.00     0.027 A 
BRANCH  18  23
ATOM     23  S   UNL A   1      32.936  28.567  23.516  1.00  0.00     0.263 S 
ATOM     24  O   UNL A   1      34.218  28.712  22.873  1.00  0.00    -0.201 OA
ATOM     25  O   UNL A   1      32.424  29.602  24.397  1.00  0.00    -0.201 OA
BRANCH  23  26
ATOM     26  N   UNL A   1      31.748  28.394  22.329  1.00  0.00    -0.261 N 
ATOM     27  H   UNL A   1      32.005  27.924  21.504  1.00  0.00     0.182 HD
BRANCH  26  28
ATOM     28  C   UNL A   1      30.437  28.856  22.409  1.00  0.00     0.183 A 
ATOM     29  C   UNL A   1      26.848  28.638  23.169  1.00  0.00     0.091 C 
ATOM     30  C   UNL A   1      28.270  28.832  22.821  1.00  0.00     0.135 A 
ATOM     31  C   UNL A   1      29.456  28.298  23.266  1.00  0.00     0.096 A 
ATOM     32  O   UNL A   1      28.531  29.704  21.811  1.00  0.00    -0.360 OA
ATOM     33  N   UNL A   1      29.892  29.739  21.571  1.00  0.00    -0.061 NA
ENDBRANCH  26  28
ENDBRANCH  23  26
ENDBRANCH  18  23
ENDBRANCH  14  17
ENDBRANCH   8  13
ENDBRANCH   5   7
ENDBRANCH   4   5
ENDBRANCH   3   4
ENDBRANCH   2   3
ENDBRANCH   1   2
BRANCH   1  34
ATOM     34  C   UNL A   1      39.624  21.762  26.313  1.00  0.00     0.188 C 
BRANCH  34  35
ATOM     35  C   UNL A   1      40.573  20.631  26.732  1.00  0.00     0.188 C 
BRANCH  35  36
ATOM     36  O   UNL A   1      41.295  20.024  25.688  1.00  0.00    -0.376 OA
BRANCH  36  37
ATOM     37  C   UNL A   1      42.708  20.066  25.769  1.00  0.00     0.202 C 
BRANCH  37  38
ATOM     38  C   UNL A   1      43.380  21.440  25.928  1.00  0.00     0.261 C 
BRANCH  38  39
ATOM     39  O   UNL A   1      42.859  22.469  25.058  1.00  0.00    -0.460 OA
BRANCH  39  40
ATOM     40  C   UNL A   1      43.563  23.615  24.950  1.00  0.00     0.338 C 
ATOM     41  O   UNL A   1      44.573  23.788  24.291  1.00  0.00    -0.246 OA
BRANCH  40  42
ATOM     42  C   UNL A   1      42.925  24.695  25.747  1.00  0.00     0.060 A 
ATOM     43  C   UNL A   1      43.459  25.985  25.765  1.00  0.00     0.016 A 
ATOM     44  C   UNL A   1      41.898  24.375  26.633  1.00  0.00     0.016 A 
ATOM     45  C   UNL A   1      43.058  26.909  26.734  1.00  0.00     0.010 A 
ATOM     46  C   UNL A   1      41.448  25.327  27.563  1.00  0.00     0.010 A 
ATOM     47  C   UNL A   1      42.066  26.583  27.668  1.00  0.00    -0.014 A 
BRANCH  47  48
ATOM     48  C   UNL A   1      41.732  27.545  28.759  1.00  0.00     0.031 A 
ATOM     49  C   UNL A   1      42.561  27.617  30.021  1.00  0.00     0.074 A 
ATOM     50  C   UNL A   1      40.743  28.444  28.589  1.00  0.00     0.049 A 
ATOM     51  N   UNL A   1      42.551  28.541  30.952  1.00  0.00    -0.248 NA
ATOM     52  C   UNL A   1      43.598  26.598  30.220  1.00  0.00     0.031 C 
ATOM     53  C   UNL A   1      39.909  28.579  27.394  1.00  0.00     0.029 A 
ATOM     54  N   UNL A   1      40.257  29.405  29.443  1.00  0.00    -0.354 N 
ATOM     55  C   UNL A   1      43.634  28.267  31.777  1.00  0.00     0.074 A 
ATOM     56  C   UNL A   1      44.275  27.084  31.253  1.00  0.00     0.031 C 
ATOM     57  C   UNL A   1      38.992  29.534  27.606  1.00  0.00     0.029 A 
ATOM     58  C   UNL A   1      39.118  30.013  28.978  1.00  0.00     0.049 A 
ATOM     59  H   UNL A   1      40.683  29.635  30.301  1.00  0.00     0.167 HD
ATOM     60  C   UNL A   1      44.044  28.922  32.889  1.00  0.00     0.037 A 
ATOM     61  C   UNL A   1      38.220  30.787  29.617  1.00  0.00     0.037 A 
ATOM     62  C   UNL A   1      43.242  29.885  33.595  1.00  0.00     0.049 A 
ATOM     63  C   UNL A   1      38.468  31.167  31.049  1.00  0.00     0.074 A 
ATOM     64  C   UNL A   1      43.477  30.466  34.828  1.00  0.00     0.029 A 
ATOM     65  N   UNL A   1      41.989  30.311  33.186  1.00  0.00    -0.354 N 
ATOM     66  N   UNL A   1      39.537  30.969  31.781  1.00  0.00    -0.248 NA
ATOM     67  C   UNL A   1      37.379  31.859  31.752  1.00  0.00     0.031 C 
ATOM     68  C   UNL A   1      42.311  31.135  35.221  1.00  0.00     0.029 A 
ATOM     69  C   UNL A   1      41.391  31.055  34.189  1.00  0.00     0.049 A 
ATOM     70  H   UNL A   1      41.583  30.114  32.311  1.00  0.00     0.167 HD
ATOM     71  C   UNL A   1      39.263  31.532  33.020  1.00  0.00     0.074 A 
ATOM     72  C   UNL A   1      37.926  32.085  32.938  1.00  0.00     0.031 C 
ATOM     73  C   UNL A   1      40.054  31.590  34.119  1.00  0.00     0.037 A 
BRANCH  60  74
ATOM     74  C   UNL A   1      45.360  28.522  33.484  1.00  0.00     0.064 A 
ATOM     75  C   UNL A   1      46.561  29.090  33.032  1.00  0.00     0.173 A 
ATOM     76  C   UNL A   1      45.418  27.614  34.550  1.00  0.00     0.173 A 
ATOM     77  F   UNL A   1      46.551  29.962  32.012  1.00  0.00    -0.203 F 
ATOM     78  C   UNL A   1      47.775  28.760  33.631  1.00  0.00     0.198 A 
ATOM     79  C   UNL A   1      46.632  27.293  35.150  1.00  0.00     0.198 A 
ATOM     80  F   UNL A   1      44.293  27.049  35.012  1.00  0.00    -0.203 F 
ATOM     81  F   UNL A   1      48.913  29.314  33.189  1.00  0.00    -0.200 F 
ATOM     82  C   UNL A   1      47.808  27.866  34.691  1.00  0.00     0.200 A 
ATOM     83  F   UNL A   1      46.660  26.434  36.178  1.00  0.00    -0.200 F 
ATOM     84  F   UNL A   1      48.975  27.555  35.274  1.00  0.00    -0.200 F 
ENDBRANCH  60  74
BRANCH  61  85
ATOM     85  C   UNL A   1      36.942  31.130  28.939  1.00  0.00     0.064 A 
ATOM     86  C   UNL A   1      36.665  32.428  28.496  1.00  0.00     0.173 A 
ATOM     87  C   UNL A   1      35.960  30.145  28.729  1.00  0.00     0.173 A 
ATOM     88  F   UNL A   1      37.553  33.410  28.704  1.00  0.00    -0.203 F 
ATOM     89  C   UNL A   1      35.457  32.727  27.867  1.00  0.00     0.198 A 
ATOM     90  C   UNL A   1      34.772  30.436  28.069  1.00  0.00     0.198 A 
ATOM     91  F   UNL A   1      36.168  28.888  29.151  1.00  0.00    -0.203 F 
ATOM     92  F   UNL A   1      35.198  33.985  27.487  1.00  0.00    -0.200 F 
ATOM     93  C   UNL A   1      34.518  31.731  27.643  1.00  0.00     0.200 A 
ATOM     94  F   UNL A   1      33.877  29.465  27.845  1.00  0.00    -0.200 F 
ATOM     95  F   UNL A   1      33.364  32.018  27.025  1.00  0.00    -0.200 F 
ENDBRANCH  61  85
BRANCH  73  96
ATOM     96  C   UNL A   1      39.513  32.301  35.327  1.00  0.00     0.064 A 
ATOM     97  C   UNL A   1      38.745  31.637  36.295  1.00  0.00     0.173 A 
ATOM     98  C   UNL A   1      39.793  33.661  35.531  1.00  0.00     0.173 A 
ATOM     99  F   UNL A   1      38.436  30.341  36.140  1.00  0.00    -0.203 F 
ATOM    100  C   UNL A   1      38.252  32.317  37.406  1.00  0.00     0.198 A 
ATOM    101  C   UNL A   1      39.328  34.328  36.660  1.00  0.00     0.198 A 
ATOM    102  F   UNL A   1      40.528  34.342  34.639  1.00  0.00    -0.203 F 
ATOM    103  F   UNL A   1      37.473  31.678  38.289  1.00  0.00    -0.200 F 
ATOM    104  C   UNL A   1      38.550  33.659  37.592  1.00  0.00     0.200 A 
ATOM    105  F   UNL A   1      39.632  35.620  36.844  1.00  0.00    -0.200 F 
ATOM    106  F   UNL A   1      38.079  34.310  38.664  1.00  0.00    -0.200 F 
ENDBRANCH  73  96
ENDBRANCH  47  48
ENDBRANCH  40  42
ENDBRANCH  39  40
ENDBRANCH  38  39
ENDBRANCH  37  38
ENDBRANCH  36  37
ENDBRANCH  35  36
ENDBRANCH  34  35
ENDBRANCH   1  34
TORSDOF 22
ENDMDL
MODEL 2
REMARK VINA RESULT:     -12.1      3.059      8.211
REMARK SMILES Cc1cc(NS(=O)(=O)c2ccc(NC(=O)[C@@H]3CCCC[C@@H]3C(=O)OCCOCCOCCOC(=O)c3ccc(-c4c5nc(c(-c6c(F)c(F)c(F)c(F)c6F)c6ccc([nH]6)c(-c6c(F)c(F)c(F)c(F)c6F)c6nc(c(-c7c(F)c(F)c(F)c(F)c7F)c7ccc4[nH]7)C=C6)C=C5)cc3)cc2)no1
REMARK SMILES IDX 27 1 26 2 25 3 24 4 22 5 23 6 21 7 16 8 17 9 18 10 20 11
REMARK SMILES IDX 19 12 14 13 13 14 15 16 12 17 9 18 10 19 100 20 11 21 99 22
REMARK SMILES IDX 6 23 7 24 8 25 5 26 4 28 1 29 2 30 3 31 102 32 101 33 28 34
REMARK SMILES IDX 29 35 30 36 31 37 32 38 33 39 34 40 35 41 36 42 37 43 98 44
REMARK SMILES IDX 38 45 97 46 39 47 40 48 41 49 91 50 42 51 96 52 90 53 92 54
REMARK SMILES IDX 43 55 95 56 89 57 88 58 44 60 76 61 56 62 75 63 57 64 60 65
REMARK SMILES IDX 74 66 93 67 58 68 59 69 73 71 94 72 61 73 45 74 46 75 54 76
REMARK SMILES IDX 47 77 48 78 52 79 55 80 49 81 50 82 53 83 51 84 77 85 78 86
REMARK SMILES IDX 86 87 79 88 80 89 84 90 87 91 81 92 82 93 85 94 83 95 62 96
REMARK SMILES IDX 63 97 71 98 64 99 65 100 69 101 72 102 66 103 67 104 70 105
REMARK SMILES IDX 68 106
REMARK H PARENT 13 15 5 27 92 59 60 70
REMARK Flexibility Score: inf
ROOT
ATOM      1  O   UNL A   1      33.927  28.144  26.741  1.00  0.00    -0.376 OA
ENDROOT
BRANCH   1   2
ATOM      2  C   UNL A   1      33.938  27.769  25.370  1.00  0.00     0.202 C 
BRANCH   2   3
ATOM      3  C   UNL A   1      33.854  26.280  24.987  1.00  0.00     0.261 C 
BRANCH   3   4
ATOM      4  O   UNL A   1      34.756  25.358  25.648  1.00  0.00    -0.463 OA
BRANCH   4   5
ATOM      5  C   UNL A   1      34.261  24.107  25.811  1.00  0.00     0.309 C 
ATOM      6  O   UNL A   1      33.924  23.683  26.913  1.00  0.00    -0.252 OA
BRANCH   5   7
ATOM      7  C   UNL A   1      34.275  23.217  24.546  1.00  0.00     0.111 C 
ATOM      8  C   UNL A   1      33.720  21.736  24.520  1.00  0.00     0.093 C 
ATOM      9  C   UNL A   1      34.727  20.719  25.066  1.00  0.00     0.014 C 
ATOM     10  C   UNL A   1      36.221  20.916  24.860  1.00  0.00     0.001 C 
ATOM     11  C   UNL A   1      35.763  23.203  24.084  1.00  0.00     0.016 C 
ATOM     12  C   UNL A   1      36.631  22.348  25.012  1.00  0.00     0.001 C 
BRANCH   8  13
ATOM     13  C   UNL A   1      32.171  21.609  24.806  1.00  0.00     0.228 C 
ATOM     14  N   UNL A   1      31.154  22.534  24.732  1.00  0.00    -0.326 N 
ATOM     15  H   UNL A   1      30.291  22.118  24.962  1.00  0.00     0.169 HD
ATOM     16  O   UNL A   1      31.784  20.491  25.197  1.00  0.00    -0.274 OA
BRANCH  14  17
ATOM     17  C   UNL A   1      30.979  23.901  24.423  1.00  0.00     0.041 A 
ATOM     18  C   UNL A   1      30.427  26.593  23.690  1.00  0.00     0.088 A 
ATOM     19  C   UNL A   1      30.865  25.666  22.773  1.00  0.00     0.024 A 
ATOM     20  C   UNL A   1      30.258  26.182  25.014  1.00  0.00     0.024 A 
ATOM     21  C   UNL A   1      31.294  24.424  23.202  1.00  0.00     0.027 A 
ATOM     22  C   UNL A   1      30.489  24.823  25.365  1.00  0.00     0.027 A 
BRANCH  18  23
ATOM     23  S   UNL A   1      30.256  28.295  23.191  1.00  0.00     0.263 S 
ATOM     24  O   UNL A   1      30.840  28.450  21.883  1.00  0.00    -0.201 OA
ATOM     25  O   UNL A   1      30.726  29.086  24.315  1.00  0.00    -0.201 OA
BRANCH  23  26
ATOM     26  N   UNL A   1      28.604  28.634  23.094  1.00  0.00    -0.261 N 
ATOM     27  H   UNL A   1      27.984  27.916  23.357  1.00  0.00     0.182 HD
BRANCH  26  28
ATOM     28  C   UNL A   1      28.038  29.834  22.675  1.00  0.00     0.183 A 
ATOM     29  C   UNL A   1      27.654  32.784  20.517  1.00  0.00     0.091 C 
ATOM     30  C   UNL A   1      27.725  31.643  21.452  1.00  0.00     0.135 A 
ATOM     31  C   UNL A   1      28.148  30.339  21.355  1.00  0.00     0.096 A 
ATOM     32  O   UNL A   1      27.323  31.883  22.728  1.00  0.00    -0.360 OA
ATOM     33  N   UNL A   1      27.494  30.741  23.489  1.00  0.00    -0.061 NA
ENDBRANCH  26  28
ENDBRANCH  23  26
ENDBRANCH  18  23
ENDBRANCH  14  17
ENDBRANCH   8  13
ENDBRANCH   5   7
ENDBRANCH   4   5
ENDBRANCH   3   4
ENDBRANCH   2   3
ENDBRANCH   1   2
BRANCH   1  34
ATOM     34  C   UNL A   1      32.856  28.922  27.254  1.00  0.00     0.188 C 
BRANCH  34  35
ATOM     35  C   UNL A   1      32.849  30.442  27.046  1.00  0.00     0.188 C 
BRANCH  35  36
ATOM     36  O   UNL A   1      31.667  30.975  26.498  1.00  0.00    -0.376 OA
BRANCH  36  37
ATOM     37  C   UNL A   1      31.410  32.348  26.728  1.00  0.00     0.202 C 
BRANCH  37  38
ATOM     38  C   UNL A   1      32.565  33.220  27.247  1.00  0.00     0.261 C 
BRANCH  38  39
ATOM     39  O   UNL A   1      32.154  34.351  28.048  1.00  0.00    -0.460 OA
BRANCH  39  40
ATOM     40  C   UNL A   1      33.109  35.021  28.725  1.00  0.00     0.338 C 
ATOM     41  O   UNL A   1      33.093  36.201  29.028  1.00  0.00    -0.246 OA
BRANCH  40  42
ATOM     42  C   UNL A   1      34.224  34.110  29.093  1.00  0.00     0.060 A 
ATOM     43  C   UNL A   1      34.039  33.090  30.029  1.00  0.00     0.016 A 
ATOM     44  C   UNL A   1      35.513  34.392  28.645  1.00  0.00     0.016 A 
ATOM     45  C   UNL A   1      35.136  32.440  30.600  1.00  0.00     0.010 A 
ATOM     46  C   UNL A   1      36.610  33.690  29.170  1.00  0.00     0.010 A 
ATOM     47  C   UNL A   1      36.442  32.752  30.201  1.00  0.00    -0.014 A 
BRANCH  47  48
ATOM     48  C   UNL A   1      37.600  32.125  30.902  1.00  0.00     0.031 A 
ATOM     49  C   UNL A   1      38.306  30.919  30.326  1.00  0.00     0.074 A 
ATOM     50  C   UNL A   1      38.106  32.692  32.014  1.00  0.00     0.049 A 
ATOM     51  N   UNL A   1      39.458  30.400  30.680  1.00  0.00    -0.248 NA
ATOM     52  C   UNL A   1      37.714  30.276  29.146  1.00  0.00     0.031 C 
ATOM     53  C   UNL A   1      37.610  33.913  32.651  1.00  0.00     0.029 A 
ATOM     54  N   UNL A   1      39.145  32.296  32.823  1.00  0.00    -0.354 N 
ATOM     55  C   UNL A   1      39.765  29.451  29.714  1.00  0.00     0.074 A 
ATOM     56  C   UNL A   1      38.678  29.448  28.764  1.00  0.00     0.031 C 
ATOM     57  C   UNL A   1      38.315  34.143  33.768  1.00  0.00     0.029 A 
ATOM     58  C   UNL A   1      39.248  33.041  33.972  1.00  0.00     0.049 A 
ATOM     59  H   UNL A   1      39.753  31.554  32.601  1.00  0.00     0.167 HD
ATOM     60  C   UNL A   1      40.841  28.632  29.638  1.00  0.00     0.037 A 
ATOM     61  C   UNL A   1      39.940  32.806  35.103  1.00  0.00     0.037 A 
ATOM     62  C   UNL A   1      41.751  28.398  30.727  1.00  0.00     0.049 A 
ATOM     63  C   UNL A   1      40.835  31.602  35.178  1.00  0.00     0.074 A 
ATOM     64  C   UNL A   1      42.757  27.454  30.823  1.00  0.00     0.029 A 
ATOM     65  N   UNL A   1      41.680  29.033  31.957  1.00  0.00    -0.354 N 
ATOM     66  N   UNL A   1      41.177  30.768  34.227  1.00  0.00    -0.248 NA
ATOM     67  C   UNL A   1      41.426  31.293  36.487  1.00  0.00     0.031 C 
ATOM     68  C   UNL A   1      43.203  27.429  32.151  1.00  0.00     0.029 A 
ATOM     69  C   UNL A   1      42.545  28.427  32.852  1.00  0.00     0.049 A 
ATOM     70  H   UNL A   1      41.100  29.801  32.163  1.00  0.00     0.167 HD
ATOM     71  C   UNL A   1      42.039  29.851  34.812  1.00  0.00     0.074 A 
ATOM     72  C   UNL A   1      42.174  30.236  36.201  1.00  0.00     0.031 C 
ATOM     73  C   UNL A   1      42.667  28.794  34.241  1.00  0.00     0.037 A 
BRANCH  60  74
ATOM     74  C   UNL A   1      41.016  27.831  28.384  1.00  0.00     0.064 A 
ATOM     75  C   UNL A   1      41.818  28.298  27.332  1.00  0.00     0.173 A 
ATOM     76  C   UNL A   1      40.428  26.565  28.254  1.00  0.00     0.173 A 
ATOM     77  F   UNL A   1      42.398  29.506  27.412  1.00  0.00    -0.203 F 
ATOM     78  C   UNL A   1      42.026  27.521  26.194  1.00  0.00     0.198 A 
ATOM     79  C   UNL A   1      40.644  25.789  27.120  1.00  0.00     0.198 A 
ATOM     80  F   UNL A   1      39.654  26.081  29.237  1.00  0.00    -0.203 F 
ATOM     81  F   UNL A   1      42.798  27.981  25.199  1.00  0.00    -0.200 F 
ATOM     82  C   UNL A   1      41.442  26.266  26.091  1.00  0.00     0.200 A 
ATOM     83  F   UNL A   1      40.084  24.575  27.026  1.00  0.00    -0.200 F 
ATOM     84  F   UNL A   1      41.649  25.514  25.001  1.00  0.00    -0.200 F 
ENDBRANCH  60  74
BRANCH  61  85
ATOM     85  C   UNL A   1      39.696  33.660  36.295  1.00  0.00     0.064 A 
ATOM     86  C   UNL A   1      38.791  33.291  37.296  1.00  0.00     0.173 A 
ATOM     87  C   UNL A   1      40.372  34.884  36.446  1.00  0.00     0.173 A 
ATOM     88  F   UNL A   1      38.095  32.151  37.183  1.00  0.00    -0.203 F 
ATOM     89  C   UNL A   1      38.574  34.111  38.403  1.00  0.00     0.198 A 
ATOM     90  C   UNL A   1      40.182  35.683  37.567  1.00  0.00     0.198 A 
ATOM     91  F   UNL A   1      41.237  35.294  35.505  1.00  0.00    -0.203 F 
ATOM     92  F   UNL A   1      37.673  33.756  39.329  1.00  0.00    -0.200 F 
ATOM     93  C   UNL A   1      39.277  35.299  38.543  1.00  0.00     0.200 A 
ATOM     94  F   UNL A   1      40.876  36.821  37.701  1.00  0.00    -0.200 F 
ATOM     95  F   UNL A   1      39.077  36.078  39.615  1.00  0.00    -0.200 F 
ENDBRANCH  61  85
BRANCH  73  96
ATOM     96  C   UNL A   1      43.586  27.982  35.109  1.00  0.00     0.064 A 
ATOM     97  C   UNL A   1      43.142  26.840  35.792  1.00  0.00     0.173 A 
ATOM     98  C   UNL A   1      44.938  28.338  35.234  1.00  0.00     0.173 A 
ATOM     99  F   UNL A   1      41.856  26.465  35.718  1.00  0.00    -0.203 F 
ATOM    100  C   UNL A   1      44.012  26.103  36.593  1.00  0.00     0.198 A 
ATOM    101  C   UNL A   1      45.811  27.579  36.007  1.00  0.00     0.198 A 
ATOM    102  F   UNL A   1      45.415  29.417  34.597  1.00  0.00    -0.203 F 
ATOM    103  F   UNL A   1      43.554  25.049  37.282  1.00  0.00    -0.200 F 
ATOM    104  C   UNL A   1      45.347  26.468  36.694  1.00  0.00     0.200 A 
ATOM    105  F   UNL A   1      47.103  27.925  36.089  1.00  0.00    -0.200 F 
ATOM    106  F   UNL A   1      46.182  25.755  37.461  1.00  0.00    -0.200 F 
ENDBRANCH  73  96
ENDBRANCH  47  48
ENDBRANCH  40  42
ENDBRANCH  39  40
ENDBRANCH  38  39
ENDBRANCH  37  38
ENDBRANCH  36  37
ENDBRANCH  35  36
ENDBRANCH  34  35
ENDBRANCH   1  34
TORSDOF 22
ENDMDL
MODEL 3
REMARK VINA RESULT:     -11.8      4.513      9.295
REMARK SMILES Cc1cc(NS(=O)(=O)c2ccc(NC(=O)[C@@H]3CCCC[C@@H]3C(=O)OCCOCCOCCOC(=O)c3ccc(-c4c5nc(c(-c6c(F)c(F)c(F)c(F)c6F)c6ccc([nH]6)c(-c6c(F)c(F)c(F)c(F)c6F)c6nc(c(-c7c(F)c(F)c(F)c(F)c7F)c7ccc4[nH]7)C=C6)C=C5)cc3)cc2)no1
REMARK SMILES IDX 27 1 26 2 25 3 24 4 22 5 23 6 21 7 16 8 17 9 18 10 20 11
REMARK SMILES IDX 19 12 14 13 13 14 15 16 12 17 9 18 10 19 100 20 11 21 99 22
REMARK SMILES IDX 6 23 7 24 8 25 5 26 4 28 1 29 2 30 3 31 102 32 101 33 28 34
REMARK SMILES IDX 29 35 30 36 31 37 32 38 33 39 34 40 35 41 36 42 37 43 98 44
REMARK SMILES IDX 38 45 97 46 39 47 40 48 41 49 91 50 42 51 96 52 90 53 92 54
REMARK SMILES IDX 43 55 95 56 89 57 88 58 44 60 76 61 56 62 75 63 57 64 60 65
REMARK SMILES IDX 74 66 93 67 58 68 59 69 73 71 94 72 61 73 45 74 46 75 54 76
REMARK SMILES IDX 47 77 48 78 52 79 55 80 49 81 50 82 53 83 51 84 77 85 78 86
REMARK SMILES IDX 86 87 79 88 80 89 84 90 87 91 81 92 82 93 85 94 83 95 62 96
REMARK SMILES IDX 63 97 71 98 64 99 65 100 69 101 72 102 66 103 67 104 70 105
REMARK SMILES IDX 68 106
REMARK H PARENT 13 15 5 27 92 59 60 70
REMARK Flexibility Score: inf
ROOT
ATOM      1  O   UNL A   1      34.496  21.017  25.057  1.00  0.00    -0.376 OA
ENDROOT
BRANCH   1   2
ATOM      2  C   UNL A   1      33.625  21.424  26.104  1.00  0.00     0.202 C 
BRANCH   2   3
ATOM      3  C   UNL A   1      32.214  21.937  25.763  1.00  0.00     0.261 C 
BRANCH   3   4
ATOM      4  O   UNL A   1      32.092  23.275  25.219  1.00  0.00    -0.463 OA
BRANCH   4   5
ATOM      5  C   UNL A   1      32.278  24.268  26.121  1.00  0.00     0.309 C 
ATOM      6  O   UNL A   1      31.755  24.240  27.232  1.00  0.00    -0.252 OA
BRANCH   5   7
ATOM      7  C   UNL A   1      33.080  25.488  25.611  1.00  0.00     0.111 C 
ATOM      8  C   UNL A   1      32.549  26.470  24.491  1.00  0.00     0.093 C 
ATOM      9  C   UNL A   1      32.765  25.924  23.077  1.00  0.00     0.014 C 
ATOM     10  C   UNL A   1      33.982  25.075  22.748  1.00  0.00     0.001 C 
ATOM     11  C   UNL A   1      34.451  24.903  25.155  1.00  0.00     0.016 C 
ATOM     12  C   UNL A   1      34.319  24.115  23.849  1.00  0.00     0.001 C 
BRANCH   8  13
ATOM     13  C   UNL A   1      31.244  27.271  24.884  1.00  0.00     0.228 C 
ATOM     14  N   UNL A   1      31.075  28.467  25.546  1.00  0.00    -0.326 N 
ATOM     15  H   UNL A   1      30.119  28.693  25.611  1.00  0.00     0.169 HD
ATOM     16  O   UNL A   1      30.165  26.729  24.576  1.00  0.00    -0.274 OA
BRANCH  14  17
ATOM     17  C   UNL A   1      31.865  29.465  26.157  1.00  0.00     0.041 A 
ATOM     18  C   UNL A   1      33.301  31.475  27.569  1.00  0.00     0.088 A 
ATOM     19  C   UNL A   1      32.111  31.743  26.932  1.00  0.00     0.024 A 
ATOM     20  C   UNL A   1      33.803  30.172  27.505  1.00  0.00     0.024 A 
ATOM     21  C   UNL A   1      31.541  30.790  26.110  1.00  0.00     0.027 A 
ATOM     22  C   UNL A   1      33.057  29.161  26.838  1.00  0.00     0.027 A 
BRANCH  18  23
ATOM     23  S   UNL A   1      34.221  32.817  28.294  1.00  0.00     0.263 S 
ATOM     24  O   UNL A   1      35.397  33.051  27.495  1.00  0.00    -0.201 OA
ATOM     25  O   UNL A   1      34.332  32.502  29.708  1.00  0.00    -0.201 OA
BRANCH  23  26
ATOM     26  N   UNL A   1      33.242  34.192  28.240  1.00  0.00    -0.261 N 
ATOM     27  H   UNL A   1      32.642  34.284  27.467  1.00  0.00     0.182 HD
BRANCH  26  28
ATOM     28  C   UNL A   1      33.208  35.210  29.190  1.00  0.00     0.183 A 
ATOM     29  C   UNL A   1      33.270  36.636  32.576  1.00  0.00     0.091 C 
ATOM     30  C   UNL A   1      33.227  36.171  31.175  1.00  0.00     0.135 A 
ATOM     31  C   UNL A   1      33.725  35.079  30.503  1.00  0.00     0.096 A 
ATOM     32  O   UNL A   1      32.518  36.939  30.305  1.00  0.00    -0.360 OA
ATOM     33  N   UNL A   1      32.529  36.350  29.054  1.00  0.00    -0.061 NA
ENDBRANCH  26  28
ENDBRANCH  23  26
ENDBRANCH  18  23
ENDBRANCH  14  17
ENDBRANCH   8  13
ENDBRANCH   5   7
ENDBRANCH   4   5
ENDBRANCH   3   4
ENDBRANCH   2   3
ENDBRANCH   1   2
BRANCH   1  34
ATOM     34  C   UNL A   1      35.845  20.686  25.347  1.00  0.00     0.188 C 
BRANCH  34  35
ATOM     35  C   UNL A   1      36.983  21.403  24.608  1.00  0.00     0.188 C 
BRANCH  35  36
ATOM     36  O   UNL A   1      37.772  22.263  25.396  1.00  0.00    -0.376 OA
BRANCH  36  37
ATOM     37  C   UNL A   1      38.911  21.701  26.023  1.00  0.00     0.202 C 
BRANCH  37  38
ATOM     38  C   UNL A   1      39.487  20.401  25.439  1.00  0.00     0.261 C 
BRANCH  38  39
ATOM     39  O   UNL A   1      40.269  19.618  26.368  1.00  0.00    -0.460 OA
BRANCH  39  40
ATOM     40  C   UNL A   1      41.579  19.446  26.097  1.00  0.00     0.338 C 
ATOM     41  O   UNL A   1      42.091  18.469  25.579  1.00  0.00    -0.246 OA
BRANCH  40  42
ATOM     42  C   UNL A   1      42.358  20.645  26.502  1.00  0.00     0.060 A 
ATOM     43  C   UNL A   1      42.271  21.153  27.800  1.00  0.00     0.016 A 
ATOM     44  C   UNL A   1      43.032  21.382  25.530  1.00  0.00     0.016 A 
ATOM     45  C   UNL A   1      42.747  22.433  28.097  1.00  0.00     0.010 A 
ATOM     46  C   UNL A   1      43.570  22.640  25.847  1.00  0.00     0.010 A 
ATOM     47  C   UNL A   1      43.378  23.209  27.116  1.00  0.00    -0.014 A 
BRANCH  47  48
ATOM     48  C   UNL A   1      43.779  24.612  27.427  1.00  0.00     0.031 A 
ATOM     49  C   UNL A   1      42.745  25.686  27.675  1.00  0.00     0.074 A 
ATOM     50  C   UNL A   1      45.079  24.921  27.598  1.00  0.00     0.049 A 
ATOM     51  N   UNL A   1      42.918  26.884  28.181  1.00  0.00    -0.248 NA
ATOM     52  C   UNL A   1      41.337  25.353  27.432  1.00  0.00     0.031 C 
ATOM     53  C   UNL A   1      46.200  23.986  27.494  1.00  0.00     0.029 A 
ATOM     54  N   UNL A   1      45.678  26.128  27.875  1.00  0.00    -0.354 N 
ATOM     55  C   UNL A   1      41.646  27.395  28.404  1.00  0.00     0.074 A 
ATOM     56  C   UNL A   1      40.705  26.389  27.968  1.00  0.00     0.031 C 
ATOM     57  C   UNL A   1      47.348  24.658  27.664  1.00  0.00     0.029 A 
ATOM     58  C   UNL A   1      47.048  26.079  27.798  1.00  0.00     0.049 A 
ATOM     59  H   UNL A   1      45.176  26.943  28.105  1.00  0.00     0.167 HD
ATOM     60  C   UNL A   1      41.289  28.603  28.900  1.00  0.00     0.037 A 
ATOM     61  C   UNL A   1      47.954  27.075  27.739  1.00  0.00     0.037 A 
ATOM     62  C   UNL A   1      42.190  29.716  29.030  1.00  0.00     0.049 A 
ATOM     63  C   UNL A   1      47.486  28.498  27.853  1.00  0.00     0.074 A 
ATOM     64  C   UNL A   1      41.898  31.032  29.340  1.00  0.00     0.029 A 
ATOM     65  N   UNL A   1      43.543  29.667  28.732  1.00  0.00    -0.354 N 
ATOM     66  N   UNL A   1      46.294  28.952  28.150  1.00  0.00    -0.248 NA
ATOM     67  C   UNL A   1      48.484  29.547  27.605  1.00  0.00     0.031 C 
ATOM     68  C   UNL A   1      43.045  31.799  29.100  1.00  0.00     0.029 A 
ATOM     69  C   UNL A   1      44.075  30.946  28.740  1.00  0.00     0.049 A 
ATOM     70  H   UNL A   1      44.050  28.845  28.542  1.00  0.00     0.167 HD
ATOM     71  C   UNL A   1      46.400  30.336  28.149  1.00  0.00     0.074 A 
ATOM     72  C   UNL A   1      47.778  30.646  27.828  1.00  0.00     0.031 C 
ATOM     73  C   UNL A   1      45.441  31.261  28.402  1.00  0.00     0.037 A 
BRANCH  60  74
ATOM     74  C   UNL A   1      39.840  28.823  29.213  1.00  0.00     0.064 A 
ATOM     75  C   UNL A   1      39.334  28.595  30.502  1.00  0.00     0.173 A 
ATOM     76  C   UNL A   1      38.965  29.322  28.239  1.00  0.00     0.173 A 
ATOM     77  F   UNL A   1      40.137  28.115  31.464  1.00  0.00    -0.203 F 
ATOM     78  C   UNL A   1      38.000  28.861  30.802  1.00  0.00     0.198 A 
ATOM     79  C   UNL A   1      37.634  29.594  28.544  1.00  0.00     0.198 A 
ATOM     80  F   UNL A   1      39.408  29.555  26.995  1.00  0.00    -0.203 F 
ATOM     81  F   UNL A   1      37.534  28.639  32.039  1.00  0.00    -0.200 F 
ATOM     82  C   UNL A   1      37.153  29.363  29.824  1.00  0.00     0.200 A 
ATOM     83  F   UNL A   1      36.821  30.085  27.600  1.00  0.00    -0.200 F 
ATOM     84  F   UNL A   1      35.871  29.629  30.115  1.00  0.00    -0.200 F 
ENDBRANCH  60  74
BRANCH  61  85
ATOM     85  C   UNL A   1      49.370  26.751  27.423  1.00  0.00     0.064 A 
ATOM     86  C   UNL A   1      49.834  26.672  26.106  1.00  0.00     0.173 A 
ATOM     87  C   UNL A   1      50.292  26.504  28.456  1.00  0.00     0.173 A 
ATOM     88  F   UNL A   1      48.987  26.865  25.085  1.00  0.00    -0.203 F 
ATOM     89  C   UNL A   1      51.166  26.362  25.833  1.00  0.00     0.198 A 
ATOM     90  C   UNL A   1      51.628  26.231  28.184  1.00  0.00     0.198 A 
ATOM     91  F   UNL A   1      49.894  26.549  29.737  1.00  0.00    -0.203 F 
ATOM     92  F   UNL A   1      51.578  26.253  24.563  1.00  0.00    -0.200 F 
ATOM     93  C   UNL A   1      52.063  26.154  26.871  1.00  0.00     0.200 A 
ATOM     94  F   UNL A   1      52.490  26.045  29.193  1.00  0.00    -0.200 F 
ATOM     95  F   UNL A   1      53.346  25.870  26.606  1.00  0.00    -0.200 F 
ENDBRANCH  61  85
BRANCH  73  96
ATOM     96  C   UNL A   1      45.846  32.707  28.370  1.00  0.00     0.064 A 
ATOM     97  C   UNL A   1      46.465  33.327  29.466  1.00  0.00     0.173 A 
ATOM     98  C   UNL A   1      45.638  33.473  27.213  1.00  0.00     0.173 A 
ATOM     99  F   UNL A   1      46.673  32.642  30.601  1.00  0.00    -0.203 F 
ATOM    100  C   UNL A   1      46.831  34.670  29.414  1.00  0.00     0.198 A 
ATOM    101  C   UNL A   1      46.038  34.805  27.154  1.00  0.00     0.198 A 
ATOM    102  F   UNL A   1      45.056  32.928  26.135  1.00  0.00    -0.203 F 
ATOM    103  F   UNL A   1      47.369  35.257  30.492  1.00  0.00    -0.200 F 
ATOM    104  C   UNL A   1      46.625  35.405  28.256  1.00  0.00     0.200 A 
ATOM    105  F   UNL A   1      45.852  35.508  26.028  1.00  0.00    -0.200 F 
ATOM    106  F   UNL A   1      46.983  36.695  28.207  1.00  0.00    -0.200 F 
ENDBRANCH  73  96
ENDBRANCH  47  48
ENDBRANCH  40  42
ENDBRANCH  39  40
ENDBRANCH  38  39
ENDBRANCH  37  38
ENDBRANCH  36  37
ENDBRANCH  35  36
ENDBRANCH  34  35
ENDBRANCH   1  34
TORSDOF 22
ENDMDL
