MODEL 1
REMARK VINA RESULT:     -10.5      0.000      0.000
REMARK SMILES CC1(C)[C@H](C#N)C(SCC(=O)OCCOCCOCCOC(=O)c2ccc(-c3c4nc(c(-c5c(F)c(F)c(F)c(F)c5F)c5ccc([nH]5)c(-c5c(F)c(F)c(F)c(F)c5F)c5nc(c(-c6c(F)c(F)c(F)c(F)c6F)c6ccc3[nH]6)C=C5)C=C4)cc2)=NC(=O)[C@@H]1C#N
REMARK SMILES IDX 16 1 15 2 14 3 13 4 12 5 10 6 11 7 9 8 8 9 7 10 1 11 2 12
REMARK SMILES IDX 3 13 4 14 90 15 88 16 87 17 89 18 5 19 6 20 91 21 92 22
REMARK SMILES IDX 17 23 18 24 19 25 20 26 21 27 22 28 23 29 24 30 25 31 86 32
REMARK SMILES IDX 26 33 85 34 27 35 28 36 29 37 79 38 30 39 84 40 78 41 80 42
REMARK SMILES IDX 31 43 83 44 77 45 76 46 32 48 64 49 44 50 63 51 45 52 48 53
REMARK SMILES IDX 62 54 81 55 46 56 47 57 61 59 82 60 49 61 33 62 34 63 42 64
REMARK SMILES IDX 35 65 36 66 40 67 43 68 37 69 38 70 41 71 39 72 65 73 66 74
REMARK SMILES IDX 74 75 67 76 68 77 72 78 75 79 69 80 70 81 73 82 71 83 50 84
REMARK SMILES IDX 51 85 59 86 52 87 53 88 57 89 60 90 54 91 55 92 58 93 56 94
REMARK H PARENT 80 47 48 58
REMARK Flexibility Score: inf
ROOT
ATOM      1  C   UNL A   1      39.222  22.195  26.705  1.00  0.00     0.188 C 
ENDROOT
BRANCH   1   2
ATOM      2  O   UNL A   1      38.583  23.033  25.769  1.00  0.00    -0.376 OA
BRANCH   2   3
ATOM      3  C   UNL A   1      37.162  23.003  25.708  1.00  0.00     0.202 C 
BRANCH   3   4
ATOM      4  C   UNL A   1      36.442  21.717  25.249  1.00  0.00     0.261 C 
BRANCH   4   5
ATOM      5  O   UNL A   1      35.130  21.518  25.843  1.00  0.00    -0.463 OA
BRANCH   5   6
ATOM      6  C   UNL A   1      34.038  21.822  25.087  1.00  0.00     0.316 C 
ATOM      7  O   UNL A   1      33.530  21.028  24.298  1.00  0.00    -0.251 OA
BRANCH   6   8
ATOM      8  C   UNL A   1      33.348  23.157  25.416  1.00  0.00     0.198 C 
BRANCH   8   9
ATOM      9  S   UNL A   1      31.815  23.552  24.501  1.00  0.00    -0.097 SA
BRANCH   9  10
ATOM     10  C   UNL A   1      31.750  25.336  24.409  1.00  0.00     0.095 C 
ATOM     11  C   UNL A   1      34.068  27.516  26.125  1.00  0.00     0.015 C 
ATOM     12  C   UNL A   1      33.152  27.515  24.873  1.00  0.00     0.012 C 
ATOM     13  C   UNL A   1      33.770  28.541  23.884  1.00  0.00     0.015 C 
ATOM     14  C   UNL A   1      33.112  26.038  24.278  1.00  0.00     0.156 C 
ATOM     15  C   UNL A   1      31.732  27.962  25.326  1.00  0.00     0.191 C 
ATOM     16  C   UNL A   1      30.723  27.358  24.370  1.00  0.00     0.264 C 
ATOM     17  N   UNL A   1      30.626  25.978  24.445  1.00  0.00    -0.209 NA
ATOM     18  O   UNL A   1      30.027  28.018  23.612  1.00  0.00    -0.271 OA
BRANCH  14  19
ATOM     19  C   UNL A   1      33.445  25.979  22.837  1.00  0.00     0.073 C 
ATOM     20  N   UNL A   1      33.713  25.948  21.717  1.00  0.00    -0.198 NA
ENDBRANCH  14  19
BRANCH  15  21
ATOM     21  C   UNL A   1      31.553  29.419  25.468  1.00  0.00     0.076 C 
ATOM     22  N   UNL A   1      31.382  30.566  25.536  1.00  0.00    -0.197 NA
ENDBRANCH  15  21
ENDBRANCH   9  10
ENDBRANCH   8   9
ENDBRANCH   6   8
ENDBRANCH   5   6
ENDBRANCH   4   5
ENDBRANCH   3   4
ENDBRANCH   2   3
ENDBRANCH   1   2
BRANCH   1  23
ATOM     23  C   UNL A   1      40.228  21.150  26.193  1.00  0.00     0.188 C 
BRANCH  23  24
ATOM     24  O   UNL A   1      41.434  20.919  26.865  1.00  0.00    -0.376 OA
BRANCH  24  25
ATOM     25  C   UNL A   1      42.568  20.563  26.096  1.00  0.00     0.202 C 
BRANCH  25  26
ATOM     26  C   UNL A   1      43.489  21.588  25.391  1.00  0.00     0.261 C 
BRANCH  26  27
ATOM     27  O   UNL A   1      42.877  22.708  24.712  1.00  0.00    -0.460 OA
BRANCH  27  28
ATOM     28  C   UNL A   1      43.478  23.906  24.926  1.00  0.00     0.338 C 
ATOM     29  O   UNL A   1      44.554  24.257  24.461  1.00  0.00    -0.246 OA
BRANCH  28  30
ATOM     30  C   UNL A   1      42.647  24.898  25.656  1.00  0.00     0.060 A 
ATOM     31  C   UNL A   1      42.907  26.267  25.540  1.00  0.00     0.016 A 
ATOM     32  C   UNL A   1      41.902  24.451  26.744  1.00  0.00     0.016 A 
ATOM     33  C   UNL A   1      42.556  27.153  26.554  1.00  0.00     0.010 A 
ATOM     34  C   UNL A   1      41.479  25.359  27.728  1.00  0.00     0.010 A 
ATOM     35  C   UNL A   1      41.851  26.712  27.673  1.00  0.00    -0.014 A 
BRANCH  35  36
ATOM     36  C   UNL A   1      41.571  27.657  28.792  1.00  0.00     0.031 A 
ATOM     37  C   UNL A   1      42.455  27.685  30.014  1.00  0.00     0.074 A 
ATOM     38  C   UNL A   1      40.544  28.526  28.701  1.00  0.00     0.049 A 
ATOM     39  N   UNL A   1      42.263  28.286  31.163  1.00  0.00    -0.248 NA
ATOM     40  C   UNL A   1      43.717  26.935  29.937  1.00  0.00     0.031 C 
ATOM     41  C   UNL A   1      39.663  28.682  27.542  1.00  0.00     0.029 A 
ATOM     42  N   UNL A   1      40.065  29.443  29.604  1.00  0.00    -0.354 N 
ATOM     43  C   UNL A   1      43.354  27.950  31.958  1.00  0.00     0.074 A 
ATOM     44  C   UNL A   1      44.201  27.088  31.162  1.00  0.00     0.031 C 
ATOM     45  C   UNL A   1      38.770  29.647  27.794  1.00  0.00     0.029 A 
ATOM     46  C   UNL A   1      38.933  30.090  29.171  1.00  0.00     0.049 A 
ATOM     47  H   UNL A   1      40.490  29.619  30.475  1.00  0.00     0.167 HD
ATOM     48  C   UNL A   1      43.610  28.320  33.237  1.00  0.00     0.037 A 
ATOM     49  C   UNL A   1      38.071  30.891  29.826  1.00  0.00     0.037 A 
ATOM     50  C   UNL A   1      42.768  29.201  34.011  1.00  0.00     0.049 A 
ATOM     51  C   UNL A   1      38.319  31.202  31.272  1.00  0.00     0.074 A 
ATOM     52  C   UNL A   1      42.938  29.635  35.315  1.00  0.00     0.029 A 
ATOM     53  N   UNL A   1      41.595  29.784  33.550  1.00  0.00    -0.354 N 
ATOM     54  N   UNL A   1      39.310  30.825  32.042  1.00  0.00    -0.248 NA
ATOM     55  C   UNL A   1      37.320  32.041  31.943  1.00  0.00     0.031 C 
ATOM     56  C   UNL A   1      41.831  30.413  35.669  1.00  0.00     0.029 A 
ATOM     57  C   UNL A   1      41.012  30.540  34.558  1.00  0.00     0.049 A 
ATOM     58  H   UNL A   1      41.229  29.677  32.643  1.00  0.00     0.167 HD
ATOM     59  C   UNL A   1      39.070  31.401  33.281  1.00  0.00     0.074 A 
ATOM     60  C   UNL A   1      37.851  32.173  33.149  1.00  0.00     0.031 C 
ATOM     61  C   UNL A   1      39.794  31.299  34.423  1.00  0.00     0.037 A 
BRANCH  48  62
ATOM     62  C   UNL A   1      44.817  27.728  33.918  1.00  0.00     0.064 A 
ATOM     63  C   UNL A   1      44.797  26.464  34.525  1.00  0.00     0.173 A 
ATOM     64  C   UNL A   1      46.038  28.423  33.903  1.00  0.00     0.173 A 
ATOM     65  F   UNL A   1      43.660  25.753  34.571  1.00  0.00    -0.203 F 
ATOM     66  C   UNL A   1      45.944  25.930  35.111  1.00  0.00     0.198 A 
ATOM     67  C   UNL A   1      47.191  27.871  34.457  1.00  0.00     0.198 A 
ATOM     68  F   UNL A   1      46.123  29.631  33.326  1.00  0.00    -0.203 F 
ATOM     69  F   UNL A   1      45.893  24.737  35.720  1.00  0.00    -0.200 F 
ATOM     70  C   UNL A   1      47.141  26.628  35.068  1.00  0.00     0.200 A 
ATOM     71  F   UNL A   1      48.351  28.539  34.389  1.00  0.00    -0.200 F 
ATOM     72  F   UNL A   1      48.248  26.105  35.614  1.00  0.00    -0.200 F 
ENDBRANCH  48  62
BRANCH  49  73
ATOM     73  C   UNL A   1      36.857  31.390  29.126  1.00  0.00     0.064 A 
ATOM     74  C   UNL A   1      35.773  30.544  28.857  1.00  0.00     0.173 A 
ATOM     75  C   UNL A   1      36.751  32.733  28.724  1.00  0.00     0.173 A 
ATOM     76  F   UNL A   1      35.835  29.248  29.194  1.00  0.00    -0.203 F 
ATOM     77  C   UNL A   1      34.636  31.018  28.206  1.00  0.00     0.198 A 
ATOM     78  C   UNL A   1      35.597  33.214  28.114  1.00  0.00     0.198 A 
ATOM     79  F   UNL A   1      37.760  33.585  28.954  1.00  0.00    -0.203 F 
ATOM     80  F   UNL A   1      33.634  30.178  27.917  1.00  0.00    -0.200 F 
ATOM     81  C   UNL A   1      34.543  32.355  27.847  1.00  0.00     0.200 A 
ATOM     82  F   UNL A   1      35.504  34.512  27.793  1.00  0.00    -0.200 F 
ATOM     83  F   UNL A   1      33.441  32.814  27.240  1.00  0.00    -0.200 F 
ENDBRANCH  49  73
BRANCH  61  84
ATOM     84  C   UNL A   1      39.305  32.090  35.606  1.00  0.00     0.064 A 
ATOM     85  C   UNL A   1      38.464  31.530  36.580  1.00  0.00     0.173 A 
ATOM     86  C   UNL A   1      39.665  33.439  35.752  1.00  0.00     0.173 A 
ATOM     87  F   UNL A   1      38.076  30.249  36.483  1.00  0.00    -0.203 F 
ATOM     88  C   UNL A   1      37.952  32.305  37.618  1.00  0.00     0.198 A 
ATOM     89  C   UNL A   1      39.188  34.199  36.817  1.00  0.00     0.198 A 
ATOM     90  F   UNL A   1      40.476  34.025  34.859  1.00  0.00    -0.203 F 
ATOM     91  F   UNL A   1      37.078  31.772  38.482  1.00  0.00    -0.200 F 
ATOM     92  C   UNL A   1      38.318  33.638  37.738  1.00  0.00     0.200 A 
ATOM     93  F   UNL A   1      39.559  35.481  36.940  1.00  0.00    -0.200 F 
ATOM     94  F   UNL A   1      37.819  34.385  38.731  1.00  0.00    -0.200 F 
ENDBRANCH  61  84
ENDBRANCH  35  36
ENDBRANCH  28  30
ENDBRANCH  27  28
ENDBRANCH  26  27
ENDBRANCH  25  26
ENDBRANCH  24  25
ENDBRANCH  23  24
ENDBRANCH   1  23
TORSDOF 21
ENDMDL
MODEL 2
REMARK VINA RESULT:     -10.0      1.039      2.191
REMARK SMILES CC1(C)[C@H](C#N)C(SCC(=O)OCCOCCOCCOC(=O)c2ccc(-c3c4nc(c(-c5c(F)c(F)c(F)c(F)c5F)c5ccc([nH]5)c(-c5c(F)c(F)c(F)c(F)c5F)c5nc(c(-c6c(F)c(F)c(F)c(F)c6F)c6ccc3[nH]6)C=C5)C=C4)cc2)=NC(=O)[C@@H]1C#N
REMARK SMILES IDX 16 1 15 2 14 3 13 4 12 5 10 6 11 7 9 8 8 9 7 10 1 11 2 12
REMARK SMILES IDX 3 13 4 14 90 15 88 16 87 17 89 18 5 19 6 20 91 21 92 22
REMARK SMILES IDX 17 23 18 24 19 25 20 26 21 27 22 28 23 29 24 30 25 31 86 32
REMARK SMILES IDX 26 33 85 34 27 35 28 36 29 37 79 38 30 39 84 40 78 41 80 42
REMARK SMILES IDX 31 43 83 44 77 45 76 46 32 48 64 49 44 50 63 51 45 52 48 53
REMARK SMILES IDX 62 54 81 55 46 56 47 57 61 59 82 60 49 61 33 62 34 63 42 64
REMARK SMILES IDX 35 65 36 66 40 67 43 68 37 69 38 70 41 71 39 72 65 73 66 74
REMARK SMILES IDX 74 75 67 76 68 77 72 78 75 79 69 80 70 81 73 82 71 83 50 84
REMARK SMILES IDX 51 85 59 86 52 87 53 88 57 89 60 90 54 91 55 92 58 93 56 94
REMARK H PARENT 80 47 48 58
REMARK Flexibility Score: inf
ROOT
ATOM      1  C   UNL A   1      40.028  21.830  26.244  1.00  0.00     0.188 C 
ENDROOT
BRANCH   1   2
ATOM      2  O   UNL A   1      38.822  21.138  26.011  1.00  0.00    -0.376 OA
BRANCH   2   3
ATOM      3  C   UNL A   1      37.785  21.821  25.318  1.00  0.00     0.202 C 
BRANCH   3   4
ATOM      4  C   UNL A   1      36.351  21.821  25.890  1.00  0.00     0.261 C 
BRANCH   4   5
ATOM      5  O   UNL A   1      35.312  22.082  24.908  1.00  0.00    -0.463 OA
BRANCH   5   6
ATOM      6  C   UNL A   1      34.409  21.092  24.661  1.00  0.00     0.316 C 
ATOM      7  O   UNL A   1      34.708  19.900  24.663  1.00  0.00    -0.251 OA
BRANCH   6   8
ATOM      8  C   UNL A   1      32.939  21.535  24.570  1.00  0.00     0.198 C 
BRANCH   8   9
ATOM      9  S   UNL A   1      32.273  22.512  25.965  1.00  0.00    -0.097 SA
BRANCH   9  10
ATOM     10  C   UNL A   1      32.496  24.226  25.508  1.00  0.00     0.095 C 
ATOM     11  C   UNL A   1      31.536  25.584  22.298  1.00  0.00     0.015 C 
ATOM     12  C   UNL A   1      31.746  26.049  23.764  1.00  0.00     0.012 C 
ATOM     13  C   UNL A   1      30.859  27.311  23.949  1.00  0.00     0.015 C 
ATOM     14  C   UNL A   1      31.327  24.858  24.736  1.00  0.00     0.156 C 
ATOM     15  C   UNL A   1      33.252  26.396  23.940  1.00  0.00     0.191 C 
ATOM     16  C   UNL A   1      33.612  26.198  25.399  1.00  0.00     0.264 C 
ATOM     17  N   UNL A   1      33.571  24.879  25.820  1.00  0.00    -0.209 NA
ATOM     18  O   UNL A   1      33.939  27.108  26.146  1.00  0.00    -0.271 OA
BRANCH  14  19
ATOM     19  C   UNL A   1      30.348  25.263  25.769  1.00  0.00     0.073 C 
ATOM     20  N   UNL A   1      29.599  25.582  26.585  1.00  0.00    -0.198 NA
ENDBRANCH  14  19
BRANCH  15  21
ATOM     21  C   UNL A   1      33.646  27.730  23.451  1.00  0.00     0.076 C 
ATOM     22  N   UNL A   1      34.003  28.760  23.051  1.00  0.00    -0.197 NA
ENDBRANCH  15  21
ENDBRANCH   9  10
ENDBRANCH   8   9
ENDBRANCH   6   8
ENDBRANCH   5   6
ENDBRANCH   4   5
ENDBRANCH   3   4
ENDBRANCH   2   3
ENDBRANCH   1   2
BRANCH   1  23
ATOM     23  C   UNL A   1      41.089  21.180  27.149  1.00  0.00     0.188 C 
BRANCH  23  24
ATOM     24  O   UNL A   1      42.202  20.529  26.604  1.00  0.00    -0.376 OA
BRANCH  24  25
ATOM     25  C   UNL A   1      43.332  21.313  26.269  1.00  0.00     0.202 C 
BRANCH  25  26
ATOM     26  C   UNL A   1      43.680  21.754  24.827  1.00  0.00     0.261 C 
BRANCH  26  27
ATOM     27  O   UNL A   1      43.174  23.024  24.357  1.00  0.00    -0.460 OA
BRANCH  27  28
ATOM     28  C   UNL A   1      43.814  24.114  24.852  1.00  0.00     0.338 C 
ATOM     29  O   UNL A   1      44.980  24.415  24.636  1.00  0.00    -0.246 OA
BRANCH  28  30
ATOM     30  C   UNL A   1      42.940  25.076  25.571  1.00  0.00     0.060 A 
ATOM     31  C   UNL A   1      43.143  26.454  25.447  1.00  0.00     0.016 A 
ATOM     32  C   UNL A   1      42.211  24.606  26.661  1.00  0.00     0.016 A 
ATOM     33  C   UNL A   1      42.753  27.331  26.454  1.00  0.00     0.010 A 
ATOM     34  C   UNL A   1      41.747  25.502  27.637  1.00  0.00     0.010 A 
ATOM     35  C   UNL A   1      42.063  26.869  27.574  1.00  0.00    -0.014 A 
BRANCH  35  36
ATOM     36  C   UNL A   1      41.740  27.808  28.685  1.00  0.00     0.031 A 
ATOM     37  C   UNL A   1      42.630  27.897  29.901  1.00  0.00     0.074 A 
ATOM     38  C   UNL A   1      40.668  28.621  28.593  1.00  0.00     0.049 A 
ATOM     39  N   UNL A   1      42.413  28.499  31.045  1.00  0.00    -0.248 NA
ATOM     40  C   UNL A   1      43.929  27.214  29.822  1.00  0.00     0.031 C 
ATOM     41  C   UNL A   1      39.771  28.717  27.440  1.00  0.00     0.029 A 
ATOM     42  N   UNL A   1      40.146  29.520  29.491  1.00  0.00    -0.354 N 
ATOM     43  C   UNL A   1      43.526  28.229  31.835  1.00  0.00     0.074 A 
ATOM     44  C   UNL A   1      44.413  27.406  31.042  1.00  0.00     0.031 C 
ATOM     45  C   UNL A   1      38.830  29.636  27.689  1.00  0.00     0.029 A 
ATOM     46  C   UNL A   1      38.978  30.101  29.060  1.00  0.00     0.049 A 
ATOM     47  H   UNL A   1      40.567  29.728  30.357  1.00  0.00     0.167 HD
ATOM     48  C   UNL A   1      43.771  28.625  33.109  1.00  0.00     0.037 A 
ATOM     49  C   UNL A   1      38.079  30.861  29.713  1.00  0.00     0.037 A 
ATOM     50  C   UNL A   1      42.888  29.469  33.880  1.00  0.00     0.049 A 
ATOM     51  C   UNL A   1      38.320  31.200  31.154  1.00  0.00     0.074 A 
ATOM     52  C   UNL A   1      43.044  29.925  35.179  1.00  0.00     0.029 A 
ATOM     53  N   UNL A   1      41.682  29.983  33.423  1.00  0.00    -0.354 N 
ATOM     54  N   UNL A   1      39.335  30.885  31.921  1.00  0.00    -0.248 NA
ATOM     55  C   UNL A   1      37.282  31.991  31.824  1.00  0.00     0.031 C 
ATOM     56  C   UNL A   1      41.899  30.645  35.533  1.00  0.00     0.029 A 
ATOM     57  C   UNL A   1      41.067  30.717  34.427  1.00  0.00     0.049 A 
ATOM     58  H   UNL A   1      41.316  29.847  32.519  1.00  0.00     0.167 HD
ATOM     59  C   UNL A   1      39.073  31.460  33.156  1.00  0.00     0.074 A 
ATOM     60  C   UNL A   1      37.813  32.164  33.025  1.00  0.00     0.031 C 
ATOM     61  C   UNL A   1      39.809  31.408  34.294  1.00  0.00     0.037 A 
BRANCH  48  62
ATOM     62  C   UNL A   1      45.012  28.106  33.786  1.00  0.00     0.064 A 
ATOM     63  C   UNL A   1      46.219  28.820  33.803  1.00  0.00     0.173 A 
ATOM     64  C   UNL A   1      44.967  26.890  34.490  1.00  0.00     0.173 A 
ATOM     65  F   UNL A   1      46.324  29.986  33.149  1.00  0.00    -0.203 F 
ATOM     66  C   UNL A   1      47.337  28.327  34.476  1.00  0.00     0.198 A 
ATOM     67  C   UNL A   1      46.074  26.418  35.192  1.00  0.00     0.198 A 
ATOM     68  F   UNL A   1      43.836  26.167  34.522  1.00  0.00    -0.203 F 
ATOM     69  F   UNL A   1      48.492  29.007  34.445  1.00  0.00    -0.200 F 
ATOM     70  C   UNL A   1      47.261  27.133  35.177  1.00  0.00     0.200 A 
ATOM     71  F   UNL A   1      45.987  25.277  35.889  1.00  0.00    -0.200 F 
ATOM     72  F   UNL A   1      48.331  26.670  35.839  1.00  0.00    -0.200 F 
ENDBRANCH  48  62
BRANCH  49  73
ATOM     73  C   UNL A   1      36.835  31.287  29.017  1.00  0.00     0.064 A 
ATOM     74  C   UNL A   1      35.795  30.383  28.768  1.00  0.00     0.173 A 
ATOM     75  C   UNL A   1      36.657  32.617  28.600  1.00  0.00     0.173 A 
ATOM     76  F   UNL A   1      35.927  29.096  29.121  1.00  0.00    -0.203 F 
ATOM     77  C   UNL A   1      34.629  30.789  28.121  1.00  0.00     0.198 A 
ATOM     78  C   UNL A   1      35.474  33.031  27.994  1.00  0.00     0.198 A 
ATOM     79  F   UNL A   1      37.621  33.525  28.811  1.00  0.00    -0.203 F 
ATOM     80  F   UNL A   1      33.670  29.894  27.851  1.00  0.00    -0.200 F 
ATOM     81  C   UNL A   1      34.464  32.114  27.746  1.00  0.00     0.200 A 
ATOM     82  F   UNL A   1      35.311  34.317  27.657  1.00  0.00    -0.200 F 
ATOM     83  F   UNL A   1      33.335  32.507  27.143  1.00  0.00    -0.200 F 
ENDBRANCH  49  73
BRANCH  61  84
ATOM     84  C   UNL A   1      39.286  32.184  35.472  1.00  0.00     0.064 A 
ATOM     85  C   UNL A   1      39.584  33.542  35.662  1.00  0.00     0.173 A 
ATOM     86  C   UNL A   1      38.494  31.547  36.442  1.00  0.00     0.173 A 
ATOM     87  F   UNL A   1      40.348  34.197  34.775  1.00  0.00    -0.203 F 
ATOM     88  C   UNL A   1      39.162  34.216  36.806  1.00  0.00     0.198 A 
ATOM     89  C   UNL A   1      38.036  32.236  37.561  1.00  0.00     0.198 A 
ATOM     90  F   UNL A   1      38.168  30.253  36.307  1.00  0.00    -0.203 F 
ATOM     91  F   UNL A   1      39.536  35.486  37.008  1.00  0.00    -0.200 F 
ATOM     92  C   UNL A   1      38.385  33.564  37.752  1.00  0.00     0.200 A 
ATOM     93  F   UNL A   1      37.270  31.609  38.464  1.00  0.00    -0.200 F 
ATOM     94  F   UNL A   1      37.988  34.210  38.855  1.00  0.00    -0.200 F 
ENDBRANCH  61  84
ENDBRANCH  35  36
ENDBRANCH  28  30
ENDBRANCH  27  28
ENDBRANCH  26  27
ENDBRANCH  25  26
ENDBRANCH  24  25
ENDBRANCH  23  24
ENDBRANCH   1  23
TORSDOF 21
ENDMDL
MODEL 3
REMARK VINA RESULT:     -10.0      3.659      9.261
REMARK SMILES CC1(C)[C@H](C#N)C(SCC(=O)OCCOCCOCCOC(=O)c2ccc(-c3c4nc(c(-c5c(F)c(F)c(F)c(F)c5F)c5ccc([nH]5)c(-c5c(F)c(F)c(F)c(F)c5F)c5nc(c(-c6c(F)c(F)c(F)c(F)c6F)c6ccc3[nH]6)C=C5)C=C4)cc2)=NC(=O)[C@@H]1C#N
REMARK SMILES IDX 16 1 15 2 14 3 13 4 12 5 10 6 11 7 9 8 8 9 7 10 1 11 2 12
REMARK SMILES IDX 3 13 4 14 90 15 88 16 87 17 89 18 5 19 6 20 91 21 92 22
REMARK SMILES IDX 17 23 18 24 19 25 20 26 21 27 22 28 23 29 24 30 25 31 86 32
REMARK SMILES IDX 26 33 85 34 27 35 28 36 29 37 79 38 30 39 84 40 78 41 80 42
REMARK SMILES IDX 31 43 83 44 77 45 76 46 32 48 64 49 44 50 63 51 45 52 48 53
REMARK SMILES IDX 62 54 81 55 46 56 47 57 61 59 82 60 49 61 33 62 34 63 42 64
REMARK SMILES IDX 35 65 36 66 40 67 43 68 37 69 38 70 41 71 39 72 65 73 66 74
REMARK SMILES IDX 74 75 67 76 68 77 72 78 75 79 69 80 70 81 73 82 71 83 50 84
REMARK SMILES IDX 51 85 59 86 52 87 53 88 57 89 60 90 54 91 55 92 58 93 56 94
REMARK H PARENT 80 47 48 58
REMARK Flexibility Score: inf
ROOT
ATOM      1  C   UNL A   1      34.400  30.363  27.583  1.00  0.00     0.188 C 
ENDROOT
BRANCH   1   2
ATOM      2  O   UNL A   1      33.527  30.586  26.499  1.00  0.00    -0.376 OA
BRANCH   2   3
ATOM      3  C   UNL A   1      32.423  29.703  26.340  1.00  0.00     0.202 C 
BRANCH   3   4
ATOM      4  C   UNL A   1      32.300  28.853  25.058  1.00  0.00     0.261 C 
BRANCH   4   5
ATOM      5  O   UNL A   1      31.013  28.956  24.389  1.00  0.00    -0.463 OA
BRANCH   5   6
ATOM      6  C   UNL A   1      30.471  27.815  23.877  1.00  0.00     0.316 C 
ATOM      7  O   UNL A   1      29.501  27.817  23.122  1.00  0.00    -0.251 OA
BRANCH   6   8
ATOM      8  C   UNL A   1      31.263  26.523  24.139  1.00  0.00     0.198 C 
BRANCH   8   9
ATOM      9  S   UNL A   1      30.569  24.969  23.470  1.00  0.00    -0.097 SA
BRANCH   9  10
ATOM     10  C   UNL A   1      31.615  23.661  24.096  1.00  0.00     0.095 C 
ATOM     11  C   UNL A   1      34.782  24.242  25.740  1.00  0.00     0.015 C 
ATOM     12  C   UNL A   1      33.649  23.183  25.698  1.00  0.00     0.012 C 
ATOM     13  C   UNL A   1      33.700  22.439  27.060  1.00  0.00     0.015 C 
ATOM     14  C   UNL A   1      32.264  23.935  25.463  1.00  0.00     0.156 C 
ATOM     15  C   UNL A   1      33.951  22.212  24.520  1.00  0.00     0.191 C 
ATOM     16  C   UNL A   1      32.636  21.636  24.037  1.00  0.00     0.264 C 
ATOM     17  N   UNL A   1      31.797  22.562  23.436  1.00  0.00    -0.209 NA
ATOM     18  O   UNL A   1      32.336  20.456  24.134  1.00  0.00    -0.271 OA
BRANCH  14  19
ATOM     19  C   UNL A   1      31.232  23.585  26.464  1.00  0.00     0.073 C 
ATOM     20  N   UNL A   1      30.431  23.327  27.252  1.00  0.00    -0.198 NA
ENDBRANCH  14  19
BRANCH  15  21
ATOM     21  C   UNL A   1      34.938  21.158  24.819  1.00  0.00     0.076 C 
ATOM     22  N   UNL A   1      35.714  20.314  25.004  1.00  0.00    -0.197 NA
ENDBRANCH  15  21
ENDBRANCH   9  10
ENDBRANCH   8   9
ENDBRANCH   6   8
ENDBRANCH   5   6
ENDBRANCH   4   5
ENDBRANCH   3   4
ENDBRANCH   2   3
ENDBRANCH   1   2
BRANCH   1  23
ATOM     23  C   UNL A   1      34.865  31.571  28.416  1.00  0.00     0.188 C 
BRANCH  23  24
ATOM     24  O   UNL A   1      34.472  32.872  28.082  1.00  0.00    -0.376 OA
BRANCH  24  25
ATOM     25  C   UNL A   1      34.550  33.869  29.084  1.00  0.00     0.202 C 
BRANCH  25  26
ATOM     26  C   UNL A   1      33.541  35.033  29.224  1.00  0.00     0.261 C 
BRANCH  26  27
ATOM     27  O   UNL A   1      32.539  34.951  30.264  1.00  0.00    -0.460 OA
BRANCH  27  28
ATOM     28  C   UNL A   1      32.762  35.751  31.338  1.00  0.00     0.338 C 
ATOM     29  O   UNL A   1      32.154  36.780  31.600  1.00  0.00    -0.246 OA
BRANCH  28  30
ATOM     30  C   UNL A   1      33.719  35.204  32.335  1.00  0.00     0.060 A 
ATOM     31  C   UNL A   1      34.985  35.774  32.496  1.00  0.00     0.016 A 
ATOM     32  C   UNL A   1      33.509  33.906  32.795  1.00  0.00     0.016 A 
ATOM     33  C   UNL A   1      36.054  35.024  32.974  1.00  0.00     0.010 A 
ATOM     34  C   UNL A   1      34.572  33.176  33.352  1.00  0.00     0.010 A 
ATOM     35  C   UNL A   1      35.871  33.708  33.394  1.00  0.00    -0.014 A 
BRANCH  35  36
ATOM     36  C   UNL A   1      37.047  32.892  33.811  1.00  0.00     0.031 A 
ATOM     37  C   UNL A   1      37.713  33.128  35.144  1.00  0.00     0.074 A 
ATOM     38  C   UNL A   1      37.501  31.904  33.014  1.00  0.00     0.049 A 
ATOM     39  N   UNL A   1      38.853  32.665  35.595  1.00  0.00    -0.248 NA
ATOM     40  C   UNL A   1      37.009  34.005  36.091  1.00  0.00     0.031 C 
ATOM     41  C   UNL A   1      36.901  31.495  31.743  1.00  0.00     0.029 A 
ATOM     42  N   UNL A   1      38.578  31.064  33.154  1.00  0.00    -0.354 N 
ATOM     43  C   UNL A   1      39.023  33.229  36.856  1.00  0.00     0.074 A 
ATOM     44  C   UNL A   1      37.872  34.072  37.096  1.00  0.00     0.031 C 
ATOM     45  C   UNL A   1      37.600  30.473  31.233  1.00  0.00     0.029 A 
ATOM     46  C   UNL A   1      38.766  30.237  32.074  1.00  0.00     0.049 A 
ATOM     47  H   UNL A   1      39.158  31.054  33.950  1.00  0.00     0.167 HD
ATOM     48  C   UNL A   1      40.054  33.063  37.721  1.00  0.00     0.037 A 
ATOM     49  C   UNL A   1      39.796  29.434  31.747  1.00  0.00     0.037 A 
ATOM     50  C   UNL A   1      41.185  32.198  37.479  1.00  0.00     0.049 A 
ATOM     51  C   UNL A   1      40.974  29.347  32.671  1.00  0.00     0.074 A 
ATOM     52  C   UNL A   1      42.282  31.962  38.291  1.00  0.00     0.029 A 
ATOM     53  N   UNL A   1      41.364  31.426  36.339  1.00  0.00    -0.354 N 
ATOM     54  N   UNL A   1      41.167  29.935  33.825  1.00  0.00    -0.248 NA
ATOM     55  C   UNL A   1      42.085  28.492  32.238  1.00  0.00     0.031 C 
ATOM     56  C   UNL A   1      43.160  31.113  37.609  1.00  0.00     0.029 A 
ATOM     57  C   UNL A   1      42.572  30.746  36.410  1.00  0.00     0.049 A 
ATOM     58  H   UNL A   1      40.728  31.370  35.589  1.00  0.00     0.167 HD
ATOM     59  C   UNL A   1      42.407  29.503  34.272  1.00  0.00     0.074 A 
ATOM     60  C   UNL A   1      42.908  28.582  33.271  1.00  0.00     0.031 C 
ATOM     61  C   UNL A   1      43.069  29.838  35.407  1.00  0.00     0.037 A 
BRANCH  48  62
ATOM     62  C   UNL A   1      40.053  33.877  38.989  1.00  0.00     0.064 A 
ATOM     63  C   UNL A   1      40.704  35.115  39.092  1.00  0.00     0.173 A 
ATOM     64  C   UNL A   1      39.328  33.428  40.107  1.00  0.00     0.173 A 
ATOM     65  F   UNL A   1      41.412  35.595  38.059  1.00  0.00    -0.203 F 
ATOM     66  C   UNL A   1      40.648  35.860  40.269  1.00  0.00     0.198 A 
ATOM     67  C   UNL A   1      39.244  34.193  41.268  1.00  0.00     0.198 A 
ATOM     68  F   UNL A   1      38.675  32.257  40.065  1.00  0.00    -0.203 F 
ATOM     69  F   UNL A   1      41.310  37.023  40.359  1.00  0.00    -0.200 F 
ATOM     70  C   UNL A   1      39.911  35.404  41.352  1.00  0.00     0.200 A 
ATOM     71  F   UNL A   1      38.510  33.759  42.302  1.00  0.00    -0.200 F 
ATOM     72  F   UNL A   1      39.843  36.131  42.476  1.00  0.00    -0.200 F 
ENDBRANCH  48  62
BRANCH  49  73
ATOM     73  C   UNL A   1      39.777  28.708  30.448  1.00  0.00     0.064 A 
ATOM     74  C   UNL A   1      40.293  29.290  29.283  1.00  0.00     0.173 A 
ATOM     75  C   UNL A   1      39.254  27.407  30.352  1.00  0.00     0.173 A 
ATOM     76  F   UNL A   1      40.777  30.539  29.316  1.00  0.00    -0.203 F 
ATOM     77  C   UNL A   1      40.278  28.602  28.070  1.00  0.00     0.198 A 
ATOM     78  C   UNL A   1      39.281  26.706  29.150  1.00  0.00     0.198 A 
ATOM     79  F   UNL A   1      38.746  26.803  31.436  1.00  0.00    -0.203 F 
ATOM     80  F   UNL A   1      40.733  29.199  26.961  1.00  0.00    -0.200 F 
ATOM     81  C   UNL A   1      39.785  27.307  28.007  1.00  0.00     0.200 A 
ATOM     82  F   UNL A   1      38.827  25.446  29.102  1.00  0.00    -0.200 F 
ATOM     83  F   UNL A   1      39.791  26.641  26.846  1.00  0.00    -0.200 F 
ENDBRANCH  49  73
BRANCH  61  84
ATOM     84  C   UNL A   1      44.390  29.158  35.645  1.00  0.00     0.064 A 
ATOM     85  C   UNL A   1      45.596  29.679  35.151  1.00  0.00     0.173 A 
ATOM     86  C   UNL A   1      44.445  27.950  36.357  1.00  0.00     0.173 A 
ATOM     87  F   UNL A   1      45.601  30.824  34.450  1.00  0.00    -0.203 F 
ATOM     88  C   UNL A   1      46.794  28.987  35.307  1.00  0.00     0.198 A 
ATOM     89  C   UNL A   1      45.651  27.283  36.551  1.00  0.00     0.198 A 
ATOM     90  F   UNL A   1      43.325  27.410  36.863  1.00  0.00    -0.203 F 
ATOM     91  F   UNL A   1      47.916  29.459  34.748  1.00  0.00    -0.200 F 
ATOM     92  C   UNL A   1      46.821  27.792  36.011  1.00  0.00     0.200 A 
ATOM     93  F   UNL A   1      45.677  26.138  37.247  1.00  0.00    -0.200 F 
ATOM     94  F   UNL A   1      47.973  27.122  36.153  1.00  0.00    -0.200 F 
ENDBRANCH  61  84
ENDBRANCH  35  36
ENDBRANCH  28  30
ENDBRANCH  27  28
ENDBRANCH  26  27
ENDBRANCH  25  26
ENDBRANCH  24  25
ENDBRANCH  23  24
ENDBRANCH   1  23
TORSDOF 21
ENDMDL
