MODEL 1
REMARK VINA RESULT:      -9.9      0.000      0.000
REMARK SMILES C#CCN(CC(=O)OCCOCCOCCOC(=O)c1ccc(-c2c3nc(c(-c4c(F)c(F)c(F)c(F)c4F)c4ccc([nH]4)c(-c4c(F)c(F)c(F)c(F)c4F)c4nc(c(-c5c(F)c(F)c(F)c(F)c5F)c5ccc2[nH]5)C=C4)C=C3)cc1)C(=O)N1CC[N@@H+]2CCC[C@H]2C1
REMARK SMILES IDX 12 1 11 2 10 3 9 4 8 5 6 6 7 7 5 8 4 9 3 10 2 11 1 12 83 13
REMARK SMILES IDX 84 14 85 15 86 16 93 17 87 18 92 19 88 20 91 21 89 22 90 24
REMARK SMILES IDX 13 25 14 26 15 27 16 28 17 29 18 30 19 31 20 32 21 33 82 34
REMARK SMILES IDX 22 35 81 36 23 37 24 38 25 39 75 40 26 41 80 42 74 43 76 44
REMARK SMILES IDX 27 45 79 46 73 47 72 48 28 50 60 51 40 52 59 53 41 54 44 55
REMARK SMILES IDX 58 56 77 57 42 58 43 59 57 61 78 62 45 63 29 64 30 65 38 66
REMARK SMILES IDX 31 67 32 68 36 69 39 70 33 71 34 72 37 73 35 74 61 75 62 76
REMARK SMILES IDX 70 77 63 78 64 79 68 80 71 81 65 82 66 83 69 84 67 85 46 86
REMARK SMILES IDX 47 87 55 88 48 89 49 90 53 91 56 92 50 93 51 94 54 95 52 96
REMARK H PARENT 88 23 76 49 44 60
REMARK Flexibility Score: inf
ROOT
ATOM      1  C   UNL A   1      33.117  34.963  29.524  1.00  0.00     0.188 C 
ENDROOT
BRANCH   1   2
ATOM      2  O   UNL A   1      34.417  34.799  29.045  1.00  0.00    -0.376 OA
BRANCH   2   3
ATOM      3  C   UNL A   1      34.533  33.834  28.032  1.00  0.00     0.202 C 
BRANCH   3   4
ATOM      4  C   UNL A   1      33.807  32.449  28.140  1.00  0.00     0.261 C 
BRANCH   4   5
ATOM      5  O   UNL A   1      33.932  31.443  27.063  1.00  0.00    -0.462 OA
BRANCH   5   6
ATOM      6  C   UNL A   1      34.026  30.117  27.363  1.00  0.00     0.325 C 
ATOM      7  O   UNL A   1      34.962  29.658  28.016  1.00  0.00    -0.250 OA
BRANCH   6   8
ATOM      8  C   UNL A   1      32.884  29.149  26.805  1.00  0.00     0.245 C 
BRANCH   8   9
ATOM      9  N   UNL A   1      32.522  28.786  25.380  1.00  0.00    -0.302 N 
BRANCH   9  10
ATOM     10  C   UNL A   1      31.426  29.498  24.844  1.00  0.00     0.211 C 
BRANCH  10  11
ATOM     11  C   UNL A   1      30.420  28.801  23.942  1.00  0.00    -0.085 C 
ATOM     12  C   UNL A   1      29.558  28.204  23.169  1.00  0.00     0.006 C 
ENDBRANCH  10  11
ENDBRANCH   9  10
BRANCH   9  13
ATOM     13  C   UNL A   1      33.096  28.079  24.347  1.00  0.00     0.321 C 
ATOM     14  O   UNL A   1      33.678  28.623  23.404  1.00  0.00    -0.248 OA
BRANCH  13  15
ATOM     15  N   UNL A   1      33.140  26.735  24.390  1.00  0.00    -0.313 N 
ATOM     16  C   UNL A   1      32.504  25.878  23.183  1.00  0.00     0.183 C 
ATOM     17  C   UNL A   1      34.041  26.124  25.732  1.00  0.00     0.186 C 
ATOM     18  C   UNL A   1      32.312  24.205  23.037  1.00  0.00     0.284 C 
ATOM     19  C   UNL A   1      33.811  24.289  25.972  1.00  0.00     0.204 C 
ATOM     20  N   UNL A   1      33.018  23.229  24.315  1.00  0.00    -0.330 N 
ATOM     21  C   UNL A   1      34.465  23.230  26.282  1.00  0.00     0.073 C 
ATOM     22  C   UNL A   1      32.343  22.034  24.100  1.00  0.00     0.262 C 
ATOM     23  H   UNL A   1      33.957  22.872  24.498  1.00  0.00     0.348 HD
ATOM     24  C   UNL A   1      33.641  21.966  24.695  1.00  0.00     0.068 C 
ENDBRANCH  13  15
ENDBRANCH   9  13
ENDBRANCH   8   9
ENDBRANCH   6   8
ENDBRANCH   5   6
ENDBRANCH   4   5
ENDBRANCH   3   4
ENDBRANCH   2   3
ENDBRANCH   1   2
BRANCH   1  25
ATOM     25  C   UNL A   1      32.858  36.027  30.642  1.00  0.00     0.188 C 
BRANCH  25  26
ATOM     26  O   UNL A   1      34.017  36.161  31.422  1.00  0.00    -0.376 OA
BRANCH  26  27
ATOM     27  C   UNL A   1      33.718  36.016  32.803  1.00  0.00     0.202 C 
BRANCH  27  28
ATOM     28  C   UNL A   1      34.386  34.826  33.553  1.00  0.00     0.261 C 
BRANCH  28  29
ATOM     29  O   UNL A   1      35.463  34.065  32.902  1.00  0.00    -0.460 OA
BRANCH  29  30
ATOM     30  C   UNL A   1      35.205  32.878  32.292  1.00  0.00     0.338 C 
ATOM     31  O   UNL A   1      34.067  32.451  32.148  1.00  0.00    -0.246 OA
BRANCH  30  32
ATOM     32  C   UNL A   1      36.470  31.934  32.098  1.00  0.00     0.060 A 
ATOM     33  C   UNL A   1      37.857  30.947  33.252  1.00  0.00     0.016 A 
ATOM     34  C   UNL A   1      36.722  32.180  30.196  1.00  0.00     0.016 A 
ATOM     35  C   UNL A   1      39.336  30.380  32.176  1.00  0.00     0.010 A 
ATOM     36  C   UNL A   1      38.290  31.619  29.185  1.00  0.00     0.010 A 
ATOM     37  C   UNL A   1      39.565  30.651  30.309  1.00  0.00    -0.014 A 
BRANCH  37  38
ATOM     38  C   UNL A   1      40.805  30.054  29.812  1.00  0.00     0.031 A 
ATOM     39  C   UNL A   1      41.905  31.024  29.624  1.00  0.00     0.074 A 
ATOM     40  C   UNL A   1      40.824  28.733  29.508  1.00  0.00     0.049 A 
ATOM     41  N   UNL A   1      42.980  30.892  28.917  1.00  0.00    -0.248 NA
ATOM     42  C   UNL A   1      41.793  32.340  30.286  1.00  0.00     0.031 C 
ATOM     43  C   UNL A   1      39.827  27.698  29.832  1.00  0.00     0.029 A 
ATOM     44  N   UNL A   1      41.707  28.007  28.762  1.00  0.00    -0.354 N 
ATOM     45  C   UNL A   1      43.640  32.099  29.059  1.00  0.00     0.074 A 
ATOM     46  C   UNL A   1      42.781  33.017  29.743  1.00  0.00     0.031 C 
ATOM     47  C   UNL A   1      40.024  26.574  29.148  1.00  0.00     0.029 A 
ATOM     48  C   UNL A   1      41.234  26.754  28.412  1.00  0.00     0.049 A 
ATOM     49  H   UNL A   1      42.594  28.341  28.499  1.00  0.00     0.167 HD
ATOM     50  C   UNL A   1      44.919  32.351  28.744  1.00  0.00     0.037 A 
ATOM     51  C   UNL A   1      41.745  25.824  27.600  1.00  0.00     0.037 A 
ATOM     52  C   UNL A   1      45.704  31.343  28.105  1.00  0.00     0.049 A 
ATOM     53  C   UNL A   1      43.110  26.168  27.129  1.00  0.00     0.074 A 
ATOM     54  C   UNL A   1      46.999  31.402  27.655  1.00  0.00     0.029 A 
ATOM     55  N   UNL A   1      45.219  30.062  27.821  1.00  0.00    -0.354 N 
ATOM     56  N   UNL A   1      43.746  27.309  27.274  1.00  0.00    -0.248 NA
ATOM     57  C   UNL A   1      43.869  25.108  26.486  1.00  0.00     0.031 C 
ATOM     58  C   UNL A   1      47.264  30.186  27.017  1.00  0.00     0.029 A 
ATOM     59  C   UNL A   1      46.172  29.332  27.154  1.00  0.00     0.049 A 
ATOM     60  H   UNL A   1      44.323  29.732  28.064  1.00  0.00     0.167 HD
ATOM     61  C   UNL A   1      45.014  27.100  26.794  1.00  0.00     0.074 A 
ATOM     62  C   UNL A   1      45.044  25.707  26.355  1.00  0.00     0.031 C 
ATOM     63  C   UNL A   1      46.063  27.956  26.727  1.00  0.00     0.037 A 
BRANCH  50  64
ATOM     64  C   UNL A   1      45.429  33.723  29.059  1.00  0.00     0.064 A 
ATOM     65  C   UNL A   1      45.252  34.813  28.184  1.00  0.00     0.173 A 
ATOM     66  C   UNL A   1      46.239  33.917  30.183  1.00  0.00     0.173 A 
ATOM     67  F   UNL A   1      44.546  34.666  27.051  1.00  0.00    -0.203 F 
ATOM     68  C   UNL A   1      45.899  36.028  28.406  1.00  0.00     0.198 A 
ATOM     69  C   UNL A   1      46.851  35.145  30.423  1.00  0.00     0.198 A 
ATOM     70  F   UNL A   1      46.485  32.899  31.021  1.00  0.00    -0.203 F 
ATOM     71  F   UNL A   1      45.800  37.015  27.504  1.00  0.00    -0.200 F 
ATOM     72  C   UNL A   1      46.690  36.194  29.530  1.00  0.00     0.200 A 
ATOM     73  F   UNL A   1      47.629  35.299  31.503  1.00  0.00    -0.200 F 
ATOM     74  F   UNL A   1      47.322  37.358  29.741  1.00  0.00    -0.200 F 
ENDBRANCH  50  64
BRANCH  51  75
ATOM     75  C   UNL A   1      41.053  24.521  27.397  1.00  0.00     0.064 A 
ATOM     76  C   UNL A   1      40.035  24.386  26.444  1.00  0.00     0.173 A 
ATOM     77  C   UNL A   1      41.468  23.351  28.060  1.00  0.00     0.173 A 
ATOM     78  F   UNL A   1      39.643  25.453  25.732  1.00  0.00    -0.203 F 
ATOM     79  C   UNL A   1      39.414  23.158  26.209  1.00  0.00     0.198 A 
ATOM     80  C   UNL A   1      40.863  22.117  27.807  1.00  0.00     0.198 A 
ATOM     81  F   UNL A   1      42.493  23.395  28.924  1.00  0.00    -0.203 F 
ATOM     82  F   UNL A   1      38.422  23.074  25.312  1.00  0.00    -0.200 F 
ATOM     83  C   UNL A   1      39.824  22.025  26.894  1.00  0.00     0.200 A 
ATOM     84  F   UNL A   1      41.295  21.015  28.436  1.00  0.00    -0.200 F 
ATOM     85  F   UNL A   1      39.227  20.847  26.666  1.00  0.00    -0.200 F 
ENDBRANCH  51  75
BRANCH  63  86
ATOM     86  C   UNL A   1      47.291  27.372  26.132  1.00  0.00     0.064 A 
ATOM     87  C   UNL A   1      47.500  27.403  24.749  1.00  0.00     0.173 A 
ATOM     88  C   UNL A   1      48.276  26.833  26.966  1.00  0.00     0.173 A 
ATOM     89  F   UNL A   1      46.558  27.898  23.930  1.00  0.00    -0.203 F 
ATOM     90  C   UNL A   1      48.657  26.869  24.210  1.00  0.00     0.198 A 
ATOM     91  C   UNL A   1      49.457  26.357  26.426  1.00  0.00     0.198 A 
ATOM     92  F   UNL A   1      48.102  26.801  28.296  1.00  0.00    -0.203 F 
ATOM     93  F   UNL A   1      48.812  26.829  22.881  1.00  0.00    -0.200 F 
ATOM     94  C   UNL A   1      49.640  26.362  25.050  1.00  0.00     0.200 A 
ATOM     95  F   UNL A   1      50.421  25.898  27.236  1.00  0.00    -0.200 F 
ATOM     96  F   UNL A   1      50.770  25.869  24.526  1.00  0.00    -0.200 F 
ENDBRANCH  63  86
ENDBRANCH  37  38
ENDBRANCH  30  32
ENDBRANCH  29  30
ENDBRANCH  28  29
ENDBRANCH  27  28
ENDBRANCH  26  27
ENDBRANCH  25  26
ENDBRANCH   1  25
TORSDOF 22
ENDMDL
MODEL 2
REMARK VINA RESULT:      -9.6      7.394     13.006
REMARK SMILES C#CCN(CC(=O)OCCOCCOCCOC(=O)c1ccc(-c2c3nc(c(-c4c(F)c(F)c(F)c(F)c4F)c4ccc([nH]4)c(-c4c(F)c(F)c(F)c(F)c4F)c4nc(c(-c5c(F)c(F)c(F)c(F)c5F)c5ccc2[nH]5)C=C4)C=C3)cc1)C(=O)N1CC[N@@H+]2CCC[C@H]2C1
REMARK SMILES IDX 12 1 11 2 10 3 9 4 8 5 6 6 7 7 5 8 4 9 3 10 2 11 1 12 83 13
REMARK SMILES IDX 84 14 85 15 86 16 93 17 87 18 92 19 88 20 91 21 89 22 90 24
REMARK SMILES IDX 13 25 14 26 15 27 16 28 17 29 18 30 19 31 20 32 21 33 82 34
REMARK SMILES IDX 22 35 81 36 23 37 24 38 25 39 75 40 26 41 80 42 74 43 76 44
REMARK SMILES IDX 27 45 79 46 73 47 72 48 28 50 60 51 40 52 59 53 41 54 44 55
REMARK SMILES IDX 58 56 77 57 42 58 43 59 57 61 78 62 45 63 29 64 30 65 38 66
REMARK SMILES IDX 31 67 32 68 36 69 39 70 33 71 34 72 37 73 35 74 61 75 62 76
REMARK SMILES IDX 70 77 63 78 64 79 68 80 71 81 65 82 66 83 69 84 67 85 46 86
REMARK SMILES IDX 47 87 55 88 48 89 49 90 53 91 56 92 50 93 51 94 54 95 52 96
REMARK H PARENT 88 23 76 49 44 60
REMARK Flexibility Score: inf
ROOT
ATOM      1  C   UNL A   1      43.337  40.336  27.067  1.00  0.00     0.188 C 
ENDROOT
BRANCH   1   2
ATOM      2  O   UNL A   1      42.253  39.867  26.325  1.00  0.00    -0.376 OA
BRANCH   2   3
ATOM      3  C   UNL A   1      41.564  40.870  25.625  1.00  0.00     0.202 C 
BRANCH   3   4
ATOM      4  C   UNL A   1      42.296  41.790  24.588  1.00  0.00     0.261 C 
BRANCH   4   5
ATOM      5  O   UNL A   1      42.027  41.662  23.140  1.00  0.00    -0.462 OA
BRANCH   5   6
ATOM      6  C   UNL A   1      41.988  42.767  22.344  1.00  0.00     0.325 C 
ATOM      7  O   UNL A   1      41.110  42.934  21.499  1.00  0.00    -0.250 OA
BRANCH   6   8
ATOM      8  C   UNL A   1      43.155  43.845  22.516  1.00  0.00     0.245 C 
BRANCH   8   9
ATOM      9  N   UNL A   1      44.396  44.082  21.682  1.00  0.00    -0.302 N 
BRANCH   9  10
ATOM     10  C   UNL A   1      45.612  44.041  22.400  1.00  0.00     0.211 C 
BRANCH  10  11
ATOM     11  C   UNL A   1      46.638  45.152  22.244  1.00  0.00    -0.085 C 
ATOM     12  C   UNL A   1      47.517  46.104  22.111  1.00  0.00     0.006 C 
ENDBRANCH  10  11
ENDBRANCH   9  10
BRANCH   9  13
ATOM     13  C   UNL A   1      44.712  44.132  20.343  1.00  0.00     0.321 C 
ATOM     14  O   UNL A   1      45.485  43.333  19.805  1.00  0.00    -0.248 OA
BRANCH  13  15
ATOM     15  N   UNL A   1      44.086  45.004  19.532  1.00  0.00    -0.313 N 
ATOM     16  C   UNL A   1      42.700  44.582  18.825  1.00  0.00     0.183 C 
ATOM     17  C   UNL A   1      44.839  46.559  19.491  1.00  0.00     0.186 C 
ATOM     18  C   UNL A   1      41.779  45.418  17.682  1.00  0.00     0.284 C 
ATOM     19  C   UNL A   1      44.176  47.638  18.122  1.00  0.00     0.204 C 
ATOM     20  N   UNL A   1      42.320  47.041  17.285  1.00  0.00    -0.330 N 
ATOM     21  C   UNL A   1      43.847  48.853  17.875  1.00  0.00     0.073 C 
ATOM     22  C   UNL A   1      41.632  47.236  16.095  1.00  0.00     0.262 C 
ATOM     23  H   UNL A   1      42.191  47.957  17.717  1.00  0.00     0.348 HD
ATOM     24  C   UNL A   1      41.957  48.391  16.871  1.00  0.00     0.068 C 
ENDBRANCH  13  15
ENDBRANCH   9  13
ENDBRANCH   8   9
ENDBRANCH   6   8
ENDBRANCH   5   6
ENDBRANCH   4   5
ENDBRANCH   3   4
ENDBRANCH   2   3
ENDBRANCH   1   2
BRANCH   1  25
ATOM     25  C   UNL A   1      44.781  40.130  26.500  1.00  0.00     0.188 C 
BRANCH  25  26
ATOM     26  O   UNL A   1      45.408  39.097  27.214  1.00  0.00    -0.376 OA
BRANCH  26  27
ATOM     27  C   UNL A   1      46.207  39.620  28.264  1.00  0.00     0.202 C 
BRANCH  27  28
ATOM     28  C   UNL A   1      47.593  38.951  28.504  1.00  0.00     0.261 C 
BRANCH  28  29
ATOM     29  O   UNL A   1      47.692  37.774  29.381  1.00  0.00    -0.460 OA
BRANCH  29  30
ATOM     30  C   UNL A   1      46.742  37.524  30.320  1.00  0.00     0.338 C 
ATOM     31  O   UNL A   1      46.509  38.300  31.236  1.00  0.00    -0.246 OA
BRANCH  30  32
ATOM     32  C   UNL A   1      46.207  36.027  30.351  1.00  0.00     0.060 A 
ATOM     33  C   UNL A   1      46.703  34.224  31.208  1.00  0.00     0.016 A 
ATOM     34  C   UNL A   1      44.935  36.145  28.900  1.00  0.00     0.016 A 
ATOM     35  C   UNL A   1      45.757  32.796  30.351  1.00  0.00     0.010 A 
ATOM     36  C   UNL A   1      44.056  34.631  28.044  1.00  0.00     0.010 A 
ATOM     37  C   UNL A   1      44.523  32.941  28.913  1.00  0.00    -0.014 A 
BRANCH  37  38
ATOM     38  C   UNL A   1      43.966  31.644  28.530  1.00  0.00     0.031 A 
ATOM     39  C   UNL A   1      42.695  31.312  29.210  1.00  0.00     0.074 A 
ATOM     40  C   UNL A   1      44.664  30.853  27.677  1.00  0.00     0.049 A 
ATOM     41  N   UNL A   1      42.136  30.153  29.345  1.00  0.00    -0.248 NA
ATOM     42  C   UNL A   1      41.947  32.407  29.860  1.00  0.00     0.031 C 
ATOM     43  C   UNL A   1      45.830  31.198  26.847  1.00  0.00     0.029 A 
ATOM     44  N   UNL A   1      44.545  29.521  27.404  1.00  0.00    -0.354 N 
ATOM     45  C   UNL A   1      40.996  30.403  30.088  1.00  0.00     0.074 A 
ATOM     46  C   UNL A   1      41.030  31.758  30.544  1.00  0.00     0.031 C 
ATOM     47  C   UNL A   1      46.430  30.122  26.344  1.00  0.00     0.029 A 
ATOM     48  C   UNL A   1      45.628  29.001  26.718  1.00  0.00     0.049 A 
ATOM     49  H   UNL A   1      43.765  28.983  27.670  1.00  0.00     0.167 HD
ATOM     50  C   UNL A   1      39.954  29.574  30.253  1.00  0.00     0.037 A 
ATOM     51  C   UNL A   1      45.929  27.740  26.389  1.00  0.00     0.037 A 
ATOM     52  C   UNL A   1      40.006  28.253  29.712  1.00  0.00     0.049 A 
ATOM     53  C   UNL A   1      44.831  26.793  26.705  1.00  0.00     0.074 A 
ATOM     54  C   UNL A   1      39.088  27.238  29.804  1.00  0.00     0.029 A 
ATOM     55  N   UNL A   1      41.088  27.774  28.967  1.00  0.00    -0.354 N 
ATOM     56  N   UNL A   1      43.740  27.029  27.399  1.00  0.00    -0.248 NA
ATOM     57  C   UNL A   1      44.929  25.460  26.131  1.00  0.00     0.031 C 
ATOM     58  C   UNL A   1      39.657  26.117  29.191  1.00  0.00     0.029 A 
ATOM     59  C   UNL A   1      40.886  26.458  28.631  1.00  0.00     0.049 A 
ATOM     60  H   UNL A   1      41.880  28.305  28.718  1.00  0.00     0.167 HD
ATOM     61  C   UNL A   1      42.977  25.894  27.304  1.00  0.00     0.074 A 
ATOM     62  C   UNL A   1      43.747  24.970  26.474  1.00  0.00     0.031 C 
ATOM     63  C   UNL A   1      41.757  25.627  27.831  1.00  0.00     0.037 A 
BRANCH  50  64
ATOM     64  C   UNL A   1      38.799  30.101  31.047  1.00  0.00     0.064 A 
ATOM     65  C   UNL A   1      37.761  30.851  30.460  1.00  0.00     0.173 A 
ATOM     66  C   UNL A   1      38.809  29.984  32.441  1.00  0.00     0.173 A 
ATOM     67  F   UNL A   1      37.739  31.060  29.135  1.00  0.00    -0.203 F 
ATOM     68  C   UNL A   1      36.803  31.492  31.245  1.00  0.00     0.198 A 
ATOM     69  C   UNL A   1      37.827  30.592  33.219  1.00  0.00     0.198 A 
ATOM     70  F   UNL A   1      39.804  29.326  33.055  1.00  0.00    -0.203 F 
ATOM     71  F   UNL A   1      35.888  32.286  30.671  1.00  0.00    -0.200 F 
ATOM     72  C   UNL A   1      36.833  31.354  32.623  1.00  0.00     0.200 A 
ATOM     73  F   UNL A   1      37.866  30.470  34.553  1.00  0.00    -0.200 F 
ATOM     74  F   UNL A   1      35.919  31.977  33.380  1.00  0.00    -0.200 F 
ENDBRANCH  50  64
BRANCH  51  75
ATOM     75  C   UNL A   1      47.160  27.424  25.613  1.00  0.00     0.064 A 
ATOM     76  C   UNL A   1      47.215  27.641  24.230  1.00  0.00     0.173 A 
ATOM     77  C   UNL A   1      48.348  27.012  26.244  1.00  0.00     0.173 A 
ATOM     78  F   UNL A   1      46.134  28.099  23.583  1.00  0.00    -0.203 F 
ATOM     79  C   UNL A   1      48.380  27.397  23.499  1.00  0.00     0.198 A 
ATOM     80  C   UNL A   1      49.520  26.791  25.516  1.00  0.00     0.198 A 
ATOM     81  F   UNL A   1      48.386  26.865  27.577  1.00  0.00    -0.203 F 
ATOM     82  F   UNL A   1      48.386  27.585  22.173  1.00  0.00    -0.200 F 
ATOM     83  C   UNL A   1      49.530  26.967  24.142  1.00  0.00     0.200 A 
ATOM     84  F   UNL A   1      50.644  26.422  26.148  1.00  0.00    -0.200 F 
ATOM     85  F   UNL A   1      50.647  26.733  23.439  1.00  0.00    -0.200 F 
ENDBRANCH  51  75
BRANCH  63  86
ATOM     86  C   UNL A   1      41.239  24.273  27.519  1.00  0.00     0.064 A 
ATOM     87  C   UNL A   1      41.740  23.145  28.179  1.00  0.00     0.173 A 
ATOM     88  C   UNL A   1      40.199  24.123  26.595  1.00  0.00     0.173 A 
ATOM     89  F   UNL A   1      42.751  23.264  29.055  1.00  0.00    -0.203 F 
ATOM     90  C   UNL A   1      41.237  21.890  27.889  1.00  0.00     0.198 A 
ATOM     91  C   UNL A   1      39.658  22.873  26.356  1.00  0.00     0.198 A 
ATOM     92  F   UNL A   1      39.695  25.191  25.957  1.00  0.00    -0.203 F 
ATOM     93  F   UNL A   1      41.778  20.809  28.465  1.00  0.00    -0.200 F 
ATOM     94  C   UNL A   1      40.186  21.758  26.991  1.00  0.00     0.200 A 
ATOM     95  F   UNL A   1      38.623  22.747  25.515  1.00  0.00    -0.200 F 
ATOM     96  F   UNL A   1      39.684  20.544  26.732  1.00  0.00    -0.200 F 
ENDBRANCH  63  86
ENDBRANCH  37  38
ENDBRANCH  30  32
ENDBRANCH  29  30
ENDBRANCH  28  29
ENDBRANCH  27  28
ENDBRANCH  26  27
ENDBRANCH  25  26
ENDBRANCH   1  25
TORSDOF 22
ENDMDL
MODEL 3
REMARK VINA RESULT:      -9.1      1.582      2.919
REMARK SMILES C#CCN(CC(=O)OCCOCCOCCOC(=O)c1ccc(-c2c3nc(c(-c4c(F)c(F)c(F)c(F)c4F)c4ccc([nH]4)c(-c4c(F)c(F)c(F)c(F)c4F)c4nc(c(-c5c(F)c(F)c(F)c(F)c5F)c5ccc2[nH]5)C=C4)C=C3)cc1)C(=O)N1CC[N@@H+]2CCC[C@H]2C1
REMARK SMILES IDX 12 1 11 2 10 3 9 4 8 5 6 6 7 7 5 8 4 9 3 10 2 11 1 12 83 13
REMARK SMILES IDX 84 14 85 15 86 16 93 17 87 18 92 19 88 20 91 21 89 22 90 24
REMARK SMILES IDX 13 25 14 26 15 27 16 28 17 29 18 30 19 31 20 32 21 33 82 34
REMARK SMILES IDX 22 35 81 36 23 37 24 38 25 39 75 40 26 41 80 42 74 43 76 44
REMARK SMILES IDX 27 45 79 46 73 47 72 48 28 50 60 51 40 52 59 53 41 54 44 55
REMARK SMILES IDX 58 56 77 57 42 58 43 59 57 61 78 62 45 63 29 64 30 65 38 66
REMARK SMILES IDX 31 67 32 68 36 69 39 70 33 71 34 72 37 73 35 74 61 75 62 76
REMARK SMILES IDX 70 77 63 78 64 79 68 80 71 81 65 82 66 83 69 84 67 85 46 86
REMARK SMILES IDX 47 87 55 88 48 89 49 90 53 91 56 92 50 93 51 94 54 95 52 96
REMARK H PARENT 88 23 76 49 44 60
REMARK Flexibility Score: inf
ROOT
ATOM      1  C   UNL A   1      33.104  34.974  29.541  1.00  0.00     0.188 C 
ENDROOT
BRANCH   1   2
ATOM      2  O   UNL A   1      34.344  35.275  28.976  1.00  0.00    -0.376 OA
BRANCH   2   3
ATOM      3  C   UNL A   1      34.801  34.314  28.061  1.00  0.00     0.202 C 
BRANCH   3   4
ATOM      4  C   UNL A   1      34.499  32.789  28.262  1.00  0.00     0.261 C 
BRANCH   4   5
ATOM      5  O   UNL A   1      35.296  31.760  27.560  1.00  0.00    -0.462 OA
BRANCH   5   6
ATOM      6  C   UNL A   1      35.161  30.442  27.881  1.00  0.00     0.325 C 
ATOM      7  O   UNL A   1      35.849  29.907  28.749  1.00  0.00    -0.250 OA
BRANCH   6   8
ATOM      8  C   UNL A   1      34.089  29.587  27.063  1.00  0.00     0.245 C 
BRANCH   8   9
ATOM      9  N   UNL A   1      32.602  29.807  26.874  1.00  0.00    -0.302 N 
BRANCH   9  10
ATOM     10  C   UNL A   1      31.779  28.787  27.399  1.00  0.00     0.211 C 
BRANCH  10  11
ATOM     11  C   UNL A   1      31.924  27.353  26.915  1.00  0.00    -0.085 C 
ATOM     12  C   UNL A   1      32.048  26.124  26.500  1.00  0.00     0.006 C 
ENDBRANCH  10  11
ENDBRANCH   9  10
BRANCH   9  13
ATOM     13  C   UNL A   1      31.780  30.847  26.502  1.00  0.00     0.321 C 
ATOM     14  O   UNL A   1      31.767  31.934  27.088  1.00  0.00    -0.248 OA
BRANCH  13  15
ATOM     15  N   UNL A   1      31.027  30.751  25.392  1.00  0.00    -0.313 N 
ATOM     16  C   UNL A   1      30.096  31.990  24.951  1.00  0.00     0.183 C 
ATOM     17  C   UNL A   1      31.302  29.294  24.505  1.00  0.00     0.186 C 
ATOM     18  C   UNL A   1      28.973  32.095  23.692  1.00  0.00     0.284 C 
ATOM     19  C   UNL A   1      30.026  29.015  23.174  1.00  0.00     0.204 C 
ATOM     20  N   UNL A   1      28.882  30.711  22.615  1.00  0.00    -0.330 N 
ATOM     21  C   UNL A   1      29.913  28.594  21.967  1.00  0.00     0.073 C 
ATOM     22  C   UNL A   1      27.652  30.957  22.017  1.00  0.00     0.262 C 
ATOM     23  H   UNL A   1      29.418  30.410  21.800  1.00  0.00     0.348 HD
ATOM     24  C   UNL A   1      28.620  30.217  21.268  1.00  0.00     0.068 C 
ENDBRANCH  13  15
ENDBRANCH   9  13
ENDBRANCH   8   9
ENDBRANCH   6   8
ENDBRANCH   5   6
ENDBRANCH   4   5
ENDBRANCH   3   4
ENDBRANCH   2   3
ENDBRANCH   1   2
BRANCH   1  25
ATOM     25  C   UNL A   1      32.678  35.711  30.854  1.00  0.00     0.188 C 
BRANCH  25  26
ATOM     26  O   UNL A   1      33.796  36.369  31.391  1.00  0.00    -0.376 OA
BRANCH  26  27
ATOM     27  C   UNL A   1      33.765  36.345  32.810  1.00  0.00     0.202 C 
BRANCH  27  28
ATOM     28  C   UNL A   1      34.864  35.511  33.532  1.00  0.00     0.261 C 
BRANCH  28  29
ATOM     29  O   UNL A   1      35.725  34.610  32.751  1.00  0.00    -0.460 OA
BRANCH  29  30
ATOM     30  C   UNL A   1      35.461  33.279  32.685  1.00  0.00     0.338 C 
ATOM     31  O   UNL A   1      34.392  32.806  33.050  1.00  0.00    -0.246 OA
BRANCH  30  32
ATOM     32  C   UNL A   1      36.730  32.353  32.438  1.00  0.00     0.060 A 
ATOM     33  C   UNL A   1      38.173  31.380  33.533  1.00  0.00     0.016 A 
ATOM     34  C   UNL A   1      36.905  32.610  30.529  1.00  0.00     0.016 A 
ATOM     35  C   UNL A   1      39.617  30.837  32.398  1.00  0.00     0.010 A 
ATOM     36  C   UNL A   1      38.441  32.075  29.456  1.00  0.00     0.010 A 
ATOM     37  C   UNL A   1      39.770  31.119  30.525  1.00  0.00    -0.014 A 
BRANCH  37  38
ATOM     38  C   UNL A   1      40.998  30.541  29.978  1.00  0.00     0.031 A 
ATOM     39  C   UNL A   1      42.069  31.530  29.732  1.00  0.00     0.074 A 
ATOM     40  C   UNL A   1      41.029  29.217  29.686  1.00  0.00     0.049 A 
ATOM     41  N   UNL A   1      43.114  31.412  28.977  1.00  0.00    -0.248 NA
ATOM     42  C   UNL A   1      41.961  32.851  30.385  1.00  0.00     0.031 C 
ATOM     43  C   UNL A   1      40.069  28.167  30.066  1.00  0.00     0.029 A 
ATOM     44  N   UNL A   1      41.893  28.501  28.909  1.00  0.00    -0.354 N 
ATOM     45  C   UNL A   1      43.755  32.633  29.078  1.00  0.00     0.074 A 
ATOM     46  C   UNL A   1      42.910  33.541  29.790  1.00  0.00     0.031 C 
ATOM     47  C   UNL A   1      40.257  27.040  29.385  1.00  0.00     0.029 A 
ATOM     48  C   UNL A   1      41.429  27.236  28.592  1.00  0.00     0.049 A 
ATOM     49  H   UNL A   1      42.760  28.850  28.602  1.00  0.00     0.167 HD
ATOM     50  C   UNL A   1      45.014  32.906  28.702  1.00  0.00     0.037 A 
ATOM     51  C   UNL A   1      41.921  26.307  27.767  1.00  0.00     0.037 A 
ATOM     52  C   UNL A   1      45.789  31.907  28.038  1.00  0.00     0.049 A 
ATOM     53  C   UNL A   1      43.256  26.673  27.231  1.00  0.00     0.074 A 
ATOM     54  C   UNL A   1      47.060  31.986  27.529  1.00  0.00     0.029 A 
ATOM     55  N   UNL A   1      45.316  30.614  27.789  1.00  0.00    -0.354 N 
ATOM     56  N   UNL A   1      43.876  27.827  27.336  1.00  0.00    -0.248 NA
ATOM     57  C   UNL A   1      44.006  25.620  26.565  1.00  0.00     0.031 C 
ATOM     58  C   UNL A   1      47.320  30.769  26.892  1.00  0.00     0.029 A 
ATOM     59  C   UNL A   1      46.253  29.895  27.086  1.00  0.00     0.049 A 
ATOM     60  H   UNL A   1      44.440  30.269  28.075  1.00  0.00     0.167 HD
ATOM     61  C   UNL A   1      45.124  27.638  26.801  1.00  0.00     0.074 A 
ATOM     62  C   UNL A   1      45.162  26.241  26.375  1.00  0.00     0.031 C 
ATOM     63  C   UNL A   1      46.152  28.513  26.678  1.00  0.00     0.037 A 
BRANCH  50  64
ATOM     64  C   UNL A   1      45.510  34.291  28.980  1.00  0.00     0.064 A 
ATOM     65  C   UNL A   1      45.394  35.336  28.043  1.00  0.00     0.173 A 
ATOM     66  C   UNL A   1      46.249  34.540  30.142  1.00  0.00     0.173 A 
ATOM     67  F   UNL A   1      44.760  35.135  26.877  1.00  0.00    -0.203 F 
ATOM     68  C   UNL A   1      46.032  36.559  28.245  1.00  0.00     0.198 A 
ATOM     69  C   UNL A   1      46.851  35.776  30.359  1.00  0.00     0.198 A 
ATOM     70  F   UNL A   1      46.436  33.563  31.043  1.00  0.00    -0.203 F 
ATOM     71  F   UNL A   1      45.995  37.501  27.290  1.00  0.00    -0.200 F 
ATOM     72  C   UNL A   1      46.752  36.780  29.407  1.00  0.00     0.200 A 
ATOM     73  F   UNL A   1      47.560  35.983  31.477  1.00  0.00    -0.200 F 
ATOM     74  F   UNL A   1      47.375  37.951  29.599  1.00  0.00    -0.200 F 
ENDBRANCH  50  64
BRANCH  51  75
ATOM     75  C   UNL A   1      41.247  24.988  27.608  1.00  0.00     0.064 A 
ATOM     76  C   UNL A   1      40.151  24.838  26.748  1.00  0.00     0.173 A 
ATOM     77  C   UNL A   1      41.748  23.823  28.216  1.00  0.00     0.173 A 
ATOM     78  F   UNL A   1      39.672  25.902  26.088  1.00  0.00    -0.203 F 
ATOM     79  C   UNL A   1      39.543  23.597  26.552  1.00  0.00     0.198 A 
ATOM     80  C   UNL A   1      41.154  22.576  28.001  1.00  0.00     0.198 A 
ATOM     81  F   UNL A   1      42.844  23.883  28.987  1.00  0.00    -0.203 F 
ATOM     82  F   UNL A   1      38.478  23.497  25.746  1.00  0.00    -0.200 F 
ATOM     83  C   UNL A   1      40.041  22.468  27.182  1.00  0.00     0.200 A 
ATOM     84  F   UNL A   1      41.668  21.479  28.574  1.00  0.00    -0.200 F 
ATOM     85  F   UNL A   1      39.456  21.277  26.993  1.00  0.00    -0.200 F 
ENDBRANCH  51  75
BRANCH  63  86
ATOM     86  C   UNL A   1      47.363  27.947  26.034  1.00  0.00     0.064 A 
ATOM     87  C   UNL A   1      48.431  27.478  26.806  1.00  0.00     0.173 A 
ATOM     88  C   UNL A   1      47.417  27.830  24.641  1.00  0.00     0.173 A 
ATOM     89  F   UNL A   1      48.408  27.600  28.143  1.00  0.00    -0.203 F 
ATOM     90  C   UNL A   1      49.548  26.939  26.192  1.00  0.00     0.198 A 
ATOM     91  C   UNL A   1      48.508  27.233  24.037  1.00  0.00     0.198 A 
ATOM     92  F   UNL A   1      46.400  28.263  23.880  1.00  0.00    -0.203 F 
ATOM     93  F   UNL A   1      50.599  26.568  26.934  1.00  0.00    -0.200 F 
ATOM     94  C   UNL A   1      49.577  26.802  24.811  1.00  0.00     0.200 A 
ATOM     95  F   UNL A   1      48.525  27.069  22.707  1.00  0.00    -0.200 F 
ATOM     96  F   UNL A   1      50.649  26.256  24.221  1.00  0.00    -0.200 F 
ENDBRANCH  63  86
ENDBRANCH  37  38
ENDBRANCH  30  32
ENDBRANCH  29  30
ENDBRANCH  28  29
ENDBRANCH  27  28
ENDBRANCH  26  27
ENDBRANCH  25  26
ENDBRANCH   1  25
TORSDOF 22
ENDMDL
