MODEL 1
REMARK VINA RESULT:     -10.8      0.000      0.000
REMARK SMILES O=C(C[C@@H]1[NH2+]CCc2c(Br)cccc21)OCCOCCOCCOC(=O)c1ccc(-c2c3nc(c(-c4c(F)c(F)c(F)c(F)c4F)c4ccc([nH]4)c(-c4c(F)c(F)c(F)c(F)c4F)c4nc(c(-c5c(F)c(F)c(F)c(F)c5F)c5ccc2[nH]5)C=C4)C=C3)cc1
REMARK SMILES IDX 20 1 19 2 18 3 17 4 16 5 15 6 2 7 1 8 3 9 4 10 5 11 14 12
REMARK SMILES IDX 6 13 8 16 13 17 7 18 9 19 12 20 10 21 11 22 21 23 22 24
REMARK SMILES IDX 23 25 24 26 25 27 26 28 27 29 28 30 89 31 29 32 88 33 30 34
REMARK SMILES IDX 31 35 32 36 82 37 33 38 87 39 81 40 83 41 34 42 86 43 80 44
REMARK SMILES IDX 79 45 35 47 67 48 47 49 66 50 48 51 51 52 65 53 84 54 49 55
REMARK SMILES IDX 50 56 64 58 85 59 52 60 36 61 37 62 45 63 38 64 39 65 43 66
REMARK SMILES IDX 46 67 40 68 41 69 44 70 42 71 68 72 69 73 77 74 70 75 71 76
REMARK SMILES IDX 75 77 78 78 72 79 73 80 76 81 74 82 53 83 54 84 62 85 55 86
REMARK SMILES IDX 56 87 60 88 63 89 57 90 58 91 61 92 59 93
REMARK H PARENT 5 14 5 15 83 46 51 57
REMARK Flexibility Score: inf
ROOT
ATOM      1  C   UNL A   1      34.577  33.165  28.011  1.00  0.00     0.188 C 
ENDROOT
BRANCH   1   2
ATOM      2  C   UNL A   1      34.382  31.674  28.334  1.00  0.00     0.188 C 
BRANCH   2   3
ATOM      3  O   UNL A   1      34.876  30.744  27.397  1.00  0.00    -0.376 OA
BRANCH   3   4
ATOM      4  C   UNL A   1      34.201  29.514  27.234  1.00  0.00     0.202 C 
BRANCH   4   5
ATOM      5  C   UNL A   1      33.024  29.519  26.273  1.00  0.00     0.261 C 
BRANCH   5   6
ATOM      6  O   UNL A   1      33.275  29.291  24.859  1.00  0.00    -0.463 OA
BRANCH   6   7
ATOM      7  C   UNL A   1      33.102  28.234  24.039  1.00  0.00     0.312 C 
ATOM      8  O   UNL A   1      32.688  28.429  22.898  1.00  0.00    -0.252 OA
BRANCH   7   9
ATOM      9  C   UNL A   1      33.287  26.831  24.549  1.00  0.00     0.192 C 
BRANCH   9  10
ATOM     10  C   UNL A   1      34.020  25.835  23.653  1.00  0.00     0.225 C 
ATOM     11  N   UNL A   1      33.512  25.674  22.289  1.00  0.00    -0.339 N 
ATOM     12  C   UNL A   1      34.252  24.517  24.360  1.00  0.00     0.014 A 
ATOM     13  C   UNL A   1      32.368  24.775  22.216  1.00  0.00     0.265 C 
ATOM     14  H   UNL A   1      34.260  25.298  21.705  1.00  0.00     0.346 HD
ATOM     15  H   UNL A   1      33.206  26.591  21.964  1.00  0.00     0.346 HD
ATOM     16  C   UNL A   1      33.562  23.352  23.973  1.00  0.00    -0.019 A 
ATOM     17  C   UNL A   1      35.164  24.473  25.432  1.00  0.00     0.010 A 
ATOM     18  C   UNL A   1      32.677  23.377  22.748  1.00  0.00     0.098 C 
ATOM     19  C   UNL A   1      33.793  22.168  24.692  1.00  0.00     0.021 A 
ATOM     20  C   UNL A   1      35.384  23.292  26.128  1.00  0.00     0.002 A 
ATOM     21  Br  UNL A   1      32.923  20.537  24.250  1.00  0.00    -0.051 Br
ATOM     22  C   UNL A   1      34.694  22.142  25.761  1.00  0.00     0.016 A 
ENDBRANCH   9  10
ENDBRANCH   7   9
ENDBRANCH   6   7
ENDBRANCH   5   6
ENDBRANCH   4   5
ENDBRANCH   3   4
ENDBRANCH   2   3
ENDBRANCH   1   2
BRANCH   1  23
ATOM     23  O   UNL A   1      34.889  34.093  29.034  1.00  0.00    -0.376 OA
BRANCH  23  24
ATOM     24  C   UNL A   1      34.113  34.134  30.218  1.00  0.00     0.202 C 
BRANCH  24  25
ATOM     25  C   UNL A   1      34.786  33.824  31.567  1.00  0.00     0.261 C 
BRANCH  25  26
ATOM     26  O   UNL A   1      34.962  32.430  31.888  1.00  0.00    -0.460 OA
BRANCH  26  27
ATOM     27  C   UNL A   1      36.001  32.121  32.709  1.00  0.00     0.338 C 
ATOM     28  O   UNL A   1      36.086  32.332  33.901  1.00  0.00    -0.246 OA
BRANCH  27  29
ATOM     29  C   UNL A   1      36.999  31.310  31.964  1.00  0.00     0.060 A 
ATOM     30  C   UNL A   1      38.083  30.756  32.667  1.00  0.00     0.016 A 
ATOM     31  C   UNL A   1      36.881  31.106  30.589  1.00  0.00     0.016 A 
ATOM     32  C   UNL A   1      39.049  30.003  31.996  1.00  0.00     0.010 A 
ATOM     33  C   UNL A   1      37.875  30.391  29.910  1.00  0.00     0.010 A 
ATOM     34  C   UNL A   1      38.978  29.859  30.604  1.00  0.00    -0.014 A 
BRANCH  34  35
ATOM     35  C   UNL A   1      40.167  29.369  29.862  1.00  0.00     0.031 A 
ATOM     36  C   UNL A   1      41.305  30.328  29.641  1.00  0.00     0.074 A 
ATOM     37  C   UNL A   1      40.256  28.110  29.400  1.00  0.00     0.049 A 
ATOM     38  N   UNL A   1      42.449  30.140  29.036  1.00  0.00    -0.248 NA
ATOM     39  C   UNL A   1      41.123  31.687  30.177  1.00  0.00     0.031 C 
ATOM     40  C   UNL A   1      39.239  27.077  29.565  1.00  0.00     0.029 A 
ATOM     41  N   UNL A   1      41.254  27.490  28.686  1.00  0.00    -0.354 N 
ATOM     42  C   UNL A   1      43.121  31.351  29.121  1.00  0.00     0.074 A 
ATOM     43  C   UNL A   1      42.245  32.279  29.799  1.00  0.00     0.031 C 
ATOM     44  C   UNL A   1      39.658  25.953  28.957  1.00  0.00     0.029 A 
ATOM     45  C   UNL A   1      40.966  26.192  28.342  1.00  0.00     0.049 A 
ATOM     46  H   UNL A   1      42.099  27.935  28.444  1.00  0.00     0.167 HD
ATOM     47  C   UNL A   1      44.363  31.660  28.682  1.00  0.00     0.037 A 
ATOM     48  C   UNL A   1      41.668  25.306  27.606  1.00  0.00     0.037 A 
ATOM     49  C   UNL A   1      45.230  30.740  27.998  1.00  0.00     0.049 A 
ATOM     50  C   UNL A   1      43.023  25.690  27.062  1.00  0.00     0.074 A 
ATOM     51  C   UNL A   1      46.523  30.950  27.554  1.00  0.00     0.029 A 
ATOM     52  N   UNL A   1      44.886  29.447  27.638  1.00  0.00    -0.354 N 
ATOM     53  N   UNL A   1      43.681  26.814  27.206  1.00  0.00    -0.248 NA
ATOM     54  C   UNL A   1      43.735  24.683  26.259  1.00  0.00     0.031 C 
ATOM     55  C   UNL A   1      46.935  29.809  26.861  1.00  0.00     0.029 A 
ATOM     56  C   UNL A   1      45.926  28.861  26.935  1.00  0.00     0.049 A 
ATOM     57  H   UNL A   1      44.029  29.010  27.850  1.00  0.00     0.167 HD
ATOM     58  C   UNL A   1      44.887  26.646  26.536  1.00  0.00     0.074 A 
ATOM     59  C   UNL A   1      44.877  25.306  25.989  1.00  0.00     0.031 C 
ATOM     60  C   UNL A   1      45.911  27.524  26.397  1.00  0.00     0.037 A 
BRANCH  47  61
ATOM     61  C   UNL A   1      44.853  33.061  28.907  1.00  0.00     0.064 A 
ATOM     62  C   UNL A   1      45.657  33.394  30.007  1.00  0.00     0.173 A 
ATOM     63  C   UNL A   1      44.551  34.073  27.984  1.00  0.00     0.173 A 
ATOM     64  F   UNL A   1      45.963  32.465  30.926  1.00  0.00    -0.203 F 
ATOM     65  C   UNL A   1      46.121  34.694  30.188  1.00  0.00     0.198 A 
ATOM     66  C   UNL A   1      45.044  35.364  28.148  1.00  0.00     0.198 A 
ATOM     67  F   UNL A   1      43.790  33.807  26.912  1.00  0.00    -0.203 F 
ATOM     68  F   UNL A   1      46.848  35.000  31.270  1.00  0.00    -0.200 F 
ATOM     69  C   UNL A   1      45.822  35.675  29.254  1.00  0.00     0.200 A 
ATOM     70  F   UNL A   1      44.769  36.307  27.237  1.00  0.00    -0.200 F 
ATOM     71  F   UNL A   1      46.280  36.923  29.422  1.00  0.00    -0.200 F 
ENDBRANCH  47  61
BRANCH  48  72
ATOM     72  C   UNL A   1      41.098  23.955  27.361  1.00  0.00     0.064 A 
ATOM     73  C   UNL A   1      40.011  23.773  26.496  1.00  0.00     0.173 A 
ATOM     74  C   UNL A   1      41.662  22.811  27.948  1.00  0.00     0.173 A 
ATOM     75  F   UNL A   1      39.420  24.836  25.932  1.00  0.00    -0.203 F 
ATOM     76  C   UNL A   1      39.515  22.499  26.219  1.00  0.00     0.198 A 
ATOM     77  C   UNL A   1      41.182  21.536  27.650  1.00  0.00     0.198 A 
ATOM     78  F   UNL A   1      42.702  22.930  28.786  1.00  0.00    -0.203 F 
ATOM     79  F   UNL A   1      38.465  22.355  25.400  1.00  0.00    -0.200 F 
ATOM     80  C   UNL A   1      40.109  21.382  26.786  1.00  0.00     0.200 A 
ATOM     81  F   UNL A   1      41.770  20.459  28.188  1.00  0.00    -0.200 F 
ATOM     82  F   UNL A   1      39.651  20.157  26.497  1.00  0.00    -0.200 F 
ENDBRANCH  48  72
BRANCH  60  83
ATOM     83  C   UNL A   1      47.130  27.091  25.631  1.00  0.00     0.064 A 
ATOM     84  C   UNL A   1      47.317  27.448  24.289  1.00  0.00     0.173 A 
ATOM     85  C   UNL A   1      48.187  26.443  26.293  1.00  0.00     0.173 A 
ATOM     86  F   UNL A   1      46.336  28.060  23.610  1.00  0.00    -0.203 F 
ATOM     87  C   UNL A   1      48.520  27.180  23.639  1.00  0.00     0.198 A 
ATOM     88  C   UNL A   1      49.398  26.204  25.649  1.00  0.00     0.198 A 
ATOM     89  F   UNL A   1      48.063  26.091  27.581  1.00  0.00    -0.203 F 
ATOM     90  F   UNL A   1      48.674  27.522  22.352  1.00  0.00    -0.200 F 
ATOM     91  C   UNL A   1      49.564  26.575  24.323  1.00  0.00     0.200 A 
ATOM     92  F   UNL A   1      50.413  25.641  26.318  1.00  0.00    -0.200 F 
ATOM     93  F   UNL A   1      50.733  26.354  23.706  1.00  0.00    -0.200 F 
ENDBRANCH  60  83
ENDBRANCH  34  35
ENDBRANCH  27  29
ENDBRANCH  26  27
ENDBRANCH  25  26
ENDBRANCH  24  25
ENDBRANCH  23  24
ENDBRANCH   1  23
TORSDOF 18
ENDMDL
MODEL 2
REMARK VINA RESULT:     -10.6      3.704      8.870
REMARK SMILES O=C(C[C@@H]1[NH2+]CCc2c(Br)cccc21)OCCOCCOCCOC(=O)c1ccc(-c2c3nc(c(-c4c(F)c(F)c(F)c(F)c4F)c4ccc([nH]4)c(-c4c(F)c(F)c(F)c(F)c4F)c4nc(c(-c5c(F)c(F)c(F)c(F)c5F)c5ccc2[nH]5)C=C4)C=C3)cc1
REMARK SMILES IDX 20 1 19 2 18 3 17 4 16 5 15 6 2 7 1 8 3 9 4 10 5 11 14 12
REMARK SMILES IDX 6 13 8 16 13 17 7 18 9 19 12 20 10 21 11 22 21 23 22 24
REMARK SMILES IDX 23 25 24 26 25 27 26 28 27 29 28 30 89 31 29 32 88 33 30 34
REMARK SMILES IDX 31 35 32 36 82 37 33 38 87 39 81 40 83 41 34 42 86 43 80 44
REMARK SMILES IDX 79 45 35 47 67 48 47 49 66 50 48 51 51 52 65 53 84 54 49 55
REMARK SMILES IDX 50 56 64 58 85 59 52 60 36 61 37 62 45 63 38 64 39 65 43 66
REMARK SMILES IDX 46 67 40 68 41 69 44 70 42 71 68 72 69 73 77 74 70 75 71 76
REMARK SMILES IDX 75 77 78 78 72 79 73 80 76 81 74 82 53 83 54 84 62 85 55 86
REMARK SMILES IDX 56 87 60 88 63 89 57 90 58 91 61 92 59 93
REMARK H PARENT 5 14 5 15 83 46 51 57
REMARK Flexibility Score: inf
ROOT
ATOM      1  C   UNL A   1      35.680  21.389  25.414  1.00  0.00     0.188 C 
ENDROOT
BRANCH   1   2
ATOM      2  C   UNL A   1      35.265  22.340  24.279  1.00  0.00     0.188 C 
BRANCH   2   3
ATOM      3  O   UNL A   1      33.915  22.744  24.241  1.00  0.00    -0.376 OA
BRANCH   3   4
ATOM      4  C   UNL A   1      32.905  21.758  24.289  1.00  0.00     0.202 C 
BRANCH   4   5
ATOM      5  C   UNL A   1      31.766  22.013  25.261  1.00  0.00     0.261 C 
BRANCH   5   6
ATOM      6  O   UNL A   1      31.013  23.252  25.146  1.00  0.00    -0.463 OA
BRANCH   6   7
ATOM      7  C   UNL A   1      30.820  24.306  25.966  1.00  0.00     0.312 C 
ATOM      8  O   UNL A   1      30.997  24.159  27.174  1.00  0.00    -0.252 OA
BRANCH   7   9
ATOM      9  C   UNL A   1      30.274  25.602  25.432  1.00  0.00     0.192 C 
BRANCH   9  10
ATOM     10  C   UNL A   1      30.025  25.707  23.928  1.00  0.00     0.225 C 
ATOM     11  N   UNL A   1      31.202  25.658  23.058  1.00  0.00    -0.339 N 
ATOM     12  C   UNL A   1      29.090  26.851  23.599  1.00  0.00     0.014 A 
ATOM     13  C   UNL A   1      31.881  26.944  22.955  1.00  0.00     0.265 C 
ATOM     14  H   UNL A   1      30.905  25.370  22.125  1.00  0.00     0.346 HD
ATOM     15  H   UNL A   1      31.859  24.994  23.466  1.00  0.00     0.346 HD
ATOM     16  C   UNL A   1      29.553  28.004  22.937  1.00  0.00    -0.019 A 
ATOM     17  C   UNL A   1      27.738  26.753  23.982  1.00  0.00     0.010 A 
ATOM     18  C   UNL A   1      30.974  28.052  22.423  1.00  0.00     0.098 C 
ATOM     19  C   UNL A   1      28.645  29.046  22.692  1.00  0.00     0.021 A 
ATOM     20  C   UNL A   1      26.852  27.792  23.726  1.00  0.00     0.002 A 
ATOM     21  Br  UNL A   1      29.162  30.642  21.799  1.00  0.00    -0.051 Br
ATOM     22  C   UNL A   1      27.308  28.940  23.087  1.00  0.00     0.016 A 
ENDBRANCH   9  10
ENDBRANCH   7   9
ENDBRANCH   6   7
ENDBRANCH   5   6
ENDBRANCH   4   5
ENDBRANCH   3   4
ENDBRANCH   2   3
ENDBRANCH   1   2
BRANCH   1  23
ATOM     23  O   UNL A   1      37.047  21.116  25.667  1.00  0.00    -0.376 OA
BRANCH  23  24
ATOM     24  C   UNL A   1      37.683  20.022  25.031  1.00  0.00     0.202 C 
BRANCH  24  25
ATOM     25  C   UNL A   1      39.130  19.668  25.418  1.00  0.00     0.261 C 
BRANCH  25  26
ATOM     26  O   UNL A   1      39.991  20.775  25.752  1.00  0.00    -0.460 OA
BRANCH  26  27
ATOM     27  C   UNL A   1      40.535  20.768  26.998  1.00  0.00     0.338 C 
ATOM     28  O   UNL A   1      40.900  19.803  27.637  1.00  0.00    -0.246 OA
BRANCH  27  29
ATOM     29  C   UNL A   1      40.790  22.165  27.437  1.00  0.00     0.060 A 
ATOM     30  C   UNL A   1      40.071  23.209  26.831  1.00  0.00     0.016 A 
ATOM     31  C   UNL A   1      41.735  22.448  28.424  1.00  0.00     0.016 A 
ATOM     32  C   UNL A   1      40.298  24.534  27.207  1.00  0.00     0.010 A 
ATOM     33  C   UNL A   1      41.996  23.781  28.766  1.00  0.00     0.010 A 
ATOM     34  C   UNL A   1      41.299  24.832  28.141  1.00  0.00    -0.014 A 
BRANCH  34  35
ATOM     35  C   UNL A   1      41.773  26.233  28.277  1.00  0.00     0.031 A 
ATOM     36  C   UNL A   1      43.120  26.580  27.706  1.00  0.00     0.074 A 
ATOM     37  C   UNL A   1      41.036  27.184  28.878  1.00  0.00     0.049 A 
ATOM     38  N   UNL A   1      43.748  27.727  27.688  1.00  0.00    -0.248 NA
ATOM     39  C   UNL A   1      43.860  25.477  27.070  1.00  0.00     0.031 C 
ATOM     40  C   UNL A   1      39.710  26.987  29.451  1.00  0.00     0.029 A 
ATOM     41  N   UNL A   1      41.312  28.511  29.110  1.00  0.00    -0.354 N 
ATOM     42  C   UNL A   1      44.951  27.485  27.039  1.00  0.00     0.074 A 
ATOM     43  C   UNL A   1      44.985  26.077  26.713  1.00  0.00     0.031 C 
ATOM     44  C   UNL A   1      39.290  28.149  29.983  1.00  0.00     0.029 A 
ATOM     45  C   UNL A   1      40.327  29.168  29.806  1.00  0.00     0.049 A 
ATOM     46  H   UNL A   1      42.140  28.950  28.806  1.00  0.00     0.167 HD
ATOM     47  C   UNL A   1      45.935  28.360  26.732  1.00  0.00     0.037 A 
ATOM     48  C   UNL A   1      40.275  30.438  30.258  1.00  0.00     0.037 A 
ATOM     49  C   UNL A   1      45.907  29.759  27.065  1.00  0.00     0.049 A 
ATOM     50  C   UNL A   1      41.414  31.385  29.968  1.00  0.00     0.074 A 
ATOM     51  C   UNL A   1      46.839  30.733  26.757  1.00  0.00     0.029 A 
ATOM     52  N   UNL A   1      44.907  30.376  27.801  1.00  0.00    -0.354 N 
ATOM     53  N   UNL A   1      42.517  31.166  29.294  1.00  0.00    -0.248 NA
ATOM     54  C   UNL A   1      41.302  32.754  30.497  1.00  0.00     0.031 C 
ATOM     55  C   UNL A   1      46.440  31.923  27.368  1.00  0.00     0.029 A 
ATOM     56  C   UNL A   1      45.224  31.710  27.997  1.00  0.00     0.049 A 
ATOM     57  H   UNL A   1      44.094  29.932  28.135  1.00  0.00     0.167 HD
ATOM     58  C   UNL A   1      43.216  32.368  29.296  1.00  0.00     0.074 A 
ATOM     59  C   UNL A   1      42.412  33.317  30.033  1.00  0.00     0.031 C 
ATOM     60  C   UNL A   1      44.415  32.653  28.729  1.00  0.00     0.037 A 
BRANCH  47  61
ATOM     61  C   UNL A   1      47.143  27.828  26.017  1.00  0.00     0.064 A 
ATOM     62  C   UNL A   1      47.193  27.741  24.618  1.00  0.00     0.173 A 
ATOM     63  C   UNL A   1      48.282  27.444  26.739  1.00  0.00     0.173 A 
ATOM     64  F   UNL A   1      46.125  28.083  23.881  1.00  0.00    -0.203 F 
ATOM     65  C   UNL A   1      48.330  27.265  23.970  1.00  0.00     0.198 A 
ATOM     66  C   UNL A   1      49.430  27.001  26.088  1.00  0.00     0.198 A 
ATOM     67  F   UNL A   1      48.289  27.512  28.080  1.00  0.00    -0.203 F 
ATOM     68  F   UNL A   1      48.339  27.145  22.635  1.00  0.00    -0.200 F 
ATOM     69  C   UNL A   1      49.450  26.905  24.705  1.00  0.00     0.200 A 
ATOM     70  F   UNL A   1      50.516  26.670  26.799  1.00  0.00    -0.200 F 
ATOM     71  F   UNL A   1      50.548  26.460  24.080  1.00  0.00    -0.200 F 
ENDBRANCH  47  61
BRANCH  48  72
ATOM     72  C   UNL A   1      39.080  30.887  31.020  1.00  0.00     0.064 A 
ATOM     73  C   UNL A   1      37.939  31.367  30.363  1.00  0.00     0.173 A 
ATOM     74  C   UNL A   1      39.036  30.797  32.421  1.00  0.00     0.173 A 
ATOM     75  F   UNL A   1      37.941  31.498  29.029  1.00  0.00    -0.203 F 
ATOM     76  C   UNL A   1      36.796  31.732  31.076  1.00  0.00     0.198 A 
ATOM     77  C   UNL A   1      37.885  31.137  33.130  1.00  0.00     0.198 A 
ATOM     78  F   UNL A   1      40.103  30.348  33.098  1.00  0.00    -0.203 F 
ATOM     79  F   UNL A   1      35.726  32.202  30.424  1.00  0.00    -0.200 F 
ATOM     80  C   UNL A   1      36.766  31.604  32.456  1.00  0.00     0.200 A 
ATOM     81  F   UNL A   1      37.855  30.997  34.462  1.00  0.00    -0.200 F 
ATOM     82  F   UNL A   1      35.658  31.926  33.137  1.00  0.00    -0.200 F 
ENDBRANCH  48  72
BRANCH  60  83
ATOM     83  C   UNL A   1      44.957  34.049  28.858  1.00  0.00     0.064 A 
ATOM     84  C   UNL A   1      44.618  35.054  27.943  1.00  0.00     0.173 A 
ATOM     85  C   UNL A   1      45.699  34.418  29.994  1.00  0.00     0.173 A 
ATOM     86  F   UNL A   1      43.918  34.753  26.839  1.00  0.00    -0.203 F 
ATOM     87  C   UNL A   1      44.994  36.377  28.161  1.00  0.00     0.198 A 
ATOM     88  C   UNL A   1      46.047  35.746  30.224  1.00  0.00     0.198 A 
ATOM     89  F   UNL A   1      46.038  33.495  30.907  1.00  0.00    -0.203 F 
ATOM     90  F   UNL A   1      44.667  37.321  27.268  1.00  0.00    -0.200 F 
ATOM     91  C   UNL A   1      45.692  36.725  29.309  1.00  0.00     0.200 A 
ATOM     92  F   UNL A   1      46.701  36.082  31.344  1.00  0.00    -0.200 F 
ATOM     93  F   UNL A   1      46.019  38.005  29.535  1.00  0.00    -0.200 F 
ENDBRANCH  60  83
ENDBRANCH  34  35
ENDBRANCH  27  29
ENDBRANCH  26  27
ENDBRANCH  25  26
ENDBRANCH  24  25
ENDBRANCH  23  24
ENDBRANCH   1  23
TORSDOF 18
ENDMDL
MODEL 3
REMARK VINA RESULT:     -10.5      4.594      7.029
REMARK SMILES O=C(C[C@@H]1[NH2+]CCc2c(Br)cccc21)OCCOCCOCCOC(=O)c1ccc(-c2c3nc(c(-c4c(F)c(F)c(F)c(F)c4F)c4ccc([nH]4)c(-c4c(F)c(F)c(F)c(F)c4F)c4nc(c(-c5c(F)c(F)c(F)c(F)c5F)c5ccc2[nH]5)C=C4)C=C3)cc1
REMARK SMILES IDX 20 1 19 2 18 3 17 4 16 5 15 6 2 7 1 8 3 9 4 10 5 11 14 12
REMARK SMILES IDX 6 13 8 16 13 17 7 18 9 19 12 20 10 21 11 22 21 23 22 24
REMARK SMILES IDX 23 25 24 26 25 27 26 28 27 29 28 30 89 31 29 32 88 33 30 34
REMARK SMILES IDX 31 35 32 36 82 37 33 38 87 39 81 40 83 41 34 42 86 43 80 44
REMARK SMILES IDX 79 45 35 47 67 48 47 49 66 50 48 51 51 52 65 53 84 54 49 55
REMARK SMILES IDX 50 56 64 58 85 59 52 60 36 61 37 62 45 63 38 64 39 65 43 66
REMARK SMILES IDX 46 67 40 68 41 69 44 70 42 71 68 72 69 73 77 74 70 75 71 76
REMARK SMILES IDX 75 77 78 78 72 79 73 80 76 81 74 82 53 83 54 84 62 85 55 86
REMARK SMILES IDX 56 87 60 88 63 89 57 90 58 91 61 92 59 93
REMARK H PARENT 5 14 5 15 83 46 51 57
REMARK Flexibility Score: inf
ROOT
ATOM      1  C   UNL A   1      32.385  29.653  26.486  1.00  0.00     0.188 C 
ENDROOT
BRANCH   1   2
ATOM      2  C   UNL A   1      32.187  28.200  26.023  1.00  0.00     0.188 C 
BRANCH   2   3
ATOM      3  O   UNL A   1      31.236  27.974  25.007  1.00  0.00    -0.376 OA
BRANCH   3   4
ATOM      4  C   UNL A   1      30.724  26.670  24.827  1.00  0.00     0.202 C 
BRANCH   4   5
ATOM      5  C   UNL A   1      31.344  25.583  25.688  1.00  0.00     0.261 C 
BRANCH   5   6
ATOM      6  O   UNL A   1      30.469  24.614  26.329  1.00  0.00    -0.463 OA
BRANCH   6   7
ATOM      7  C   UNL A   1      30.670  23.404  26.891  1.00  0.00     0.312 C 
ATOM      8  O   UNL A   1      29.776  22.914  27.579  1.00  0.00    -0.252 OA
BRANCH   7   9
ATOM      9  C   UNL A   1      32.007  22.723  26.787  1.00  0.00     0.192 C 
BRANCH   9  10
ATOM     10  C   UNL A   1      32.576  22.473  25.392  1.00  0.00     0.225 C 
ATOM     11  N   UNL A   1      32.092  21.287  24.683  1.00  0.00    -0.339 N 
ATOM     12  C   UNL A   1      34.084  22.600  25.376  1.00  0.00     0.014 A 
ATOM     13  C   UNL A   1      32.775  20.067  25.093  1.00  0.00     0.265 C 
ATOM     14  H   UNL A   1      32.239  21.423  23.682  1.00  0.00     0.346 HD
ATOM     15  H   UNL A   1      31.103  21.177  24.906  1.00  0.00     0.346 HD
ATOM     16  C   UNL A   1      34.909  21.473  25.196  1.00  0.00    -0.019 A 
ATOM     17  C   UNL A   1      34.660  23.873  25.561  1.00  0.00     0.010 A 
ATOM     18  C   UNL A   1      34.286  20.133  24.879  1.00  0.00     0.098 C 
ATOM     19  C   UNL A   1      36.301  21.651  25.228  1.00  0.00     0.021 A 
ATOM     20  C   UNL A   1      36.039  24.030  25.583  1.00  0.00     0.002 A 
ATOM     21  Br  UNL A   1      37.506  20.201  24.988  1.00  0.00    -0.051 Br
ATOM     22  C   UNL A   1      36.859  22.918  25.424  1.00  0.00     0.016 A 
ENDBRANCH   9  10
ENDBRANCH   7   9
ENDBRANCH   6   7
ENDBRANCH   5   6
ENDBRANCH   4   5
ENDBRANCH   3   4
ENDBRANCH   2   3
ENDBRANCH   1   2
BRANCH   1  23
ATOM     23  O   UNL A   1      31.794  30.726  25.775  1.00  0.00    -0.376 OA
BRANCH  23  24
ATOM     24  C   UNL A   1      31.083  31.734  26.471  1.00  0.00     0.202 C 
BRANCH  24  25
ATOM     25  C   UNL A   1      31.804  33.042  26.840  1.00  0.00     0.261 C 
BRANCH  25  26
ATOM     26  O   UNL A   1      33.242  32.981  26.911  1.00  0.00    -0.460 OA
BRANCH  26  27
ATOM     27  C   UNL A   1      33.825  33.570  27.989  1.00  0.00     0.338 C 
ATOM     28  O   UNL A   1      33.389  34.489  28.651  1.00  0.00    -0.246 OA
BRANCH  27  29
ATOM     29  C   UNL A   1      35.042  32.809  28.375  1.00  0.00     0.060 A 
ATOM     30  C   UNL A   1      34.914  31.452  28.714  1.00  0.00     0.016 A 
ATOM     31  C   UNL A   1      36.293  33.425  28.418  1.00  0.00     0.016 A 
ATOM     32  C   UNL A   1      36.034  30.711  29.098  1.00  0.00     0.010 A 
ATOM     33  C   UNL A   1      37.406  32.694  28.850  1.00  0.00     0.010 A 
ATOM     34  C   UNL A   1      37.278  31.341  29.218  1.00  0.00    -0.014 A 
BRANCH  34  35
ATOM     35  C   UNL A   1      38.374  30.656  29.950  1.00  0.00     0.031 A 
ATOM     36  C   UNL A   1      38.601  31.028  31.389  1.00  0.00     0.074 A 
ATOM     37  C   UNL A   1      39.146  29.719  29.372  1.00  0.00     0.049 A 
ATOM     38  N   UNL A   1      39.481  30.569  32.241  1.00  0.00    -0.248 NA
ATOM     39  C   UNL A   1      37.713  32.065  31.940  1.00  0.00     0.031 C 
ATOM     40  C   UNL A   1      39.017  29.250  27.997  1.00  0.00     0.029 A 
ATOM     41  N   UNL A   1      40.203  28.999  29.877  1.00  0.00    -0.354 N 
ATOM     42  C   UNL A   1      39.251  31.256  33.424  1.00  0.00     0.074 A 
ATOM     43  C   UNL A   1      38.177  32.190  33.174  1.00  0.00     0.031 C 
ATOM     44  C   UNL A   1      39.969  28.329  27.761  1.00  0.00     0.029 A 
ATOM     45  C   UNL A   1      40.787  28.157  28.963  1.00  0.00     0.049 A 
ATOM     46  H   UNL A   1      40.513  29.080  30.809  1.00  0.00     0.167 HD
ATOM     47  C   UNL A   1      39.871  31.113  34.618  1.00  0.00     0.037 A 
ATOM     48  C   UNL A   1      41.864  27.353  29.079  1.00  0.00     0.037 A 
ATOM     49  C   UNL A   1      40.946  30.190  34.865  1.00  0.00     0.049 A 
ATOM     50  C   UNL A   1      42.591  27.257  30.399  1.00  0.00     0.074 A 
ATOM     51  C   UNL A   1      41.608  29.944  36.054  1.00  0.00     0.029 A 
ATOM     52  N   UNL A   1      41.531  29.382  33.903  1.00  0.00    -0.354 N 
ATOM     53  N   UNL A   1      42.324  27.859  31.533  1.00  0.00    -0.248 NA
ATOM     54  C   UNL A   1      43.764  26.371  30.459  1.00  0.00     0.031 C 
ATOM     55  C   UNL A   1      42.641  29.041  35.796  1.00  0.00     0.029 A 
ATOM     56  C   UNL A   1      42.579  28.669  34.462  1.00  0.00     0.049 A 
ATOM     57  H   UNL A   1      41.245  29.324  32.962  1.00  0.00     0.167 HD
ATOM     58  C   UNL A   1      43.273  27.410  32.443  1.00  0.00     0.074 A 
ATOM     59  C   UNL A   1      44.123  26.478  31.733  1.00  0.00     0.031 C 
ATOM     60  C   UNL A   1      43.419  27.738  33.750  1.00  0.00     0.037 A 
BRANCH  47  61
ATOM     61  C   UNL A   1      39.419  31.991  35.748  1.00  0.00     0.064 A 
ATOM     62  C   UNL A   1      39.930  33.286  35.926  1.00  0.00     0.173 A 
ATOM     63  C   UNL A   1      38.428  31.549  36.636  1.00  0.00     0.173 A 
ATOM     64  F   UNL A   1      40.889  33.751  35.111  1.00  0.00    -0.203 F 
ATOM     65  C   UNL A   1      39.483  34.095  36.967  1.00  0.00     0.198 A 
ATOM     66  C   UNL A   1      37.958  32.373  37.655  1.00  0.00     0.198 A 
ATOM     67  F   UNL A   1      37.901  30.321  36.508  1.00  0.00    -0.203 F 
ATOM     68  F   UNL A   1      40.019  35.310  37.147  1.00  0.00    -0.200 F 
ATOM     69  C   UNL A   1      38.491  33.641  37.824  1.00  0.00     0.200 A 
ATOM     70  F   UNL A   1      36.988  31.940  38.472  1.00  0.00    -0.200 F 
ATOM     71  F   UNL A   1      38.052  34.427  38.817  1.00  0.00    -0.200 F 
ENDBRANCH  47  61
BRANCH  48  72
ATOM     72  C   UNL A   1      42.305  26.558  27.902  1.00  0.00     0.064 A 
ATOM     73  C   UNL A   1      41.737  25.309  27.618  1.00  0.00     0.173 A 
ATOM     74  C   UNL A   1      43.268  27.054  27.010  1.00  0.00     0.173 A 
ATOM     75  F   UNL A   1      40.833  24.779  28.454  1.00  0.00    -0.203 F 
ATOM     76  C   UNL A   1      42.107  24.591  26.480  1.00  0.00     0.198 A 
ATOM     77  C   UNL A   1      43.619  26.347  25.860  1.00  0.00     0.198 A 
ATOM     78  F   UNL A   1      43.846  28.243  27.238  1.00  0.00    -0.203 F 
ATOM     79  F   UNL A   1      41.559  23.392  26.241  1.00  0.00    -0.200 F 
ATOM     80  C   UNL A   1      43.037  25.116  25.597  1.00  0.00     0.200 A 
ATOM     81  F   UNL A   1      44.506  26.867  25.001  1.00  0.00    -0.200 F 
ATOM     82  F   UNL A   1      43.371  24.439  24.490  1.00  0.00    -0.200 F 
ENDBRANCH  48  72
BRANCH  60  83
ATOM     83  C   UNL A   1      44.528  27.095  34.534  1.00  0.00     0.064 A 
ATOM     84  C   UNL A   1      45.741  27.758  34.767  1.00  0.00     0.173 A 
ATOM     85  C   UNL A   1      44.315  25.867  35.183  1.00  0.00     0.173 A 
ATOM     86  F   UNL A   1      45.997  28.928  34.164  1.00  0.00    -0.203 F 
ATOM     87  C   UNL A   1      46.696  27.220  35.627  1.00  0.00     0.198 A 
ATOM     88  C   UNL A   1      45.259  25.348  36.065  1.00  0.00     0.198 A 
ATOM     89  F   UNL A   1      43.166  25.198  35.003  1.00  0.00    -0.203 F 
ATOM     90  F   UNL A   1      47.852  27.867  35.829  1.00  0.00    -0.200 F 
ATOM     91  C   UNL A   1      46.447  26.026  36.288  1.00  0.00     0.200 A 
ATOM     92  F   UNL A   1      45.007  24.206  36.720  1.00  0.00    -0.200 F 
ATOM     93  F   UNL A   1      47.351  25.531  37.145  1.00  0.00    -0.200 F 
ENDBRANCH  60  83
ENDBRANCH  34  35
ENDBRANCH  27  29
ENDBRANCH  26  27
ENDBRANCH  25  26
ENDBRANCH  24  25
ENDBRANCH  23  24
ENDBRANCH   1  23
TORSDOF 18
ENDMDL
