MODEL 1
REMARK VINA RESULT:     -11.8      0.000      0.000
REMARK SMILES O=C(OCCOCCOCCOC(=O)[C@H]1O[C@@H](Oc2c(-c3cc(O)c(O)c(O)c3)oc3cc(O)cc(O)c3c2=O)[C@H](O)[C@@H](O)[C@@H]1O)c1ccc(-c2c3nc(c(-c4c(F)c(F)c(F)c(F)c4F)c4ccc([nH]4)c(-c4c(F)c(F)c(F)c(F)c4F)c4nc(c(-c5c(F)c(F)c(F)c(F)c5F)c5ccc2[nH]5)C=C4)C=C3)cc1
REMARK SMILES IDX 8 1 7 2 6 3 5 4 4 5 3 6 2 7 1 8 47 9 48 10 109 11 49 12
REMARK SMILES IDX 108 13 50 14 51 15 52 16 102 17 53 18 107 19 101 20 103 21
REMARK SMILES IDX 54 22 106 23 100 24 99 25 55 27 87 28 67 29 86 30 68 31
REMARK SMILES IDX 71 32 85 33 104 34 69 35 70 36 84 38 105 39 72 40 56 41
REMARK SMILES IDX 57 42 65 43 58 44 59 45 63 46 66 47 60 48 61 49 64 50 62 51
REMARK SMILES IDX 88 52 89 53 97 54 90 55 91 56 95 57 98 58 92 59 93 60 96 61
REMARK SMILES IDX 94 62 73 63 74 64 82 65 75 66 76 67 80 68 83 69 77 70 78 71
REMARK SMILES IDX 81 72 79 73 9 74 10 75 11 76 12 77 13 78 14 79 15 80 16 81
REMARK SMILES IDX 45 82 17 83 43 84 41 85 46 86 18 88 19 89 20 90 39 91 30 92
REMARK SMILES IDX 38 93 40 94 31 95 36 96 32 97 35 98 33 99 21 100 22 101
REMARK SMILES IDX 29 102 23 103 27 104 25 105 24 106 28 108 26 110 37 112
REMARK SMILES IDX 34 114 44 116 42 118
REMARK H PARENT 103 26 71 37 46 87 24 107 28 109 26 111 37 113 34 115 44 117
REMARK H PARENT 42 119
REMARK Flexibility Score: inf
ROOT
ATOM      1  C   UNL A   1      35.852  23.188  24.729  1.00  0.00     0.188 C 
ENDROOT
BRANCH   1   2
ATOM      2  C   UNL A   1      35.805  22.009  25.699  1.00  0.00     0.188 C 
BRANCH   2   3
ATOM      3  O   UNL A   1      36.435  20.827  25.195  1.00  0.00    -0.376 OA
BRANCH   3   4
ATOM      4  C   UNL A   1      37.845  20.971  25.003  1.00  0.00     0.202 C 
BRANCH   4   5
ATOM      5  C   UNL A   1      38.711  19.783  25.467  1.00  0.00     0.261 C 
BRANCH   5   6
ATOM      6  O   UNL A   1      40.080  20.125  25.748  1.00  0.00    -0.460 OA
BRANCH   6   7
ATOM      7  C   UNL A   1      40.645  20.505  26.922  1.00  0.00     0.338 C 
ATOM      8  O   UNL A   1      40.858  19.641  27.773  1.00  0.00    -0.246 OA
BRANCH   7   9
ATOM      9  C   UNL A   1      41.003  21.918  27.267  1.00  0.00     0.060 A 
ATOM     10  C   UNL A   1      40.558  23.043  26.580  1.00  0.00     0.016 A 
ATOM     11  C   UNL A   1      41.803  22.130  28.408  1.00  0.00     0.016 A 
ATOM     12  C   UNL A   1      40.935  24.323  26.943  1.00  0.00     0.010 A 
ATOM     13  C   UNL A   1      42.154  23.425  28.816  1.00  0.00     0.010 A 
ATOM     14  C   UNL A   1      41.734  24.524  28.061  1.00  0.00    -0.014 A 
BRANCH  14  15
ATOM     15  C   UNL A   1      42.211  25.899  28.285  1.00  0.00     0.031 A 
ATOM     16  C   UNL A   1      43.526  26.281  27.685  1.00  0.00     0.074 A 
ATOM     17  C   UNL A   1      41.379  26.817  28.810  1.00  0.00     0.049 A 
ATOM     18  N   UNL A   1      44.118  27.442  27.665  1.00  0.00    -0.248 NA
ATOM     19  C   UNL A   1      44.253  25.219  26.965  1.00  0.00     0.031 C 
ATOM     20  C   UNL A   1      40.008  26.553  29.243  1.00  0.00     0.029 A 
ATOM     21  N   UNL A   1      41.535  28.159  29.029  1.00  0.00    -0.354 N 
ATOM     22  C   UNL A   1      45.275  27.256  26.922  1.00  0.00     0.074 A 
ATOM     23  C   UNL A   1      45.326  25.865  26.536  1.00  0.00     0.031 C 
ATOM     24  C   UNL A   1      39.453  27.685  29.700  1.00  0.00     0.029 A 
ATOM     25  C   UNL A   1      40.443  28.747  29.621  1.00  0.00     0.049 A 
ATOM     26  H   UNL A   1      42.352  28.654  28.788  1.00  0.00     0.167 HD
ATOM     27  C   UNL A   1      46.200  28.180  26.584  1.00  0.00     0.037 A 
ATOM     28  C   UNL A   1      40.282  30.005  30.070  1.00  0.00     0.037 A 
ATOM     29  C   UNL A   1      46.126  29.552  27.002  1.00  0.00     0.049 A 
ATOM     30  C   UNL A   1      41.409  30.970  29.827  1.00  0.00     0.074 A 
ATOM     31  C   UNL A   1      47.042  30.567  26.809  1.00  0.00     0.029 A 
ATOM     32  N   UNL A   1      45.060  30.097  27.708  1.00  0.00    -0.354 N 
ATOM     33  N   UNL A   1      42.533  30.778  29.176  1.00  0.00    -0.248 NA
ATOM     34  C   UNL A   1      41.246  32.326  30.361  1.00  0.00     0.031 C 
ATOM     35  C   UNL A   1      46.554  31.714  27.446  1.00  0.00     0.029 A 
ATOM     36  C   UNL A   1      45.306  31.431  27.982  1.00  0.00     0.049 A 
ATOM     37  H   UNL A   1      44.249  29.606  27.975  1.00  0.00     0.167 HD
ATOM     38  C   UNL A   1      43.199  31.992  29.196  1.00  0.00     0.074 A 
ATOM     39  C   UNL A   1      42.337  32.922  29.901  1.00  0.00     0.031 C 
ATOM     40  C   UNL A   1      44.414  32.317  28.687  1.00  0.00     0.037 A 
BRANCH  27  41
ATOM     41  C   UNL A   1      47.378  27.709  25.787  1.00  0.00     0.064 A 
ATOM     42  C   UNL A   1      48.544  27.226  26.403  1.00  0.00     0.173 A 
ATOM     43  C   UNL A   1      47.350  27.766  24.387  1.00  0.00     0.173 A 
ATOM     44  F   UNL A   1      48.635  27.187  27.741  1.00  0.00    -0.203 F 
ATOM     45  C   UNL A   1      49.644  26.835  25.643  1.00  0.00     0.198 A 
ATOM     46  C   UNL A   1      48.441  27.349  23.631  1.00  0.00     0.198 A 
ATOM     47  F   UNL A   1      46.267  28.235  23.751  1.00  0.00    -0.203 F 
ATOM     48  F   UNL A   1      50.767  26.429  26.252  1.00  0.00    -0.200 F 
ATOM     49  C   UNL A   1      49.590  26.891  24.258  1.00  0.00     0.200 A 
ATOM     50  F   UNL A   1      48.387  27.404  22.293  1.00  0.00    -0.200 F 
ATOM     51  F   UNL A   1      50.650  26.516  23.529  1.00  0.00    -0.200 F 
ENDBRANCH  27  41
BRANCH  28  52
ATOM     52  C   UNL A   1      39.059  30.397  30.824  1.00  0.00     0.064 A 
ATOM     53  C   UNL A   1      37.924  30.905  30.178  1.00  0.00     0.173 A 
ATOM     54  C   UNL A   1      39.023  30.324  32.227  1.00  0.00     0.173 A 
ATOM     55  F   UNL A   1      37.903  31.005  28.841  1.00  0.00    -0.203 F 
ATOM     56  C   UNL A   1      36.824  31.366  30.904  1.00  0.00     0.198 A 
ATOM     57  C   UNL A   1      37.911  30.750  32.949  1.00  0.00     0.198 A 
ATOM     58  F   UNL A   1      40.072  29.834  32.904  1.00  0.00    -0.203 F 
ATOM     59  F   UNL A   1      35.782  31.911  30.261  1.00  0.00    -0.200 F 
ATOM     60  C   UNL A   1      36.819  31.289  32.289  1.00  0.00     0.200 A 
ATOM     61  F   UNL A   1      37.905  30.649  34.285  1.00  0.00    -0.200 F 
ATOM     62  F   UNL A   1      35.768  31.743  32.985  1.00  0.00    -0.200 F 
ENDBRANCH  28  52
BRANCH  40  63
ATOM     63  C   UNL A   1      44.848  33.741  28.855  1.00  0.00     0.064 A 
ATOM     64  C   UNL A   1      45.588  34.156  29.971  1.00  0.00     0.173 A 
ATOM     65  C   UNL A   1      44.538  34.695  27.875  1.00  0.00     0.173 A 
ATOM     66  F   UNL A   1      45.894  33.281  30.943  1.00  0.00    -0.203 F 
ATOM     67  C   UNL A   1      45.967  35.486  30.121  1.00  0.00     0.198 A 
ATOM     68  C   UNL A   1      44.953  36.015  28.008  1.00  0.00     0.198 A 
ATOM     69  F   UNL A   1      43.839  34.343  26.785  1.00  0.00    -0.203 F 
ATOM     70  F   UNL A   1      46.614  35.875  31.228  1.00  0.00    -0.200 F 
ATOM     71  C   UNL A   1      45.656  36.412  29.136  1.00  0.00     0.200 A 
ATOM     72  F   UNL A   1      44.669  36.904  27.046  1.00  0.00    -0.200 F 
ATOM     73  F   UNL A   1      46.027  37.690  29.278  1.00  0.00    -0.200 F 
ENDBRANCH  40  63
ENDBRANCH  14  15
ENDBRANCH   7   9
ENDBRANCH   6   7
ENDBRANCH   5   6
ENDBRANCH   4   5
ENDBRANCH   3   4
ENDBRANCH   2   3
ENDBRANCH   1   2
BRANCH   1  74
ATOM     74  O   UNL A   1      34.651  23.922  24.523  1.00  0.00    -0.376 OA
BRANCH  74  75
ATOM     75  C   UNL A   1      34.321  24.304  23.195  1.00  0.00     0.202 C 
BRANCH  75  76
ATOM     76  C   UNL A   1      33.683  25.678  22.928  1.00  0.00     0.261 C 
BRANCH  76  77
ATOM     77  O   UNL A   1      34.331  26.824  23.497  1.00  0.00    -0.461 OA
BRANCH  77  78
ATOM     78  C   UNL A   1      33.581  27.959  23.433  1.00  0.00     0.338 C 
ATOM     79  O   UNL A   1      33.482  28.641  22.416  1.00  0.00    -0.249 OA
BRANCH  78  80
ATOM     80  C   UNL A   1      32.960  28.341  24.775  1.00  0.00     0.263 C 
ATOM     81  O   UNL A   1      31.983  27.320  25.017  1.00  0.00    -0.322 OA
ATOM     82  C   UNL A   1      33.888  28.356  25.986  1.00  0.00     0.186 C 
ATOM     83  C   UNL A   1      31.088  27.571  26.078  1.00  0.00     0.340 C 
ATOM     84  C   UNL A   1      33.064  28.791  27.204  1.00  0.00     0.181 C 
ATOM     85  C   UNL A   1      31.831  27.915  27.395  1.00  0.00     0.214 C 
BRANCH  82  86
ATOM     86  O   UNL A   1      34.979  29.261  25.876  1.00  0.00    -0.387 OA
ATOM     87  H   UNL A   1      34.649  30.132  25.601  1.00  0.00     0.211 HD
ENDBRANCH  82  86
BRANCH  83  88
ATOM     88  O   UNL A   1      30.182  26.463  26.301  1.00  0.00    -0.454 OA
BRANCH  88  89
ATOM     89  C   UNL A   1      30.419  25.329  25.518  1.00  0.00     0.214 A 
ATOM     90  C   UNL A   1      30.157  25.287  24.194  1.00  0.00     0.181 A 
ATOM     91  C   UNL A   1      31.156  24.167  26.116  1.00  0.00     0.239 A 
ATOM     92  O   UNL A   1      30.373  24.205  23.373  1.00  0.00    -0.452 OA
ATOM     93  C   UNL A   1      31.452  23.023  25.210  1.00  0.00     0.111 A 
ATOM     94  O   UNL A   1      31.547  24.218  27.282  1.00  0.00    -0.285 OA
ATOM     95  C   UNL A   1      31.039  23.121  23.879  1.00  0.00     0.146 A 
ATOM     96  C   UNL A   1      32.158  21.871  25.601  1.00  0.00     0.134 A 
ATOM     97  C   UNL A   1      31.320  22.109  22.957  1.00  0.00     0.094 A 
ATOM     98  C   UNL A   1      32.457  20.860  24.676  1.00  0.00     0.093 A 
ATOM     99  C   UNL A   1      32.039  20.994  23.357  1.00  0.00     0.123 A 
BRANCH  90 100
ATOM    100  C   UNL A   1      29.516  26.415  23.495  1.00  0.00     0.029 A 
ATOM    101  C   UNL A   1      28.158  26.694  23.740  1.00  0.00     0.062 A 
ATOM    102  C   UNL A   1      30.282  27.310  22.736  1.00  0.00     0.062 A 
ATOM    103  C   UNL A   1      27.625  27.919  23.351  1.00  0.00     0.162 A 
ATOM    104  C   UNL A   1      29.720  28.510  22.321  1.00  0.00     0.162 A 
ATOM    105  C   UNL A   1      28.404  28.830  22.646  1.00  0.00     0.200 A 
BRANCH 103 106
ATOM    106  O   UNL A   1      26.360  28.219  23.767  1.00  0.00    -0.504 OA
ATOM    107  H   UNL A   1      25.621  27.847  23.327  1.00  0.00     0.293 HD
ENDBRANCH 103 106
BRANCH 104 108
ATOM    108  O   UNL A   1      30.515  29.419  21.684  1.00  0.00    -0.504 OA
ATOM    109  H   UNL A   1      30.989  29.169  20.915  1.00  0.00     0.293 HD
ENDBRANCH 104 108
BRANCH 105 110
ATOM    110  O   UNL A   1      27.946  30.077  22.318  1.00  0.00    -0.502 OA
ATOM    111  H   UNL A   1      27.492  30.591  22.955  1.00  0.00     0.293 HD
ENDBRANCH 105 110
ENDBRANCH  90 100
BRANCH  96 112
ATOM    112  O   UNL A   1      32.594  21.718  26.887  1.00  0.00    -0.507 OA
ATOM    113  H   UNL A   1      33.163  22.358  27.267  1.00  0.00     0.293 HD
ENDBRANCH  96 112
BRANCH  99 114
ATOM    114  O   UNL A   1      32.331  20.059  22.411  1.00  0.00    -0.508 OA
ATOM    115  H   UNL A   1      33.006  19.428  22.567  1.00  0.00     0.293 HD
ENDBRANCH  99 114
ENDBRANCH  88  89
ENDBRANCH  83  88
BRANCH  84 116
ATOM    116  O   UNL A   1      33.940  28.757  28.354  1.00  0.00    -0.387 OA
ATOM    117  H   UNL A   1      33.449  28.433  29.126  1.00  0.00     0.211 HD
ENDBRANCH  84 116
BRANCH  85 118
ATOM    118  O   UNL A   1      31.002  28.516  28.399  1.00  0.00    -0.384 OA
ATOM    119  H   UNL A   1      30.847  27.879  29.114  1.00  0.00     0.211 HD
ENDBRANCH  85 118
ENDBRANCH  78  80
ENDBRANCH  77  78
ENDBRANCH  76  77
ENDBRANCH  75  76
ENDBRANCH  74  75
ENDBRANCH   1  74
TORSDOF 28
ENDMDL
MODEL 2
REMARK VINA RESULT:     -11.3      2.306      4.693
REMARK SMILES O=C(OCCOCCOCCOC(=O)[C@H]1O[C@@H](Oc2c(-c3cc(O)c(O)c(O)c3)oc3cc(O)cc(O)c3c2=O)[C@H](O)[C@@H](O)[C@@H]1O)c1ccc(-c2c3nc(c(-c4c(F)c(F)c(F)c(F)c4F)c4ccc([nH]4)c(-c4c(F)c(F)c(F)c(F)c4F)c4nc(c(-c5c(F)c(F)c(F)c(F)c5F)c5ccc2[nH]5)C=C4)C=C3)cc1
REMARK SMILES IDX 8 1 7 2 6 3 5 4 4 5 3 6 2 7 1 8 47 9 48 10 109 11 49 12
REMARK SMILES IDX 108 13 50 14 51 15 52 16 102 17 53 18 107 19 101 20 103 21
REMARK SMILES IDX 54 22 106 23 100 24 99 25 55 27 87 28 67 29 86 30 68 31
REMARK SMILES IDX 71 32 85 33 104 34 69 35 70 36 84 38 105 39 72 40 56 41
REMARK SMILES IDX 57 42 65 43 58 44 59 45 63 46 66 47 60 48 61 49 64 50 62 51
REMARK SMILES IDX 88 52 89 53 97 54 90 55 91 56 95 57 98 58 92 59 93 60 96 61
REMARK SMILES IDX 94 62 73 63 74 64 82 65 75 66 76 67 80 68 83 69 77 70 78 71
REMARK SMILES IDX 81 72 79 73 9 74 10 75 11 76 12 77 13 78 14 79 15 80 16 81
REMARK SMILES IDX 45 82 17 83 43 84 41 85 46 86 18 88 19 89 20 90 39 91 30 92
REMARK SMILES IDX 38 93 40 94 31 95 36 96 32 97 35 98 33 99 21 100 22 101
REMARK SMILES IDX 29 102 23 103 27 104 25 105 24 106 28 108 26 110 37 112
REMARK SMILES IDX 34 114 44 116 42 118
REMARK H PARENT 103 26 71 37 46 87 24 107 28 109 26 111 37 113 34 115 44 117
REMARK H PARENT 42 119
REMARK Flexibility Score: inf
ROOT
ATOM      1  C   UNL A   1      39.335  21.215  26.126  1.00  0.00     0.188 C 
ENDROOT
BRANCH   1   2
ATOM      2  C   UNL A   1      40.727  21.845  26.126  1.00  0.00     0.188 C 
BRANCH   2   3
ATOM      3  O   UNL A   1      41.768  20.934  26.490  1.00  0.00    -0.376 OA
BRANCH   3   4
ATOM      4  C   UNL A   1      41.492  19.578  26.125  1.00  0.00     0.202 C 
BRANCH   4   5
ATOM      5  C   UNL A   1      42.723  18.692  25.851  1.00  0.00     0.261 C 
BRANCH   5   6
ATOM      6  O   UNL A   1      43.371  18.954  24.594  1.00  0.00    -0.460 OA
BRANCH   6   7
ATOM      7  C   UNL A   1      44.553  19.578  24.353  1.00  0.00     0.338 C 
ATOM      8  O   UNL A   1      45.411  18.973  23.710  1.00  0.00    -0.246 OA
BRANCH   7   9
ATOM      9  C   UNL A   1      44.896  20.952  24.843  1.00  0.00     0.060 A 
ATOM     10  C   UNL A   1      45.364  21.249  26.118  1.00  0.00     0.016 A 
ATOM     11  C   UNL A   1      44.794  22.017  23.925  1.00  0.00     0.016 A 
ATOM     12  C   UNL A   1      45.653  22.543  26.512  1.00  0.00     0.010 A 
ATOM     13  C   UNL A   1      45.129  23.328  24.296  1.00  0.00     0.010 A 
ATOM     14  C   UNL A   1      45.538  23.590  25.607  1.00  0.00    -0.014 A 
BRANCH  14  15
ATOM     15  C   UNL A   1      45.717  24.947  26.151  1.00  0.00     0.031 A 
ATOM     16  C   UNL A   1      47.056  25.589  25.981  1.00  0.00     0.074 A 
ATOM     17  C   UNL A   1      44.645  25.645  26.569  1.00  0.00     0.049 A 
ATOM     18  N   UNL A   1      47.438  26.796  26.291  1.00  0.00    -0.248 NA
ATOM     19  C   UNL A   1      48.098  24.774  25.329  1.00  0.00     0.031 C 
ATOM     20  C   UNL A   1      43.272  25.142  26.581  1.00  0.00     0.029 A 
ATOM     21  N   UNL A   1      44.523  26.931  27.019  1.00  0.00    -0.354 N 
ATOM     22  C   UNL A   1      48.753  26.891  25.859  1.00  0.00     0.074 A 
ATOM     23  C   UNL A   1      49.121  25.613  25.298  1.00  0.00     0.031 C 
ATOM     24  C   UNL A   1      42.447  26.094  27.040  1.00  0.00     0.029 A 
ATOM     25  C   UNL A   1      43.240  27.264  27.383  1.00  0.00     0.049 A 
ATOM     26  H   UNL A   1      45.281  27.557  27.077  1.00  0.00     0.167 HD
ATOM     27  C   UNL A   1      49.568  27.967  25.918  1.00  0.00     0.037 A 
ATOM     28  C   UNL A   1      42.773  28.387  27.956  1.00  0.00     0.037 A 
ATOM     29  C   UNL A   1      49.173  29.219  26.501  1.00  0.00     0.049 A 
ATOM     30  C   UNL A   1      43.752  29.510  28.164  1.00  0.00     0.074 A 
ATOM     31  C   UNL A   1      49.930  30.354  26.709  1.00  0.00     0.029 A 
ATOM     32  N   UNL A   1      47.895  29.491  26.975  1.00  0.00    -0.354 N 
ATOM     33  N   UNL A   1      45.015  29.579  27.811  1.00  0.00    -0.248 NA
ATOM     34  C   UNL A   1      43.247  30.713  28.833  1.00  0.00     0.031 C 
ATOM     35  C   UNL A   1      49.123  31.296  27.359  1.00  0.00     0.029 A 
ATOM     36  C   UNL A   1      47.847  30.770  27.500  1.00  0.00     0.049 A 
ATOM     37  H   UNL A   1      47.136  28.865  26.943  1.00  0.00     0.167 HD
ATOM     38  C   UNL A   1      45.449  30.839  28.186  1.00  0.00     0.074 A 
ATOM     39  C   UNL A   1      44.303  31.511  28.769  1.00  0.00     0.031 C 
ATOM     40  C   UNL A   1      46.680  31.397  28.068  1.00  0.00     0.037 A 
BRANCH  27  41
ATOM     41  C   UNL A   1      50.963  27.797  25.399  1.00  0.00     0.064 A 
ATOM     42  C   UNL A   1      52.045  27.529  26.252  1.00  0.00     0.173 A 
ATOM     43  C   UNL A   1      51.225  27.930  24.028  1.00  0.00     0.173 A 
ATOM     44  F   UNL A   1      51.852  27.430  27.577  1.00  0.00    -0.203 F 
ATOM     45  C   UNL A   1      53.340  27.419  25.753  1.00  0.00     0.198 A 
ATOM     46  C   UNL A   1      52.518  27.793  23.529  1.00  0.00     0.198 A 
ATOM     47  F   UNL A   1      50.230  28.202  23.173  1.00  0.00    -0.203 F 
ATOM     48  F   UNL A   1      54.366  27.217  26.592  1.00  0.00    -0.200 F 
ATOM     49  C   UNL A   1      53.575  27.544  24.392  1.00  0.00     0.200 A 
ATOM     50  F   UNL A   1      52.742  27.915  22.214  1.00  0.00    -0.200 F 
ATOM     51  F   UNL A   1      54.822  27.440  23.912  1.00  0.00    -0.200 F 
ENDBRANCH  27  41
BRANCH  28  52
ATOM     52  C   UNL A   1      41.359  28.483  28.411  1.00  0.00     0.064 A 
ATOM     53  C   UNL A   1      40.345  28.977  27.577  1.00  0.00     0.173 A 
ATOM     54  C   UNL A   1      40.998  28.131  29.723  1.00  0.00     0.173 A 
ATOM     55  F   UNL A   1      40.631  29.335  26.317  1.00  0.00    -0.203 F 
ATOM     56  C   UNL A   1      39.044  29.159  28.050  1.00  0.00     0.198 A 
ATOM     57  C   UNL A   1      39.691  28.279  30.183  1.00  0.00     0.198 A 
ATOM     58  F   UNL A   1      41.918  27.639  30.566  1.00  0.00    -0.203 F 
ATOM     59  F   UNL A   1      38.114  29.699  27.251  1.00  0.00    -0.200 F 
ATOM     60  C   UNL A   1      38.719  28.811  29.352  1.00  0.00     0.200 A 
ATOM     61  F   UNL A   1      39.381  27.916  31.435  1.00  0.00    -0.200 F 
ATOM     62  F   UNL A   1      37.473  28.997  29.808  1.00  0.00    -0.200 F 
ENDBRANCH  28  52
BRANCH  40  63
ATOM     63  C   UNL A   1      46.823  32.807  28.555  1.00  0.00     0.064 A 
ATOM     64  C   UNL A   1      47.216  33.093  29.870  1.00  0.00     0.173 A 
ATOM     65  C   UNL A   1      46.584  33.881  27.687  1.00  0.00     0.173 A 
ATOM     66  F   UNL A   1      47.440  32.096  30.741  1.00  0.00    -0.203 F 
ATOM     67  C   UNL A   1      47.325  34.407  30.310  1.00  0.00     0.198 A 
ATOM     68  C   UNL A   1      46.734  35.194  28.118  1.00  0.00     0.198 A 
ATOM     69  F   UNL A   1      46.214  33.656  26.416  1.00  0.00    -0.203 F 
ATOM     70  F   UNL A   1      47.636  34.659  31.589  1.00  0.00    -0.200 F 
ATOM     71  C   UNL A   1      47.092  35.456  29.433  1.00  0.00     0.200 A 
ATOM     72  F   UNL A   1      46.527  36.206  27.264  1.00  0.00    -0.200 F 
ATOM     73  F   UNL A   1      47.204  36.721  29.856  1.00  0.00    -0.200 F 
ENDBRANCH  40  63
ENDBRANCH  14  15
ENDBRANCH   7   9
ENDBRANCH   6   7
ENDBRANCH   5   6
ENDBRANCH   4   5
ENDBRANCH   3   4
ENDBRANCH   2   3
ENDBRANCH   1   2
BRANCH   1  74
ATOM     74  O   UNL A   1      38.253  22.004  25.646  1.00  0.00    -0.376 OA
BRANCH  74  75
ATOM     75  C   UNL A   1      37.032  21.347  25.337  1.00  0.00     0.202 C 
BRANCH  75  76
ATOM     76  C   UNL A   1      35.843  22.155  24.788  1.00  0.00     0.261 C 
BRANCH  76  77
ATOM     77  O   UNL A   1      34.611  21.453  24.584  1.00  0.00    -0.461 OA
BRANCH  77  78
ATOM     78  C   UNL A   1      33.648  22.210  23.989  1.00  0.00     0.338 C 
ATOM     79  O   UNL A   1      33.438  22.199  22.779  1.00  0.00    -0.249 OA
BRANCH  78  80
ATOM     80  C   UNL A   1      32.929  23.137  24.967  1.00  0.00     0.263 C 
ATOM     81  O   UNL A   1      32.747  24.355  24.232  1.00  0.00    -0.322 OA
ATOM     82  C   UNL A   1      31.548  22.700  25.445  1.00  0.00     0.186 C 
ATOM     83  C   UNL A   1      32.325  25.467  24.990  1.00  0.00     0.340 C 
ATOM     84  C   UNL A   1      31.035  23.758  26.430  1.00  0.00     0.181 C 
ATOM     85  C   UNL A   1      31.054  25.156  25.822  1.00  0.00     0.214 C 
BRANCH  82  86
ATOM     86  O   UNL A   1      31.530  21.453  26.126  1.00  0.00    -0.387 OA
ATOM     87  H   UNL A   1      31.088  21.560  26.983  1.00  0.00     0.211 HD
ENDBRANCH  82  86
BRANCH  83  88
ATOM     88  O   UNL A   1      32.097  26.635  24.164  1.00  0.00    -0.454 OA
BRANCH  88  89
ATOM     89  C   UNL A   1      32.298  27.865  24.797  1.00  0.00     0.214 A 
ATOM     90  C   UNL A   1      31.369  28.847  24.797  1.00  0.00     0.181 A 
ATOM     91  C   UNL A   1      33.506  28.055  25.664  1.00  0.00     0.239 A 
ATOM     92  O   UNL A   1      31.507  30.073  25.405  1.00  0.00    -0.452 OA
ATOM     93  C   UNL A   1      33.622  29.357  26.378  1.00  0.00     0.111 A 
ATOM     94  O   UNL A   1      34.309  27.134  25.815  1.00  0.00    -0.285 OA
ATOM     95  C   UNL A   1      32.598  30.290  26.202  1.00  0.00     0.146 A 
ATOM     96  C   UNL A   1      34.675  29.686  27.251  1.00  0.00     0.134 A 
ATOM     97  C   UNL A   1      32.611  31.516  26.874  1.00  0.00     0.094 A 
ATOM     98  C   UNL A   1      34.686  30.907  27.941  1.00  0.00     0.093 A 
ATOM     99  C   UNL A   1      33.645  31.809  27.749  1.00  0.00     0.123 A 
BRANCH  90 100
ATOM    100  C   UNL A   1      30.107  28.719  24.048  1.00  0.00     0.029 A 
ATOM    101  C   UNL A   1      29.423  27.489  24.057  1.00  0.00     0.062 A 
ATOM    102  C   UNL A   1      29.498  29.848  23.481  1.00  0.00     0.062 A 
ATOM    103  C   UNL A   1      28.097  27.434  23.636  1.00  0.00     0.162 A 
ATOM    104  C   UNL A   1      28.188  29.763  23.029  1.00  0.00     0.162 A 
ATOM    105  C   UNL A   1      27.477  28.569  23.126  1.00  0.00     0.200 A 
BRANCH 103 106
ATOM    106  O   UNL A   1      27.420  26.265  23.830  1.00  0.00    -0.504 OA
ATOM    107  H   UNL A   1      26.496  26.280  23.991  1.00  0.00     0.293 HD
ENDBRANCH 103 106
BRANCH 104 108
ATOM    108  O   UNL A   1      27.574  30.900  22.588  1.00  0.00    -0.504 OA
ATOM    109  H   UNL A   1      27.811  31.731  22.950  1.00  0.00     0.293 HD
ENDBRANCH 104 108
BRANCH 105 110
ATOM    110  O   UNL A   1      26.153  28.580  22.779  1.00  0.00    -0.502 OA
ATOM    111  H   UNL A   1      25.495  28.546  23.444  1.00  0.00     0.293 HD
ENDBRANCH 105 110
ENDBRANCH  90 100
BRANCH  96 112
ATOM    112  O   UNL A   1      35.703  28.813  27.470  1.00  0.00    -0.507 OA
ATOM    113  H   UNL A   1      35.605  27.909  27.246  1.00  0.00     0.293 HD
ENDBRANCH  96 112
BRANCH  99 114
ATOM    114  O   UNL A   1      33.589  32.995  28.417  1.00  0.00    -0.508 OA
ATOM    115  H   UNL A   1      33.000  33.666  28.133  1.00  0.00     0.293 HD
ENDBRANCH  99 114
ENDBRANCH  88  89
ENDBRANCH  83  88
BRANCH  84 116
ATOM    116  O   UNL A   1      29.707  23.360  26.841  1.00  0.00    -0.387 OA
ATOM    117  H   UNL A   1      29.207  23.056  26.067  1.00  0.00     0.211 HD
ENDBRANCH  84 116
BRANCH  85 118
ATOM    118  O   UNL A   1      30.785  26.104  26.863  1.00  0.00    -0.384 OA
ATOM    119  H   UNL A   1      31.197  25.805  27.688  1.00  0.00     0.211 HD
ENDBRANCH  85 118
ENDBRANCH  78  80
ENDBRANCH  77  78
ENDBRANCH  76  77
ENDBRANCH  75  76
ENDBRANCH  74  75
ENDBRANCH   1  74
TORSDOF 28
ENDMDL
MODEL 3
REMARK VINA RESULT:     -11.2      1.491      8.092
REMARK SMILES O=C(OCCOCCOCCOC(=O)[C@H]1O[C@@H](Oc2c(-c3cc(O)c(O)c(O)c3)oc3cc(O)cc(O)c3c2=O)[C@H](O)[C@@H](O)[C@@H]1O)c1ccc(-c2c3nc(c(-c4c(F)c(F)c(F)c(F)c4F)c4ccc([nH]4)c(-c4c(F)c(F)c(F)c(F)c4F)c4nc(c(-c5c(F)c(F)c(F)c(F)c5F)c5ccc2[nH]5)C=C4)C=C3)cc1
REMARK SMILES IDX 8 1 7 2 6 3 5 4 4 5 3 6 2 7 1 8 47 9 48 10 109 11 49 12
REMARK SMILES IDX 108 13 50 14 51 15 52 16 102 17 53 18 107 19 101 20 103 21
REMARK SMILES IDX 54 22 106 23 100 24 99 25 55 27 87 28 67 29 86 30 68 31
REMARK SMILES IDX 71 32 85 33 104 34 69 35 70 36 84 38 105 39 72 40 56 41
REMARK SMILES IDX 57 42 65 43 58 44 59 45 63 46 66 47 60 48 61 49 64 50 62 51
REMARK SMILES IDX 88 52 89 53 97 54 90 55 91 56 95 57 98 58 92 59 93 60 96 61
REMARK SMILES IDX 94 62 73 63 74 64 82 65 75 66 76 67 80 68 83 69 77 70 78 71
REMARK SMILES IDX 81 72 79 73 9 74 10 75 11 76 12 77 13 78 14 79 15 80 16 81
REMARK SMILES IDX 45 82 17 83 43 84 41 85 46 86 18 88 19 89 20 90 39 91 30 92
REMARK SMILES IDX 38 93 40 94 31 95 36 96 32 97 35 98 33 99 21 100 22 101
REMARK SMILES IDX 29 102 23 103 27 104 25 105 24 106 28 108 26 110 37 112
REMARK SMILES IDX 34 114 44 116 42 118
REMARK H PARENT 103 26 71 37 46 87 24 107 28 109 26 111 37 113 34 115 44 117
REMARK H PARENT 42 119
REMARK Flexibility Score: inf
ROOT
ATOM      1  C   UNL A   1      33.657  17.248  24.188  1.00  0.00     0.188 C 
ENDROOT
BRANCH   1   2
ATOM      2  C   UNL A   1      35.134  17.440  24.530  1.00  0.00     0.188 C 
BRANCH   2   3
ATOM      3  O   UNL A   1      35.522  18.812  24.640  1.00  0.00    -0.376 OA
BRANCH   3   4
ATOM      4  C   UNL A   1      36.901  18.988  24.978  1.00  0.00     0.202 C 
BRANCH   4   5
ATOM      5  C   UNL A   1      37.493  20.381  24.683  1.00  0.00     0.261 C 
BRANCH   5   6
ATOM      6  O   UNL A   1      37.960  21.082  25.849  1.00  0.00    -0.460 OA
BRANCH   6   7
ATOM      7  C   UNL A   1      39.233  21.274  26.281  1.00  0.00     0.338 C 
ATOM      8  O   UNL A   1      39.944  20.284  26.455  1.00  0.00    -0.246 OA
BRANCH   7   9
ATOM      9  C   UNL A   1      39.826  22.615  26.588  1.00  0.00     0.060 A 
ATOM     10  C   UNL A   1      39.425  23.814  26.010  1.00  0.00     0.016 A 
ATOM     11  C   UNL A   1      40.824  22.676  27.582  1.00  0.00     0.016 A 
ATOM     12  C   UNL A   1      40.022  25.021  26.329  1.00  0.00     0.010 A 
ATOM     13  C   UNL A   1      41.405  23.898  27.951  1.00  0.00     0.010 A 
ATOM     14  C   UNL A   1      41.014  25.072  27.300  1.00  0.00    -0.014 A 
BRANCH  14  15
ATOM     15  C   UNL A   1      41.698  26.365  27.467  1.00  0.00     0.031 A 
ATOM     16  C   UNL A   1      41.002  27.417  28.269  1.00  0.00     0.074 A 
ATOM     17  C   UNL A   1      42.988  26.490  27.103  1.00  0.00     0.049 A 
ATOM     18  N   UNL A   1      41.427  28.596  28.631  1.00  0.00    -0.248 NA
ATOM     19  C   UNL A   1      39.660  27.077  28.776  1.00  0.00     0.031 C 
ATOM     20  C   UNL A   1      43.789  25.433  26.486  1.00  0.00     0.029 A 
ATOM     21  N   UNL A   1      43.868  27.529  27.235  1.00  0.00    -0.354 N 
ATOM     22  C   UNL A   1      40.416  29.129  29.416  1.00  0.00     0.074 A 
ATOM     23  C   UNL A   1      39.339  28.168  29.453  1.00  0.00     0.031 C 
ATOM     24  C   UNL A   1      45.033  25.881  26.267  1.00  0.00     0.029 A 
ATOM     25  C   UNL A   1      45.107  27.267  26.700  1.00  0.00     0.049 A 
ATOM     26  H   UNL A   1      43.636  28.381  27.670  1.00  0.00     0.167 HD
ATOM     27  C   UNL A   1      40.406  30.317  30.059  1.00  0.00     0.037 A 
ATOM     28  C   UNL A   1      46.171  28.078  26.559  1.00  0.00     0.037 A 
ATOM     29  C   UNL A   1      41.489  31.258  29.984  1.00  0.00     0.049 A 
ATOM     30  C   UNL A   1      46.063  29.460  27.140  1.00  0.00     0.074 A 
ATOM     31  C   UNL A   1      41.567  32.532  30.509  1.00  0.00     0.029 A 
ATOM     32  N   UNL A   1      42.692  31.014  29.331  1.00  0.00    -0.354 N 
ATOM     33  N   UNL A   1      45.081  29.989  27.832  1.00  0.00    -0.248 NA
ATOM     34  C   UNL A   1      47.208  30.354  26.940  1.00  0.00     0.031 C 
ATOM     35  C   UNL A   1      42.797  33.081  30.126  1.00  0.00     0.029 A 
ATOM     36  C   UNL A   1      43.511  32.126  29.417  1.00  0.00     0.049 A 
ATOM     37  H   UNL A   1      42.926  30.174  28.873  1.00  0.00     0.167 HD
ATOM     38  C   UNL A   1      45.497  31.264  28.175  1.00  0.00     0.074 A 
ATOM     39  C   UNL A   1      46.835  31.417  27.638  1.00  0.00     0.031 C 
ATOM     40  C   UNL A   1      44.839  32.229  28.866  1.00  0.00     0.037 A 
BRANCH  27  41
ATOM     41  C   UNL A   1      39.169  30.668  30.828  1.00  0.00     0.064 A 
ATOM     42  C   UNL A   1      38.074  31.303  30.222  1.00  0.00     0.173 A 
ATOM     43  C   UNL A   1      39.090  30.388  32.200  1.00  0.00     0.173 A 
ATOM     44  F   UNL A   1      38.116  31.627  28.920  1.00  0.00    -0.203 F 
ATOM     45  C   UNL A   1      36.952  31.661  30.966  1.00  0.00     0.198 A 
ATOM     46  C   UNL A   1      37.956  30.723  32.935  1.00  0.00     0.198 A 
ATOM     47  F   UNL A   1      40.115  29.798  32.830  1.00  0.00    -0.203 F 
ATOM     48  F   UNL A   1      35.940  32.315  30.379  1.00  0.00    -0.200 F 
ATOM     49  C   UNL A   1      36.892  31.365  32.320  1.00  0.00     0.200 A 
ATOM     50  F   UNL A   1      37.899  30.437  34.243  1.00  0.00    -0.200 F 
ATOM     51  F   UNL A   1      35.812  31.711  33.035  1.00  0.00    -0.200 F 
ENDBRANCH  27  41
BRANCH  28  52
ATOM     52  C   UNL A   1      47.377  27.633  25.807  1.00  0.00     0.064 A 
ATOM     53  C   UNL A   1      48.530  27.176  26.462  1.00  0.00     0.173 A 
ATOM     54  C   UNL A   1      47.421  27.710  24.405  1.00  0.00     0.173 A 
ATOM     55  F   UNL A   1      48.549  27.088  27.799  1.00  0.00    -0.203 F 
ATOM     56  C   UNL A   1      49.689  26.861  25.750  1.00  0.00     0.198 A 
ATOM     57  C   UNL A   1      48.566  27.360  23.692  1.00  0.00     0.198 A 
ATOM     58  F   UNL A   1      46.346  28.125  23.718  1.00  0.00    -0.203 F 
ATOM     59  F   UNL A   1      50.797  26.495  26.409  1.00  0.00    -0.200 F 
ATOM     60  C   UNL A   1      49.706  26.954  24.366  1.00  0.00     0.200 A 
ATOM     61  F   UNL A   1      48.566  27.429  22.354  1.00  0.00    -0.200 F 
ATOM     62  F   UNL A   1      50.823  26.664  23.686  1.00  0.00    -0.200 F 
ENDBRANCH  28  52
BRANCH  40  63
ATOM     63  C   UNL A   1      45.582  33.510  29.095  1.00  0.00     0.064 A 
ATOM     64  C   UNL A   1      46.406  33.691  30.215  1.00  0.00     0.173 A 
ATOM     65  C   UNL A   1      45.482  34.559  28.171  1.00  0.00     0.173 A 
ATOM     66  F   UNL A   1      46.519  32.719  31.135  1.00  0.00    -0.203 F 
ATOM     67  C   UNL A   1      47.072  34.893  30.422  1.00  0.00     0.198 A 
ATOM     68  C   UNL A   1      46.182  35.745  28.360  1.00  0.00     0.198 A 
ATOM     69  F   UNL A   1      44.712  34.430  27.079  1.00  0.00    -0.203 F 
ATOM     70  F   UNL A   1      47.801  35.070  31.533  1.00  0.00    -0.200 F 
ATOM     71  C   UNL A   1      46.966  35.916  29.491  1.00  0.00     0.200 A 
ATOM     72  F   UNL A   1      46.094  36.725  27.450  1.00  0.00    -0.200 F 
ATOM     73  F   UNL A   1      47.614  37.071  29.689  1.00  0.00    -0.200 F 
ENDBRANCH  40  63
ENDBRANCH  14  15
ENDBRANCH   7   9
ENDBRANCH   6   7
ENDBRANCH   5   6
ENDBRANCH   4   5
ENDBRANCH   3   4
ENDBRANCH   2   3
ENDBRANCH   1   2
BRANCH   1  74
ATOM     74  O   UNL A   1      33.300  17.189  22.813  1.00  0.00    -0.376 OA
BRANCH  74  75
ATOM     75  C   UNL A   1      32.424  18.186  22.307  1.00  0.00     0.202 C 
BRANCH  75  76
ATOM     76  C   UNL A   1      32.046  19.392  23.185  1.00  0.00     0.261 C 
BRANCH  76  77
ATOM     77  O   UNL A   1      31.937  20.666  22.537  1.00  0.00    -0.461 OA
BRANCH  77  78
ATOM     78  C   UNL A   1      32.644  21.651  23.156  1.00  0.00     0.338 C 
ATOM     79  O   UNL A   1      33.475  21.431  24.033  1.00  0.00    -0.249 OA
BRANCH  78  80
ATOM     80  C   UNL A   1      32.227  23.053  22.714  1.00  0.00     0.263 C 
ATOM     81  O   UNL A   1      31.637  23.632  23.886  1.00  0.00    -0.322 OA
ATOM     82  C   UNL A   1      33.339  23.997  22.269  1.00  0.00     0.186 C 
ATOM     83  C   UNL A   1      30.941  24.843  23.683  1.00  0.00     0.340 C 
ATOM     84  C   UNL A   1      32.690  25.322  21.848  1.00  0.00     0.181 C 
ATOM     85  C   UNL A   1      31.810  25.897  22.951  1.00  0.00     0.214 C 
BRANCH  82  86
ATOM     86  O   UNL A   1      34.093  23.531  21.158  1.00  0.00    -0.387 OA
ATOM     87  H   UNL A   1      35.024  23.440  21.415  1.00  0.00     0.211 HD
ENDBRANCH  82  86
BRANCH  83  88
ATOM     88  O   UNL A   1      30.438  25.396  24.924  1.00  0.00    -0.454 OA
BRANCH  88  89
ATOM     89  C   UNL A   1      31.227  26.399  25.496  1.00  0.00     0.214 A 
ATOM     90  C   UNL A   1      32.396  26.141  26.122  1.00  0.00     0.181 A 
ATOM     91  C   UNL A   1      30.870  27.837  25.260  1.00  0.00     0.239 A 
ATOM     92  O   UNL A   1      33.215  27.083  26.698  1.00  0.00    -0.452 OA
ATOM     93  C   UNL A   1      31.794  28.859  25.824  1.00  0.00     0.111 A 
ATOM     94  O   UNL A   1      29.893  28.125  24.569  1.00  0.00    -0.285 OA
ATOM     95  C   UNL A   1      32.924  28.408  26.512  1.00  0.00     0.146 A 
ATOM     96  C   UNL A   1      31.624  30.246  25.670  1.00  0.00     0.134 A 
ATOM     97  C   UNL A   1      33.863  29.304  27.030  1.00  0.00     0.094 A 
ATOM     98  C   UNL A   1      32.570  31.151  26.174  1.00  0.00     0.093 A 
ATOM     99  C   UNL A   1      33.688  30.667  26.845  1.00  0.00     0.123 A 
BRANCH  90 100
ATOM    100  C   UNL A   1      32.879  24.764  26.324  1.00  0.00     0.029 A 
ATOM    101  C   UNL A   1      34.160  24.410  25.863  1.00  0.00     0.062 A 
ATOM    102  C   UNL A   1      32.154  23.865  27.119  1.00  0.00     0.062 A 
ATOM    103  C   UNL A   1      34.756  23.236  26.315  1.00  0.00     0.162 A 
ATOM    104  C   UNL A   1      32.751  22.679  27.527  1.00  0.00     0.162 A 
ATOM    105  C   UNL A   1      34.056  22.372  27.150  1.00  0.00     0.200 A 
BRANCH 103 106
ATOM    106  O   UNL A   1      36.064  23.022  25.987  1.00  0.00    -0.504 OA
ATOM    107  H   UNL A   1      36.290  22.348  25.376  1.00  0.00     0.293 HD
ENDBRANCH 103 106
BRANCH 104 108
ATOM    108  O   UNL A   1      32.073  21.872  28.395  1.00  0.00    -0.504 OA
ATOM    109  H   UNL A   1      31.331  22.203  28.861  1.00  0.00     0.293 HD
ENDBRANCH 104 108
BRANCH 105 110
ATOM    110  O   UNL A   1      34.632  21.251  27.684  1.00  0.00    -0.502 OA
ATOM    111  H   UNL A   1      34.884  21.239  28.586  1.00  0.00     0.293 HD
ENDBRANCH 105 110
ENDBRANCH  90 100
BRANCH  96 112
ATOM    112  O   UNL A   1      30.542  30.750  25.003  1.00  0.00    -0.507 OA
ATOM    113  H   UNL A   1      30.664  31.221  24.203  1.00  0.00     0.293 HD
ENDBRANCH  96 112
BRANCH  99 114
ATOM    114  O   UNL A   1      34.654  31.497  27.325  1.00  0.00    -0.508 OA
ATOM    115  H   UNL A   1      35.503  31.159  27.534  1.00  0.00     0.293 HD
ENDBRANCH  99 114
ENDBRANCH  88  89
ENDBRANCH  83  88
BRANCH  84 116
ATOM    116  O   UNL A   1      33.755  26.225  21.472  1.00  0.00    -0.387 OA
ATOM    117  H   UNL A   1      33.814  26.271  20.504  1.00  0.00     0.211 HD
ENDBRANCH  84 116
BRANCH  85 118
ATOM    118  O   UNL A   1      31.068  26.998  22.409  1.00  0.00    -0.384 OA
ATOM    119  H   UNL A   1      30.719  27.540  23.132  1.00  0.00     0.211 HD
ENDBRANCH  85 118
ENDBRANCH  78  80
ENDBRANCH  77  78
ENDBRANCH  76  77
ENDBRANCH  75  76
ENDBRANCH  74  75
ENDBRANCH   1  74
TORSDOF 28
ENDMDL
