MODEL 1
REMARK VINA RESULT:     -10.9      0.000      0.000
REMARK SMILES O=C(OCCOCCOCCOC(=O)[C@@H](Cc1ccccc1F)C1CCOCC1)c1ccc(-c2c3nc(c(-c4c(F)c(F)c(F)c(F)c4F)c4ccc([nH]4)c(-c4c(F)c(F)c(F)c(F)c4F)c4nc(c(-c5c(F)c(F)c(F)c(F)c5F)c5ccc2[nH]5)C=C4)C=C3)cc1
REMARK SMILES IDX 7 1 6 2 5 3 4 4 3 5 2 6 1 7 30 8 31 9 92 10 32 11 91 12
REMARK SMILES IDX 33 13 34 14 35 15 85 16 36 17 90 18 84 19 86 20 37 21 89 22
REMARK SMILES IDX 83 23 82 24 38 26 70 27 50 28 69 29 51 30 54 31 68 32 87 33
REMARK SMILES IDX 52 34 53 35 67 37 88 38 55 39 39 40 40 41 48 42 41 43 42 44
REMARK SMILES IDX 46 45 49 46 43 47 44 48 47 49 45 50 71 51 72 52 80 53 73 54
REMARK SMILES IDX 74 55 78 56 81 57 75 58 76 59 79 60 77 61 56 62 57 63 65 64
REMARK SMILES IDX 58 65 59 66 63 67 66 68 60 69 61 70 64 71 62 72 8 73 9 74
REMARK SMILES IDX 10 75 11 76 12 77 13 78 14 79 15 80 16 81 17 82 18 83 22 84
REMARK SMILES IDX 19 85 21 86 23 87 20 88 24 89 25 90 29 91 26 92 28 93 27 94
REMARK H PARENT 86 25 54 36
REMARK Flexibility Score: inf
ROOT
ATOM      1  C   UNL A   1      35.871  33.215  28.442  1.00  0.00     0.188 C 
ENDROOT
BRANCH   1   2
ATOM      2  O   UNL A   1      35.091  34.104  27.644  1.00  0.00    -0.376 OA
BRANCH   2   3
ATOM      3  C   UNL A   1      34.482  35.195  28.325  1.00  0.00     0.202 C 
BRANCH   3   4
ATOM      4  C   UNL A   1      33.195  34.947  29.127  1.00  0.00     0.261 C 
BRANCH   4   5
ATOM      5  O   UNL A   1      32.840  35.874  30.175  1.00  0.00    -0.460 OA
BRANCH   5   6
ATOM      6  C   UNL A   1      33.120  35.954  31.492  1.00  0.00     0.338 C 
ATOM      7  O   UNL A   1      32.497  36.768  32.173  1.00  0.00    -0.246 OA
BRANCH   6   8
ATOM      8  C   UNL A   1      34.136  35.108  32.175  1.00  0.00     0.060 A 
ATOM      9  C   UNL A   1      35.496  35.372  32.160  1.00  0.00     0.016 A 
ATOM     10  C   UNL A   1      33.690  33.925  32.813  1.00  0.00     0.016 A 
ATOM     11  C   UNL A   1      36.377  34.521  32.821  1.00  0.00     0.010 A 
ATOM     12  C   UNL A   1      34.578  33.054  33.468  1.00  0.00     0.010 A 
ATOM     13  C   UNL A   1      35.933  33.365  33.498  1.00  0.00    -0.014 A 
BRANCH  13  14
ATOM     14  C   UNL A   1      37.005  32.525  34.100  1.00  0.00     0.031 A 
ATOM     15  C   UNL A   1      37.734  31.637  33.142  1.00  0.00     0.074 A 
ATOM     16  C   UNL A   1      37.495  32.754  35.337  1.00  0.00     0.049 A 
ATOM     17  N   UNL A   1      38.919  31.104  33.242  1.00  0.00    -0.248 NA
ATOM     18  C   UNL A   1      37.038  31.352  31.873  1.00  0.00     0.031 C 
ATOM     19  C   UNL A   1      36.873  33.593  36.354  1.00  0.00     0.029 A 
ATOM     20  N   UNL A   1      38.707  32.410  35.902  1.00  0.00    -0.354 N 
ATOM     21  C   UNL A   1      39.103  30.409  32.059  1.00  0.00     0.074 A 
ATOM     22  C   UNL A   1      37.949  30.649  31.223  1.00  0.00     0.031 C 
ATOM     23  C   UNL A   1      37.770  33.862  37.317  1.00  0.00     0.029 A 
ATOM     24  C   UNL A   1      39.003  33.134  37.045  1.00  0.00     0.049 A 
ATOM     25  H   UNL A   1      39.301  31.718  35.531  1.00  0.00     0.167 HD
ATOM     26  C   UNL A   1      40.119  29.583  31.735  1.00  0.00     0.037 A 
ATOM     27  C   UNL A   1      40.146  33.209  37.763  1.00  0.00     0.037 A 
ATOM     28  C   UNL A   1      41.202  29.276  32.622  1.00  0.00     0.049 A 
ATOM     29  C   UNL A   1      41.265  32.271  37.380  1.00  0.00     0.074 A 
ATOM     30  C   UNL A   1      42.183  28.315  32.485  1.00  0.00     0.029 A 
ATOM     31  N   UNL A   1      41.427  29.918  33.832  1.00  0.00    -0.354 N 
ATOM     32  N   UNL A   1      41.405  31.545  36.296  1.00  0.00    -0.248 NA
ATOM     33  C   UNL A   1      42.351  32.098  38.359  1.00  0.00     0.031 C 
ATOM     34  C   UNL A   1      42.975  28.340  33.637  1.00  0.00     0.029 A 
ATOM     35  C   UNL A   1      42.527  29.363  34.458  1.00  0.00     0.049 A 
ATOM     36  H   UNL A   1      40.884  30.657  34.190  1.00  0.00     0.167 HD
ATOM     37  C   UNL A   1      42.559  30.797  36.486  1.00  0.00     0.074 A 
ATOM     38  C   UNL A   1      43.133  31.222  37.745  1.00  0.00     0.031 C 
ATOM     39  C   UNL A   1      43.069  29.806  35.716  1.00  0.00     0.037 A 
BRANCH  26  40
ATOM     40  C   UNL A   1      39.998  28.848  30.442  1.00  0.00     0.064 A 
ATOM     41  C   UNL A   1      40.566  29.390  29.281  1.00  0.00     0.173 A 
ATOM     42  C   UNL A   1      39.357  27.605  30.351  1.00  0.00     0.173 A 
ATOM     43  F   UNL A   1      41.217  30.562  29.332  1.00  0.00    -0.203 F 
ATOM     44  C   UNL A   1      40.477  28.724  28.065  1.00  0.00     0.198 A 
ATOM     45  C   UNL A   1      39.291  26.931  29.136  1.00  0.00     0.198 A 
ATOM     46  F   UNL A   1      38.847  27.026  31.448  1.00  0.00    -0.203 F 
ATOM     47  F   UNL A   1      41.018  29.267  26.966  1.00  0.00    -0.200 F 
ATOM     48  C   UNL A   1      39.842  27.494  27.993  1.00  0.00     0.200 A 
ATOM     49  F   UNL A   1      38.712  25.723  29.073  1.00  0.00    -0.200 F 
ATOM     50  F   UNL A   1      39.773  26.844  26.824  1.00  0.00    -0.200 F 
ENDBRANCH  26  40
BRANCH  27  51
ATOM     51  C   UNL A   1      40.314  34.128  38.938  1.00  0.00     0.064 A 
ATOM     52  C   UNL A   1      40.818  35.430  38.804  1.00  0.00     0.173 A 
ATOM     53  C   UNL A   1      39.877  33.750  40.223  1.00  0.00     0.173 A 
ATOM     54  F   UNL A   1      41.227  35.875  37.607  1.00  0.00    -0.203 F 
ATOM     55  C   UNL A   1      40.899  36.301  39.892  1.00  0.00     0.198 A 
ATOM     56  C   UNL A   1      39.915  34.638  41.302  1.00  0.00     0.198 A 
ATOM     57  F   UNL A   1      39.346  32.534  40.420  1.00  0.00    -0.203 F 
ATOM     58  F   UNL A   1      41.431  37.520  39.729  1.00  0.00    -0.200 F 
ATOM     59  C   UNL A   1      40.433  35.912  41.137  1.00  0.00     0.200 A 
ATOM     60  F   UNL A   1      39.418  34.269  42.491  1.00  0.00    -0.200 F 
ATOM     61  F   UNL A   1      40.475  36.764  42.169  1.00  0.00    -0.200 F 
ENDBRANCH  27  51
BRANCH  39  62
ATOM     62  C   UNL A   1      44.285  29.091  36.224  1.00  0.00     0.064 A 
ATOM     63  C   UNL A   1      44.158  27.899  36.951  1.00  0.00     0.173 A 
ATOM     64  C   UNL A   1      45.567  29.641  36.073  1.00  0.00     0.173 A 
ATOM     65  F   UNL A   1      42.952  27.343  37.132  1.00  0.00    -0.203 F 
ATOM     66  C   UNL A   1      45.271  27.292  37.523  1.00  0.00     0.198 A 
ATOM     67  C   UNL A   1      46.681  29.013  36.619  1.00  0.00     0.198 A 
ATOM     68  F   UNL A   1      45.738  30.777  35.379  1.00  0.00    -0.203 F 
ATOM     69  F   UNL A   1      45.122  26.176  38.250  1.00  0.00    -0.200 F 
ATOM     70  C   UNL A   1      46.531  27.846  37.353  1.00  0.00     0.200 A 
ATOM     71  F   UNL A   1      47.901  29.538  36.435  1.00  0.00    -0.200 F 
ATOM     72  F   UNL A   1      47.603  27.255  37.899  1.00  0.00    -0.200 F 
ENDBRANCH  39  62
ENDBRANCH  13  14
ENDBRANCH   6   8
ENDBRANCH   5   6
ENDBRANCH   4   5
ENDBRANCH   3   4
ENDBRANCH   2   3
ENDBRANCH   1   2
BRANCH   1  73
ATOM     73  C   UNL A   1      35.525  31.744  28.203  1.00  0.00     0.188 C 
BRANCH  73  74
ATOM     74  O   UNL A   1      34.234  31.492  27.649  1.00  0.00    -0.376 OA
BRANCH  74  75
ATOM     75  C   UNL A   1      34.000  30.213  27.073  1.00  0.00     0.202 C 
BRANCH  75  76
ATOM     76  C   UNL A   1      32.545  29.863  26.771  1.00  0.00     0.261 C 
BRANCH  76  77
ATOM     77  O   UNL A   1      32.400  28.588  26.137  1.00  0.00    -0.463 OA
BRANCH  77  78
ATOM     78  C   UNL A   1      31.433  27.766  26.617  1.00  0.00     0.309 C 
ATOM     79  O   UNL A   1      31.037  27.766  27.769  1.00  0.00    -0.252 OA
BRANCH  78  80
ATOM     80  C   UNL A   1      30.857  26.850  25.533  1.00  0.00     0.107 C 
BRANCH  80  81
ATOM     81  C   UNL A   1      30.993  27.429  24.115  1.00  0.00     0.054 C 
BRANCH  81  82
ATOM     82  C   UNL A   1      29.870  28.160  23.402  1.00  0.00    -0.011 A 
ATOM     83  C   UNL A   1      28.496  27.944  23.493  1.00  0.00     0.007 A 
ATOM     84  C   UNL A   1      30.280  29.179  22.553  1.00  0.00     0.126 A 
ATOM     85  C   UNL A   1      27.596  28.783  22.818  1.00  0.00     0.000 A 
ATOM     86  C   UNL A   1      29.415  30.048  21.902  1.00  0.00     0.039 A 
ATOM     87  F   UNL A   1      31.590  29.311  22.382  1.00  0.00    -0.207 F 
ATOM     88  C   UNL A   1      28.052  29.849  22.042  1.00  0.00     0.003 A 
ENDBRANCH  81  82
ENDBRANCH  80  81
BRANCH  80  89
ATOM     89  C   UNL A   1      31.124  25.312  25.704  1.00  0.00     0.008 C 
ATOM     90  C   UNL A   1      29.971  24.571  26.399  1.00  0.00     0.033 C 
ATOM     91  C   UNL A   1      32.475  24.932  26.334  1.00  0.00     0.033 C 
ATOM     92  C   UNL A   1      30.289  23.115  26.692  1.00  0.00     0.160 C 
ATOM     93  C   UNL A   1      32.608  23.456  26.670  1.00  0.00     0.160 C 
ATOM     94  O   UNL A   1      31.497  23.017  27.439  1.00  0.00    -0.381 OA
ENDBRANCH  80  89
ENDBRANCH  78  80
ENDBRANCH  77  78
ENDBRANCH  76  77
ENDBRANCH  75  76
ENDBRANCH  74  75
ENDBRANCH  73  74
ENDBRANCH   1  73
TORSDOF 20
ENDMDL
MODEL 2
REMARK VINA RESULT:     -10.8      3.032      8.607
REMARK SMILES O=C(OCCOCCOCCOC(=O)[C@@H](Cc1ccccc1F)C1CCOCC1)c1ccc(-c2c3nc(c(-c4c(F)c(F)c(F)c(F)c4F)c4ccc([nH]4)c(-c4c(F)c(F)c(F)c(F)c4F)c4nc(c(-c5c(F)c(F)c(F)c(F)c5F)c5ccc2[nH]5)C=C4)C=C3)cc1
REMARK SMILES IDX 7 1 6 2 5 3 4 4 3 5 2 6 1 7 30 8 31 9 92 10 32 11 91 12
REMARK SMILES IDX 33 13 34 14 35 15 85 16 36 17 90 18 84 19 86 20 37 21 89 22
REMARK SMILES IDX 83 23 82 24 38 26 70 27 50 28 69 29 51 30 54 31 68 32 87 33
REMARK SMILES IDX 52 34 53 35 67 37 88 38 55 39 39 40 40 41 48 42 41 43 42 44
REMARK SMILES IDX 46 45 49 46 43 47 44 48 47 49 45 50 71 51 72 52 80 53 73 54
REMARK SMILES IDX 74 55 78 56 81 57 75 58 76 59 79 60 77 61 56 62 57 63 65 64
REMARK SMILES IDX 58 65 59 66 63 67 66 68 60 69 61 70 64 71 62 72 8 73 9 74
REMARK SMILES IDX 10 75 11 76 12 77 13 78 14 79 15 80 16 81 17 82 18 83 22 84
REMARK SMILES IDX 19 85 21 86 23 87 20 88 24 89 25 90 29 91 26 92 28 93 27 94
REMARK H PARENT 86 25 54 36
REMARK Flexibility Score: inf
ROOT
ATOM      1  C   UNL A   1      29.906  29.702  23.513  1.00  0.00     0.188 C 
ENDROOT
BRANCH   1   2
ATOM      2  O   UNL A   1      30.652  30.239  24.605  1.00  0.00    -0.376 OA
BRANCH   2   3
ATOM      3  C   UNL A   1      30.301  31.553  25.024  1.00  0.00     0.202 C 
BRANCH   3   4
ATOM      4  C   UNL A   1      31.033  32.172  26.225  1.00  0.00     0.261 C 
BRANCH   4   5
ATOM      5  O   UNL A   1      32.369  31.719  26.532  1.00  0.00    -0.460 OA
BRANCH   5   6
ATOM      6  C   UNL A   1      32.872  30.631  27.150  1.00  0.00     0.338 C 
ATOM      7  O   UNL A   1      32.131  29.664  27.326  1.00  0.00    -0.246 OA
BRANCH   6   8
ATOM      8  C   UNL A   1      34.278  30.525  27.626  1.00  0.00     0.060 A 
ATOM      9  C   UNL A   1      34.885  29.331  27.981  1.00  0.00     0.016 A 
ATOM     10  C   UNL A   1      35.011  31.725  27.795  1.00  0.00     0.016 A 
ATOM     11  C   UNL A   1      36.204  29.327  28.424  1.00  0.00     0.010 A 
ATOM     12  C   UNL A   1      36.338  31.727  28.259  1.00  0.00     0.010 A 
ATOM     13  C   UNL A   1      36.954  30.516  28.551  1.00  0.00    -0.014 A 
BRANCH  13  14
ATOM     14  C   UNL A   1      38.329  30.350  29.098  1.00  0.00     0.031 A 
ATOM     15  C   UNL A   1      38.500  30.749  30.529  1.00  0.00     0.074 A 
ATOM     16  C   UNL A   1      39.276  29.620  28.469  1.00  0.00     0.049 A 
ATOM     17  N   UNL A   1      39.406  30.382  31.391  1.00  0.00    -0.248 NA
ATOM     18  C   UNL A   1      37.470  31.656  31.070  1.00  0.00     0.031 C 
ATOM     19  C   UNL A   1      39.222  29.179  27.080  1.00  0.00     0.029 A 
ATOM     20  N   UNL A   1      40.408  29.001  28.960  1.00  0.00    -0.354 N 
ATOM     21  C   UNL A   1      39.064  31.025  32.569  1.00  0.00     0.074 A 
ATOM     22  C   UNL A   1      37.830  31.740  32.340  1.00  0.00     0.031 C 
ATOM     23  C   UNL A   1      40.141  28.218  26.885  1.00  0.00     0.029 A 
ATOM     24  C   UNL A   1      40.921  28.042  28.103  1.00  0.00     0.049 A 
ATOM     25  H   UNL A   1      40.811  29.221  29.830  1.00  0.00     0.167 HD
ATOM     26  C   UNL A   1      39.767  31.070  33.720  1.00  0.00     0.037 A 
ATOM     27  C   UNL A   1      41.892  27.121  28.299  1.00  0.00     0.037 A 
ATOM     28  C   UNL A   1      41.043  30.439  33.892  1.00  0.00     0.049 A 
ATOM     29  C   UNL A   1      42.663  27.196  29.595  1.00  0.00     0.074 A 
ATOM     30  C   UNL A   1      41.934  30.570  34.938  1.00  0.00     0.029 A 
ATOM     31  N   UNL A   1      41.616  29.573  32.972  1.00  0.00    -0.354 N 
ATOM     32  N   UNL A   1      42.389  27.871  30.686  1.00  0.00    -0.248 NA
ATOM     33  C   UNL A   1      43.928  26.445  29.659  1.00  0.00     0.031 C 
ATOM     34  C   UNL A   1      43.073  29.821  34.628  1.00  0.00     0.029 A 
ATOM     35  C   UNL A   1      42.860  29.170  33.422  1.00  0.00     0.049 A 
ATOM     36  H   UNL A   1      41.201  29.288  32.127  1.00  0.00     0.167 HD
ATOM     37  C   UNL A   1      43.464  27.667  31.540  1.00  0.00     0.074 A 
ATOM     38  C   UNL A   1      44.352  26.734  30.881  1.00  0.00     0.031 C 
ATOM     39  C   UNL A   1      43.723  28.243  32.738  1.00  0.00     0.037 A 
BRANCH  26  40
ATOM     40  C   UNL A   1      39.235  31.958  34.794  1.00  0.00     0.064 A 
ATOM     41  C   UNL A   1      38.503  31.402  35.853  1.00  0.00     0.173 A 
ATOM     42  C   UNL A   1      39.470  33.339  34.801  1.00  0.00     0.173 A 
ATOM     43  F   UNL A   1      38.285  30.079  35.901  1.00  0.00    -0.203 F 
ATOM     44  C   UNL A   1      38.003  32.202  36.873  1.00  0.00     0.198 A 
ATOM     45  C   UNL A   1      38.987  34.133  35.837  1.00  0.00     0.198 A 
ATOM     46  F   UNL A   1      40.211  33.904  33.836  1.00  0.00    -0.203 F 
ATOM     47  F   UNL A   1      37.298  31.649  37.869  1.00  0.00    -0.200 F 
ATOM     48  C   UNL A   1      38.248  33.566  36.866  1.00  0.00     0.200 A 
ATOM     49  F   UNL A   1      39.256  35.447  35.853  1.00  0.00    -0.200 F 
ATOM     50  F   UNL A   1      37.781  34.334  37.860  1.00  0.00    -0.200 F 
ENDBRANCH  26  40
BRANCH  27  51
ATOM     51  C   UNL A   1      42.260  26.090  27.273  1.00  0.00     0.064 A 
ATOM     52  C   UNL A   1      43.334  26.266  26.386  1.00  0.00     0.173 A 
ATOM     53  C   UNL A   1      41.599  24.847  27.222  1.00  0.00     0.173 A 
ATOM     54  F   UNL A   1      44.033  27.410  26.393  1.00  0.00    -0.203 F 
ATOM     55  C   UNL A   1      43.714  25.268  25.488  1.00  0.00     0.198 A 
ATOM     56  C   UNL A   1      42.010  23.831  26.355  1.00  0.00     0.198 A 
ATOM     57  F   UNL A   1      40.589  24.591  28.068  1.00  0.00    -0.203 F 
ATOM     58  F   UNL A   1      44.715  25.496  24.626  1.00  0.00    -0.200 F 
ATOM     59  C   UNL A   1      43.064  24.044  25.483  1.00  0.00     0.200 A 
ATOM     60  F   UNL A   1      41.406  22.635  26.391  1.00  0.00    -0.200 F 
ATOM     61  F   UNL A   1      43.458  23.075  24.648  1.00  0.00    -0.200 F 
ENDBRANCH  27  51
BRANCH  39  62
ATOM     62  C   UNL A   1      45.027  27.912  33.398  1.00  0.00     0.064 A 
ATOM     63  C   UNL A   1      45.109  26.866  34.328  1.00  0.00     0.173 A 
ATOM     64  C   UNL A   1      46.171  28.694  33.181  1.00  0.00     0.173 A 
ATOM     65  F   UNL A   1      44.038  26.098  34.579  1.00  0.00    -0.203 F 
ATOM     66  C   UNL A   1      46.286  26.626  35.030  1.00  0.00     0.198 A 
ATOM     67  C   UNL A   1      47.355  28.431  33.861  1.00  0.00     0.198 A 
ATOM     68  F   UNL A   1      46.143  29.701  32.295  1.00  0.00    -0.203 F 
ATOM     69  F   UNL A   1      46.330  25.648  35.945  1.00  0.00    -0.200 F 
ATOM     70  C   UNL A   1      47.408  27.405  34.793  1.00  0.00     0.200 A 
ATOM     71  F   UNL A   1      48.446  29.170  33.613  1.00  0.00    -0.200 F 
ATOM     72  F   UNL A   1      48.544  27.167  35.463  1.00  0.00    -0.200 F 
ENDBRANCH  39  62
ENDBRANCH  13  14
ENDBRANCH   6   8
ENDBRANCH   5   6
ENDBRANCH   4   5
ENDBRANCH   3   4
ENDBRANCH   2   3
ENDBRANCH   1   2
BRANCH   1  73
ATOM     73  C   UNL A   1      30.032  28.182  23.399  1.00  0.00     0.188 C 
BRANCH  73  74
ATOM     74  O   UNL A   1      28.803  27.456  23.404  1.00  0.00    -0.376 OA
BRANCH  74  75
ATOM     75  C   UNL A   1      28.712  26.317  24.253  1.00  0.00     0.202 C 
BRANCH  75  76
ATOM     76  C   UNL A   1      29.940  26.013  25.108  1.00  0.00     0.261 C 
BRANCH  76  77
ATOM     77  O   UNL A   1      30.324  24.635  25.057  1.00  0.00    -0.463 OA
BRANCH  77  78
ATOM     78  C   UNL A   1      31.289  24.230  25.921  1.00  0.00     0.309 C 
ATOM     79  O   UNL A   1      31.161  24.202  27.132  1.00  0.00    -0.252 OA
BRANCH  78  80
ATOM     80  C   UNL A   1      32.560  23.771  25.202  1.00  0.00     0.107 C 
BRANCH  80  81
ATOM     81  C   UNL A   1      33.675  24.830  25.205  1.00  0.00     0.054 C 
BRANCH  81  82
ATOM     82  C   UNL A   1      33.696  26.022  24.266  1.00  0.00    -0.011 A 
ATOM     83  C   UNL A   1      33.652  26.032  22.873  1.00  0.00     0.007 A 
ATOM     84  C   UNL A   1      33.762  27.260  24.891  1.00  0.00     0.126 A 
ATOM     85  C   UNL A   1      33.592  27.246  22.170  1.00  0.00     0.000 A 
ATOM     86  C   UNL A   1      33.669  28.475  24.227  1.00  0.00     0.039 A 
ATOM     87  F   UNL A   1      33.915  27.246  26.210  1.00  0.00    -0.207 F 
ATOM     88  C   UNL A   1      33.577  28.466  22.846  1.00  0.00     0.003 A 
ENDBRANCH  81  82
ENDBRANCH  80  81
BRANCH  80  89
ATOM     89  C   UNL A   1      32.993  22.279  25.433  1.00  0.00     0.008 C 
ATOM     90  C   UNL A   1      34.404  21.969  24.907  1.00  0.00     0.033 C 
ATOM     91  C   UNL A   1      31.991  21.210  24.969  1.00  0.00     0.033 C 
ATOM     92  C   UNL A   1      34.765  20.498  25.001  1.00  0.00     0.160 C 
ATOM     93  C   UNL A   1      32.530  19.791  25.020  1.00  0.00     0.160 C 
ATOM     94  O   UNL A   1      33.779  19.706  24.347  1.00  0.00    -0.381 OA
ENDBRANCH  80  89
ENDBRANCH  78  80
ENDBRANCH  77  78
ENDBRANCH  76  77
ENDBRANCH  75  76
ENDBRANCH  74  75
ENDBRANCH  73  74
ENDBRANCH   1  73
TORSDOF 20
ENDMDL
MODEL 3
REMARK VINA RESULT:     -10.6      7.538     12.979
REMARK SMILES O=C(OCCOCCOCCOC(=O)[C@@H](Cc1ccccc1F)C1CCOCC1)c1ccc(-c2c3nc(c(-c4c(F)c(F)c(F)c(F)c4F)c4ccc([nH]4)c(-c4c(F)c(F)c(F)c(F)c4F)c4nc(c(-c5c(F)c(F)c(F)c(F)c5F)c5ccc2[nH]5)C=C4)C=C3)cc1
REMARK SMILES IDX 7 1 6 2 5 3 4 4 3 5 2 6 1 7 30 8 31 9 92 10 32 11 91 12
REMARK SMILES IDX 33 13 34 14 35 15 85 16 36 17 90 18 84 19 86 20 37 21 89 22
REMARK SMILES IDX 83 23 82 24 38 26 70 27 50 28 69 29 51 30 54 31 68 32 87 33
REMARK SMILES IDX 52 34 53 35 67 37 88 38 55 39 39 40 40 41 48 42 41 43 42 44
REMARK SMILES IDX 46 45 49 46 43 47 44 48 47 49 45 50 71 51 72 52 80 53 73 54
REMARK SMILES IDX 74 55 78 56 81 57 75 58 76 59 79 60 77 61 56 62 57 63 65 64
REMARK SMILES IDX 58 65 59 66 63 67 66 68 60 69 61 70 64 71 62 72 8 73 9 74
REMARK SMILES IDX 10 75 11 76 12 77 13 78 14 79 15 80 16 81 17 82 18 83 22 84
REMARK SMILES IDX 19 85 21 86 23 87 20 88 24 89 25 90 29 91 26 92 28 93 27 94
REMARK H PARENT 86 25 54 36
REMARK Flexibility Score: inf
ROOT
ATOM      1  C   UNL A   1      41.731  21.447  27.335  1.00  0.00     0.188 C 
ENDROOT
BRANCH   1   2
ATOM      2  O   UNL A   1      41.390  20.061  27.309  1.00  0.00    -0.376 OA
BRANCH   2   3
ATOM      3  C   UNL A   1      41.808  19.328  26.164  1.00  0.00     0.202 C 
BRANCH   3   4
ATOM      4  C   UNL A   1      43.028  18.402  26.277  1.00  0.00     0.261 C 
BRANCH   4   5
ATOM      5  O   UNL A   1      44.192  18.685  25.472  1.00  0.00    -0.460 OA
BRANCH   5   6
ATOM      6  C   UNL A   1      44.463  19.573  24.492  1.00  0.00     0.338 C 
ATOM      7  O   UNL A   1      44.525  19.162  23.334  1.00  0.00    -0.246 OA
BRANCH   6   8
ATOM      8  C   UNL A   1      44.683  21.025  24.729  1.00  0.00     0.060 A 
ATOM      9  C   UNL A   1      44.433  22.008  23.785  1.00  0.00     0.016 A 
ATOM     10  C   UNL A   1      45.251  21.415  25.966  1.00  0.00     0.016 A 
ATOM     11  C   UNL A   1      44.675  23.343  24.090  1.00  0.00     0.010 A 
ATOM     12  C   UNL A   1      45.514  22.761  26.273  1.00  0.00     0.010 A 
ATOM     13  C   UNL A   1      45.198  23.742  25.339  1.00  0.00    -0.014 A 
BRANCH  13  14
ATOM     14  C   UNL A   1      45.461  25.200  25.487  1.00  0.00     0.031 A 
ATOM     15  C   UNL A   1      44.422  25.962  26.246  1.00  0.00     0.074 A 
ATOM     16  C   UNL A   1      46.669  25.748  25.233  1.00  0.00     0.049 A 
ATOM     17  N   UNL A   1      44.520  27.100  26.874  1.00  0.00    -0.248 NA
ATOM     18  C   UNL A   1      43.098  25.319  26.346  1.00  0.00     0.031 C 
ATOM     19  C   UNL A   1      47.754  25.106  24.501  1.00  0.00     0.029 A 
ATOM     20  N   UNL A   1      47.237  26.922  25.686  1.00  0.00    -0.354 N 
ATOM     21  C   UNL A   1      43.270  27.315  27.428  1.00  0.00     0.074 A 
ATOM     22  C   UNL A   1      42.452  26.161  27.134  1.00  0.00     0.031 C 
ATOM     23  C   UNL A   1      48.895  25.780  24.717  1.00  0.00     0.029 A 
ATOM     24  C   UNL A   1      48.611  26.963  25.520  1.00  0.00     0.049 A 
ATOM     25  H   UNL A   1      46.717  27.656  26.084  1.00  0.00     0.167 HD
ATOM     26  C   UNL A   1      42.827  28.420  28.064  1.00  0.00     0.037 A 
ATOM     27  C   UNL A   1      49.524  27.845  25.987  1.00  0.00     0.037 A 
ATOM     28  C   UNL A   1      43.623  29.596  28.252  1.00  0.00     0.049 A 
ATOM     29  C   UNL A   1      48.999  29.073  26.693  1.00  0.00     0.074 A 
ATOM     30  C   UNL A   1      43.231  30.839  28.708  1.00  0.00     0.029 A 
ATOM     31  N   UNL A   1      44.979  29.676  27.967  1.00  0.00    -0.354 N 
ATOM     32  N   UNL A   1      47.793  29.317  27.146  1.00  0.00    -0.248 NA
ATOM     33  C   UNL A   1      49.945  30.185  26.880  1.00  0.00     0.031 C 
ATOM     34  C   UNL A   1      44.340  31.688  28.651  1.00  0.00     0.029 A 
ATOM     35  C   UNL A   1      45.437  30.954  28.226  1.00  0.00     0.049 A 
ATOM     36  H   UNL A   1      45.531  28.934  27.631  1.00  0.00     0.167 HD
ATOM     37  C   UNL A   1      47.823  30.621  27.622  1.00  0.00     0.074 A 
ATOM     38  C   UNL A   1      49.187  31.086  27.488  1.00  0.00     0.031 C 
ATOM     39  C   UNL A   1      46.802  31.387  28.076  1.00  0.00     0.037 A 
BRANCH  26  40
ATOM     40  C   UNL A   1      41.383  28.442  28.439  1.00  0.00     0.064 A 
ATOM     41  C   UNL A   1      40.995  28.039  29.725  1.00  0.00     0.173 A 
ATOM     42  C   UNL A   1      40.392  28.886  27.554  1.00  0.00     0.173 A 
ATOM     43  F   UNL A   1      41.917  27.638  30.613  1.00  0.00    -0.203 F 
ATOM     44  C   UNL A   1      39.659  28.058  30.106  1.00  0.00     0.198 A 
ATOM     45  C   UNL A   1      39.058  28.926  27.948  1.00  0.00     0.198 A 
ATOM     46  F   UNL A   1      40.726  29.331  26.334  1.00  0.00    -0.203 F 
ATOM     47  F   UNL A   1      39.311  27.658  31.336  1.00  0.00    -0.200 F 
ATOM     48  C   UNL A   1      38.692  28.503  29.218  1.00  0.00     0.200 A 
ATOM     49  F   UNL A   1      38.126  29.393  27.105  1.00  0.00    -0.200 F 
ATOM     50  F   UNL A   1      37.406  28.539  29.593  1.00  0.00    -0.200 F 
ENDBRANCH  26  40
BRANCH  27  51
ATOM     51  C   UNL A   1      51.001  27.680  25.780  1.00  0.00     0.064 A 
ATOM     52  C   UNL A   1      51.640  28.081  24.597  1.00  0.00     0.173 A 
ATOM     53  C   UNL A   1      51.830  27.202  26.814  1.00  0.00     0.173 A 
ATOM     54  F   UNL A   1      50.924  28.574  23.577  1.00  0.00    -0.203 F 
ATOM     55  C   UNL A   1      53.026  27.993  24.446  1.00  0.00     0.198 A 
ATOM     56  C   UNL A   1      53.221  27.158  26.679  1.00  0.00     0.198 A 
ATOM     57  F   UNL A   1      51.294  26.838  27.989  1.00  0.00    -0.203 F 
ATOM     58  F   UNL A   1      53.590  28.342  23.282  1.00  0.00    -0.200 F 
ATOM     59  C   UNL A   1      53.818  27.547  25.492  1.00  0.00     0.200 A 
ATOM     60  F   UNL A   1      53.981  26.770  27.712  1.00  0.00    -0.200 F 
ATOM     61  F   UNL A   1      55.149  27.502  25.357  1.00  0.00    -0.200 F 
ENDBRANCH  27  51
BRANCH  39  62
ATOM     62  C   UNL A   1      47.108  32.810  28.430  1.00  0.00     0.064 A 
ATOM     63  C   UNL A   1      46.940  33.831  27.484  1.00  0.00     0.173 A 
ATOM     64  C   UNL A   1      47.662  33.147  29.674  1.00  0.00     0.173 A 
ATOM     65  F   UNL A   1      46.427  33.556  26.276  1.00  0.00    -0.203 F 
ATOM     66  C   UNL A   1      47.331  35.136  27.766  1.00  0.00     0.198 A 
ATOM     67  C   UNL A   1      48.021  34.459  29.964  1.00  0.00     0.198 A 
ATOM     68  F   UNL A   1      47.834  32.205  30.615  1.00  0.00    -0.203 F 
ATOM     69  F   UNL A   1      47.200  36.088  26.832  1.00  0.00    -0.200 F 
ATOM     70  C   UNL A   1      47.866  35.450  29.006  1.00  0.00     0.200 A 
ATOM     71  F   UNL A   1      48.516  34.765  31.172  1.00  0.00    -0.200 F 
ATOM     72  F   UNL A   1      48.234  36.709  29.279  1.00  0.00    -0.200 F 
ENDBRANCH  39  62
ENDBRANCH  13  14
ENDBRANCH   6   8
ENDBRANCH   5   6
ENDBRANCH   4   5
ENDBRANCH   3   4
ENDBRANCH   2   3
ENDBRANCH   1   2
BRANCH   1  73
ATOM     73  C   UNL A   1      40.506  22.361  27.291  1.00  0.00     0.188 C 
BRANCH  73  74
ATOM     74  O   UNL A   1      39.574  22.101  26.240  1.00  0.00    -0.376 OA
BRANCH  74  75
ATOM     75  C   UNL A   1      38.469  22.986  26.104  1.00  0.00     0.202 C 
BRANCH  75  76
ATOM     76  C   UNL A   1      37.590  22.785  24.872  1.00  0.00     0.261 C 
BRANCH  76  77
ATOM     77  O   UNL A   1      36.253  22.396  25.201  1.00  0.00    -0.463 OA
BRANCH  77  78
ATOM     78  C   UNL A   1      35.299  22.604  24.258  1.00  0.00     0.309 C 
ATOM     79  O   UNL A   1      35.463  23.259  23.244  1.00  0.00    -0.252 OA
BRANCH  78  80
ATOM     80  C   UNL A   1      33.987  21.888  24.589  1.00  0.00     0.107 C 
BRANCH  80  81
ATOM     81  C   UNL A   1      34.193  20.545  25.310  1.00  0.00     0.054 C 
BRANCH  81  82
ATOM     82  C   UNL A   1      33.818  19.206  24.703  1.00  0.00    -0.011 A 
ATOM     83  C   UNL A   1      32.561  18.754  24.304  1.00  0.00     0.007 A 
ATOM     84  C   UNL A   1      34.876  18.326  24.524  1.00  0.00     0.126 A 
ATOM     85  C   UNL A   1      32.418  17.506  23.678  1.00  0.00     0.000 A 
ATOM     86  C   UNL A   1      34.773  17.102  23.877  1.00  0.00     0.039 A 
ATOM     87  F   UNL A   1      36.051  18.713  25.006  1.00  0.00    -0.207 F 
ATOM     88  C   UNL A   1      33.525  16.690  23.442  1.00  0.00     0.003 A 
ENDBRANCH  81  82
ENDBRANCH  80  81
BRANCH  80  89
ATOM     89  C   UNL A   1      32.805  22.792  25.090  1.00  0.00     0.008 C 
ATOM     90  C   UNL A   1      33.234  23.817  26.152  1.00  0.00     0.033 C 
ATOM     91  C   UNL A   1      31.532  22.050  25.531  1.00  0.00     0.033 C 
ATOM     92  C   UNL A   1      32.068  24.591  26.739  1.00  0.00     0.160 C 
ATOM     93  C   UNL A   1      30.496  22.938  26.198  1.00  0.00     0.160 C 
ATOM     94  O   UNL A   1      31.086  23.694  27.247  1.00  0.00    -0.381 OA
ENDBRANCH  80  89
ENDBRANCH  78  80
ENDBRANCH  77  78
ENDBRANCH  76  77
ENDBRANCH  75  76
ENDBRANCH  74  75
ENDBRANCH  73  74
ENDBRANCH   1  73
TORSDOF 20
ENDMDL
