MODEL 1
REMARK VINA RESULT:     -10.7      0.000      0.000
REMARK SMILES C=CCc1cccc(-c2ccc([C@@H](C)C(=O)OCCOCCOCCOC(=O)c3ccc(-c4c5nc(c(-c6c(F)c(F)c(F)c(F)c6F)c6ccc([nH]6)c(-c6c(F)c(F)c(F)c(F)c6F)c6nc(c(-c7c(F)c(F)c(F)c(F)c7F)c7ccc4[nH]7)C=C6)C=C5)cc3)cc2)c1
REMARK SMILES IDX 21 1 20 2 19 3 18 4 17 5 15 6 16 7 13 8 14 9 12 10 9 11
REMARK SMILES IDX 10 12 93 13 11 14 92 15 8 16 4 17 5 18 94 19 6 20 7 21 3 22
REMARK SMILES IDX 2 23 1 24 22 25 23 26 24 27 25 28 26 29 27 30 28 31 29 32
REMARK SMILES IDX 30 33 91 34 31 35 90 36 32 37 33 38 34 39 84 40 35 41 89 42
REMARK SMILES IDX 83 43 85 44 36 45 88 46 82 47 81 48 37 50 69 51 49 52 68 53
REMARK SMILES IDX 50 54 53 55 67 56 86 57 51 58 52 59 66 61 87 62 54 63 38 64
REMARK SMILES IDX 39 65 47 66 40 67 41 68 45 69 48 70 42 71 43 72 46 73 44 74
REMARK SMILES IDX 70 75 71 76 79 77 72 78 73 79 77 80 80 81 74 82 75 83 78 84
REMARK SMILES IDX 76 85 55 86 56 87 64 88 57 89 58 90 62 91 65 92 59 93 60 94
REMARK SMILES IDX 63 95 61 96
REMARK H PARENT 85 49 53 60
REMARK Flexibility Score: inf
ROOT
ATOM      1  C   UNL A   1      37.089  23.391  24.890  1.00  0.00     0.188 C 
ENDROOT
BRANCH   1   2
ATOM      2  O   UNL A   1      35.697  23.609  25.100  1.00  0.00    -0.376 OA
BRANCH   2   3
ATOM      3  C   UNL A   1      35.097  23.164  26.309  1.00  0.00     0.202 C 
BRANCH   3   4
ATOM      4  C   UNL A   1      34.904  21.652  26.500  1.00  0.00     0.261 C 
BRANCH   4   5
ATOM      5  O   UNL A   1      33.560  21.164  26.287  1.00  0.00    -0.463 OA
BRANCH   5   6
ATOM      6  C   UNL A   1      33.324  20.540  25.106  1.00  0.00     0.313 C 
ATOM      7  O   UNL A   1      33.968  19.567  24.719  1.00  0.00    -0.252 OA
BRANCH   6   8
ATOM      8  C   UNL A   1      32.188  21.104  24.248  1.00  0.00     0.126 C 
ATOM      9  C   UNL A   1      32.269  20.481  22.854  1.00  0.00     0.025 C 
BRANCH   8  10
ATOM     10  C   UNL A   1      31.924  22.606  24.154  1.00  0.00    -0.034 A 
ATOM     11  C   UNL A   1      31.333  25.409  24.070  1.00  0.00    -0.018 A 
ATOM     12  C   UNL A   1      32.248  24.823  23.178  1.00  0.00     0.009 A 
ATOM     13  C   UNL A   1      30.705  24.565  24.994  1.00  0.00     0.009 A 
ATOM     14  C   UNL A   1      32.533  23.442  23.210  1.00  0.00     0.005 A 
ATOM     15  C   UNL A   1      30.989  23.192  25.031  1.00  0.00     0.005 A 
BRANCH  11  16
ATOM     16  C   UNL A   1      30.998  26.847  24.006  1.00  0.00    -0.018 A 
ATOM     17  C   UNL A   1      29.512  28.686  23.325  1.00  0.00    -0.044 A 
ATOM     18  C   UNL A   1      30.437  29.609  23.831  1.00  0.00     0.004 A 
ATOM     19  C   UNL A   1      29.803  27.309  23.419  1.00  0.00     0.012 A 
ATOM     20  C   UNL A   1      31.620  29.172  24.421  1.00  0.00     0.001 A 
ATOM     21  C   UNL A   1      31.896  27.805  24.507  1.00  0.00     0.009 A 
BRANCH  17  22
ATOM     22  C   UNL A   1      28.237  29.177  22.673  1.00  0.00     0.062 C 
BRANCH  22  23
ATOM     23  C   UNL A   1      27.615  30.341  23.399  1.00  0.00    -0.030 C 
ATOM     24  C   UNL A   1      27.715  31.621  23.014  1.00  0.00     0.004 C 
ENDBRANCH  22  23
ENDBRANCH  17  22
ENDBRANCH  11  16
ENDBRANCH   8  10
ENDBRANCH   6   8
ENDBRANCH   5   6
ENDBRANCH   4   5
ENDBRANCH   3   4
ENDBRANCH   2   3
ENDBRANCH   1   2
BRANCH   1  25
ATOM     25  C   UNL A   1      38.015  23.182  26.097  1.00  0.00     0.188 C 
BRANCH  25  26
ATOM     26  O   UNL A   1      38.833  22.033  26.007  1.00  0.00    -0.376 OA
BRANCH  26  27
ATOM     27  C   UNL A   1      38.273  20.925  25.331  1.00  0.00     0.202 C 
BRANCH  27  28
ATOM     28  C   UNL A   1      39.203  19.706  25.338  1.00  0.00     0.261 C 
BRANCH  28  29
ATOM     29  O   UNL A   1      40.092  19.629  26.470  1.00  0.00    -0.460 OA
BRANCH  29  30
ATOM     30  C   UNL A   1      41.413  19.510  26.202  1.00  0.00     0.338 C 
ATOM     31  O   UNL A   1      41.979  18.560  25.698  1.00  0.00    -0.246 OA
BRANCH  30  32
ATOM     32  C   UNL A   1      42.044  20.829  26.437  1.00  0.00     0.060 A 
ATOM     33  C   UNL A   1      42.318  21.227  27.754  1.00  0.00     0.016 A 
ATOM     34  C   UNL A   1      42.352  21.673  25.368  1.00  0.00     0.016 A 
ATOM     35  C   UNL A   1      42.859  22.489  28.008  1.00  0.00     0.010 A 
ATOM     36  C   UNL A   1      42.877  22.944  25.624  1.00  0.00     0.010 A 
ATOM     37  C   UNL A   1      43.096  23.373  26.945  1.00  0.00    -0.014 A 
BRANCH  37  38
ATOM     38  C   UNL A   1      43.368  24.808  27.217  1.00  0.00     0.031 A 
ATOM     39  C   UNL A   1      44.753  25.333  26.956  1.00  0.00     0.074 A 
ATOM     40  C   UNL A   1      42.418  25.634  27.689  1.00  0.00     0.049 A 
ATOM     41  N   UNL A   1      45.254  26.522  27.178  1.00  0.00    -0.248 NA
ATOM     42  C   UNL A   1      45.707  24.377  26.373  1.00  0.00     0.031 C 
ATOM     43  C   UNL A   1      41.032  25.264  27.956  1.00  0.00     0.029 A 
ATOM     44  N   UNL A   1      42.490  26.960  28.043  1.00  0.00    -0.354 N 
ATOM     45  C   UNL A   1      46.582  26.452  26.775  1.00  0.00     0.074 A 
ATOM     46  C   UNL A   1      46.816  25.097  26.326  1.00  0.00     0.031 C 
ATOM     47  C   UNL A   1      40.384  26.333  28.451  1.00  0.00     0.029 A 
ATOM     48  C   UNL A   1      41.320  27.453  28.566  1.00  0.00     0.049 A 
ATOM     49  H   UNL A   1      43.302  27.505  27.932  1.00  0.00     0.167 HD
ATOM     50  C   UNL A   1      47.519  27.428  26.775  1.00  0.00     0.037 A 
ATOM     51  C   UNL A   1      41.046  28.661  29.099  1.00  0.00     0.037 A 
ATOM     52  C   UNL A   1      47.286  28.776  27.225  1.00  0.00     0.049 A 
ATOM     53  C   UNL A   1      42.121  29.718  29.145  1.00  0.00     0.074 A 
ATOM     54  C   UNL A   1      48.163  29.847  27.233  1.00  0.00     0.029 A 
ATOM     55  N   UNL A   1      46.093  29.232  27.763  1.00  0.00    -0.354 N 
ATOM     56  N   UNL A   1      43.363  29.658  28.729  1.00  0.00    -0.248 NA
ATOM     57  C   UNL A   1      41.750  31.015  29.731  1.00  0.00     0.031 C 
ATOM     58  C   UNL A   1      47.519  30.934  27.833  1.00  0.00     0.029 A 
ATOM     59  C   UNL A   1      46.220  30.561  28.137  1.00  0.00     0.049 A 
ATOM     60  H   UNL A   1      45.275  28.693  27.866  1.00  0.00     0.167 HD
ATOM     61  C   UNL A   1      43.912  30.912  28.973  1.00  0.00     0.074 A 
ATOM     62  C   UNL A   1      42.864  31.716  29.565  1.00  0.00     0.031 C 
ATOM     63  C   UNL A   1      45.170  31.356  28.725  1.00  0.00     0.037 A 
BRANCH  50  64
ATOM     64  C   UNL A   1      48.898  27.056  26.309  1.00  0.00     0.064 A 
ATOM     65  C   UNL A   1      49.277  27.149  24.961  1.00  0.00     0.173 A 
ATOM     66  C   UNL A   1      49.854  26.596  27.228  1.00  0.00     0.173 A 
ATOM     67  F   UNL A   1      48.398  27.568  24.039  1.00  0.00    -0.203 F 
ATOM     68  C   UNL A   1      50.549  26.758  24.546  1.00  0.00     0.198 A 
ATOM     69  C   UNL A   1      51.135  26.240  26.814  1.00  0.00     0.198 A 
ATOM     70  F   UNL A   1      49.546  26.492  28.530  1.00  0.00    -0.203 F 
ATOM     71  F   UNL A   1      50.866  26.794  23.244  1.00  0.00    -0.200 F 
ATOM     72  C   UNL A   1      51.477  26.309  25.473  1.00  0.00     0.200 A 
ATOM     73  F   UNL A   1      52.035  25.819  27.713  1.00  0.00    -0.200 F 
ATOM     74  F   UNL A   1      52.699  25.932  25.071  1.00  0.00    -0.200 F 
ENDBRANCH  50  64
BRANCH  51  75
ATOM     75  C   UNL A   1      39.689  28.932  29.644  1.00  0.00     0.064 A 
ATOM     76  C   UNL A   1      39.379  28.660  30.984  1.00  0.00     0.173 A 
ATOM     77  C   UNL A   1      38.676  29.468  28.836  1.00  0.00     0.173 A 
ATOM     78  F   UNL A   1      40.305  28.118  31.788  1.00  0.00    -0.203 F 
ATOM     79  C   UNL A   1      38.104  28.904  31.491  1.00  0.00     0.198 A 
ATOM     80  C   UNL A   1      37.410  29.738  29.351  1.00  0.00     0.198 A 
ATOM     81  F   UNL A   1      38.920  29.739  27.544  1.00  0.00    -0.203 F 
ATOM     82  F   UNL A   1      37.822  28.597  32.765  1.00  0.00    -0.200 F 
ATOM     83  C   UNL A   1      37.123  29.452  30.677  1.00  0.00     0.200 A 
ATOM     84  F   UNL A   1      36.469  30.275  28.563  1.00  0.00    -0.200 F 
ATOM     85  F   UNL A   1      35.901  29.695  31.168  1.00  0.00    -0.200 F 
ENDBRANCH  51  75
BRANCH  63  86
ATOM     86  C   UNL A   1      45.478  32.791  29.053  1.00  0.00     0.064 A 
ATOM     87  C   UNL A   1      46.044  33.168  30.279  1.00  0.00     0.173 A 
ATOM     88  C   UNL A   1      45.244  33.799  28.103  1.00  0.00     0.173 A 
ATOM     89  F   UNL A   1      46.279  32.247  31.226  1.00  0.00    -0.203 F 
ATOM     90  C   UNL A   1      46.337  34.502  30.555  1.00  0.00     0.198 A 
ATOM     91  C   UNL A   1      45.569  35.127  28.369  1.00  0.00     0.198 A 
ATOM     92  F   UNL A   1      44.713  33.496  26.910  1.00  0.00    -0.203 F 
ATOM     93  F   UNL A   1      46.830  34.844  31.754  1.00  0.00    -0.200 F 
ATOM     94  C   UNL A   1      46.106  35.479  29.597  1.00  0.00     0.200 A 
ATOM     95  F   UNL A   1      45.361  36.067  27.436  1.00  0.00    -0.200 F 
ATOM     96  F   UNL A   1      46.397  36.760  29.861  1.00  0.00    -0.200 F 
ENDBRANCH  63  86
ENDBRANCH  37  38
ENDBRANCH  30  32
ENDBRANCH  29  30
ENDBRANCH  28  29
ENDBRANCH  27  28
ENDBRANCH  26  27
ENDBRANCH  25  26
ENDBRANCH   1  25
TORSDOF 21
ENDMDL
MODEL 2
REMARK VINA RESULT:     -10.7      1.860      8.056
REMARK SMILES C=CCc1cccc(-c2ccc([C@@H](C)C(=O)OCCOCCOCCOC(=O)c3ccc(-c4c5nc(c(-c6c(F)c(F)c(F)c(F)c6F)c6ccc([nH]6)c(-c6c(F)c(F)c(F)c(F)c6F)c6nc(c(-c7c(F)c(F)c(F)c(F)c7F)c7ccc4[nH]7)C=C6)C=C5)cc3)cc2)c1
REMARK SMILES IDX 21 1 20 2 19 3 18 4 17 5 15 6 16 7 13 8 14 9 12 10 9 11
REMARK SMILES IDX 10 12 93 13 11 14 92 15 8 16 4 17 5 18 94 19 6 20 7 21 3 22
REMARK SMILES IDX 2 23 1 24 22 25 23 26 24 27 25 28 26 29 27 30 28 31 29 32
REMARK SMILES IDX 30 33 91 34 31 35 90 36 32 37 33 38 34 39 84 40 35 41 89 42
REMARK SMILES IDX 83 43 85 44 36 45 88 46 82 47 81 48 37 50 69 51 49 52 68 53
REMARK SMILES IDX 50 54 53 55 67 56 86 57 51 58 52 59 66 61 87 62 54 63 38 64
REMARK SMILES IDX 39 65 47 66 40 67 41 68 45 69 48 70 42 71 43 72 46 73 44 74
REMARK SMILES IDX 70 75 71 76 79 77 72 78 73 79 77 80 80 81 74 82 75 83 78 84
REMARK SMILES IDX 76 85 55 86 56 87 64 88 57 89 58 90 62 91 65 92 59 93 60 94
REMARK SMILES IDX 63 95 61 96
REMARK H PARENT 85 49 53 60
REMARK Flexibility Score: inf
ROOT
ATOM      1  C   UNL A   1      36.679  23.606  25.431  1.00  0.00     0.188 C 
ENDROOT
BRANCH   1   2
ATOM      2  O   UNL A   1      35.395  24.221  25.445  1.00  0.00    -0.376 OA
BRANCH   2   3
ATOM      3  C   UNL A   1      34.296  23.526  26.020  1.00  0.00     0.202 C 
BRANCH   3   4
ATOM      4  C   UNL A   1      32.881  23.938  25.585  1.00  0.00     0.261 C 
BRANCH   4   5
ATOM      5  O   UNL A   1      32.470  25.267  25.979  1.00  0.00    -0.463 OA
BRANCH   5   6
ATOM      6  C   UNL A   1      32.329  26.176  24.983  1.00  0.00     0.313 C 
ATOM      7  O   UNL A   1      32.859  26.052  23.880  1.00  0.00    -0.252 OA
BRANCH   6   8
ATOM      8  C   UNL A   1      31.454  27.396  25.286  1.00  0.00     0.126 C 
ATOM      9  C   UNL A   1      30.654  27.750  24.033  1.00  0.00     0.025 C 
BRANCH   8  10
ATOM     10  C   UNL A   1      32.031  28.654  25.933  1.00  0.00    -0.034 A 
ATOM     11  C   UNL A   1      33.209  30.939  27.200  1.00  0.00    -0.018 A 
ATOM     12  C   UNL A   1      31.991  31.029  26.504  1.00  0.00     0.009 A 
ATOM     13  C   UNL A   1      33.820  29.680  27.265  1.00  0.00     0.009 A 
ATOM     14  C   UNL A   1      31.404  29.905  25.889  1.00  0.00     0.005 A 
ATOM     15  C   UNL A   1      33.241  28.560  26.651  1.00  0.00     0.005 A 
BRANCH  11  16
ATOM     16  C   UNL A   1      33.802  32.106  27.885  1.00  0.00    -0.018 A 
ATOM     17  C   UNL A   1      35.591  33.142  29.220  1.00  0.00    -0.044 A 
ATOM     18  C   UNL A   1      34.859  34.336  29.257  1.00  0.00     0.004 A 
ATOM     19  C   UNL A   1      35.053  32.035  28.531  1.00  0.00     0.012 A 
ATOM     20  C   UNL A   1      33.626  34.428  28.618  1.00  0.00     0.001 A 
ATOM     21  C   UNL A   1      33.104  33.324  27.941  1.00  0.00     0.009 A 
BRANCH  17  22
ATOM     22  C   UNL A   1      36.925  33.053  29.930  1.00  0.00     0.062 C 
BRANCH  22  23
ATOM     23  C   UNL A   1      38.061  33.627  29.125  1.00  0.00    -0.030 C 
ATOM     24  C   UNL A   1      38.903  34.574  29.562  1.00  0.00     0.004 C 
ENDBRANCH  22  23
ENDBRANCH  17  22
ENDBRANCH  11  16
ENDBRANCH   8  10
ENDBRANCH   6   8
ENDBRANCH   5   6
ENDBRANCH   4   5
ENDBRANCH   3   4
ENDBRANCH   2   3
ENDBRANCH   1   2
BRANCH   1  25
ATOM     25  C   UNL A   1      36.809  22.112  25.757  1.00  0.00     0.188 C 
BRANCH  25  26
ATOM     26  O   UNL A   1      37.906  21.476  25.133  1.00  0.00    -0.376 OA
BRANCH  26  27
ATOM     27  C   UNL A   1      37.780  20.082  24.929  1.00  0.00     0.202 C 
BRANCH  27  28
ATOM     28  C   UNL A   1      39.021  19.310  25.391  1.00  0.00     0.261 C 
BRANCH  28  29
ATOM     29  O   UNL A   1      39.949  20.075  26.186  1.00  0.00    -0.460 OA
BRANCH  29  30
ATOM     30  C   UNL A   1      41.251  19.708  26.127  1.00  0.00     0.338 C 
ATOM     31  O   UNL A   1      41.698  18.642  25.751  1.00  0.00    -0.246 OA
BRANCH  30  32
ATOM     32  C   UNL A   1      42.074  20.906  26.406  1.00  0.00     0.060 A 
ATOM     33  C   UNL A   1      42.278  21.296  27.739  1.00  0.00     0.016 A 
ATOM     34  C   UNL A   1      42.630  21.649  25.363  1.00  0.00     0.016 A 
ATOM     35  C   UNL A   1      43.001  22.455  28.028  1.00  0.00     0.010 A 
ATOM     36  C   UNL A   1      43.340  22.819  25.653  1.00  0.00     0.010 A 
ATOM     37  C   UNL A   1      43.495  23.249  26.983  1.00  0.00    -0.014 A 
BRANCH  37  38
ATOM     38  C   UNL A   1      43.982  24.625  27.259  1.00  0.00     0.031 A 
ATOM     39  C   UNL A   1      42.989  25.652  27.728  1.00  0.00     0.074 A 
ATOM     40  C   UNL A   1      45.272  24.968  27.096  1.00  0.00     0.049 A 
ATOM     41  N   UNL A   1      43.153  26.929  27.966  1.00  0.00    -0.248 NA
ATOM     42  C   UNL A   1      41.616  25.170  27.948  1.00  0.00     0.031 C 
ATOM     43  C   UNL A   1      46.340  24.067  26.677  1.00  0.00     0.029 A 
ATOM     44  N   UNL A   1      45.893  26.184  27.250  1.00  0.00    -0.354 N 
ATOM     45  C   UNL A   1      41.905  27.403  28.350  1.00  0.00     0.074 A 
ATOM     46  C   UNL A   1      40.988  26.286  28.281  1.00  0.00     0.031 C 
ATOM     47  C   UNL A   1      47.486  24.764  26.588  1.00  0.00     0.029 A 
ATOM     48  C   UNL A   1      47.224  26.167  26.912  1.00  0.00     0.049 A 
ATOM     49  H   UNL A   1      45.429  26.990  27.572  1.00  0.00     0.167 HD
ATOM     50  C   UNL A   1      41.554  28.654  28.730  1.00  0.00     0.037 A 
ATOM     51  C   UNL A   1      48.119  27.173  26.848  1.00  0.00     0.037 A 
ATOM     52  C   UNL A   1      42.466  29.767  28.795  1.00  0.00     0.049 A 
ATOM     53  C   UNL A   1      47.695  28.573  27.217  1.00  0.00     0.074 A 
ATOM     54  C   UNL A   1      42.214  31.066  29.199  1.00  0.00     0.029 A 
ATOM     55  N   UNL A   1      43.802  29.714  28.429  1.00  0.00    -0.354 N 
ATOM     56  N   UNL A   1      46.524  29.009  27.615  1.00  0.00    -0.248 NA
ATOM     57  C   UNL A   1      48.724  29.621  27.134  1.00  0.00     0.031 C 
ATOM     58  C   UNL A   1      43.383  31.814  29.019  1.00  0.00     0.029 A 
ATOM     59  C   UNL A   1      44.381  30.966  28.567  1.00  0.00     0.049 A 
ATOM     60  H   UNL A   1      44.272  28.906  28.116  1.00  0.00     0.167 HD
ATOM     61  C   UNL A   1      46.680  30.369  27.857  1.00  0.00     0.074 A 
ATOM     62  C   UNL A   1      48.064  30.685  27.572  1.00  0.00     0.031 C 
ATOM     63  C   UNL A   1      45.761  31.272  28.282  1.00  0.00     0.037 A 
BRANCH  50  64
ATOM     64  C   UNL A   1      40.109  28.891  29.063  1.00  0.00     0.064 A 
ATOM     65  C   UNL A   1      39.624  28.794  30.376  1.00  0.00     0.173 A 
ATOM     66  C   UNL A   1      39.194  29.219  28.050  1.00  0.00     0.173 A 
ATOM     67  F   UNL A   1      40.452  28.468  31.381  1.00  0.00    -0.203 F 
ATOM     68  C   UNL A   1      38.271  28.976  30.656  1.00  0.00     0.198 A 
ATOM     69  C   UNL A   1      37.850  29.435  28.339  1.00  0.00     0.198 A 
ATOM     70  F   UNL A   1      39.605  29.329  26.777  1.00  0.00    -0.203 F 
ATOM     71  F   UNL A   1      37.820  28.813  31.908  1.00  0.00    -0.200 F 
ATOM     72  C   UNL A   1      37.387  29.301  29.639  1.00  0.00     0.200 A 
ATOM     73  F   UNL A   1      37.000  29.762  27.357  1.00  0.00    -0.200 F 
ATOM     74  F   UNL A   1      36.086  29.475  29.910  1.00  0.00    -0.200 F 
ENDBRANCH  50  64
BRANCH  51  75
ATOM     75  C   UNL A   1      49.510  26.893  26.404  1.00  0.00     0.064 A 
ATOM     76  C   UNL A   1      50.512  26.565  27.327  1.00  0.00     0.173 A 
ATOM     77  C   UNL A   1      49.865  26.950  25.049  1.00  0.00     0.173 A 
ATOM     78  F   UNL A   1      50.230  26.528  28.637  1.00  0.00    -0.203 F 
ATOM     79  C   UNL A   1      51.819  26.313  26.911  1.00  0.00     0.198 A 
ATOM     80  C   UNL A   1      51.164  26.671  24.631  1.00  0.00     0.198 A 
ATOM     81  F   UNL A   1      48.944  27.268  24.126  1.00  0.00    -0.203 F 
ATOM     82  F   UNL A   1      52.768  26.041  27.818  1.00  0.00    -0.200 F 
ATOM     83  C   UNL A   1      52.142  26.357  25.563  1.00  0.00     0.200 A 
ATOM     84  F   UNL A   1      51.470  26.706  23.327  1.00  0.00    -0.200 F 
ATOM     85  F   UNL A   1      53.396  26.107  25.164  1.00  0.00    -0.200 F 
ENDBRANCH  51  75
BRANCH  63  86
ATOM     86  C   UNL A   1      46.226  32.684  28.507  1.00  0.00     0.064 A 
ATOM     87  C   UNL A   1      46.746  33.109  29.738  1.00  0.00     0.173 A 
ATOM     88  C   UNL A   1      46.191  33.616  27.456  1.00  0.00     0.173 A 
ATOM     89  F   UNL A   1      46.793  32.263  30.779  1.00  0.00    -0.203 F 
ATOM     90  C   UNL A   1      47.186  34.418  29.919  1.00  0.00     0.198 A 
ATOM     91  C   UNL A   1      46.663  34.915  27.630  1.00  0.00     0.198 A 
ATOM     92  F   UNL A   1      45.712  33.263  26.254  1.00  0.00    -0.203 F 
ATOM     93  F   UNL A   1      47.631  34.813  31.120  1.00  0.00    -0.200 F 
ATOM     94  C   UNL A   1      47.151  35.317  28.863  1.00  0.00     0.200 A 
ATOM     95  F   UNL A   1      46.644  35.777  26.604  1.00  0.00    -0.200 F 
ATOM     96  F   UNL A   1      47.583  36.574  29.037  1.00  0.00    -0.200 F 
ENDBRANCH  63  86
ENDBRANCH  37  38
ENDBRANCH  30  32
ENDBRANCH  29  30
ENDBRANCH  28  29
ENDBRANCH  27  28
ENDBRANCH  26  27
ENDBRANCH  25  26
ENDBRANCH   1  25
TORSDOF 21
ENDMDL
MODEL 3
REMARK VINA RESULT:     -10.4      2.349      4.239
REMARK SMILES C=CCc1cccc(-c2ccc([C@@H](C)C(=O)OCCOCCOCCOC(=O)c3ccc(-c4c5nc(c(-c6c(F)c(F)c(F)c(F)c6F)c6ccc([nH]6)c(-c6c(F)c(F)c(F)c(F)c6F)c6nc(c(-c7c(F)c(F)c(F)c(F)c7F)c7ccc4[nH]7)C=C6)C=C5)cc3)cc2)c1
REMARK SMILES IDX 21 1 20 2 19 3 18 4 17 5 15 6 16 7 13 8 14 9 12 10 9 11
REMARK SMILES IDX 10 12 93 13 11 14 92 15 8 16 4 17 5 18 94 19 6 20 7 21 3 22
REMARK SMILES IDX 2 23 1 24 22 25 23 26 24 27 25 28 26 29 27 30 28 31 29 32
REMARK SMILES IDX 30 33 91 34 31 35 90 36 32 37 33 38 34 39 84 40 35 41 89 42
REMARK SMILES IDX 83 43 85 44 36 45 88 46 82 47 81 48 37 50 69 51 49 52 68 53
REMARK SMILES IDX 50 54 53 55 67 56 86 57 51 58 52 59 66 61 87 62 54 63 38 64
REMARK SMILES IDX 39 65 47 66 40 67 41 68 45 69 48 70 42 71 43 72 46 73 44 74
REMARK SMILES IDX 70 75 71 76 79 77 72 78 73 79 77 80 80 81 74 82 75 83 78 84
REMARK SMILES IDX 76 85 55 86 56 87 64 88 57 89 58 90 62 91 65 92 59 93 60 94
REMARK SMILES IDX 63 95 61 96
REMARK H PARENT 85 49 53 60
REMARK Flexibility Score: inf
ROOT
ATOM      1  C   UNL A   1      33.297  22.240  27.941  1.00  0.00     0.188 C 
ENDROOT
BRANCH   1   2
ATOM      2  O   UNL A   1      32.489  23.306  27.453  1.00  0.00    -0.376 OA
BRANCH   2   3
ATOM      3  C   UNL A   1      31.587  23.062  26.382  1.00  0.00     0.202 C 
BRANCH   3   4
ATOM      4  C   UNL A   1      30.760  24.246  25.858  1.00  0.00     0.261 C 
BRANCH   4   5
ATOM      5  O   UNL A   1      30.633  24.329  24.420  1.00  0.00    -0.463 OA
BRANCH   5   6
ATOM      6  C   UNL A   1      30.320  25.546  23.910  1.00  0.00     0.313 C 
ATOM      7  O   UNL A   1      29.163  25.943  23.779  1.00  0.00    -0.252 OA
BRANCH   6   8
ATOM      8  C   UNL A   1      31.493  26.440  23.497  1.00  0.00     0.126 C 
ATOM      9  C   UNL A   1      32.577  25.567  22.866  1.00  0.00     0.025 C 
BRANCH   8  10
ATOM     10  C   UNL A   1      32.108  27.451  24.463  1.00  0.00    -0.034 A 
ATOM     11  C   UNL A   1      33.383  29.299  26.246  1.00  0.00    -0.018 A 
ATOM     12  C   UNL A   1      31.983  29.214  26.151  1.00  0.00     0.009 A 
ATOM     13  C   UNL A   1      34.135  28.431  25.445  1.00  0.00     0.009 A 
ATOM     14  C   UNL A   1      31.353  28.299  25.283  1.00  0.00     0.005 A 
ATOM     15  C   UNL A   1      33.512  27.522  24.576  1.00  0.00     0.005 A 
BRANCH  11  16
ATOM     16  C   UNL A   1      34.044  30.224  27.189  1.00  0.00    -0.018 A 
ATOM     17  C   UNL A   1      34.233  32.423  28.276  1.00  0.00    -0.044 A 
ATOM     18  C   UNL A   1      35.388  31.987  28.938  1.00  0.00     0.004 A 
ATOM     19  C   UNL A   1      33.570  31.534  27.405  1.00  0.00     0.012 A 
ATOM     20  C   UNL A   1      35.868  30.695  28.743  1.00  0.00     0.001 A 
ATOM     21  C   UNL A   1      35.202  29.823  27.878  1.00  0.00     0.009 A 
BRANCH  17  22
ATOM     22  C   UNL A   1      33.732  33.836  28.487  1.00  0.00     0.062 C 
BRANCH  22  23
ATOM     23  C   UNL A   1      34.348  34.507  29.686  1.00  0.00    -0.030 C 
ATOM     24  C   UNL A   1      33.654  35.088  30.675  1.00  0.00     0.004 C 
ENDBRANCH  22  23
ENDBRANCH  17  22
ENDBRANCH  11  16
ENDBRANCH   8  10
ENDBRANCH   6   8
ENDBRANCH   5   6
ENDBRANCH   4   5
ENDBRANCH   3   4
ENDBRANCH   2   3
ENDBRANCH   1   2
BRANCH   1  25
ATOM     25  C   UNL A   1      34.032  21.327  26.949  1.00  0.00     0.188 C 
BRANCH  25  26
ATOM     26  O   UNL A   1      35.137  21.934  26.312  1.00  0.00    -0.376 OA
BRANCH  26  27
ATOM     27  C   UNL A   1      35.606  21.295  25.141  1.00  0.00     0.202 C 
BRANCH  27  28
ATOM     28  C   UNL A   1      37.054  20.811  25.280  1.00  0.00     0.261 C 
BRANCH  28  29
ATOM     29  O   UNL A   1      38.033  21.860  25.419  1.00  0.00    -0.460 OA
BRANCH  29  30
ATOM     30  C   UNL A   1      39.148  21.564  26.126  1.00  0.00     0.338 C 
ATOM     31  O   UNL A   1      39.768  20.519  26.118  1.00  0.00    -0.246 OA
BRANCH  30  32
ATOM     32  C   UNL A   1      39.621  22.811  26.771  1.00  0.00     0.060 A 
ATOM     33  C   UNL A   1      38.967  24.017  26.479  1.00  0.00     0.016 A 
ATOM     34  C   UNL A   1      40.709  22.793  27.645  1.00  0.00     0.016 A 
ATOM     35  C   UNL A   1      39.430  25.216  27.028  1.00  0.00     0.010 A 
ATOM     36  C   UNL A   1      41.181  23.995  28.181  1.00  0.00     0.010 A 
ATOM     37  C   UNL A   1      40.570  25.216  27.844  1.00  0.00    -0.014 A 
BRANCH  37  38
ATOM     38  C   UNL A   1      41.250  26.495  28.172  1.00  0.00     0.031 A 
ATOM     39  C   UNL A   1      42.638  26.722  27.638  1.00  0.00     0.074 A 
ATOM     40  C   UNL A   1      40.663  27.438  28.929  1.00  0.00     0.049 A 
ATOM     41  N   UNL A   1      43.462  27.719  27.841  1.00  0.00    -0.248 NA
ATOM     42  C   UNL A   1      43.172  25.669  26.760  1.00  0.00     0.031 C 
ATOM     43  C   UNL A   1      39.316  27.361  29.483  1.00  0.00     0.029 A 
ATOM     44  N   UNL A   1      41.145  28.646  29.374  1.00  0.00    -0.354 N 
ATOM     45  C   UNL A   1      44.613  27.406  27.130  1.00  0.00     0.074 A 
ATOM     46  C   UNL A   1      44.394  26.114  26.516  1.00  0.00     0.031 C 
ATOM     47  C   UNL A   1      39.082  28.465  30.213  1.00  0.00     0.029 A 
ATOM     48  C   UNL A   1      40.276  29.312  30.203  1.00  0.00     0.049 A 
ATOM     49  H   UNL A   1      42.029  29.000  29.124  1.00  0.00     0.167 HD
ATOM     50  C   UNL A   1      45.749  28.131  26.994  1.00  0.00     0.037 A 
ATOM     51  C   UNL A   1      40.437  30.458  30.894  1.00  0.00     0.037 A 
ATOM     52  C   UNL A   1      45.968  29.415  27.607  1.00  0.00     0.049 A 
ATOM     53  C   UNL A   1      41.733  31.223  30.778  1.00  0.00     0.074 A 
ATOM     54  C   UNL A   1      47.071  30.244  27.503  1.00  0.00     0.029 A 
ATOM     55  N   UNL A   1      45.070  30.049  28.453  1.00  0.00    -0.354 N 
ATOM     56  N   UNL A   1      42.803  30.942  30.075  1.00  0.00    -0.248 NA
ATOM     57  C   UNL A   1      41.837  32.470  31.550  1.00  0.00     0.031 C 
ATOM     58  C   UNL A   1      46.867  31.349  28.336  1.00  0.00     0.029 A 
ATOM     59  C   UNL A   1      45.608  31.244  28.905  1.00  0.00     0.049 A 
ATOM     60  H   UNL A   1      44.182  29.702  28.698  1.00  0.00     0.167 HD
ATOM     61  C   UNL A   1      43.694  31.987  30.294  1.00  0.00     0.074 A 
ATOM     62  C   UNL A   1      43.034  32.914  31.189  1.00  0.00     0.031 C 
ATOM     63  C   UNL A   1      44.943  32.163  29.795  1.00  0.00     0.037 A 
BRANCH  50  64
ATOM     64  C   UNL A   1      46.857  27.525  26.182  1.00  0.00     0.064 A 
ATOM     65  C   UNL A   1      47.823  26.682  26.754  1.00  0.00     0.173 A 
ATOM     66  C   UNL A   1      46.956  27.796  24.808  1.00  0.00     0.173 A 
ATOM     67  F   UNL A   1      47.784  26.403  28.066  1.00  0.00    -0.203 F 
ATOM     68  C   UNL A   1      48.867  26.166  25.990  1.00  0.00     0.198 A 
ATOM     69  C   UNL A   1      47.981  27.250  24.041  1.00  0.00     0.198 A 
ATOM     70  F   UNL A   1      46.058  28.592  24.209  1.00  0.00    -0.203 F 
ATOM     71  F   UNL A   1      49.814  25.418  26.573  1.00  0.00    -0.200 F 
ATOM     72  C   UNL A   1      48.942  26.446  24.634  1.00  0.00     0.200 A 
ATOM     73  F   UNL A   1      48.045  27.511  22.728  1.00  0.00    -0.200 F 
ATOM     74  F   UNL A   1      49.949  25.950  23.901  1.00  0.00    -0.200 F 
ENDBRANCH  50  64
BRANCH  51  75
ATOM     75  C   UNL A   1      39.340  30.951  31.768  1.00  0.00     0.064 A 
ATOM     76  C   UNL A   1      39.204  30.493  33.086  1.00  0.00     0.173 A 
ATOM     77  C   UNL A   1      38.406  31.886  31.302  1.00  0.00     0.173 A 
ATOM     78  F   UNL A   1      40.054  29.575  33.567  1.00  0.00    -0.203 F 
ATOM     79  C   UNL A   1      38.168  30.947  33.902  1.00  0.00     0.198 A 
ATOM     80  C   UNL A   1      37.388  32.360  32.127  1.00  0.00     0.198 A 
ATOM     81  F   UNL A   1      38.487  32.350  30.046  1.00  0.00    -0.203 F 
ATOM     82  F   UNL A   1      38.036  30.463  35.145  1.00  0.00    -0.200 F 
ATOM     83  C   UNL A   1      37.266  31.887  33.425  1.00  0.00     0.200 A 
ATOM     84  F   UNL A   1      36.524  33.275  31.665  1.00  0.00    -0.200 F 
ATOM     85  F   UNL A   1      36.277  32.328  34.212  1.00  0.00    -0.200 F 
ENDBRANCH  51  75
BRANCH  63  86
ATOM     86  C   UNL A   1      45.670  33.425  30.169  1.00  0.00     0.064 A 
ATOM     87  C   UNL A   1      45.534  34.608  29.428  1.00  0.00     0.173 A 
ATOM     88  C   UNL A   1      46.481  33.462  31.315  1.00  0.00     0.173 A 
ATOM     89  F   UNL A   1      44.780  34.627  28.318  1.00  0.00    -0.203 F 
ATOM     90  C   UNL A   1      46.204  35.771  29.802  1.00  0.00     0.198 A 
ATOM     91  C   UNL A   1      47.123  34.634  31.706  1.00  0.00     0.198 A 
ATOM     92  F   UNL A   1      46.640  32.363  32.068  1.00  0.00    -0.203 F 
ATOM     93  F   UNL A   1      46.099  36.874  29.049  1.00  0.00    -0.200 F 
ATOM     94  C   UNL A   1      46.991  35.785  30.944  1.00  0.00     0.200 A 
ATOM     95  F   UNL A   1      47.869  34.650  32.819  1.00  0.00    -0.200 F 
ATOM     96  F   UNL A   1      47.628  36.907  31.307  1.00  0.00    -0.200 F 
ENDBRANCH  63  86
ENDBRANCH  37  38
ENDBRANCH  30  32
ENDBRANCH  29  30
ENDBRANCH  28  29
ENDBRANCH  27  28
ENDBRANCH  26  27
ENDBRANCH  25  26
ENDBRANCH   1  25
TORSDOF 21
ENDMDL
