MODEL 1
REMARK VINA RESULT:     -11.2      0.000      0.000
REMARK SMILES Cc1sc2nc3c(S[C@H](C)C(=O)OCCOCCOCCOC(=O)c4ccc(-c5c6nc(c(-c7c(F)c(F)c(F)c(F)c7F)c7ccc([nH]7)c(-c7c(F)c(F)c(F)c(F)c7F)c7nc(c(-c8c(F)c(F)c(F)c(F)c8F)c8ccc5[nH]8)C=C7)C=C6)cc4)cc(C(=O)c4ccccc4O)cn3c(=O)c2c1C
REMARK SMILES IDX 16 1 15 2 14 3 13 4 11 5 12 6 9 7 10 8 8 9 7 10 1 11 2 12
REMARK SMILES IDX 3 13 104 14 4 15 103 16 105 17 5 18 101 19 6 20 100 21
REMARK SMILES IDX 102 22 99 23 88 24 89 25 90 26 91 27 92 28 93 29 97 30 94 31
REMARK SMILES IDX 96 32 95 33 98 34 17 36 18 37 19 38 20 39 21 40 22 41 23 42
REMARK SMILES IDX 24 43 25 44 26 45 87 46 27 47 86 48 28 49 29 50 30 51 80 52
REMARK SMILES IDX 31 53 85 54 79 55 81 56 32 57 84 58 78 59 77 60 33 62 65 63
REMARK SMILES IDX 45 64 64 65 46 66 49 67 63 68 82 69 47 70 48 71 62 73 83 74
REMARK SMILES IDX 50 75 34 76 35 77 43 78 36 79 37 80 41 81 44 82 38 83 39 84
REMARK SMILES IDX 42 85 40 86 66 87 67 88 75 89 68 90 69 91 73 92 76 93 70 94
REMARK SMILES IDX 71 95 74 96 72 97 51 98 52 99 60 100 53 101 54 102 58 103
REMARK SMILES IDX 61 104 55 105 56 106 59 107 57 108
REMARK H PARENT 98 35 81 61 49 72
REMARK Flexibility Score: inf
ROOT
ATOM      1  O   UNL A   1      33.412  34.204  30.084  1.00  0.00    -0.376 OA
ENDROOT
BRANCH   1   2
ATOM      2  C   UNL A   1      34.281  33.284  29.415  1.00  0.00     0.202 C 
BRANCH   2   3
ATOM      3  C   UNL A   1      34.091  33.160  27.897  1.00  0.00     0.261 C 
BRANCH   3   4
ATOM      4  O   UNL A   1      34.219  31.764  27.584  1.00  0.00    -0.462 OA
BRANCH   4   5
ATOM      5  C   UNL A   1      33.127  31.093  27.122  1.00  0.00     0.319 C 
ATOM      6  O   UNL A   1      32.053  31.619  26.876  1.00  0.00    -0.251 OA
BRANCH   5   7
ATOM      7  C   UNL A   1      33.551  29.653  26.798  1.00  0.00     0.158 C 
ATOM      8  C   UNL A   1      34.989  29.370  27.251  1.00  0.00     0.032 C 
BRANCH   7   9
ATOM      9  S   UNL A   1      32.247  28.450  27.249  1.00  0.00    -0.107 SA
BRANCH   9  10
ATOM     10  C   UNL A   1      31.661  27.877  25.731  1.00  0.00     0.052 A 
ATOM     11  C   UNL A   1      34.840  21.092  25.271  1.00  0.00     0.057 C 
ATOM     12  C   UNL A   1      34.210  22.420  24.992  1.00  0.00     0.007 A 
ATOM     13  S   UNL A   1      34.567  23.735  26.025  1.00  0.00    -0.120 S 
ATOM     14  C   UNL A   1      33.335  22.775  23.971  1.00  0.00    -0.022 A 
ATOM     15  C   UNL A   1      33.477  24.756  25.214  1.00  0.00     0.131 A 
ATOM     16  C   UNL A   1      32.884  24.138  24.140  1.00  0.00     0.080 A 
ATOM     17  C   UNL A   1      32.896  21.828  22.898  1.00  0.00     0.046 C 
ATOM     18  N   UNL A   1      33.208  25.991  25.695  1.00  0.00    -0.218 NA
ATOM     19  C   UNL A   1      31.889  24.903  23.398  1.00  0.00     0.266 A 
ATOM     20  C   UNL A   1      32.220  26.614  25.121  1.00  0.00     0.155 A 
ATOM     21  N   UNL A   1      31.556  26.147  23.971  1.00  0.00    -0.266 N 
ATOM     22  O   UNL A   1      31.365  24.467  22.374  1.00  0.00    -0.268 OA
ATOM     23  C   UNL A   1      30.550  26.907  23.365  1.00  0.00     0.108 A 
ATOM     24  C   UNL A   1      30.649  28.515  25.134  1.00  0.00     0.032 A 
ATOM     25  C   UNL A   1      30.111  28.070  23.874  1.00  0.00     0.041 A 
BRANCH  25  26
ATOM     26  C   UNL A   1      29.004  28.783  23.150  1.00  0.00     0.198 C 
ATOM     27  O   UNL A   1      27.989  28.196  22.773  1.00  0.00    -0.288 OA
BRANCH  26  28
ATOM     28  C   UNL A   1      29.049  30.256  22.998  1.00  0.00     0.064 A 
ATOM     29  C   UNL A   1      29.587  31.087  23.990  1.00  0.00     0.016 A 
ATOM     30  C   UNL A   1      28.490  30.827  21.848  1.00  0.00     0.126 A 
ATOM     31  C   UNL A   1      29.465  32.473  23.877  1.00  0.00     0.001 A 
ATOM     32  C   UNL A   1      28.368  32.208  21.738  1.00  0.00     0.047 A 
ATOM     33  C   UNL A   1      28.840  33.031  22.761  1.00  0.00     0.004 A 
BRANCH  30  34
ATOM     34  O   UNL A   1      28.028  30.077  20.800  1.00  0.00    -0.507 OA
ATOM     35  H   UNL A   1      27.273  30.357  20.322  1.00  0.00     0.293 HD
ENDBRANCH  30  34
ENDBRANCH  26  28
ENDBRANCH  25  26
ENDBRANCH   9  10
ENDBRANCH   7   9
ENDBRANCH   5   7
ENDBRANCH   4   5
ENDBRANCH   3   4
ENDBRANCH   2   3
ENDBRANCH   1   2
BRANCH   1  36
ATOM     36  C   UNL A   1      33.997  35.106  31.011  1.00  0.00     0.188 C 
BRANCH  36  37
ATOM     37  C   UNL A   1      33.924  34.789  32.519  1.00  0.00     0.188 C 
BRANCH  37  38
ATOM     38  O   UNL A   1      35.012  34.126  33.136  1.00  0.00    -0.376 OA
BRANCH  38  39
ATOM     39  C   UNL A   1      35.061  32.703  32.985  1.00  0.00     0.202 C 
BRANCH  39  40
ATOM     40  C   UNL A   1      36.199  32.144  32.118  1.00  0.00     0.261 C 
BRANCH  40  41
ATOM     41  O   UNL A   1      36.454  30.773  32.476  1.00  0.00    -0.460 OA
BRANCH  41  42
ATOM     42  C   UNL A   1      36.771  29.922  31.471  1.00  0.00     0.338 C 
ATOM     43  O   UNL A   1      36.021  29.403  30.663  1.00  0.00    -0.246 OA
BRANCH  42  44
ATOM     44  C   UNL A   1      38.240  29.956  31.348  1.00  0.00     0.060 A 
ATOM     45  C   UNL A   1      38.866  31.025  30.714  1.00  0.00     0.016 A 
ATOM     46  C   UNL A   1      38.970  28.823  31.733  1.00  0.00     0.016 A 
ATOM     47  C   UNL A   1      40.225  30.939  30.429  1.00  0.00     0.010 A 
ATOM     48  C   UNL A   1      40.323  28.723  31.406  1.00  0.00     0.010 A 
ATOM     49  C   UNL A   1      40.961  29.776  30.740  1.00  0.00    -0.014 A 
BRANCH  49  50
ATOM     50  C   UNL A   1      42.401  29.759  30.413  1.00  0.00     0.031 A 
ATOM     51  C   UNL A   1      43.352  29.099  31.365  1.00  0.00     0.074 A 
ATOM     52  C   UNL A   1      42.772  29.801  29.119  1.00  0.00     0.049 A 
ATOM     53  N   UNL A   1      43.770  27.866  31.312  1.00  0.00    -0.248 NA
ATOM     54  C   UNL A   1      43.754  29.807  32.583  1.00  0.00     0.031 C 
ATOM     55  C   UNL A   1      42.265  28.905  28.078  1.00  0.00     0.029 A 
ATOM     56  N   UNL A   1      43.810  30.483  28.527  1.00  0.00    -0.354 N 
ATOM     57  C   UNL A   1      44.477  27.626  32.484  1.00  0.00     0.074 A 
ATOM     58  C   UNL A   1      44.435  28.858  33.239  1.00  0.00     0.031 C 
ATOM     59  C   UNL A   1      43.086  28.984  27.012  1.00  0.00     0.029 A 
ATOM     60  C   UNL A   1      44.103  30.007  27.256  1.00  0.00     0.049 A 
ATOM     61  H   UNL A   1      44.291  31.226  28.958  1.00  0.00     0.167 HD
ATOM     62  C   UNL A   1      45.086  26.450  32.794  1.00  0.00     0.037 A 
ATOM     63  C   UNL A   1      45.344  30.034  26.699  1.00  0.00     0.037 A 
ATOM     64  C   UNL A   1      45.011  25.411  31.818  1.00  0.00     0.049 A 
ATOM     65  C   UNL A   1      45.967  28.834  27.367  1.00  0.00     0.074 A 
ATOM     66  C   UNL A   1      44.225  24.309  31.557  1.00  0.00     0.029 A 
ATOM     67  N   UNL A   1      45.942  25.414  30.805  1.00  0.00    -0.354 N 
ATOM     68  N   UNL A   1      45.800  27.583  27.028  1.00  0.00    -0.248 NA
ATOM     69  C   UNL A   1      46.522  29.033  28.709  1.00  0.00     0.031 C 
ATOM     70  C   UNL A   1      44.433  24.010  30.174  1.00  0.00     0.029 A 
ATOM     71  C   UNL A   1      45.293  24.987  29.676  1.00  0.00     0.049 A 
ATOM     72  H   UNL A   1      46.888  25.673  30.877  1.00  0.00     0.167 HD
ATOM     73  C   UNL A   1      45.970  26.857  28.211  1.00  0.00     0.074 A 
ATOM     74  C   UNL A   1      46.458  27.802  29.192  1.00  0.00     0.031 C 
ATOM     75  C   UNL A   1      45.512  25.583  28.382  1.00  0.00     0.037 A 
BRANCH  62  76
ATOM     76  C   UNL A   1      45.959  26.251  33.970  1.00  0.00     0.064 A 
ATOM     77  C   UNL A   1      45.368  25.839  35.175  1.00  0.00     0.173 A 
ATOM     78  C   UNL A   1      47.295  26.655  33.992  1.00  0.00     0.173 A 
ATOM     79  F   UNL A   1      44.082  25.450  35.192  1.00  0.00    -0.203 F 
ATOM     80  C   UNL A   1      46.075  25.878  36.371  1.00  0.00     0.198 A 
ATOM     81  C   UNL A   1      48.006  26.683  35.191  1.00  0.00     0.198 A 
ATOM     82  F   UNL A   1      47.897  27.063  32.865  1.00  0.00    -0.203 F 
ATOM     83  F   UNL A   1      45.469  25.528  37.514  1.00  0.00    -0.200 F 
ATOM     84  C   UNL A   1      47.390  26.311  36.381  1.00  0.00     0.200 A 
ATOM     85  F   UNL A   1      49.280  27.102  35.206  1.00  0.00    -0.200 F 
ATOM     86  F   UNL A   1      48.062  26.382  37.539  1.00  0.00    -0.200 F 
ENDBRANCH  62  76
BRANCH  63  87
ATOM     87  C   UNL A   1      45.998  31.382  26.623  1.00  0.00     0.064 A 
ATOM     88  C   UNL A   1      45.199  32.497  26.283  1.00  0.00     0.173 A 
ATOM     89  C   UNL A   1      47.352  31.649  26.861  1.00  0.00     0.173 A 
ATOM     90  F   UNL A   1      43.915  32.326  25.931  1.00  0.00    -0.203 F 
ATOM     91  C   UNL A   1      45.696  33.801  26.308  1.00  0.00     0.198 A 
ATOM     92  C   UNL A   1      47.845  32.956  26.912  1.00  0.00     0.198 A 
ATOM     93  F   UNL A   1      48.228  30.656  27.068  1.00  0.00    -0.203 F 
ATOM     94  F   UNL A   1      44.890  34.831  26.019  1.00  0.00    -0.200 F 
ATOM     95  C   UNL A   1      47.014  34.032  26.654  1.00  0.00     0.200 A 
ATOM     96  F   UNL A   1      49.128  33.169  27.238  1.00  0.00    -0.200 F 
ATOM     97  F   UNL A   1      47.484  35.284  26.734  1.00  0.00    -0.200 F 
ENDBRANCH  63  87
BRANCH  75  98
ATOM     98  C   UNL A   1      44.955  24.934  27.165  1.00  0.00     0.064 A 
ATOM     99  C   UNL A   1      45.792  24.234  26.290  1.00  0.00     0.173 A 
ATOM    100  C   UNL A   1      43.582  24.980  26.875  1.00  0.00     0.173 A 
ATOM    101  F   UNL A   1      47.112  24.161  26.527  1.00  0.00    -0.203 F 
ATOM    102  C   UNL A   1      45.272  23.582  25.177  1.00  0.00     0.198 A 
ATOM    103  C   UNL A   1      43.061  24.305  25.777  1.00  0.00     0.198 A 
ATOM    104  F   UNL A   1      42.738  25.667  27.662  1.00  0.00    -0.203 F 
ATOM    105  F   UNL A   1      46.089  22.915  24.350  1.00  0.00    -0.200 F 
ATOM    106  C   UNL A   1      43.906  23.605  24.930  1.00  0.00     0.200 A 
ATOM    107  F   UNL A   1      41.743  24.327  25.539  1.00  0.00    -0.200 F 
ATOM    108  F   UNL A   1      43.404  22.947  23.876  1.00  0.00    -0.200 F 
ENDBRANCH  75  98
ENDBRANCH  49  50
ENDBRANCH  42  44
ENDBRANCH  41  42
ENDBRANCH  40  41
ENDBRANCH  39  40
ENDBRANCH  38  39
ENDBRANCH  37  38
ENDBRANCH  36  37
ENDBRANCH   1  36
TORSDOF 22
ENDMDL
MODEL 2
REMARK VINA RESULT:     -11.0      7.339     13.655
REMARK SMILES Cc1sc2nc3c(S[C@H](C)C(=O)OCCOCCOCCOC(=O)c4ccc(-c5c6nc(c(-c7c(F)c(F)c(F)c(F)c7F)c7ccc([nH]7)c(-c7c(F)c(F)c(F)c(F)c7F)c7nc(c(-c8c(F)c(F)c(F)c(F)c8F)c8ccc5[nH]8)C=C7)C=C6)cc4)cc(C(=O)c4ccccc4O)cn3c(=O)c2c1C
REMARK SMILES IDX 16 1 15 2 14 3 13 4 11 5 12 6 9 7 10 8 8 9 7 10 1 11 2 12
REMARK SMILES IDX 3 13 104 14 4 15 103 16 105 17 5 18 101 19 6 20 100 21
REMARK SMILES IDX 102 22 99 23 88 24 89 25 90 26 91 27 92 28 93 29 97 30 94 31
REMARK SMILES IDX 96 32 95 33 98 34 17 36 18 37 19 38 20 39 21 40 22 41 23 42
REMARK SMILES IDX 24 43 25 44 26 45 87 46 27 47 86 48 28 49 29 50 30 51 80 52
REMARK SMILES IDX 31 53 85 54 79 55 81 56 32 57 84 58 78 59 77 60 33 62 65 63
REMARK SMILES IDX 45 64 64 65 46 66 49 67 63 68 82 69 47 70 48 71 62 73 83 74
REMARK SMILES IDX 50 75 34 76 35 77 43 78 36 79 37 80 41 81 44 82 38 83 39 84
REMARK SMILES IDX 42 85 40 86 66 87 67 88 75 89 68 90 69 91 73 92 76 93 70 94
REMARK SMILES IDX 71 95 74 96 72 97 51 98 52 99 60 100 53 101 54 102 58 103
REMARK SMILES IDX 61 104 55 105 56 106 59 107 57 108
REMARK H PARENT 98 35 81 61 49 72
REMARK Flexibility Score: inf
ROOT
ATOM      1  O   UNL A   1      50.342  21.077  33.265  1.00  0.00    -0.376 OA
ENDROOT
BRANCH   1   2
ATOM      2  C   UNL A   1      50.873  22.194  33.984  1.00  0.00     0.202 C 
BRANCH   2   3
ATOM      3  C   UNL A   1      50.222  22.493  35.342  1.00  0.00     0.261 C 
BRANCH   3   4
ATOM      4  O   UNL A   1      50.465  23.882  35.612  1.00  0.00    -0.462 OA
BRANCH   4   5
ATOM      5  C   UNL A   1      50.683  24.271  36.899  1.00  0.00     0.319 C 
ATOM      6  O   UNL A   1      51.790  24.432  37.389  1.00  0.00    -0.251 OA
BRANCH   5   7
ATOM      7  C   UNL A   1      49.329  24.643  37.524  1.00  0.00     0.158 C 
ATOM      8  C   UNL A   1      48.799  23.528  38.433  1.00  0.00     0.032 C 
BRANCH   7   9
ATOM      9  S   UNL A   1      49.333  26.358  38.164  1.00  0.00    -0.107 SA
BRANCH   9  10
ATOM     10  C   UNL A   1      48.203  27.186  37.159  1.00  0.00     0.052 A 
ATOM     11  C   UNL A   1      52.073  28.021  30.781  1.00  0.00     0.057 C 
ATOM     12  C   UNL A   1      51.124  28.157  31.930  1.00  0.00     0.007 A 
ATOM     13  S   UNL A   1      51.664  27.742  33.498  1.00  0.00    -0.120 S 
ATOM     14  C   UNL A   1      49.804  28.592  31.925  1.00  0.00    -0.022 A 
ATOM     15  C   UNL A   1      50.127  28.012  34.172  1.00  0.00     0.131 A 
ATOM     16  C   UNL A   1      49.221  28.462  33.242  1.00  0.00     0.080 A 
ATOM     17  C   UNL A   1      49.097  29.064  30.693  1.00  0.00     0.046 C 
ATOM     18  N   UNL A   1      49.881  27.699  35.464  1.00  0.00    -0.218 NA
ATOM     19  C   UNL A   1      47.853  28.679  33.696  1.00  0.00     0.266 A 
ATOM     20  C   UNL A   1      48.633  27.756  35.828  1.00  0.00     0.155 A 
ATOM     21  N   UNL A   1      47.598  28.259  35.018  1.00  0.00    -0.266 N 
ATOM     22  O   UNL A   1      46.993  29.159  32.961  1.00  0.00    -0.268 OA
ATOM     23  C   UNL A   1      46.290  28.356  35.502  1.00  0.00     0.108 A 
ATOM     24  C   UNL A   1      46.920  27.251  37.529  1.00  0.00     0.032 A 
ATOM     25  C   UNL A   1      45.931  27.916  36.720  1.00  0.00     0.041 A 
BRANCH  25  26
ATOM     26  C   UNL A   1      44.488  28.049  37.119  1.00  0.00     0.198 C 
ATOM     27  O   UNL A   1      44.089  28.979  37.819  1.00  0.00    -0.288 OA
BRANCH  26  28
ATOM     28  C   UNL A   1      43.477  27.126  36.552  1.00  0.00     0.064 A 
ATOM     29  C   UNL A   1      42.917  27.330  35.284  1.00  0.00     0.016 A 
ATOM     30  C   UNL A   1      43.040  26.051  37.334  1.00  0.00     0.126 A 
ATOM     31  C   UNL A   1      41.855  26.531  34.855  1.00  0.00     0.001 A 
ATOM     32  C   UNL A   1      41.981  25.255  36.906  1.00  0.00     0.047 A 
ATOM     33  C   UNL A   1      41.377  25.508  35.674  1.00  0.00     0.004 A 
BRANCH  30  34
ATOM     34  O   UNL A   1      43.603  25.737  38.541  1.00  0.00    -0.507 OA
ATOM     35  H   UNL A   1      43.207  26.039  39.335  1.00  0.00     0.293 HD
ENDBRANCH  30  34
ENDBRANCH  26  28
ENDBRANCH  25  26
ENDBRANCH   9  10
ENDBRANCH   7   9
ENDBRANCH   5   7
ENDBRANCH   4   5
ENDBRANCH   3   4
ENDBRANCH   2   3
ENDBRANCH   1   2
BRANCH   1  36
ATOM     36  C   UNL A   1      49.589  20.121  33.997  1.00  0.00     0.188 C 
BRANCH  36  37
ATOM     37  C   UNL A   1      48.183  19.726  33.499  1.00  0.00     0.188 C 
BRANCH  37  38
ATOM     38  O   UNL A   1      47.054  20.401  34.020  1.00  0.00    -0.376 OA
BRANCH  38  39
ATOM     39  C   UNL A   1      47.093  20.730  35.413  1.00  0.00     0.202 C 
BRANCH  39  40
ATOM     40  C   UNL A   1      45.743  20.777  36.144  1.00  0.00     0.261 C 
BRANCH  40  41
ATOM     41  O   UNL A   1      44.878  21.734  35.505  1.00  0.00    -0.460 OA
BRANCH  41  42
ATOM     42  C   UNL A   1      44.915  23.007  35.970  1.00  0.00     0.338 C 
ATOM     43  O   UNL A   1      45.214  23.387  37.088  1.00  0.00    -0.246 OA
BRANCH  42  44
ATOM     44  C   UNL A   1      44.800  23.882  34.790  1.00  0.00     0.060 A 
ATOM     45  C   UNL A   1      43.929  23.555  33.755  1.00  0.00     0.016 A 
ATOM     46  C   UNL A   1      45.698  24.951  34.661  1.00  0.00     0.016 A 
ATOM     47  C   UNL A   1      43.988  24.279  32.569  1.00  0.00     0.010 A 
ATOM     48  C   UNL A   1      45.782  25.647  33.453  1.00  0.00     0.010 A 
ATOM     49  C   UNL A   1      44.936  25.309  32.391  1.00  0.00    -0.014 A 
BRANCH  49  50
ATOM     50  C   UNL A   1      44.935  26.037  31.107  1.00  0.00     0.031 A 
ATOM     51  C   UNL A   1      44.761  25.263  29.835  1.00  0.00     0.074 A 
ATOM     52  C   UNL A   1      44.535  27.323  31.091  1.00  0.00     0.049 A 
ATOM     53  N   UNL A   1      43.639  25.040  29.211  1.00  0.00    -0.248 NA
ATOM     54  C   UNL A   1      45.900  24.524  29.284  1.00  0.00     0.031 C 
ATOM     55  C   UNL A   1      43.277  27.810  31.660  1.00  0.00     0.029 A 
ATOM     56  N   UNL A   1      45.047  28.391  30.392  1.00  0.00    -0.354 N 
ATOM     57  C   UNL A   1      43.912  24.130  28.197  1.00  0.00     0.074 A 
ATOM     58  C   UNL A   1      45.326  23.839  28.287  1.00  0.00     0.031 C 
ATOM     59  C   UNL A   1      43.036  29.041  31.168  1.00  0.00     0.029 A 
ATOM     60  C   UNL A   1      44.167  29.466  30.343  1.00  0.00     0.049 A 
ATOM     61  H   UNL A   1      45.937  28.393  29.972  1.00  0.00     0.167 HD
ATOM     62  C   UNL A   1      42.994  23.659  27.311  1.00  0.00     0.037 A 
ATOM     63  C   UNL A   1      44.105  30.353  29.314  1.00  0.00     0.037 A 
ATOM     64  C   UNL A   1      41.667  24.174  27.426  1.00  0.00     0.049 A 
ATOM     65  C   UNL A   1      43.296  29.558  28.319  1.00  0.00     0.074 A 
ATOM     66  C   UNL A   1      40.478  23.811  28.022  1.00  0.00     0.029 A 
ATOM     67  N   UNL A   1      41.386  25.367  26.802  1.00  0.00    -0.354 N 
ATOM     68  N   UNL A   1      41.998  29.406  28.319  1.00  0.00    -0.248 NA
ATOM     69  C   UNL A   1      44.024  28.591  27.493  1.00  0.00     0.031 C 
ATOM     70  C   UNL A   1      39.714  25.016  28.116  1.00  0.00     0.029 A 
ATOM     71  C   UNL A   1      40.517  26.040  27.620  1.00  0.00     0.049 A 
ATOM     72  H   UNL A   1      41.741  25.676  25.938  1.00  0.00     0.167 HD
ATOM     73  C   UNL A   1      41.775  28.165  27.716  1.00  0.00     0.074 A 
ATOM     74  C   UNL A   1      43.055  27.741  27.189  1.00  0.00     0.031 C 
ATOM     75  C   UNL A   1      40.616  27.460  27.857  1.00  0.00     0.037 A 
BRANCH  62  76
ATOM     76  C   UNL A   1      43.322  22.809  26.148  1.00  0.00     0.064 A 
ATOM     77  C   UNL A   1      43.130  21.422  26.260  1.00  0.00     0.173 A 
ATOM     78  C   UNL A   1      44.005  23.293  25.031  1.00  0.00     0.173 A 
ATOM     79  F   UNL A   1      42.482  20.920  27.325  1.00  0.00    -0.203 F 
ATOM     80  C   UNL A   1      43.649  20.547  25.315  1.00  0.00     0.198 A 
ATOM     81  C   UNL A   1      44.516  22.414  24.077  1.00  0.00     0.198 A 
ATOM     82  F   UNL A   1      44.217  24.610  24.886  1.00  0.00    -0.203 F 
ATOM     83  F   UNL A   1      43.495  19.225  25.476  1.00  0.00    -0.200 F 
ATOM     84  C   UNL A   1      44.351  21.042  24.229  1.00  0.00     0.200 A 
ATOM     85  F   UNL A   1      45.197  22.888  23.024  1.00  0.00    -0.200 F 
ATOM     86  F   UNL A   1      44.883  20.196  23.334  1.00  0.00    -0.200 F 
ENDBRANCH  62  76
BRANCH  63  87
ATOM     87  C   UNL A   1      45.386  31.057  28.978  1.00  0.00     0.064 A 
ATOM     88  C   UNL A   1      45.510  32.422  29.318  1.00  0.00     0.173 A 
ATOM     89  C   UNL A   1      46.495  30.480  28.345  1.00  0.00     0.173 A 
ATOM     90  F   UNL A   1      44.464  33.090  29.828  1.00  0.00    -0.203 F 
ATOM     91  C   UNL A   1      46.707  33.122  29.155  1.00  0.00     0.198 A 
ATOM     92  C   UNL A   1      47.701  31.172  28.203  1.00  0.00     0.198 A 
ATOM     93  F   UNL A   1      46.445  29.230  27.865  1.00  0.00    -0.203 F 
ATOM     94  F   UNL A   1      46.790  34.405  29.532  1.00  0.00    -0.200 F 
ATOM     95  C   UNL A   1      47.813  32.485  28.624  1.00  0.00     0.200 A 
ATOM     96  F   UNL A   1      48.766  30.548  27.679  1.00  0.00    -0.200 F 
ATOM     97  F   UNL A   1      48.981  33.133  28.516  1.00  0.00    -0.200 F 
ENDBRANCH  63  87
BRANCH  75  98
ATOM     98  C   UNL A   1      39.517  28.169  28.565  1.00  0.00     0.064 A 
ATOM     99  C   UNL A   1      38.748  29.128  27.899  1.00  0.00     0.173 A 
ATOM    100  C   UNL A   1      39.203  27.879  29.904  1.00  0.00     0.173 A 
ATOM    101  F   UNL A   1      39.010  29.437  26.618  1.00  0.00    -0.203 F 
ATOM    102  C   UNL A   1      37.687  29.759  28.540  1.00  0.00     0.198 A 
ATOM    103  C   UNL A   1      38.126  28.492  30.533  1.00  0.00     0.198 A 
ATOM    104  F   UNL A   1      39.930  26.992  30.602  1.00  0.00    -0.203 F 
ATOM    105  F   UNL A   1      36.960  30.676  27.885  1.00  0.00    -0.200 F 
ATOM    106  C   UNL A   1      37.367  29.430  29.849  1.00  0.00     0.200 A 
ATOM    107  F   UNL A   1      37.817  28.174  31.797  1.00  0.00    -0.200 F 
ATOM    108  F   UNL A   1      36.324  30.015  30.453  1.00  0.00    -0.200 F 
ENDBRANCH  75  98
ENDBRANCH  49  50
ENDBRANCH  42  44
ENDBRANCH  41  42
ENDBRANCH  40  41
ENDBRANCH  39  40
ENDBRANCH  38  39
ENDBRANCH  37  38
ENDBRANCH  36  37
ENDBRANCH   1  36
TORSDOF 22
ENDMDL
MODEL 3
REMARK VINA RESULT:     -10.9      5.093      9.668
REMARK SMILES Cc1sc2nc3c(S[C@H](C)C(=O)OCCOCCOCCOC(=O)c4ccc(-c5c6nc(c(-c7c(F)c(F)c(F)c(F)c7F)c7ccc([nH]7)c(-c7c(F)c(F)c(F)c(F)c7F)c7nc(c(-c8c(F)c(F)c(F)c(F)c8F)c8ccc5[nH]8)C=C7)C=C6)cc4)cc(C(=O)c4ccccc4O)cn3c(=O)c2c1C
REMARK SMILES IDX 16 1 15 2 14 3 13 4 11 5 12 6 9 7 10 8 8 9 7 10 1 11 2 12
REMARK SMILES IDX 3 13 104 14 4 15 103 16 105 17 5 18 101 19 6 20 100 21
REMARK SMILES IDX 102 22 99 23 88 24 89 25 90 26 91 27 92 28 93 29 97 30 94 31
REMARK SMILES IDX 96 32 95 33 98 34 17 36 18 37 19 38 20 39 21 40 22 41 23 42
REMARK SMILES IDX 24 43 25 44 26 45 87 46 27 47 86 48 28 49 29 50 30 51 80 52
REMARK SMILES IDX 31 53 85 54 79 55 81 56 32 57 84 58 78 59 77 60 33 62 65 63
REMARK SMILES IDX 45 64 64 65 46 66 49 67 63 68 82 69 47 70 48 71 62 73 83 74
REMARK SMILES IDX 50 75 34 76 35 77 43 78 36 79 37 80 41 81 44 82 38 83 39 84
REMARK SMILES IDX 42 85 40 86 66 87 67 88 75 89 68 90 69 91 73 92 76 93 70 94
REMARK SMILES IDX 71 95 74 96 72 97 51 98 52 99 60 100 53 101 54 102 58 103
REMARK SMILES IDX 61 104 55 105 56 106 59 107 57 108
REMARK H PARENT 98 35 81 61 49 72
REMARK Flexibility Score: inf
ROOT
ATOM      1  O   UNL A   1      41.790  29.128  33.674  1.00  0.00    -0.376 OA
ENDROOT
BRANCH   1   2
ATOM      2  C   UNL A   1      41.774  29.694  34.988  1.00  0.00     0.202 C 
BRANCH   2   3
ATOM      3  C   UNL A   1      41.404  31.181  35.078  1.00  0.00     0.261 C 
BRANCH   3   4
ATOM      4  O   UNL A   1      40.066  31.236  35.595  1.00  0.00    -0.462 OA
BRANCH   4   5
ATOM      5  C   UNL A   1      39.765  32.174  36.536  1.00  0.00     0.319 C 
ATOM      6  O   UNL A   1      40.596  32.861  37.110  1.00  0.00    -0.251 OA
BRANCH   5   7
ATOM      7  C   UNL A   1      38.237  32.331  36.586  1.00  0.00     0.158 C 
ATOM      8  C   UNL A   1      37.634  31.615  37.801  1.00  0.00     0.032 C 
BRANCH   7   9
ATOM      9  S   UNL A   1      37.728  34.057  36.253  1.00  0.00    -0.107 SA
BRANCH   9  10
ATOM     10  C   UNL A   1      37.519  34.111  34.542  1.00  0.00     0.052 A 
ATOM     11  C   UNL A   1      44.608  34.429  32.094  1.00  0.00     0.057 C 
ATOM     12  C   UNL A   1      43.126  34.539  32.260  1.00  0.00     0.007 A 
ATOM     13  S   UNL A   1      42.489  34.801  33.825  1.00  0.00    -0.120 S 
ATOM     14  C   UNL A   1      42.130  34.457  31.293  1.00  0.00    -0.022 A 
ATOM     15  C   UNL A   1      40.888  34.688  33.266  1.00  0.00     0.131 A 
ATOM     16  C   UNL A   1      40.821  34.507  31.906  1.00  0.00     0.080 A 
ATOM     17  C   UNL A   1      42.413  34.282  29.834  1.00  0.00     0.046 C 
ATOM     18  N   UNL A   1      39.856  34.686  34.140  1.00  0.00    -0.218 NA
ATOM     19  C   UNL A   1      39.496  34.344  31.320  1.00  0.00     0.266 A 
ATOM     20  C   UNL A   1      38.692  34.397  33.635  1.00  0.00     0.155 A 
ATOM     21  N   UNL A   1      38.446  34.251  32.257  1.00  0.00    -0.266 N 
ATOM     22  O   UNL A   1      39.329  34.260  30.105  1.00  0.00    -0.268 OA
ATOM     23  C   UNL A   1      37.153  34.012  31.779  1.00  0.00     0.108 A 
ATOM     24  C   UNL A   1      36.325  33.820  34.016  1.00  0.00     0.032 A 
ATOM     25  C   UNL A   1      36.099  33.835  32.594  1.00  0.00     0.041 A 
BRANCH  25  26
ATOM     26  C   UNL A   1      34.763  33.555  31.965  1.00  0.00     0.198 C 
ATOM     27  O   UNL A   1      34.077  32.589  32.297  1.00  0.00    -0.288 OA
BRANCH  26  28
ATOM     28  C   UNL A   1      34.173  34.532  31.020  1.00  0.00     0.064 A 
ATOM     29  C   UNL A   1      33.799  35.821  31.424  1.00  0.00     0.016 A 
ATOM     30  C   UNL A   1      33.940  34.128  29.700  1.00  0.00     0.126 A 
ATOM     31  C   UNL A   1      33.101  36.651  30.544  1.00  0.00     0.001 A 
ATOM     32  C   UNL A   1      33.244  34.956  28.824  1.00  0.00     0.047 A 
ATOM     33  C   UNL A   1      32.809  36.211  29.252  1.00  0.00     0.004 A 
BRANCH  30  34
ATOM     34  O   UNL A   1      34.358  32.920  29.211  1.00  0.00    -0.507 OA
ATOM     35  H   UNL A   1      33.933  32.544  28.466  1.00  0.00     0.293 HD
ENDBRANCH  30  34
ENDBRANCH  26  28
ENDBRANCH  25  26
ENDBRANCH   9  10
ENDBRANCH   7   9
ENDBRANCH   5   7
ENDBRANCH   4   5
ENDBRANCH   3   4
ENDBRANCH   2   3
ENDBRANCH   1   2
BRANCH   1  36
ATOM     36  C   UNL A   1      40.853  28.100  33.389  1.00  0.00     0.188 C 
BRANCH  36  37
ATOM     37  C   UNL A   1      39.564  28.446  32.616  1.00  0.00     0.188 C 
BRANCH  37  38
ATOM     38  O   UNL A   1      38.831  29.600  32.983  1.00  0.00    -0.376 OA
BRANCH  38  39
ATOM     39  C   UNL A   1      37.410  29.530  32.828  1.00  0.00     0.202 C 
BRANCH  39  40
ATOM     40  C   UNL A   1      36.867  29.715  31.403  1.00  0.00     0.261 C 
BRANCH  40  41
ATOM     41  O   UNL A   1      37.273  30.998  30.891  1.00  0.00    -0.460 OA
BRANCH  41  42
ATOM     42  C   UNL A   1      37.471  31.093  29.553  1.00  0.00     0.338 C 
ATOM     43  O   UNL A   1      36.883  31.804  28.757  1.00  0.00    -0.246 OA
BRANCH  42  44
ATOM     44  C   UNL A   1      38.731  30.383  29.271  1.00  0.00     0.060 A 
ATOM     45  C   UNL A   1      39.919  30.796  29.867  1.00  0.00     0.016 A 
ATOM     46  C   UNL A   1      38.735  29.398  28.272  1.00  0.00     0.016 A 
ATOM     47  C   UNL A   1      41.121  30.247  29.431  1.00  0.00     0.010 A 
ATOM     48  C   UNL A   1      39.946  28.882  27.809  1.00  0.00     0.010 A 
ATOM     49  C   UNL A   1      41.152  29.311  28.376  1.00  0.00    -0.014 A 
BRANCH  49  50
ATOM     50  C   UNL A   1      42.464  28.767  27.971  1.00  0.00     0.031 A 
ATOM     51  C   UNL A   1      43.606  29.714  27.760  1.00  0.00     0.074 A 
ATOM     52  C   UNL A   1      42.780  27.506  28.324  1.00  0.00     0.049 A 
ATOM     53  N   UNL A   1      44.506  30.051  28.642  1.00  0.00    -0.248 NA
ATOM     54  C   UNL A   1      43.675  30.492  26.521  1.00  0.00     0.031 C 
ATOM     55  C   UNL A   1      42.697  26.978  29.687  1.00  0.00     0.029 A 
ATOM     56  N   UNL A   1      43.432  26.532  27.603  1.00  0.00    -0.354 N 
ATOM     57  C   UNL A   1      45.250  31.084  28.088  1.00  0.00     0.074 A 
ATOM     58  C   UNL A   1      44.694  31.324  26.775  1.00  0.00     0.031 C 
ATOM     59  C   UNL A   1      43.405  25.834  29.744  1.00  0.00     0.029 A 
ATOM     60  C   UNL A   1      43.896  25.498  28.407  1.00  0.00     0.049 A 
ATOM     61  H   UNL A   1      43.555  26.566  26.628  1.00  0.00     0.167 HD
ATOM     62  C   UNL A   1      46.299  31.697  28.699  1.00  0.00     0.037 A 
ATOM     63  C   UNL A   1      45.008  24.764  28.135  1.00  0.00     0.037 A 
ATOM     64  C   UNL A   1      46.668  31.206  29.988  1.00  0.00     0.049 A 
ATOM     65  C   UNL A   1      46.081  25.709  28.615  1.00  0.00     0.074 A 
ATOM     66  C   UNL A   1      46.420  31.514  31.308  1.00  0.00     0.029 A 
ATOM     67  N   UNL A   1      47.508  30.118  30.044  1.00  0.00    -0.354 N 
ATOM     68  N   UNL A   1      46.457  25.894  29.853  1.00  0.00    -0.248 NA
ATOM     69  C   UNL A   1      46.502  26.763  27.686  1.00  0.00     0.031 C 
ATOM     70  C   UNL A   1      46.732  30.327  32.043  1.00  0.00     0.029 A 
ATOM     71  C   UNL A   1      47.098  29.361  31.109  1.00  0.00     0.049 A 
ATOM     72  H   UNL A   1      48.257  29.922  29.436  1.00  0.00     0.167 HD
ATOM     73  C   UNL A   1      46.920  27.212  29.903  1.00  0.00     0.074 A 
ATOM     74  C   UNL A   1      46.966  27.671  28.531  1.00  0.00     0.031 C 
ATOM     75  C   UNL A   1      47.042  27.920  31.062  1.00  0.00     0.037 A 
BRANCH  62  76
ATOM     76  C   UNL A   1      47.177  32.691  28.046  1.00  0.00     0.064 A 
ATOM     77  C   UNL A   1      48.218  32.226  27.228  1.00  0.00     0.173 A 
ATOM     78  C   UNL A   1      47.148  34.049  28.373  1.00  0.00     0.173 A 
ATOM     79  F   UNL A   1      48.280  30.924  26.898  1.00  0.00    -0.203 F 
ATOM     80  C   UNL A   1      49.225  33.078  26.792  1.00  0.00     0.198 A 
ATOM     81  C   UNL A   1      48.154  34.905  27.927  1.00  0.00     0.198 A 
ATOM     82  F   UNL A   1      46.175  34.536  29.158  1.00  0.00    -0.203 F 
ATOM     83  F   UNL A   1      50.234  32.594  26.056  1.00  0.00    -0.200 F 
ATOM     84  C   UNL A   1      49.200  34.415  27.151  1.00  0.00     0.200 A 
ATOM     85  F   UNL A   1      48.134  36.200  28.272  1.00  0.00    -0.200 F 
ATOM     86  F   UNL A   1      50.189  35.231  26.762  1.00  0.00    -0.200 F 
ENDBRANCH  62  76
BRANCH  63  87
ATOM     87  C   UNL A   1      45.032  24.080  26.800  1.00  0.00     0.064 A 
ATOM     88  C   UNL A   1      43.842  23.480  26.333  1.00  0.00     0.173 A 
ATOM     89  C   UNL A   1      46.144  23.976  25.954  1.00  0.00     0.173 A 
ATOM     90  F   UNL A   1      42.755  23.432  27.119  1.00  0.00    -0.203 F 
ATOM     91  C   UNL A   1      43.740  22.931  25.054  1.00  0.00     0.198 A 
ATOM     92  C   UNL A   1      46.037  23.449  24.664  1.00  0.00     0.198 A 
ATOM     93  F   UNL A   1      47.354  24.396  26.346  1.00  0.00    -0.203 F 
ATOM     94  F   UNL A   1      42.578  22.410  24.638  1.00  0.00    -0.200 F 
ATOM     95  C   UNL A   1      44.833  22.944  24.207  1.00  0.00     0.200 A 
ATOM     96  F   UNL A   1      47.106  23.458  23.854  1.00  0.00    -0.200 F 
ATOM     97  F   UNL A   1      44.728  22.469  22.959  1.00  0.00    -0.200 F 
ENDBRANCH  63  87
BRANCH  75  98
ATOM     98  C   UNL A   1      46.809  27.149  32.312  1.00  0.00     0.064 A 
ATOM     99  C   UNL A   1      45.532  27.088  32.879  1.00  0.00     0.173 A 
ATOM    100  C   UNL A   1      47.848  26.441  32.939  1.00  0.00     0.173 A 
ATOM    101  F   UNL A   1      44.507  27.746  32.314  1.00  0.00    -0.203 F 
ATOM    102  C   UNL A   1      45.296  26.328  34.019  1.00  0.00     0.198 A 
ATOM    103  C   UNL A   1      47.604  25.661  34.063  1.00  0.00     0.198 A 
ATOM    104  F   UNL A   1      49.100  26.493  32.457  1.00  0.00    -0.203 F 
ATOM    105  F   UNL A   1      44.066  26.280  34.549  1.00  0.00    -0.200 F 
ATOM    106  C   UNL A   1      46.327  25.603  34.601  1.00  0.00     0.200 A 
ATOM    107  F   UNL A   1      48.599  24.961  34.624  1.00  0.00    -0.200 F 
ATOM    108  F   UNL A   1      46.090  24.844  35.680  1.00  0.00    -0.200 F 
ENDBRANCH  75  98
ENDBRANCH  49  50
ENDBRANCH  42  44
ENDBRANCH  41  42
ENDBRANCH  40  41
ENDBRANCH  39  40
ENDBRANCH  38  39
ENDBRANCH  37  38
ENDBRANCH  36  37
ENDBRANCH   1  36
TORSDOF 22
ENDMDL
