MODEL 1
REMARK VINA RESULT:     -10.5      0.000      0.000
REMARK SMILES CC[C@H]1CCC[C@H](O[C@@H]2CC[C@]([NH2+]C(C)C)(C(=O)OCCOCCOCCOC(=O)c3ccc(-c4c5nc(c(-c6c(F)c(F)c(F)c(F)c6F)c6ccc([nH]6)c(-c6c(F)c(F)c(F)c(F)c6F)c6nc(c(-c7c(F)c(F)c(F)c(F)c7F)c7ccc4[nH]7)C=C6)C=C5)cc3)C2)C1
REMARK SMILES IDX 23 1 22 2 21 3 20 4 19 5 17 6 18 7 12 8 9 9 10 10 94 11
REMARK SMILES IDX 11 12 8 13 7 14 3 15 4 16 95 17 5 18 6 19 2 20 1 21 13 22
REMARK SMILES IDX 14 25 15 26 16 27 24 28 25 29 26 30 27 31 28 32 29 33 30 34
REMARK SMILES IDX 31 35 32 36 93 37 33 38 92 39 34 40 35 41 36 42 86 43 37 44
REMARK SMILES IDX 91 45 85 46 87 47 38 48 90 49 84 50 83 51 39 53 71 54 51 55
REMARK SMILES IDX 70 56 52 57 55 58 69 59 88 60 53 61 54 62 68 64 89 65 56 66
REMARK SMILES IDX 40 67 41 68 49 69 42 70 43 71 47 72 50 73 44 74 45 75 48 76
REMARK SMILES IDX 46 77 72 78 73 79 81 80 74 81 75 82 79 83 82 84 76 85 77 86
REMARK SMILES IDX 80 87 78 88 57 89 58 90 66 91 59 92 60 93 64 94 67 95 61 96
REMARK SMILES IDX 62 97 65 98 63 99
REMARK H PARENT 13 23 13 24 87 52 55 63
REMARK Flexibility Score: inf
ROOT
ATOM      1  C   UNL A   1      35.366  31.891  28.107  1.00  0.00     0.188 C 
ENDROOT
BRANCH   1   2
ATOM      2  O   UNL A   1      34.313  31.061  27.663  1.00  0.00    -0.376 OA
BRANCH   2   3
ATOM      3  C   UNL A   1      34.627  29.695  27.462  1.00  0.00     0.202 C 
BRANCH   3   4
ATOM      4  C   UNL A   1      33.464  28.769  27.083  1.00  0.00     0.261 C 
BRANCH   4   5
ATOM      5  O   UNL A   1      33.302  28.432  25.688  1.00  0.00    -0.459 OA
BRANCH   5   6
ATOM      6  C   UNL A   1      33.283  27.102  25.380  1.00  0.00     0.368 C 
ATOM      7  O   UNL A   1      34.089  26.309  25.850  1.00  0.00    -0.245 OA
BRANCH   6   8
ATOM      8  C   UNL A   1      32.162  26.752  24.322  1.00  0.00     0.197 C 
ATOM      9  C   UNL A   1      31.747  24.627  23.041  1.00  0.00     0.125 C 
ATOM     10  C   UNL A   1      32.154  25.722  22.068  1.00  0.00     0.039 C 
ATOM     11  C   UNL A   1      31.546  25.314  24.405  1.00  0.00     0.113 C 
ATOM     12  C   UNL A   1      32.807  26.799  22.917  1.00  0.00     0.084 C 
BRANCH   9  13
ATOM     13  O   UNL A   1      32.479  23.402  22.986  1.00  0.00    -0.375 OA
BRANCH  13  14
ATOM     14  C   UNL A   1      33.533  23.025  23.873  1.00  0.00     0.118 C 
ATOM     15  C   UNL A   1      36.126  23.014  24.108  1.00  0.00    -0.009 C 
ATOM     16  C   UNL A   1      36.031  21.554  24.538  1.00  0.00     0.004 C 
ATOM     17  C   UNL A   1      34.887  23.485  23.376  1.00  0.00     0.035 C 
ATOM     18  C   UNL A   1      34.692  21.193  25.173  1.00  0.00     0.003 C 
ATOM     19  C   UNL A   1      33.523  21.548  24.256  1.00  0.00     0.032 C 
BRANCH  15  20
ATOM     20  C   UNL A   1      36.427  23.950  25.245  1.00  0.00     0.000 C 
ATOM     21  C   UNL A   1      37.731  23.584  25.938  1.00  0.00     0.004 C 
ENDBRANCH  15  20
ENDBRANCH  13  14
ENDBRANCH   9  13
BRANCH   8  22
ATOM     22  N   UNL A   1      30.977  27.604  24.564  1.00  0.00    -0.330 N 
ATOM     23  H   UNL A   1      31.158  28.115  25.427  1.00  0.00     0.347 HD
ATOM     24  H   UNL A   1      30.209  26.933  24.559  1.00  0.00     0.347 HD
BRANCH  22  25
ATOM     25  C   UNL A   1      30.560  28.585  23.577  1.00  0.00     0.176 C 
ATOM     26  C   UNL A   1      29.210  28.079  23.064  1.00  0.00     0.075 C 
ATOM     27  C   UNL A   1      30.403  29.999  24.130  1.00  0.00     0.075 C 
ENDBRANCH  22  25
ENDBRANCH   8  22
ENDBRANCH   6   8
ENDBRANCH   5   6
ENDBRANCH   4   5
ENDBRANCH   3   4
ENDBRANCH   2   3
ENDBRANCH   1   2
BRANCH   1  28
ATOM     28  C   UNL A   1      34.990  33.371  28.274  1.00  0.00     0.188 C 
BRANCH  28  29
ATOM     29  O   UNL A   1      34.017  33.753  29.231  1.00  0.00    -0.376 OA
BRANCH  29  30
ATOM     30  C   UNL A   1      33.103  34.781  28.898  1.00  0.00     0.202 C 
BRANCH  30  31
ATOM     31  C   UNL A   1      32.901  35.946  29.888  1.00  0.00     0.261 C 
BRANCH  31  32
ATOM     32  O   UNL A   1      32.001  35.757  31.011  1.00  0.00    -0.460 OA
BRANCH  32  33
ATOM     33  C   UNL A   1      32.501  36.001  32.250  1.00  0.00     0.338 C 
ATOM     34  O   UNL A   1      32.010  36.759  33.086  1.00  0.00    -0.246 OA
BRANCH  33  35
ATOM     35  C   UNL A   1      33.691  35.150  32.561  1.00  0.00     0.060 A 
ATOM     36  C   UNL A   1      34.967  35.720  32.496  1.00  0.00     0.016 A 
ATOM     37  C   UNL A   1      33.597  33.779  32.834  1.00  0.00     0.016 A 
ATOM     38  C   UNL A   1      36.119  34.950  32.791  1.00  0.00     0.010 A 
ATOM     39  C   UNL A   1      34.761  33.001  33.104  1.00  0.00     0.010 A 
ATOM     40  C   UNL A   1      36.041  33.581  33.151  1.00  0.00    -0.014 A 
BRANCH  40  41
ATOM     41  C   UNL A   1      37.329  32.807  33.394  1.00  0.00     0.031 A 
ATOM     42  C   UNL A   1      37.911  32.889  34.768  1.00  0.00     0.074 A 
ATOM     43  C   UNL A   1      38.016  32.031  32.512  1.00  0.00     0.049 A 
ATOM     44  N   UNL A   1      39.003  32.336  35.226  1.00  0.00    -0.248 NA
ATOM     45  C   UNL A   1      37.243  33.801  35.704  1.00  0.00     0.031 C 
ATOM     46  C   UNL A   1      37.831  32.020  31.083  1.00  0.00     0.029 A 
ATOM     47  N   UNL A   1      38.987  31.049  32.670  1.00  0.00    -0.354 N 
ATOM     48  C   UNL A   1      39.209  32.909  36.464  1.00  0.00     0.074 A 
ATOM     49  C   UNL A   1      38.096  33.802  36.714  1.00  0.00     0.031 C 
ATOM     50  C   UNL A   1      38.369  30.923  30.535  1.00  0.00     0.029 A 
ATOM     51  C   UNL A   1      39.210  30.284  31.528  1.00  0.00     0.049 A 
ATOM     52  H   UNL A   1      39.473  30.908  33.514  1.00  0.00     0.167 HD
ATOM     53  C   UNL A   1      40.276  32.765  37.279  1.00  0.00     0.037 A 
ATOM     54  C   UNL A   1      40.055  29.260  31.253  1.00  0.00     0.037 A 
ATOM     55  C   UNL A   1      41.408  31.920  37.009  1.00  0.00     0.049 A 
ATOM     56  C   UNL A   1      41.161  29.019  32.244  1.00  0.00     0.074 A 
ATOM     57  C   UNL A   1      42.535  31.731  37.789  1.00  0.00     0.029 A 
ATOM     58  N   UNL A   1      41.573  31.140  35.872  1.00  0.00    -0.354 N 
ATOM     59  N   UNL A   1      41.349  29.586  33.408  1.00  0.00    -0.248 NA
ATOM     60  C   UNL A   1      42.243  28.107  31.839  1.00  0.00     0.031 C 
ATOM     61  C   UNL A   1      43.400  30.870  37.108  1.00  0.00     0.029 A 
ATOM     62  C   UNL A   1      42.782  30.463  35.938  1.00  0.00     0.049 A 
ATOM     63  H   UNL A   1      40.928  31.076  35.131  1.00  0.00     0.167 HD
ATOM     64  C   UNL A   1      42.582  29.142  33.852  1.00  0.00     0.074 A 
ATOM     65  C   UNL A   1      43.074  28.203  32.867  1.00  0.00     0.031 C 
ATOM     66  C   UNL A   1      43.261  29.521  34.959  1.00  0.00     0.037 A 
BRANCH  53  67
ATOM     67  C   UNL A   1      40.296  33.647  38.485  1.00  0.00     0.064 A 
ATOM     68  C   UNL A   1      39.579  33.327  39.647  1.00  0.00     0.173 A 
ATOM     69  C   UNL A   1      40.983  34.868  38.443  1.00  0.00     0.173 A 
ATOM     70  F   UNL A   1      38.869  32.190  39.711  1.00  0.00    -0.203 F 
ATOM     71  C   UNL A   1      39.517  34.220  40.711  1.00  0.00     0.198 A 
ATOM     72  C   UNL A   1      40.951  35.741  39.524  1.00  0.00     0.198 A 
ATOM     73  F   UNL A   1      41.667  35.225  37.345  1.00  0.00    -0.203 F 
ATOM     74  F   UNL A   1      38.757  33.936  41.776  1.00  0.00    -0.200 F 
ATOM     75  C   UNL A   1      40.207  35.423  40.650  1.00  0.00     0.200 A 
ATOM     76  F   UNL A   1      41.617  36.902  39.465  1.00  0.00    -0.200 F 
ATOM     77  F   UNL A   1      40.138  36.286  41.672  1.00  0.00    -0.200 F 
ENDBRANCH  53  67
BRANCH  54  78
ATOM     78  C   UNL A   1      40.052  28.499  29.951  1.00  0.00     0.064 A 
ATOM     79  C   UNL A   1      39.411  27.249  29.843  1.00  0.00     0.173 A 
ATOM     80  C   UNL A   1      40.751  28.937  28.815  1.00  0.00     0.173 A 
ATOM     81  F   UNL A   1      38.782  26.724  30.906  1.00  0.00    -0.203 F 
ATOM     82  C   UNL A   1      39.474  26.485  28.671  1.00  0.00     0.198 A 
ATOM     83  C   UNL A   1      40.756  28.207  27.623  1.00  0.00     0.198 A 
ATOM     84  F   UNL A   1      41.458  30.075  28.854  1.00  0.00    -0.203 F 
ATOM     85  F   UNL A   1      38.929  25.260  28.638  1.00  0.00    -0.200 F 
ATOM     86  C   UNL A   1      40.130  26.975  27.555  1.00  0.00     0.200 A 
ATOM     87  F   UNL A   1      41.389  28.694  26.547  1.00  0.00    -0.200 F 
ATOM     88  F   UNL A   1      40.183  26.252  26.428  1.00  0.00    -0.200 F 
ENDBRANCH  54  78
BRANCH  66  89
ATOM     89  C   UNL A   1      44.587  28.866  35.198  1.00  0.00     0.064 A 
ATOM     90  C   UNL A   1      45.790  29.428  34.746  1.00  0.00     0.173 A 
ATOM     91  C   UNL A   1      44.647  27.663  35.915  1.00  0.00     0.173 A 
ATOM     92  F   UNL A   1      45.782  30.566  34.035  1.00  0.00    -0.203 F 
ATOM     93  C   UNL A   1      47.006  28.795  34.990  1.00  0.00     0.198 A 
ATOM     94  C   UNL A   1      45.866  27.051  36.182  1.00  0.00     0.198 A 
ATOM     95  F   UNL A   1      43.521  27.087  36.363  1.00  0.00    -0.203 F 
ATOM     96  F   UNL A   1      48.142  29.321  34.509  1.00  0.00    -0.200 F 
ATOM     97  C   UNL A   1      47.044  27.613  35.714  1.00  0.00     0.200 A 
ATOM     98  F   UNL A   1      45.900  25.914  36.892  1.00  0.00    -0.200 F 
ATOM     99  F   UNL A   1      48.215  27.009  35.954  1.00  0.00    -0.200 F 
ENDBRANCH  66  89
ENDBRANCH  40  41
ENDBRANCH  33  35
ENDBRANCH  32  33
ENDBRANCH  31  32
ENDBRANCH  30  31
ENDBRANCH  29  30
ENDBRANCH  28  29
ENDBRANCH   1  28
TORSDOF 22
ENDMDL
MODEL 2
REMARK VINA RESULT:     -10.2      1.166      7.286
REMARK SMILES CC[C@H]1CCC[C@H](O[C@@H]2CC[C@]([NH2+]C(C)C)(C(=O)OCCOCCOCCOC(=O)c3ccc(-c4c5nc(c(-c6c(F)c(F)c(F)c(F)c6F)c6ccc([nH]6)c(-c6c(F)c(F)c(F)c(F)c6F)c6nc(c(-c7c(F)c(F)c(F)c(F)c7F)c7ccc4[nH]7)C=C6)C=C5)cc3)C2)C1
REMARK SMILES IDX 23 1 22 2 21 3 20 4 19 5 17 6 18 7 12 8 9 9 10 10 94 11
REMARK SMILES IDX 11 12 8 13 7 14 3 15 4 16 95 17 5 18 6 19 2 20 1 21 13 22
REMARK SMILES IDX 14 25 15 26 16 27 24 28 25 29 26 30 27 31 28 32 29 33 30 34
REMARK SMILES IDX 31 35 32 36 93 37 33 38 92 39 34 40 35 41 36 42 86 43 37 44
REMARK SMILES IDX 91 45 85 46 87 47 38 48 90 49 84 50 83 51 39 53 71 54 51 55
REMARK SMILES IDX 70 56 52 57 55 58 69 59 88 60 53 61 54 62 68 64 89 65 56 66
REMARK SMILES IDX 40 67 41 68 49 69 42 70 43 71 47 72 50 73 44 74 45 75 48 76
REMARK SMILES IDX 46 77 72 78 73 79 81 80 74 81 75 82 79 83 82 84 76 85 77 86
REMARK SMILES IDX 80 87 78 88 57 89 58 90 66 91 59 92 60 93 64 94 67 95 61 96
REMARK SMILES IDX 62 97 65 98 63 99
REMARK H PARENT 13 23 13 24 87 52 55 63
REMARK Flexibility Score: inf
ROOT
ATOM      1  C   UNL A   1      35.592  31.767  28.056  1.00  0.00     0.188 C 
ENDROOT
BRANCH   1   2
ATOM      2  O   UNL A   1      34.332  31.296  27.627  1.00  0.00    -0.376 OA
BRANCH   2   3
ATOM      3  C   UNL A   1      34.208  29.896  27.449  1.00  0.00     0.202 C 
BRANCH   3   4
ATOM      4  C   UNL A   1      32.864  29.386  26.912  1.00  0.00     0.261 C 
BRANCH   4   5
ATOM      5  O   UNL A   1      32.871  28.173  26.129  1.00  0.00    -0.459 OA
BRANCH   5   6
ATOM      6  C   UNL A   1      31.856  28.020  25.230  1.00  0.00     0.368 C 
ATOM      7  O   UNL A   1      30.771  27.542  25.541  1.00  0.00    -0.245 OA
BRANCH   6   8
ATOM      8  C   UNL A   1      32.278  28.466  23.774  1.00  0.00     0.197 C 
ATOM      9  C   UNL A   1      33.274  27.126  21.891  1.00  0.00     0.125 C 
ATOM     10  C   UNL A   1      34.295  28.146  22.369  1.00  0.00     0.039 C 
ATOM     11  C   UNL A   1      31.955  27.463  22.613  1.00  0.00     0.113 C 
ATOM     12  C   UNL A   1      33.820  28.585  23.744  1.00  0.00     0.084 C 
BRANCH   9  13
ATOM     13  O   UNL A   1      33.696  25.764  21.825  1.00  0.00    -0.375 OA
BRANCH  13  14
ATOM     14  C   UNL A   1      33.456  24.771  22.825  1.00  0.00     0.118 C 
ATOM     15  C   UNL A   1      34.396  23.827  25.061  1.00  0.00    -0.009 C 
ATOM     16  C   UNL A   1      34.257  22.427  24.472  1.00  0.00     0.004 C 
ATOM     17  C   UNL A   1      34.400  24.906  24.000  1.00  0.00     0.035 C 
ATOM     18  C   UNL A   1      33.178  22.325  23.397  1.00  0.00     0.003 C 
ATOM     19  C   UNL A   1      33.399  23.346  22.283  1.00  0.00     0.032 C 
BRANCH  15  20
ATOM     20  C   UNL A   1      33.351  24.141  26.096  1.00  0.00     0.000 C 
ATOM     21  C   UNL A   1      33.004  22.915  26.927  1.00  0.00     0.004 C 
ENDBRANCH  15  20
ENDBRANCH  13  14
ENDBRANCH   9  13
BRANCH   8  22
ATOM     22  N   UNL A   1      31.489  29.652  23.377  1.00  0.00    -0.330 N 
ATOM     23  H   UNL A   1      31.822  29.926  22.452  1.00  0.00     0.347 HD
ATOM     24  H   UNL A   1      31.645  30.299  24.150  1.00  0.00     0.347 HD
BRANCH  22  25
ATOM     25  C   UNL A   1      30.041  29.581  23.295  1.00  0.00     0.176 C 
ATOM     26  C   UNL A   1      29.543  30.815  24.052  1.00  0.00     0.075 C 
ATOM     27  C   UNL A   1      29.494  29.598  21.870  1.00  0.00     0.075 C 
ENDBRANCH  22  25
ENDBRANCH   8  22
ENDBRANCH   6   8
ENDBRANCH   5   6
ENDBRANCH   4   5
ENDBRANCH   3   4
ENDBRANCH   2   3
ENDBRANCH   1   2
BRANCH   1  28
ATOM     28  C   UNL A   1      35.612  33.241  28.489  1.00  0.00     0.188 C 
BRANCH  28  29
ATOM     29  O   UNL A   1      34.584  33.751  29.321  1.00  0.00    -0.376 OA
BRANCH  29  30
ATOM     30  C   UNL A   1      33.634  34.640  28.763  1.00  0.00     0.202 C 
BRANCH  30  31
ATOM     31  C   UNL A   1      33.048  35.756  29.651  1.00  0.00     0.261 C 
BRANCH  31  32
ATOM     32  O   UNL A   1      32.166  35.385  30.742  1.00  0.00    -0.460 OA
BRANCH  32  33
ATOM     33  C   UNL A   1      32.518  35.797  31.987  1.00  0.00     0.338 C 
ATOM     34  O   UNL A   1      31.909  36.619  32.671  1.00  0.00    -0.246 OA
BRANCH  33  35
ATOM     35  C   UNL A   1      33.702  35.054  32.519  1.00  0.00     0.060 A 
ATOM     36  C   UNL A   1      34.922  35.725  32.647  1.00  0.00     0.016 A 
ATOM     37  C   UNL A   1      33.670  33.686  32.819  1.00  0.00     0.016 A 
ATOM     38  C   UNL A   1      36.065  35.059  33.155  1.00  0.00     0.010 A 
ATOM     39  C   UNL A   1      34.829  33.012  33.304  1.00  0.00     0.010 A 
ATOM     40  C   UNL A   1      36.034  33.696  33.542  1.00  0.00    -0.014 A 
BRANCH  40  41
ATOM     41  C   UNL A   1      37.320  33.035  34.021  1.00  0.00     0.031 A 
ATOM     42  C   UNL A   1      38.059  32.205  33.023  1.00  0.00     0.074 A 
ATOM     43  C   UNL A   1      37.891  33.117  35.253  1.00  0.00     0.049 A 
ATOM     44  N   UNL A   1      39.167  31.531  33.182  1.00  0.00    -0.248 NA
ATOM     45  C   UNL A   1      37.407  32.020  31.720  1.00  0.00     0.031 C 
ATOM     46  C   UNL A   1      37.247  33.602  36.447  1.00  0.00     0.029 A 
ATOM     47  N   UNL A   1      39.170  32.845  35.724  1.00  0.00    -0.354 N 
ATOM     48  C   UNL A   1      39.291  30.762  32.043  1.00  0.00     0.074 A 
ATOM     49  C   UNL A   1      38.186  31.103  31.172  1.00  0.00     0.031 C 
ATOM     50  C   UNL A   1      38.145  33.904  37.393  1.00  0.00     0.029 A 
ATOM     51  C   UNL A   1      39.427  33.353  36.995  1.00  0.00     0.049 A 
ATOM     52  H   UNL A   1      39.836  32.338  35.205  1.00  0.00     0.167 HD
ATOM     53  C   UNL A   1      40.203  29.798  31.788  1.00  0.00     0.037 A 
ATOM     54  C   UNL A   1      40.510  33.305  37.808  1.00  0.00     0.037 A 
ATOM     55  C   UNL A   1      41.270  29.420  32.673  1.00  0.00     0.049 A 
ATOM     56  C   UNL A   1      41.586  32.324  37.433  1.00  0.00     0.074 A 
ATOM     57  C   UNL A   1      42.230  28.442  32.482  1.00  0.00     0.029 A 
ATOM     58  N   UNL A   1      41.515  29.982  33.919  1.00  0.00    -0.354 N 
ATOM     59  N   UNL A   1      41.680  31.591  36.353  1.00  0.00    -0.248 NA
ATOM     60  C   UNL A   1      42.632  32.053  38.432  1.00  0.00     0.031 C 
ATOM     61  C   UNL A   1      43.029  28.382  33.627  1.00  0.00     0.029 A 
ATOM     62  C   UNL A   1      42.616  29.373  34.502  1.00  0.00     0.049 A 
ATOM     63  H   UNL A   1      40.986  30.706  34.327  1.00  0.00     0.167 HD
ATOM     64  C   UNL A   1      42.755  30.745  36.559  1.00  0.00     0.074 A 
ATOM     65  C   UNL A   1      43.332  31.097  37.839  1.00  0.00     0.031 C 
ATOM     66  C   UNL A   1      43.192  29.735  35.772  1.00  0.00     0.037 A 
BRANCH  53  67
ATOM     67  C   UNL A   1      39.985  29.016  30.532  1.00  0.00     0.064 A 
ATOM     68  C   UNL A   1      39.363  27.760  30.542  1.00  0.00     0.173 A 
ATOM     69  C   UNL A   1      40.477  29.505  29.314  1.00  0.00     0.173 A 
ATOM     70  F   UNL A   1      38.920  27.235  31.695  1.00  0.00    -0.203 F 
ATOM     71  C   UNL A   1      39.280  27.000  29.380  1.00  0.00     0.198 A 
ATOM     72  C   UNL A   1      40.357  28.759  28.147  1.00  0.00     0.198 A 
ATOM     73  F   UNL A   1      41.097  30.694  29.260  1.00  0.00    -0.203 F 
ATOM     74  F   UNL A   1      38.761  25.766  29.426  1.00  0.00    -0.200 F 
ATOM     75  C   UNL A   1      39.772  27.503  28.184  1.00  0.00     0.200 A 
ATOM     76  F   UNL A   1      40.832  29.246  26.993  1.00  0.00    -0.200 F 
ATOM     77  F   UNL A   1      39.698  26.767  27.068  1.00  0.00    -0.200 F 
ENDBRANCH  53  67
BRANCH  54  78
ATOM     78  C   UNL A   1      40.599  34.030  39.128  1.00  0.00     0.064 A 
ATOM     79  C   UNL A   1      41.355  35.212  39.257  1.00  0.00     0.173 A 
ATOM     80  C   UNL A   1      40.022  33.531  40.307  1.00  0.00     0.173 A 
ATOM     81  F   UNL A   1      42.000  35.714  38.193  1.00  0.00    -0.203 F 
ATOM     82  C   UNL A   1      41.525  35.848  40.493  1.00  0.00     0.198 A 
ATOM     83  C   UNL A   1      40.135  34.204  41.527  1.00  0.00     0.198 A 
ATOM     84  F   UNL A   1      39.356  32.368  40.294  1.00  0.00    -0.203 F 
ATOM     85  F   UNL A   1      42.326  36.919  40.592  1.00  0.00    -0.200 F 
ATOM     86  C   UNL A   1      40.897  35.355  41.623  1.00  0.00     0.200 A 
ATOM     87  F   UNL A   1      39.517  33.720  42.613  1.00  0.00    -0.200 F 
ATOM     88  F   UNL A   1      41.048  35.967  42.806  1.00  0.00    -0.200 F 
ENDBRANCH  54  78
BRANCH  66  89
ATOM     89  C   UNL A   1      44.396  28.979  36.244  1.00  0.00     0.064 A 
ATOM     90  C   UNL A   1      44.291  27.773  36.950  1.00  0.00     0.173 A 
ATOM     91  C   UNL A   1      45.678  29.470  35.958  1.00  0.00     0.173 A 
ATOM     92  F   UNL A   1      43.085  27.276  37.268  1.00  0.00    -0.203 F 
ATOM     93  C   UNL A   1      45.431  27.093  37.370  1.00  0.00     0.198 A 
ATOM     94  C   UNL A   1      46.813  28.772  36.353  1.00  0.00     0.198 A 
ATOM     95  F   UNL A   1      45.827  30.623  35.288  1.00  0.00    -0.203 F 
ATOM     96  F   UNL A   1      45.312  25.966  38.086  1.00  0.00    -0.200 F 
ATOM     97  C   UNL A   1      46.690  27.588  37.064  1.00  0.00     0.200 A 
ATOM     98  F   UNL A   1      48.029  29.248  36.046  1.00  0.00    -0.200 F 
ATOM     99  F   UNL A   1      47.786  26.930  37.463  1.00  0.00    -0.200 F 
ENDBRANCH  66  89
ENDBRANCH  40  41
ENDBRANCH  33  35
ENDBRANCH  32  33
ENDBRANCH  31  32
ENDBRANCH  30  31
ENDBRANCH  29  30
ENDBRANCH  28  29
ENDBRANCH   1  28
TORSDOF 22
ENDMDL
MODEL 3
REMARK VINA RESULT:      -9.4      6.396     12.059
REMARK SMILES CC[C@H]1CCC[C@H](O[C@@H]2CC[C@]([NH2+]C(C)C)(C(=O)OCCOCCOCCOC(=O)c3ccc(-c4c5nc(c(-c6c(F)c(F)c(F)c(F)c6F)c6ccc([nH]6)c(-c6c(F)c(F)c(F)c(F)c6F)c6nc(c(-c7c(F)c(F)c(F)c(F)c7F)c7ccc4[nH]7)C=C6)C=C5)cc3)C2)C1
REMARK SMILES IDX 23 1 22 2 21 3 20 4 19 5 17 6 18 7 12 8 9 9 10 10 94 11
REMARK SMILES IDX 11 12 8 13 7 14 3 15 4 16 95 17 5 18 6 19 2 20 1 21 13 22
REMARK SMILES IDX 14 25 15 26 16 27 24 28 25 29 26 30 27 31 28 32 29 33 30 34
REMARK SMILES IDX 31 35 32 36 93 37 33 38 92 39 34 40 35 41 36 42 86 43 37 44
REMARK SMILES IDX 91 45 85 46 87 47 38 48 90 49 84 50 83 51 39 53 71 54 51 55
REMARK SMILES IDX 70 56 52 57 55 58 69 59 88 60 53 61 54 62 68 64 89 65 56 66
REMARK SMILES IDX 40 67 41 68 49 69 42 70 43 71 47 72 50 73 44 74 45 75 48 76
REMARK SMILES IDX 46 77 72 78 73 79 81 80 74 81 75 82 79 83 82 84 76 85 77 86
REMARK SMILES IDX 80 87 78 88 57 89 58 90 66 91 59 92 60 93 64 94 67 95 61 96
REMARK SMILES IDX 62 97 65 98 63 99
REMARK H PARENT 13 23 13 24 87 52 55 63
REMARK Flexibility Score: inf
ROOT
ATOM      1  C   UNL A   1      37.576  19.940  25.002  1.00  0.00     0.188 C 
ENDROOT
BRANCH   1   2
ATOM      2  O   UNL A   1      37.671  21.214  24.400  1.00  0.00    -0.376 OA
BRANCH   2   3
ATOM      3  C   UNL A   1      37.587  22.331  25.268  1.00  0.00     0.202 C 
BRANCH   3   4
ATOM      4  C   UNL A   1      36.424  22.339  26.269  1.00  0.00     0.261 C 
BRANCH   4   5
ATOM      5  O   UNL A   1      35.230  23.066  25.903  1.00  0.00    -0.459 OA
BRANCH   5   6
ATOM      6  C   UNL A   1      34.053  22.380  25.970  1.00  0.00     0.368 C 
ATOM      7  O   UNL A   1      33.527  22.081  27.036  1.00  0.00    -0.245 OA
BRANCH   6   8
ATOM      8  C   UNL A   1      33.514  21.981  24.539  1.00  0.00     0.197 C 
ATOM      9  C   UNL A   1      33.278  23.364  22.450  1.00  0.00     0.125 C 
ATOM     10  C   UNL A   1      31.895  22.975  22.946  1.00  0.00     0.039 C 
ATOM     11  C   UNL A   1      34.284  22.575  23.310  1.00  0.00     0.113 C 
ATOM     12  C   UNL A   1      32.085  22.555  24.394  1.00  0.00     0.084 C 
BRANCH   9  13
ATOM     13  O   UNL A   1      33.516  24.750  22.206  1.00  0.00    -0.375 OA
BRANCH  13  14
ATOM     14  C   UNL A   1      33.140  25.822  23.074  1.00  0.00     0.118 C 
ATOM     15  C   UNL A   1      32.620  28.372  23.093  1.00  0.00    -0.009 C 
ATOM     16  C   UNL A   1      33.548  28.502  24.297  1.00  0.00     0.004 C 
ATOM     17  C   UNL A   1      32.859  27.099  22.311  1.00  0.00     0.035 C 
ATOM     18  C   UNL A   1      33.668  27.218  25.113  1.00  0.00     0.003 C 
ATOM     19  C   UNL A   1      34.096  26.039  24.243  1.00  0.00     0.032 C 
BRANCH  15  20
ATOM     20  C   UNL A   1      31.164  28.480  23.452  1.00  0.00     0.000 C 
ATOM     21  C   UNL A   1      30.360  29.124  22.334  1.00  0.00     0.004 C 
ENDBRANCH  15  20
ENDBRANCH  13  14
ENDBRANCH   9  13
BRANCH   8  22
ATOM     22  N   UNL A   1      33.694  20.527  24.335  1.00  0.00    -0.330 N 
ATOM     23  H   UNL A   1      34.420  20.230  24.987  1.00  0.00     0.347 HD
ATOM     24  H   UNL A   1      33.893  20.459  23.337  1.00  0.00     0.347 HD
BRANCH  22  25
ATOM     25  C   UNL A   1      32.578  19.614  24.509  1.00  0.00     0.176 C 
ATOM     26  C   UNL A   1      32.417  18.925  23.151  1.00  0.00     0.075 C 
ATOM     27  C   UNL A   1      32.794  18.563  25.595  1.00  0.00     0.075 C 
ENDBRANCH  22  25
ENDBRANCH   8  22
ENDBRANCH   6   8
ENDBRANCH   5   6
ENDBRANCH   4   5
ENDBRANCH   3   4
ENDBRANCH   2   3
ENDBRANCH   1   2
BRANCH   1  28
ATOM     28  C   UNL A   1      38.920  19.325  25.419  1.00  0.00     0.188 C 
BRANCH  28  29
ATOM     29  O   UNL A   1      40.030  20.163  25.690  1.00  0.00    -0.376 OA
BRANCH  29  30
ATOM     30  C   UNL A   1      40.948  19.773  26.696  1.00  0.00     0.202 C 
BRANCH  30  31
ATOM     31  C   UNL A   1      42.197  18.966  26.290  1.00  0.00     0.261 C 
BRANCH  31  32
ATOM     32  O   UNL A   1      42.660  19.045  24.916  1.00  0.00    -0.460 OA
BRANCH  32  33
ATOM     33  C   UNL A   1      43.942  19.447  24.720  1.00  0.00     0.338 C 
ATOM     34  O   UNL A   1      44.805  18.820  24.107  1.00  0.00    -0.246 OA
BRANCH  33  35
ATOM     35  C   UNL A   1      44.194  20.825  25.244  1.00  0.00     0.060 A 
ATOM     36  C   UNL A   1      43.350  21.867  24.846  1.00  0.00     0.016 A 
ATOM     37  C   UNL A   1      45.291  21.142  26.056  1.00  0.00     0.016 A 
ATOM     38  C   UNL A   1      43.551  23.184  25.327  1.00  0.00     0.010 A 
ATOM     39  C   UNL A   1      45.504  22.474  26.517  1.00  0.00     0.010 A 
ATOM     40  C   UNL A   1      44.606  23.512  26.215  1.00  0.00    -0.014 A 
BRANCH  40  41
ATOM     41  C   UNL A   1      44.790  24.962  26.639  1.00  0.00     0.031 A 
ATOM     42  C   UNL A   1      46.063  25.626  26.222  1.00  0.00     0.074 A 
ATOM     43  C   UNL A   1      43.927  25.742  27.346  1.00  0.00     0.049 A 
ATOM     44  N   UNL A   1      46.466  26.844  26.466  1.00  0.00    -0.248 NA
ATOM     45  C   UNL A   1      47.051  24.774  25.548  1.00  0.00     0.031 C 
ATOM     46  C   UNL A   1      42.792  25.269  28.095  1.00  0.00     0.029 A 
ATOM     47  N   UNL A   1      43.821  27.116  27.524  1.00  0.00    -0.354 N 
ATOM     48  C   UNL A   1      47.787  26.876  26.070  1.00  0.00     0.074 A 
ATOM     49  C   UNL A   1      48.098  25.579  25.508  1.00  0.00     0.031 C 
ATOM     50  C   UNL A   1      41.943  26.269  28.368  1.00  0.00     0.029 A 
ATOM     51  C   UNL A   1      42.610  27.524  28.079  1.00  0.00     0.049 A 
ATOM     52  H   UNL A   1      44.538  27.745  27.280  1.00  0.00     0.167 HD
ATOM     53  C   UNL A   1      48.681  27.875  26.239  1.00  0.00     0.037 A 
ATOM     54  C   UNL A   1      42.113  28.737  28.422  1.00  0.00     0.037 A 
ATOM     55  C   UNL A   1      48.389  29.146  26.845  1.00  0.00     0.049 A 
ATOM     56  C   UNL A   1      43.096  29.874  28.471  1.00  0.00     0.074 A 
ATOM     57  C   UNL A   1      49.251  30.206  27.058  1.00  0.00     0.029 A 
ATOM     58  N   UNL A   1      47.153  29.527  27.351  1.00  0.00    -0.354 N 
ATOM     59  N   UNL A   1      44.352  29.881  28.104  1.00  0.00    -0.248 NA
ATOM     60  C   UNL A   1      42.649  31.127  29.099  1.00  0.00     0.031 C 
ATOM     61  C   UNL A   1      48.551  31.213  27.729  1.00  0.00     0.029 A 
ATOM     62  C   UNL A   1      47.233  30.812  27.868  1.00  0.00     0.049 A 
ATOM     63  H   UNL A   1      46.342  28.970  27.342  1.00  0.00     0.167 HD
ATOM     64  C   UNL A   1      44.856  31.108  28.498  1.00  0.00     0.074 A 
ATOM     65  C   UNL A   1      43.756  31.854  29.070  1.00  0.00     0.031 C 
ATOM     66  C   UNL A   1      46.132  31.553  28.428  1.00  0.00     0.037 A 
BRANCH  53  67
ATOM     67  C   UNL A   1      50.090  27.557  25.856  1.00  0.00     0.064 A 
ATOM     68  C   UNL A   1      51.054  27.205  26.811  1.00  0.00     0.173 A 
ATOM     69  C   UNL A   1      50.493  27.681  24.519  1.00  0.00     0.173 A 
ATOM     70  F   UNL A   1      50.721  27.121  28.108  1.00  0.00    -0.203 F 
ATOM     71  C   UNL A   1      52.385  27.030  26.445  1.00  0.00     0.198 A 
ATOM     72  C   UNL A   1      51.816  27.467  24.151  1.00  0.00     0.198 A 
ATOM     73  F   UNL A   1      49.608  28.034  23.573  1.00  0.00    -0.203 F 
ATOM     74  F   UNL A   1      53.307  26.781  27.383  1.00  0.00    -0.200 F 
ATOM     75  C   UNL A   1      52.762  27.156  25.115  1.00  0.00     0.200 A 
ATOM     76  F   UNL A   1      52.179  27.588  22.867  1.00  0.00    -0.200 F 
ATOM     77  F   UNL A   1      54.045  26.996  24.766  1.00  0.00    -0.200 F 
ENDBRANCH  53  67
BRANCH  54  78
ATOM     78  C   UNL A   1      40.707  28.954  28.923  1.00  0.00     0.064 A 
ATOM     79  C   UNL A   1      40.389  28.792  30.286  1.00  0.00     0.173 A 
ATOM     80  C   UNL A   1      39.632  29.236  28.065  1.00  0.00     0.173 A 
ATOM     81  F   UNL A   1      41.346  28.449  31.161  1.00  0.00    -0.203 F 
ATOM     82  C   UNL A   1      39.074  28.900  30.755  1.00  0.00     0.198 A 
ATOM     83  C   UNL A   1      38.330  29.412  28.543  1.00  0.00     0.198 A 
ATOM     84  F   UNL A   1      39.829  29.324  26.742  1.00  0.00    -0.203 F 
ATOM     85  F   UNL A   1      38.799  28.649  32.044  1.00  0.00    -0.200 F 
ATOM     86  C   UNL A   1      38.049  29.230  29.886  1.00  0.00     0.200 A 
ATOM     87  F   UNL A   1      37.348  29.737  27.693  1.00  0.00    -0.200 F 
ATOM     88  F   UNL A   1      36.791  29.345  30.333  1.00  0.00    -0.200 F 
ENDBRANCH  54  78
BRANCH  66  89
ATOM     89  C   UNL A   1      46.395  32.940  28.928  1.00  0.00     0.064 A 
ATOM     90  C   UNL A   1      46.786  33.197  30.250  1.00  0.00     0.173 A 
ATOM     91  C   UNL A   1      46.272  34.028  28.051  1.00  0.00     0.173 A 
ATOM     92  F   UNL A   1      46.894  32.192  31.132  1.00  0.00    -0.203 F 
ATOM     93  C   UNL A   1      47.027  34.499  30.680  1.00  0.00     0.198 A 
ATOM     94  C   UNL A   1      46.543  35.322  28.477  1.00  0.00     0.198 A 
ATOM     95  F   UNL A   1      45.896  33.830  26.778  1.00  0.00    -0.203 F 
ATOM     96  F   UNL A   1      47.353  34.731  31.959  1.00  0.00    -0.200 F 
ATOM     97  C   UNL A   1      46.914  35.559  29.792  1.00  0.00     0.200 A 
ATOM     98  F   UNL A   1      46.443  36.344  27.614  1.00  0.00    -0.200 F 
ATOM     99  F   UNL A   1      47.152  36.810  30.206  1.00  0.00    -0.200 F 
ENDBRANCH  66  89
ENDBRANCH  40  41
ENDBRANCH  33  35
ENDBRANCH  32  33
ENDBRANCH  31  32
ENDBRANCH  30  31
ENDBRANCH  29  30
ENDBRANCH  28  29
ENDBRANCH   1  28
TORSDOF 22
ENDMDL
