MODEL 1
REMARK VINA RESULT:      -9.9      0.000      0.000
REMARK SMILES CN(C1CC1)S(=O)(=O)CC(=O)OCCOCCOCCOC(=O)c1ccc(-c2c3nc(c(-c4c(F)c(F)c(F)c(F)c4F)c4ccc([nH]4)c(-c4c(F)c(F)c(F)c(F)c4F)c4nc(c(-c5c(F)c(F)c(F)c(F)c5F)c5ccc2[nH]5)C=C4)C=C3)cc1
REMARK SMILES IDX 16 1 15 2 14 3 13 4 12 5 10 6 11 7 9 8 6 9 7 10 8 11 2 12
REMARK SMILES IDX 1 13 3 14 4 15 5 16 17 17 18 18 19 19 20 20 21 21 22 22
REMARK SMILES IDX 23 23 24 24 25 25 86 26 26 27 85 28 27 29 28 30 29 31 79 32
REMARK SMILES IDX 30 33 84 34 78 35 80 36 31 37 83 38 77 39 76 40 32 42 64 43
REMARK SMILES IDX 44 44 63 45 45 46 48 47 62 48 81 49 46 50 47 51 61 53 82 54
REMARK SMILES IDX 49 55 33 56 34 57 42 58 35 59 36 60 40 61 43 62 37 63 38 64
REMARK SMILES IDX 41 65 39 66 65 67 66 68 74 69 67 70 68 71 72 72 75 73 69 74
REMARK SMILES IDX 70 75 73 76 71 77 50 78 51 79 59 80 52 81 53 82 57 83 60 84
REMARK SMILES IDX 54 85 55 86 58 87 56 88
REMARK H PARENT 80 41 48 52
REMARK Flexibility Score: inf
ROOT
ATOM      1  C   UNL A   1      31.974  26.781  23.471  1.00  0.00     0.188 C 
ENDROOT
BRANCH   1   2
ATOM      2  O   UNL A   1      33.236  26.305  23.884  1.00  0.00    -0.376 OA
BRANCH   2   3
ATOM      3  C   UNL A   1      33.420  25.989  25.259  1.00  0.00     0.202 C 
BRANCH   3   4
ATOM      4  C   UNL A   1      32.242  25.444  26.081  1.00  0.00     0.261 C 
BRANCH   4   5
ATOM      5  O   UNL A   1      32.084  24.000  26.051  1.00  0.00    -0.462 OA
BRANCH   5   6
ATOM      6  C   UNL A   1      33.221  23.270  26.050  1.00  0.00     0.322 C 
ATOM      7  O   UNL A   1      33.944  23.182  27.046  1.00  0.00    -0.251 OA
BRANCH   6   8
ATOM      8  C   UNL A   1      33.618  22.510  24.832  1.00  0.00     0.276 C 
BRANCH   8   9
ATOM      9  S   UNL A   1      32.799  21.036  24.318  1.00  0.00     0.224 S 
ATOM     10  O   UNL A   1      32.353  21.254  22.956  1.00  0.00    -0.212 OA
ATOM     11  O   UNL A   1      31.834  20.633  25.322  1.00  0.00    -0.212 OA
BRANCH   9  12
ATOM     12  N   UNL A   1      34.031  19.835  24.212  1.00  0.00    -0.201 NA
ATOM     13  C   UNL A   1      35.217  20.152  25.061  1.00  0.00     0.124 C 
BRANCH  12  14
ATOM     14  C   UNL A   1      33.598  18.429  24.441  1.00  0.00     0.072 C 
ATOM     15  C   UNL A   1      32.689  17.711  23.480  1.00  0.00     0.022 C 
ATOM     16  C   UNL A   1      34.137  17.333  23.552  1.00  0.00     0.022 C 
ENDBRANCH  12  14
ENDBRANCH   9  12
ENDBRANCH   8   9
ENDBRANCH   6   8
ENDBRANCH   5   6
ENDBRANCH   4   5
ENDBRANCH   3   4
ENDBRANCH   2   3
ENDBRANCH   1   2
BRANCH   1  17
ATOM     17  C   UNL A   1      31.859  28.219  22.944  1.00  0.00     0.188 C 
BRANCH  17  18
ATOM     18  O   UNL A   1      31.350  29.256  23.743  1.00  0.00    -0.376 OA
BRANCH  18  19
ATOM     19  C   UNL A   1      31.579  29.231  25.140  1.00  0.00     0.202 C 
BRANCH  19  20
ATOM     20  C   UNL A   1      31.812  30.503  25.972  1.00  0.00     0.261 C 
BRANCH  20  21
ATOM     21  O   UNL A   1      32.668  30.375  27.119  1.00  0.00    -0.460 OA
BRANCH  21  22
ATOM     22  C   UNL A   1      33.396  31.484  27.402  1.00  0.00     0.338 C 
ATOM     23  O   UNL A   1      32.995  32.634  27.474  1.00  0.00    -0.246 OA
BRANCH  22  24
ATOM     24  C   UNL A   1      34.799  31.155  27.711  1.00  0.00     0.060 A 
ATOM     25  C   UNL A   1      35.151  29.840  28.004  1.00  0.00     0.016 A 
ATOM     26  C   UNL A   1      35.697  32.183  27.983  1.00  0.00     0.016 A 
ATOM     27  C   UNL A   1      36.335  29.549  28.662  1.00  0.00     0.010 A 
ATOM     28  C   UNL A   1      36.935  31.881  28.563  1.00  0.00     0.010 A 
ATOM     29  C   UNL A   1      37.246  30.565  28.950  1.00  0.00    -0.014 A 
BRANCH  29  30
ATOM     30  C   UNL A   1      38.454  30.252  29.753  1.00  0.00     0.031 A 
ATOM     31  C   UNL A   1      39.515  29.364  29.169  1.00  0.00     0.074 A 
ATOM     32  C   UNL A   1      38.640  30.806  30.967  1.00  0.00     0.049 A 
ATOM     33  N   UNL A   1      40.507  28.754  29.761  1.00  0.00    -0.248 NA
ATOM     34  C   UNL A   1      39.441  29.122  27.718  1.00  0.00     0.031 C 
ATOM     35  C   UNL A   1      37.755  31.788  31.598  1.00  0.00     0.029 A 
ATOM     36  N   UNL A   1      39.641  30.625  31.888  1.00  0.00    -0.354 N 
ATOM     37  C   UNL A   1      41.129  27.998  28.774  1.00  0.00     0.074 A 
ATOM     38  C   UNL A   1      40.410  28.236  27.541  1.00  0.00     0.031 C 
ATOM     39  C   UNL A   1      38.263  32.138  32.789  1.00  0.00     0.029 A 
ATOM     40  C   UNL A   1      39.434  31.313  33.059  1.00  0.00     0.049 A 
ATOM     41  H   UNL A   1      40.430  30.058  31.726  1.00  0.00     0.167 HD
ATOM     42  C   UNL A   1      42.194  27.172  28.902  1.00  0.00     0.037 A 
ATOM     43  C   UNL A   1      40.063  31.227  34.245  1.00  0.00     0.037 A 
ATOM     44  C   UNL A   1      42.921  26.995  30.134  1.00  0.00     0.049 A 
ATOM     45  C   UNL A   1      41.188  30.242  34.392  1.00  0.00     0.074 A 
ATOM     46  C   UNL A   1      44.002  26.171  30.391  1.00  0.00     0.029 A 
ATOM     47  N   UNL A   1      42.642  27.669  31.316  1.00  0.00    -0.354 N 
ATOM     48  N   UNL A   1      41.706  29.440  33.494  1.00  0.00    -0.248 NA
ATOM     49  C   UNL A   1      41.797  30.130  35.723  1.00  0.00     0.031 C 
ATOM     50  C   UNL A   1      44.345  26.310  31.740  1.00  0.00     0.029 A 
ATOM     51  C   UNL A   1      43.521  27.268  32.309  1.00  0.00     0.049 A 
ATOM     52  H   UNL A   1      41.927  28.335  31.430  1.00  0.00     0.167 HD
ATOM     53  C   UNL A   1      42.714  28.741  34.143  1.00  0.00     0.074 A 
ATOM     54  C   UNL A   1      42.745  29.230  35.506  1.00  0.00     0.031 C 
ATOM     55  C   UNL A   1      43.536  27.777  33.657  1.00  0.00     0.037 A 
BRANCH  42  56
ATOM     56  C   UNL A   1      42.590  26.352  27.707  1.00  0.00     0.064 A 
ATOM     57  C   UNL A   1      43.595  26.755  26.815  1.00  0.00     0.173 A 
ATOM     58  C   UNL A   1      41.951  25.127  27.458  1.00  0.00     0.173 A 
ATOM     59  F   UNL A   1      44.227  27.926  26.994  1.00  0.00    -0.203 F 
ATOM     60  C   UNL A   1      43.922  25.980  25.704  1.00  0.00     0.198 A 
ATOM     61  C   UNL A   1      42.305  24.337  26.366  1.00  0.00     0.198 A 
ATOM     62  F   UNL A   1      40.984  24.689  28.278  1.00  0.00    -0.203 F 
ATOM     63  F   UNL A   1      44.845  26.414  24.834  1.00  0.00    -0.200 F 
ATOM     64  C   UNL A   1      43.282  24.769  25.484  1.00  0.00     0.200 A 
ATOM     65  F   UNL A   1      41.693  23.161  26.166  1.00  0.00    -0.200 F 
ATOM     66  F   UNL A   1      43.602  24.023  24.419  1.00  0.00    -0.200 F 
ENDBRANCH  42  56
BRANCH  43  67
ATOM     67  C   UNL A   1      39.581  32.033  35.400  1.00  0.00     0.064 A 
ATOM     68  C   UNL A   1      38.627  31.526  36.292  1.00  0.00     0.173 A 
ATOM     69  C   UNL A   1      40.070  33.328  35.641  1.00  0.00     0.173 A 
ATOM     70  F   UNL A   1      38.107  30.305  36.094  1.00  0.00    -0.203 F 
ATOM     71  C   UNL A   1      38.175  32.283  37.373  1.00  0.00     0.198 A 
ATOM     72  C   UNL A   1      39.648  34.068  36.742  1.00  0.00     0.198 A 
ATOM     73  F   UNL A   1      40.982  33.865  34.818  1.00  0.00    -0.203 F 
ATOM     74  F   UNL A   1      37.229  31.792  38.183  1.00  0.00    -0.200 F 
ATOM     75  C   UNL A   1      38.694  33.549  37.602  1.00  0.00     0.200 A 
ATOM     76  F   UNL A   1      40.169  35.281  36.971  1.00  0.00    -0.200 F 
ATOM     77  F   UNL A   1      38.271  34.270  38.649  1.00  0.00    -0.200 F 
ENDBRANCH  43  67
BRANCH  55  78
ATOM     78  C   UNL A   1      44.570  27.229  34.597  1.00  0.00     0.064 A 
ATOM     79  C   UNL A   1      45.825  27.834  34.752  1.00  0.00     0.173 A 
ATOM     80  C   UNL A   1      44.286  26.094  35.373  1.00  0.00     0.173 A 
ATOM     81  F   UNL A   1      46.151  28.910  34.019  1.00  0.00    -0.203 F 
ATOM     82  C   UNL A   1      46.770  27.305  35.627  1.00  0.00     0.198 A 
ATOM     83  C   UNL A   1      45.220  25.590  36.273  1.00  0.00     0.198 A 
ATOM     84  F   UNL A   1      43.098  25.481  35.266  1.00  0.00    -0.203 F 
ATOM     85  F   UNL A   1      47.983  27.867  35.718  1.00  0.00    -0.200 F 
ATOM     86  C   UNL A   1      46.463  26.190  36.392  1.00  0.00     0.200 A 
ATOM     87  F   UNL A   1      44.916  24.521  37.021  1.00  0.00    -0.200 F 
ATOM     88  F   UNL A   1      47.373  25.686  37.239  1.00  0.00    -0.200 F 
ENDBRANCH  55  78
ENDBRANCH  29  30
ENDBRANCH  22  24
ENDBRANCH  21  22
ENDBRANCH  20  21
ENDBRANCH  19  20
ENDBRANCH  18  19
ENDBRANCH  17  18
ENDBRANCH   1  17
TORSDOF 20
ENDMDL
MODEL 2
REMARK VINA RESULT:      -9.7      0.291      2.007
REMARK SMILES CN(C1CC1)S(=O)(=O)CC(=O)OCCOCCOCCOC(=O)c1ccc(-c2c3nc(c(-c4c(F)c(F)c(F)c(F)c4F)c4ccc([nH]4)c(-c4c(F)c(F)c(F)c(F)c4F)c4nc(c(-c5c(F)c(F)c(F)c(F)c5F)c5ccc2[nH]5)C=C4)C=C3)cc1
REMARK SMILES IDX 16 1 15 2 14 3 13 4 12 5 10 6 11 7 9 8 6 9 7 10 8 11 2 12
REMARK SMILES IDX 1 13 3 14 4 15 5 16 17 17 18 18 19 19 20 20 21 21 22 22
REMARK SMILES IDX 23 23 24 24 25 25 86 26 26 27 85 28 27 29 28 30 29 31 79 32
REMARK SMILES IDX 30 33 84 34 78 35 80 36 31 37 83 38 77 39 76 40 32 42 64 43
REMARK SMILES IDX 44 44 63 45 45 46 48 47 62 48 81 49 46 50 47 51 61 53 82 54
REMARK SMILES IDX 49 55 33 56 34 57 42 58 35 59 36 60 40 61 43 62 37 63 38 64
REMARK SMILES IDX 41 65 39 66 65 67 66 68 74 69 67 70 68 71 72 72 75 73 69 74
REMARK SMILES IDX 70 75 73 76 71 77 50 78 51 79 59 80 52 81 53 82 57 83 60 84
REMARK SMILES IDX 54 85 55 86 58 87 56 88
REMARK H PARENT 80 41 48 52
REMARK Flexibility Score: inf
ROOT
ATOM      1  C   UNL A   1      32.142  26.825  23.761  1.00  0.00     0.188 C 
ENDROOT
BRANCH   1   2
ATOM      2  O   UNL A   1      33.500  26.643  24.096  1.00  0.00    -0.376 OA
BRANCH   2   3
ATOM      3  C   UNL A   1      33.814  25.841  25.228  1.00  0.00     0.202 C 
BRANCH   3   4
ATOM      4  C   UNL A   1      32.683  25.305  26.120  1.00  0.00     0.261 C 
BRANCH   4   5
ATOM      5  O   UNL A   1      32.514  23.862  26.104  1.00  0.00    -0.462 OA
BRANCH   5   6
ATOM      6  C   UNL A   1      33.643  23.126  26.010  1.00  0.00     0.322 C 
ATOM      7  O   UNL A   1      34.506  23.133  26.892  1.00  0.00    -0.251 OA
BRANCH   6   8
ATOM      8  C   UNL A   1      33.861  22.242  24.830  1.00  0.00     0.276 C 
BRANCH   8   9
ATOM      9  S   UNL A   1      32.656  21.081  24.273  1.00  0.00     0.224 S 
ATOM     10  O   UNL A   1      32.217  21.526  22.964  1.00  0.00    -0.212 OA
ATOM     11  O   UNL A   1      31.670  20.857  25.311  1.00  0.00    -0.212 OA
BRANCH   9  12
ATOM     12  N   UNL A   1      33.520  19.616  23.993  1.00  0.00    -0.201 NA
ATOM     13  C   UNL A   1      34.470  19.290  25.098  1.00  0.00     0.124 C 
BRANCH  12  14
ATOM     14  C   UNL A   1      32.695  18.423  23.657  1.00  0.00     0.072 C 
ATOM     15  C   UNL A   1      32.326  18.085  22.238  1.00  0.00     0.022 C 
ATOM     16  C   UNL A   1      33.339  17.249  22.958  1.00  0.00     0.022 C 
ENDBRANCH  12  14
ENDBRANCH   9  12
ENDBRANCH   8   9
ENDBRANCH   6   8
ENDBRANCH   5   6
ENDBRANCH   4   5
ENDBRANCH   3   4
ENDBRANCH   2   3
ENDBRANCH   1   2
BRANCH   1  17
ATOM     17  C   UNL A   1      31.722  28.110  23.033  1.00  0.00     0.188 C 
BRANCH  17  18
ATOM     18  O   UNL A   1      31.298  29.249  23.738  1.00  0.00    -0.376 OA
BRANCH  18  19
ATOM     19  C   UNL A   1      31.475  29.301  25.141  1.00  0.00     0.202 C 
BRANCH  19  20
ATOM     20  C   UNL A   1      31.871  30.587  25.886  1.00  0.00     0.261 C 
BRANCH  20  21
ATOM     21  O   UNL A   1      32.674  30.426  27.067  1.00  0.00    -0.460 OA
BRANCH  21  22
ATOM     22  C   UNL A   1      33.393  31.523  27.410  1.00  0.00     0.338 C 
ATOM     23  O   UNL A   1      32.986  32.668  27.530  1.00  0.00    -0.246 OA
BRANCH  22  24
ATOM     24  C   UNL A   1      34.794  31.187  27.719  1.00  0.00     0.060 A 
ATOM     25  C   UNL A   1      35.136  29.870  28.022  1.00  0.00     0.016 A 
ATOM     26  C   UNL A   1      35.700  32.209  27.983  1.00  0.00     0.016 A 
ATOM     27  C   UNL A   1      36.319  29.575  28.681  1.00  0.00     0.010 A 
ATOM     28  C   UNL A   1      36.937  31.902  28.564  1.00  0.00     0.010 A 
ATOM     29  C   UNL A   1      37.238  30.586  28.960  1.00  0.00    -0.014 A 
BRANCH  29  30
ATOM     30  C   UNL A   1      38.445  30.270  29.764  1.00  0.00     0.031 A 
ATOM     31  C   UNL A   1      39.506  29.384  29.178  1.00  0.00     0.074 A 
ATOM     32  C   UNL A   1      38.628  30.820  30.981  1.00  0.00     0.049 A 
ATOM     33  N   UNL A   1      40.497  28.772  29.770  1.00  0.00    -0.248 NA
ATOM     34  C   UNL A   1      39.435  29.148  27.726  1.00  0.00     0.031 C 
ATOM     35  C   UNL A   1      37.743  31.799  31.614  1.00  0.00     0.029 A 
ATOM     36  N   UNL A   1      39.628  30.635  31.902  1.00  0.00    -0.354 N 
ATOM     37  C   UNL A   1      41.121  28.020  28.782  1.00  0.00     0.074 A 
ATOM     38  C   UNL A   1      40.404  28.262  27.548  1.00  0.00     0.031 C 
ATOM     39  C   UNL A   1      38.248  32.145  32.807  1.00  0.00     0.029 A 
ATOM     40  C   UNL A   1      39.418  31.319  33.075  1.00  0.00     0.049 A 
ATOM     41  H   UNL A   1      40.417  30.069  31.740  1.00  0.00     0.167 HD
ATOM     42  C   UNL A   1      42.186  27.193  28.908  1.00  0.00     0.037 A 
ATOM     43  C   UNL A   1      40.045  31.228  34.263  1.00  0.00     0.037 A 
ATOM     44  C   UNL A   1      42.910  27.011  30.140  1.00  0.00     0.049 A 
ATOM     45  C   UNL A   1      41.170  30.242  34.408  1.00  0.00     0.074 A 
ATOM     46  C   UNL A   1      43.991  26.186  30.396  1.00  0.00     0.029 A 
ATOM     47  N   UNL A   1      42.630  27.681  31.324  1.00  0.00    -0.354 N 
ATOM     48  N   UNL A   1      41.690  29.444  33.507  1.00  0.00    -0.248 NA
ATOM     49  C   UNL A   1      41.777  30.125  35.739  1.00  0.00     0.031 C 
ATOM     50  C   UNL A   1      44.331  26.319  31.746  1.00  0.00     0.029 A 
ATOM     51  C   UNL A   1      43.506  27.275  32.318  1.00  0.00     0.049 A 
ATOM     52  H   UNL A   1      41.914  28.346  31.440  1.00  0.00     0.167 HD
ATOM     53  C   UNL A   1      42.696  28.742  34.156  1.00  0.00     0.074 A 
ATOM     54  C   UNL A   1      42.725  29.226  35.521  1.00  0.00     0.031 C 
ATOM     55  C   UNL A   1      43.519  27.780  33.668  1.00  0.00     0.037 A 
BRANCH  42  56
ATOM     56  C   UNL A   1      42.584  26.378  27.710  1.00  0.00     0.064 A 
ATOM     57  C   UNL A   1      41.986  25.146  27.404  1.00  0.00     0.173 A 
ATOM     58  C   UNL A   1      43.581  26.852  26.843  1.00  0.00     0.173 A 
ATOM     59  F   UNL A   1      41.040  24.637  28.207  1.00  0.00    -0.203 F 
ATOM     60  C   UNL A   1      42.395  24.407  26.295  1.00  0.00     0.198 A 
ATOM     61  C   UNL A   1      43.963  26.127  25.716  1.00  0.00     0.198 A 
ATOM     62  F   UNL A   1      44.186  28.025  27.084  1.00  0.00    -0.203 F 
ATOM     63  F   UNL A   1      41.851  23.205  26.056  1.00  0.00    -0.200 F 
ATOM     64  C   UNL A   1      43.377  24.900  25.449  1.00  0.00     0.200 A 
ATOM     65  F   UNL A   1      44.902  26.615  24.894  1.00  0.00    -0.200 F 
ATOM     66  F   UNL A   1      43.764  24.190  24.382  1.00  0.00    -0.200 F 
ENDBRANCH  42  56
BRANCH  43  67
ATOM     67  C   UNL A   1      39.561  32.030  35.420  1.00  0.00     0.064 A 
ATOM     68  C   UNL A   1      40.015  33.337  35.640  1.00  0.00     0.173 A 
ATOM     69  C   UNL A   1      38.627  31.507  36.329  1.00  0.00     0.173 A 
ATOM     70  F   UNL A   1      40.927  33.876  34.817  1.00  0.00    -0.203 F 
ATOM     71  C   UNL A   1      39.562  34.085  36.726  1.00  0.00     0.198 A 
ATOM     72  C   UNL A   1      38.145  32.268  37.390  1.00  0.00     0.198 A 
ATOM     73  F   UNL A   1      38.160  30.259  36.170  1.00  0.00    -0.203 F 
ATOM     74  F   UNL A   1      40.047  35.315  36.938  1.00  0.00    -0.200 F 
ATOM     75  C   UNL A   1      38.619  33.553  37.594  1.00  0.00     0.200 A 
ATOM     76  F   UNL A   1      37.218  31.756  38.212  1.00  0.00    -0.200 F 
ATOM     77  F   UNL A   1      38.172  34.278  38.628  1.00  0.00    -0.200 F 
ENDBRANCH  43  67
BRANCH  55  78
ATOM     78  C   UNL A   1      44.551  27.227  34.607  1.00  0.00     0.064 A 
ATOM     79  C   UNL A   1      44.334  26.049  35.336  1.00  0.00     0.173 A 
ATOM     80  C   UNL A   1      45.787  27.876  34.757  1.00  0.00     0.173 A 
ATOM     81  F   UNL A   1      43.163  25.402  35.241  1.00  0.00    -0.203 F 
ATOM     82  C   UNL A   1      45.306  25.557  36.204  1.00  0.00     0.198 A 
ATOM     83  C   UNL A   1      46.768  27.362  35.598  1.00  0.00     0.198 A 
ATOM     84  F   UNL A   1      46.045  29.004  34.078  1.00  0.00    -0.203 F 
ATOM     85  F   UNL A   1      45.056  24.461  36.933  1.00  0.00    -0.200 F 
ATOM     86  C   UNL A   1      46.524  26.209  36.327  1.00  0.00     0.200 A 
ATOM     87  F   UNL A   1      47.950  27.986  35.705  1.00  0.00    -0.200 F 
ATOM     88  F   UNL A   1      47.460  25.730  37.159  1.00  0.00    -0.200 F 
ENDBRANCH  55  78
ENDBRANCH  29  30
ENDBRANCH  22  24
ENDBRANCH  21  22
ENDBRANCH  20  21
ENDBRANCH  19  20
ENDBRANCH  18  19
ENDBRANCH  17  18
ENDBRANCH   1  17
TORSDOF 20
ENDMDL
MODEL 3
REMARK VINA RESULT:      -9.6      4.387     10.021
REMARK SMILES CN(C1CC1)S(=O)(=O)CC(=O)OCCOCCOCCOC(=O)c1ccc(-c2c3nc(c(-c4c(F)c(F)c(F)c(F)c4F)c4ccc([nH]4)c(-c4c(F)c(F)c(F)c(F)c4F)c4nc(c(-c5c(F)c(F)c(F)c(F)c5F)c5ccc2[nH]5)C=C4)C=C3)cc1
REMARK SMILES IDX 16 1 15 2 14 3 13 4 12 5 10 6 11 7 9 8 6 9 7 10 8 11 2 12
REMARK SMILES IDX 1 13 3 14 4 15 5 16 17 17 18 18 19 19 20 20 21 21 22 22
REMARK SMILES IDX 23 23 24 24 25 25 86 26 26 27 85 28 27 29 28 30 29 31 79 32
REMARK SMILES IDX 30 33 84 34 78 35 80 36 31 37 83 38 77 39 76 40 32 42 64 43
REMARK SMILES IDX 44 44 63 45 45 46 48 47 62 48 81 49 46 50 47 51 61 53 82 54
REMARK SMILES IDX 49 55 33 56 34 57 42 58 35 59 36 60 40 61 43 62 37 63 38 64
REMARK SMILES IDX 41 65 39 66 65 67 66 68 74 69 67 70 68 71 72 72 75 73 69 74
REMARK SMILES IDX 70 75 73 76 71 77 50 78 51 79 59 80 52 81 53 82 57 83 60 84
REMARK SMILES IDX 54 85 55 86 58 87 56 88
REMARK H PARENT 80 41 48 52
REMARK Flexibility Score: inf
ROOT
ATOM      1  C   UNL A   1      34.426  23.366  23.457  1.00  0.00     0.188 C 
ENDROOT
BRANCH   1   2
ATOM      2  O   UNL A   1      34.233  24.314  22.430  1.00  0.00    -0.376 OA
BRANCH   2   3
ATOM      3  C   UNL A   1      32.915  24.795  22.195  1.00  0.00     0.202 C 
BRANCH   3   4
ATOM      4  C   UNL A   1      31.924  24.904  23.364  1.00  0.00     0.261 C 
BRANCH   4   5
ATOM      5  O   UNL A   1      30.649  25.519  23.037  1.00  0.00    -0.462 OA
BRANCH   5   6
ATOM      6  C   UNL A   1      30.616  26.870  23.031  1.00  0.00     0.322 C 
ATOM      7  O   UNL A   1      30.627  27.522  21.983  1.00  0.00    -0.251 OA
BRANCH   6   8
ATOM      8  C   UNL A   1      30.530  27.619  24.316  1.00  0.00     0.276 C 
BRANCH   8   9
ATOM      9  S   UNL A   1      31.713  28.837  24.791  1.00  0.00     0.224 S 
ATOM     10  O   UNL A   1      31.010  30.103  24.860  1.00  0.00    -0.212 OA
ATOM     11  O   UNL A   1      32.894  28.728  23.958  1.00  0.00    -0.212 OA
BRANCH   9  12
ATOM     12  N   UNL A   1      32.138  28.459  26.418  1.00  0.00    -0.201 NA
ATOM     13  C   UNL A   1      31.389  27.281  26.949  1.00  0.00     0.124 C 
BRANCH  12  14
ATOM     14  C   UNL A   1      33.592  28.310  26.698  1.00  0.00     0.072 C 
ATOM     15  C   UNL A   1      34.596  29.345  26.263  1.00  0.00     0.022 C 
ATOM     16  C   UNL A   1      34.249  29.215  27.715  1.00  0.00     0.022 C 
ENDBRANCH  12  14
ENDBRANCH   9  12
ENDBRANCH   8   9
ENDBRANCH   6   8
ENDBRANCH   5   6
ENDBRANCH   4   5
ENDBRANCH   3   4
ENDBRANCH   2   3
ENDBRANCH   1   2
BRANCH   1  17
ATOM     17  C   UNL A   1      35.398  23.696  24.599  1.00  0.00     0.188 C 
BRANCH  17  18
ATOM     18  O   UNL A   1      35.419  22.947  25.787  1.00  0.00    -0.376 OA
BRANCH  18  19
ATOM     19  C   UNL A   1      35.660  21.553  25.723  1.00  0.00     0.202 C 
BRANCH  19  20
ATOM     20  C   UNL A   1      36.900  20.950  25.045  1.00  0.00     0.261 C 
BRANCH  20  21
ATOM     21  O   UNL A   1      38.068  21.784  24.977  1.00  0.00    -0.460 OA
BRANCH  21  22
ATOM     22  C   UNL A   1      39.028  21.481  25.885  1.00  0.00     0.338 C 
ATOM     23  O   UNL A   1      39.569  20.400  26.058  1.00  0.00    -0.246 OA
BRANCH  22  24
ATOM     24  C   UNL A   1      39.450  22.664  26.655  1.00  0.00     0.060 A 
ATOM     25  C   UNL A   1      39.000  23.928  26.278  1.00  0.00     0.016 A 
ATOM     26  C   UNL A   1      40.500  22.551  27.562  1.00  0.00     0.016 A 
ATOM     27  C   UNL A   1      39.652  25.073  26.707  1.00  0.00     0.010 A 
ATOM     28  C   UNL A   1      41.100  23.710  28.069  1.00  0.00     0.010 A 
ATOM     29  C   UNL A   1      40.710  24.982  27.610  1.00  0.00    -0.014 A 
BRANCH  29  30
ATOM     30  C   UNL A   1      41.467  26.207  27.970  1.00  0.00     0.031 A 
ATOM     31  C   UNL A   1      40.798  27.268  28.795  1.00  0.00     0.074 A 
ATOM     32  C   UNL A   1      42.761  26.347  27.622  1.00  0.00     0.049 A 
ATOM     33  N   UNL A   1      41.157  28.506  29.008  1.00  0.00    -0.248 NA
ATOM     34  C   UNL A   1      39.545  26.882  29.467  1.00  0.00     0.031 C 
ATOM     35  C   UNL A   1      43.572  25.339  26.935  1.00  0.00     0.029 A 
ATOM     36  N   UNL A   1      43.626  27.397  27.804  1.00  0.00    -0.354 N 
ATOM     37  C   UNL A   1      40.142  29.069  29.771  1.00  0.00     0.074 A 
ATOM     38  C   UNL A   1      39.156  28.033  29.996  1.00  0.00     0.031 C 
ATOM     39  C   UNL A   1      44.817  25.808  26.775  1.00  0.00     0.029 A 
ATOM     40  C   UNL A   1      44.857  27.193  27.229  1.00  0.00     0.049 A 
ATOM     41  H   UNL A   1      43.389  28.215  28.298  1.00  0.00     0.167 HD
ATOM     42  C   UNL A   1      40.045  30.341  30.225  1.00  0.00     0.037 A 
ATOM     43  C   UNL A   1      45.873  28.049  27.014  1.00  0.00     0.037 A 
ATOM     44  C   UNL A   1      41.067  31.337  30.027  1.00  0.00     0.049 A 
ATOM     45  C   UNL A   1      45.711  29.478  27.447  1.00  0.00     0.074 A 
ATOM     46  C   UNL A   1      41.073  32.663  30.421  1.00  0.00     0.029 A 
ATOM     47  N   UNL A   1      42.278  31.104  29.387  1.00  0.00    -0.354 N 
ATOM     48  N   UNL A   1      44.705  30.045  28.067  1.00  0.00    -0.248 NA
ATOM     49  C   UNL A   1      46.814  30.393  27.127  1.00  0.00     0.031 C 
ATOM     50  C   UNL A   1      42.264  33.245  29.975  1.00  0.00     0.029 A 
ATOM     51  C   UNL A   1      43.031  32.268  29.361  1.00  0.00     0.049 A 
ATOM     52  H   UNL A   1      42.560  30.241  29.008  1.00  0.00     0.167 HD
ATOM     53  C   UNL A   1      45.059  31.377  28.229  1.00  0.00     0.074 A 
ATOM     54  C   UNL A   1      46.382  31.527  27.659  1.00  0.00     0.031 C 
ATOM     55  C   UNL A   1      44.351  32.387  28.793  1.00  0.00     0.037 A 
BRANCH  42  56
ATOM     56  C   UNL A   1      38.770  30.742  30.912  1.00  0.00     0.064 A 
ATOM     57  C   UNL A   1      37.616  31.112  30.205  1.00  0.00     0.173 A 
ATOM     58  C   UNL A   1      38.704  30.744  32.314  1.00  0.00     0.173 A 
ATOM     59  F   UNL A   1      37.628  31.145  28.863  1.00  0.00    -0.203 F 
ATOM     60  C   UNL A   1      36.457  31.498  30.875  1.00  0.00     0.198 A 
ATOM     61  C   UNL A   1      37.533  31.098  32.981  1.00  0.00     0.198 A 
ATOM     62  F   UNL A   1      39.775  30.398  33.043  1.00  0.00    -0.203 F 
ATOM     63  F   UNL A   1      35.386  31.904  30.179  1.00  0.00    -0.200 F 
ATOM     64  C   UNL A   1      36.414  31.485  32.262  1.00  0.00     0.200 A 
ATOM     65  F   UNL A   1      37.492  31.069  34.320  1.00  0.00    -0.200 F 
ATOM     66  F   UNL A   1      35.297  31.853  32.903  1.00  0.00    -0.200 F 
ENDBRANCH  42  56
BRANCH  43  67
ATOM     67  C   UNL A   1      47.085  27.592  26.279  1.00  0.00     0.064 A 
ATOM     68  C   UNL A   1      47.135  27.609  24.879  1.00  0.00     0.173 A 
ATOM     69  C   UNL A   1      48.223  27.134  26.963  1.00  0.00     0.173 A 
ATOM     70  F   UNL A   1      46.067  28.012  24.176  1.00  0.00    -0.203 F 
ATOM     71  C   UNL A   1      48.270  27.179  24.193  1.00  0.00     0.198 A 
ATOM     72  C   UNL A   1      49.370  26.742  26.279  1.00  0.00     0.198 A 
ATOM     73  F   UNL A   1      48.230  27.093  28.304  1.00  0.00    -0.203 F 
ATOM     74  F   UNL A   1      48.275  27.163  22.854  1.00  0.00    -0.200 F 
ATOM     75  C   UNL A   1      49.390  26.756  24.894  1.00  0.00     0.200 A 
ATOM     76  F   UNL A   1      50.456  26.356  26.962  1.00  0.00    -0.200 F 
ATOM     77  F   UNL A   1      50.486  26.358  24.235  1.00  0.00    -0.200 F 
ENDBRANCH  43  67
BRANCH  55  78
ATOM     78  C   UNL A   1      45.019  33.729  28.865  1.00  0.00     0.064 A 
ATOM     79  C   UNL A   1      44.917  34.664  27.824  1.00  0.00     0.173 A 
ATOM     80  C   UNL A   1      45.750  34.093  30.006  1.00  0.00     0.173 A 
ATOM     81  F   UNL A   1      44.244  34.357  26.705  1.00  0.00    -0.203 F 
ATOM     82  C   UNL A   1      45.549  35.902  27.911  1.00  0.00     0.198 A 
ATOM     83  C   UNL A   1      46.350  35.344  30.104  1.00  0.00     0.198 A 
ATOM     84  F   UNL A   1      45.874  33.236  31.031  1.00  0.00    -0.203 F 
ATOM     85  F   UNL A   1      45.485  36.757  26.882  1.00  0.00    -0.200 F 
ATOM     86  C   UNL A   1      46.256  36.243  29.054  1.00  0.00     0.200 A 
ATOM     87  F   UNL A   1      47.021  35.678  31.215  1.00  0.00    -0.200 F 
ATOM     88  F   UNL A   1      46.858  37.438  29.138  1.00  0.00    -0.200 F 
ENDBRANCH  55  78
ENDBRANCH  29  30
ENDBRANCH  22  24
ENDBRANCH  21  22
ENDBRANCH  20  21
ENDBRANCH  19  20
ENDBRANCH  18  19
ENDBRANCH  17  18
ENDBRANCH   1  17
TORSDOF 20
ENDMDL
