MODEL 1
REMARK VINA RESULT:     -12.8      0.000      0.000
REMARK SMILES Cc1ccc(-c2cc(C[C@H]3CCCC3=O)ccc2[C@@H](C)C(=O)OCCOCCOCCOC(=O)c2ccc(-c3c4nc(c(-c5c(F)c(F)c(F)c(F)c5F)c5ccc([nH]5)c(-c5c(F)c(F)c(F)c(F)c5F)c5nc(c(-c6c(F)c(F)c(F)c(F)c6F)c6ccc3[nH]6)C=C5)C=C4)cc2)cc1
REMARK SMILES IDX 27 1 26 2 25 3 24 4 23 5 21 6 22 7 19 8 20 9 18 10 6 11 7 12
REMARK SMILES IDX 8 13 17 14 16 15 5 16 1 17 2 18 3 19 99 20 4 21 98 22 9 23
REMARK SMILES IDX 10 24 11 25 14 26 12 27 13 28 15 29 28 30 29 31 30 32 31 33
REMARK SMILES IDX 32 34 33 35 34 36 35 37 36 38 97 39 37 40 96 41 38 42 39 43
REMARK SMILES IDX 40 44 90 45 41 46 95 47 89 48 91 49 42 50 94 51 88 52 87 53
REMARK SMILES IDX 43 55 75 56 55 57 74 58 56 59 59 60 73 61 92 62 57 63 58 64
REMARK SMILES IDX 72 66 93 67 60 68 44 69 45 70 53 71 46 72 47 73 51 74 54 75
REMARK SMILES IDX 48 76 49 77 52 78 50 79 76 80 77 81 85 82 78 83 79 84 83 85
REMARK SMILES IDX 86 86 80 87 81 88 84 89 82 90 61 91 62 92 70 93 63 94 64 95
REMARK SMILES IDX 68 96 71 97 65 98 66 99 69 100 67 101
REMARK H PARENT 91 54 59 65
REMARK Flexibility Score: inf
ROOT
ATOM      1  C   UNL A   1      30.421  28.502  23.539  1.00  0.00     0.188 C 
ENDROOT
BRANCH   1   2
ATOM      2  O   UNL A   1      29.551  27.525  24.057  1.00  0.00    -0.376 OA
BRANCH   2   3
ATOM      3  C   UNL A   1      30.209  26.304  24.367  1.00  0.00     0.202 C 
BRANCH   3   4
ATOM      4  C   UNL A   1      30.386  25.863  25.903  1.00  0.00     0.261 C 
BRANCH   4   5
ATOM      5  O   UNL A   1      30.817  24.447  26.688  1.00  0.00    -0.463 OA
BRANCH   5   6
ATOM      6  C   UNL A   1      31.848  23.447  26.640  1.00  0.00     0.313 C 
ATOM      7  O   UNL A   1      32.168  23.053  27.769  1.00  0.00    -0.252 OA
BRANCH   6   8
ATOM      8  C   UNL A   1      32.554  22.554  25.447  1.00  0.00     0.127 C 
ATOM      9  C   UNL A   1      31.762  21.229  25.252  1.00  0.00     0.025 C 
BRANCH   8  10
ATOM     10  C   UNL A   1      34.088  22.301  25.120  1.00  0.00    -0.026 A 
ATOM     11  C   UNL A   1      34.945  23.356  24.732  1.00  0.00    -0.014 A 
ATOM     12  C   UNL A   1      36.361  23.199  24.791  1.00  0.00     0.012 A 
ATOM     13  C   UNL A   1      36.981  21.998  25.183  1.00  0.00    -0.047 A 
ATOM     14  C   UNL A   1      34.723  21.043  25.280  1.00  0.00     0.005 A 
ATOM     15  C   UNL A   1      36.135  20.902  25.349  1.00  0.00     0.004 A 
BRANCH  11  16
ATOM     16  C   UNL A   1      34.384  24.592  24.201  1.00  0.00    -0.018 A 
ATOM     17  C   UNL A   1      33.418  28.418  22.497  1.00  0.00     0.044 C 
ATOM     18  C   UNL A   1      33.666  27.079  23.123  1.00  0.00    -0.051 A 
ATOM     19  C   UNL A   1      33.662  25.929  22.323  1.00  0.00     0.004 A 
ATOM     20  C   UNL A   1      33.997  26.975  24.476  1.00  0.00     0.004 A 
ATOM     21  C   UNL A   1      34.010  24.692  22.859  1.00  0.00     0.009 A 
ATOM     22  C   UNL A   1      34.351  25.739  25.013  1.00  0.00     0.009 A 
ENDBRANCH  11  16
BRANCH  13  23
ATOM     23  C   UNL A   1      38.499  21.872  25.220  1.00  0.00     0.047 C 
BRANCH  23  24
ATOM     24  C   UNL A   1      39.323  21.577  26.492  1.00  0.00     0.060 C 
ATOM     25  C   UNL A   1      40.396  20.493  26.421  1.00  0.00     0.012 C 
ATOM     26  C   UNL A   1      40.051  22.712  27.170  1.00  0.00     0.136 C 
ATOM     27  C   UNL A   1      41.407  20.797  27.533  1.00  0.00     0.009 C 
ATOM     28  C   UNL A   1      41.189  22.217  28.020  1.00  0.00     0.076 C 
ATOM     29  O   UNL A   1      39.692  23.884  27.156  1.00  0.00    -0.299 OA
ENDBRANCH  23  24
ENDBRANCH  13  23
ENDBRANCH   8  10
ENDBRANCH   6   8
ENDBRANCH   5   6
ENDBRANCH   4   5
ENDBRANCH   3   4
ENDBRANCH   2   3
ENDBRANCH   1   2
BRANCH   1  30
ATOM     30  C   UNL A   1      30.664  29.701  24.460  1.00  0.00     0.188 C 
BRANCH  30  31
ATOM     31  O   UNL A   1      31.477  29.370  25.588  1.00  0.00    -0.376 OA
BRANCH  31  32
ATOM     32  C   UNL A   1      32.697  30.067  25.774  1.00  0.00     0.202 C 
BRANCH  32  33
ATOM     33  C   UNL A   1      32.985  30.386  27.238  1.00  0.00     0.261 C 
BRANCH  33  34
ATOM     34  O   UNL A   1      34.115  31.268  27.269  1.00  0.00    -0.460 OA
BRANCH  34  35
ATOM     35  C   UNL A   1      33.890  32.417  27.927  1.00  0.00     0.338 C 
ATOM     36  O   UNL A   1      32.975  33.215  27.673  1.00  0.00    -0.246 OA
BRANCH  35  37
ATOM     37  C   UNL A   1      34.998  32.670  28.886  1.00  0.00     0.060 A 
ATOM     38  C   UNL A   1      36.141  33.126  28.324  1.00  0.00     0.016 A 
ATOM     39  C   UNL A   1      35.073  32.224  30.217  1.00  0.00     0.016 A 
ATOM     40  C   UNL A   1      37.331  32.855  29.003  1.00  0.00     0.010 A 
ATOM     41  C   UNL A   1      36.325  32.007  30.881  1.00  0.00     0.010 A 
ATOM     42  C   UNL A   1      37.543  32.211  30.235  1.00  0.00    -0.014 A 
BRANCH  42  43
ATOM     43  C   UNL A   1      38.875  31.489  30.771  1.00  0.00     0.031 A 
ATOM     44  C   UNL A   1      39.145  30.155  30.178  1.00  0.00     0.074 A 
ATOM     45  C   UNL A   1      39.883  31.836  31.695  1.00  0.00     0.049 A 
ATOM     46  N   UNL A   1      39.938  29.275  30.704  1.00  0.00    -0.248 NA
ATOM     47  C   UNL A   1      38.390  29.630  29.038  1.00  0.00     0.031 C 
ATOM     48  C   UNL A   1      41.338  31.629  31.531  1.00  0.00     0.029 A 
ATOM     49  N   UNL A   1      39.925  32.557  32.902  1.00  0.00    -0.354 N 
ATOM     50  C   UNL A   1      40.108  28.321  29.737  1.00  0.00     0.074 A 
ATOM     51  C   UNL A   1      38.910  28.404  28.955  1.00  0.00     0.031 C 
ATOM     52  C   UNL A   1      42.035  32.135  32.579  1.00  0.00     0.029 A 
ATOM     53  C   UNL A   1      41.113  32.611  33.599  1.00  0.00     0.049 A 
ATOM     54  H   UNL A   1      39.122  33.014  33.242  1.00  0.00     0.167 HD
ATOM     55  C   UNL A   1      41.360  27.834  29.507  1.00  0.00     0.037 A 
ATOM     56  C   UNL A   1      41.204  32.644  34.973  1.00  0.00     0.037 A 
ATOM     57  C   UNL A   1      42.286  28.201  30.593  1.00  0.00     0.049 A 
ATOM     58  C   UNL A   1      41.849  31.347  35.355  1.00  0.00     0.074 A 
ATOM     59  C   UNL A   1      43.398  29.028  30.645  1.00  0.00     0.029 A 
ATOM     60  N   UNL A   1      41.975  27.896  31.923  1.00  0.00    -0.354 N 
ATOM     61  N   UNL A   1      41.970  30.397  34.479  1.00  0.00    -0.248 NA
ATOM     62  C   UNL A   1      42.366  30.970  36.665  1.00  0.00     0.031 C 
ATOM     63  C   UNL A   1      43.736  29.232  32.011  1.00  0.00     0.029 A 
ATOM     64  C   UNL A   1      42.865  28.495  32.798  1.00  0.00     0.049 A 
ATOM     65  H   UNL A   1      41.219  27.329  32.201  1.00  0.00     0.167 HD
ATOM     66  C   UNL A   1      42.587  29.333  35.024  1.00  0.00     0.074 A 
ATOM     67  C   UNL A   1      42.803  29.721  36.407  1.00  0.00     0.031 C 
ATOM     68  C   UNL A   1      42.823  28.246  34.243  1.00  0.00     0.037 A 
BRANCH  55  69
ATOM     69  C   UNL A   1      41.820  27.273  28.157  1.00  0.00     0.064 A 
ATOM     70  C   UNL A   1      42.388  25.981  28.089  1.00  0.00     0.173 A 
ATOM     71  C   UNL A   1      41.825  27.957  26.916  1.00  0.00     0.173 A 
ATOM     72  F   UNL A   1      42.475  25.200  29.175  1.00  0.00    -0.203 F 
ATOM     73  C   UNL A   1      42.907  25.439  26.903  1.00  0.00     0.198 A 
ATOM     74  C   UNL A   1      42.296  27.397  25.725  1.00  0.00     0.198 A 
ATOM     75  F   UNL A   1      41.432  29.222  26.773  1.00  0.00    -0.203 F 
ATOM     76  F   UNL A   1      43.481  24.228  26.920  1.00  0.00    -0.200 F 
ATOM     77  C   UNL A   1      42.846  26.142  25.717  1.00  0.00     0.200 A 
ATOM     78  F   UNL A   1      42.232  28.113  24.592  1.00  0.00    -0.200 F 
ATOM     79  F   UNL A   1      43.327  25.622  24.581  1.00  0.00    -0.200 F 
ENDBRANCH  55  69
BRANCH  56  80
ATOM     80  C   UNL A   1      40.130  33.319  35.808  1.00  0.00     0.064 A 
ATOM     81  C   UNL A   1      39.103  32.548  36.384  1.00  0.00     0.173 A 
ATOM     82  C   UNL A   1      40.212  34.642  36.271  1.00  0.00     0.173 A 
ATOM     83  F   UNL A   1      38.811  31.341  35.878  1.00  0.00    -0.203 F 
ATOM     84  C   UNL A   1      38.395  32.981  37.514  1.00  0.00     0.198 A 
ATOM     85  C   UNL A   1      39.585  35.037  37.467  1.00  0.00     0.198 A 
ATOM     86  F   UNL A   1      40.999  35.532  35.650  1.00  0.00    -0.203 F 
ATOM     87  F   UNL A   1      37.459  32.198  38.071  1.00  0.00    -0.200 F 
ATOM     88  C   UNL A   1      38.723  34.178  38.121  1.00  0.00     0.200 A 
ATOM     89  F   UNL A   1      39.887  36.215  38.033  1.00  0.00    -0.200 F 
ATOM     90  F   UNL A   1      38.236  34.483  39.334  1.00  0.00    -0.200 F 
ENDBRANCH  56  80
BRANCH  68  91
ATOM     91  C   UNL A   1      43.182  26.902  34.780  1.00  0.00     0.064 A 
ATOM     92  C   UNL A   1      42.233  25.931  35.136  1.00  0.00     0.173 A 
ATOM     93  C   UNL A   1      44.532  26.499  34.830  1.00  0.00     0.173 A 
ATOM     94  F   UNL A   1      40.919  26.135  34.974  1.00  0.00    -0.203 F 
ATOM     95  C   UNL A   1      42.614  24.684  35.621  1.00  0.00     0.198 A 
ATOM     96  C   UNL A   1      44.905  25.227  35.241  1.00  0.00     0.198 A 
ATOM     97  F   UNL A   1      45.530  27.314  34.458  1.00  0.00    -0.203 F 
ATOM     98  F   UNL A   1      41.675  23.815  36.020  1.00  0.00    -0.200 F 
ATOM     99  C   UNL A   1      43.949  24.330  35.666  1.00  0.00     0.200 A 
ATOM    100  F   UNL A   1      46.197  24.874  35.206  1.00  0.00    -0.200 F 
ATOM    101  F   UNL A   1      44.311  23.116  36.096  1.00  0.00    -0.200 F 
ENDBRANCH  68  91
ENDBRANCH  42  43
ENDBRANCH  35  37
ENDBRANCH  34  35
ENDBRANCH  33  34
ENDBRANCH  32  33
ENDBRANCH  31  32
ENDBRANCH  30  31
ENDBRANCH   1  30
TORSDOF 21
ENDMDL
MODEL 2
REMARK VINA RESULT:     -12.1      1.552      2.778
REMARK SMILES Cc1ccc(-c2cc(C[C@H]3CCCC3=O)ccc2[C@@H](C)C(=O)OCCOCCOCCOC(=O)c2ccc(-c3c4nc(c(-c5c(F)c(F)c(F)c(F)c5F)c5ccc([nH]5)c(-c5c(F)c(F)c(F)c(F)c5F)c5nc(c(-c6c(F)c(F)c(F)c(F)c6F)c6ccc3[nH]6)C=C5)C=C4)cc2)cc1
REMARK SMILES IDX 27 1 26 2 25 3 24 4 23 5 21 6 22 7 19 8 20 9 18 10 6 11 7 12
REMARK SMILES IDX 8 13 17 14 16 15 5 16 1 17 2 18 3 19 99 20 4 21 98 22 9 23
REMARK SMILES IDX 10 24 11 25 14 26 12 27 13 28 15 29 28 30 29 31 30 32 31 33
REMARK SMILES IDX 32 34 33 35 34 36 35 37 36 38 97 39 37 40 96 41 38 42 39 43
REMARK SMILES IDX 40 44 90 45 41 46 95 47 89 48 91 49 42 50 94 51 88 52 87 53
REMARK SMILES IDX 43 55 75 56 55 57 74 58 56 59 59 60 73 61 92 62 57 63 58 64
REMARK SMILES IDX 72 66 93 67 60 68 44 69 45 70 53 71 46 72 47 73 51 74 54 75
REMARK SMILES IDX 48 76 49 77 52 78 50 79 76 80 77 81 85 82 78 83 79 84 83 85
REMARK SMILES IDX 86 86 80 87 81 88 84 89 82 90 61 91 62 92 70 93 63 94 64 95
REMARK SMILES IDX 68 96 71 97 65 98 66 99 69 100 67 101
REMARK H PARENT 91 54 59 65
REMARK Flexibility Score: inf
ROOT
ATOM      1  C   UNL A   1      33.675  28.655  25.012  1.00  0.00     0.188 C 
ENDROOT
BRANCH   1   2
ATOM      2  O   UNL A   1      33.986  27.666  24.062  1.00  0.00    -0.376 OA
BRANCH   2   3
ATOM      3  C   UNL A   1      33.058  27.618  22.987  1.00  0.00     0.202 C 
BRANCH   3   4
ATOM      4  C   UNL A   1      32.900  26.265  22.132  1.00  0.00     0.261 C 
BRANCH   4   5
ATOM      5  O   UNL A   1      33.106  24.632  22.449  1.00  0.00    -0.463 OA
BRANCH   5   6
ATOM      6  C   UNL A   1      34.042  23.760  23.104  1.00  0.00     0.313 C 
ATOM      7  O   UNL A   1      34.862  23.278  22.313  1.00  0.00    -0.252 OA
BRANCH   6   8
ATOM      8  C   UNL A   1      34.414  23.415  24.673  1.00  0.00     0.127 C 
ATOM      9  C   UNL A   1      33.770  24.480  25.606  1.00  0.00     0.025 C 
BRANCH   8  10
ATOM     10  C   UNL A   1      35.771  22.902  25.321  1.00  0.00    -0.026 A 
ATOM     11  C   UNL A   1      36.133  21.536  25.295  1.00  0.00    -0.014 A 
ATOM     12  C   UNL A   1      37.479  21.137  25.544  1.00  0.00     0.012 A 
ATOM     13  C   UNL A   1      38.498  22.050  25.871  1.00  0.00    -0.047 A 
ATOM     14  C   UNL A   1      36.746  23.768  25.880  1.00  0.00     0.005 A 
ATOM     15  C   UNL A   1      38.087  23.361  26.112  1.00  0.00     0.004 A 
BRANCH  11  16
ATOM     16  C   UNL A   1      35.113  20.517  25.079  1.00  0.00    -0.018 A 
ATOM     17  C   UNL A   1      32.326  17.245  25.082  1.00  0.00     0.044 C 
ATOM     18  C   UNL A   1      33.276  18.400  24.991  1.00  0.00    -0.051 A 
ATOM     19  C   UNL A   1      32.895  19.653  25.488  1.00  0.00     0.004 A 
ATOM     20  C   UNL A   1      34.573  18.219  24.503  1.00  0.00     0.004 A 
ATOM     21  C   UNL A   1      33.804  20.707  25.525  1.00  0.00     0.009 A 
ATOM     22  C   UNL A   1      35.485  19.271  24.544  1.00  0.00     0.009 A 
ENDBRANCH  11  16
BRANCH  13  23
ATOM     23  C   UNL A   1      39.922  21.578  26.142  1.00  0.00     0.047 C 
BRANCH  23  24
ATOM     24  C   UNL A   1      41.061  22.481  26.660  1.00  0.00     0.060 C 
ATOM     25  C   UNL A   1      41.205  22.665  28.168  1.00  0.00     0.012 C 
ATOM     26  C   UNL A   1      42.478  22.188  26.230  1.00  0.00     0.136 C 
ATOM     27  C   UNL A   1      42.662  23.067  28.429  1.00  0.00     0.009 C 
ATOM     28  C   UNL A   1      43.483  22.767  27.188  1.00  0.00     0.076 C 
ATOM     29  O   UNL A   1      42.796  21.668  25.167  1.00  0.00    -0.299 OA
ENDBRANCH  23  24
ENDBRANCH  13  23
ENDBRANCH   8  10
ENDBRANCH   6   8
ENDBRANCH   5   6
ENDBRANCH   4   5
ENDBRANCH   3   4
ENDBRANCH   2   3
ENDBRANCH   1   2
BRANCH   1  30
ATOM     30  C   UNL A   1      34.153  28.352  26.436  1.00  0.00     0.188 C 
BRANCH  30  31
ATOM     31  O   UNL A   1      33.607  29.254  27.401  1.00  0.00    -0.376 OA
BRANCH  31  32
ATOM     32  C   UNL A   1      32.376  29.894  27.113  1.00  0.00     0.202 C 
BRANCH  32  33
ATOM     33  C   UNL A   1      32.501  31.412  27.017  1.00  0.00     0.261 C 
BRANCH  33  34
ATOM     34  O   UNL A   1      33.671  31.792  27.753  1.00  0.00    -0.460 OA
BRANCH  34  35
ATOM     35  C   UNL A   1      33.599  33.021  28.291  1.00  0.00     0.338 C 
ATOM     36  O   UNL A   1      32.832  33.920  27.912  1.00  0.00    -0.246 OA
BRANCH  35  37
ATOM     37  C   UNL A   1      34.689  33.196  29.287  1.00  0.00     0.060 A 
ATOM     38  C   UNL A   1      35.827  33.738  28.793  1.00  0.00     0.016 A 
ATOM     39  C   UNL A   1      34.761  32.611  30.563  1.00  0.00     0.016 A 
ATOM     40  C   UNL A   1      37.016  33.425  29.455  1.00  0.00     0.010 A 
ATOM     41  C   UNL A   1      36.011  32.354  31.217  1.00  0.00     0.010 A 
ATOM     42  C   UNL A   1      37.230  32.657  30.614  1.00  0.00    -0.014 A 
BRANCH  42  43
ATOM     43  C   UNL A   1      38.574  31.914  31.087  1.00  0.00     0.031 A 
ATOM     44  C   UNL A   1      38.838  30.614  30.421  1.00  0.00     0.074 A 
ATOM     45  C   UNL A   1      39.598  32.218  32.009  1.00  0.00     0.049 A 
ATOM     46  N   UNL A   1      39.644  29.711  30.886  1.00  0.00    -0.248 NA
ATOM     47  C   UNL A   1      38.064  30.145  29.270  1.00  0.00     0.031 C 
ATOM     48  C   UNL A   1      41.051  32.026  31.808  1.00  0.00     0.029 A 
ATOM     49  N   UNL A   1      39.660  32.876  33.250  1.00  0.00    -0.354 N 
ATOM     50  C   UNL A   1      39.800  28.810  29.869  1.00  0.00     0.074 A 
ATOM     51  C   UNL A   1      38.587  28.928  29.113  1.00  0.00     0.031 C 
ATOM     52  C   UNL A   1      41.765  32.481  32.868  1.00  0.00     0.029 A 
ATOM     53  C   UNL A   1      40.861  32.899  33.928  1.00  0.00     0.049 A 
ATOM     54  H   UNL A   1      38.862  33.311  33.628  1.00  0.00     0.167 HD
ATOM     55  C   UNL A   1      41.048  28.341  29.590  1.00  0.00     0.037 A 
ATOM     56  C   UNL A   1      40.977  32.861  35.300  1.00  0.00     0.037 A 
ATOM     57  C   UNL A   1      41.994  28.656  30.677  1.00  0.00     0.049 A 
ATOM     58  C   UNL A   1      41.633  31.550  35.603  1.00  0.00     0.074 A 
ATOM     59  C   UNL A   1      43.103  29.484  30.751  1.00  0.00     0.029 A 
ATOM     60  N   UNL A   1      41.708  28.281  31.995  1.00  0.00    -0.354 N 
ATOM     61  N   UNL A   1      41.742  30.647  34.676  1.00  0.00    -0.248 NA
ATOM     62  C   UNL A   1      42.176  31.107  36.881  1.00  0.00     0.031 C 
ATOM     63  C   UNL A   1      43.466  29.619  32.119  1.00  0.00     0.029 A 
ATOM     64  C   UNL A   1      42.612  28.838  32.883  1.00  0.00     0.049 A 
ATOM     65  H   UNL A   1      40.960  27.697  32.256  1.00  0.00     0.167 HD
ATOM     66  C   UNL A   1      42.372  29.559  35.154  1.00  0.00     0.074 A 
ATOM     67  C   UNL A   1      42.613  29.876  36.552  1.00  0.00     0.031 C 
ATOM     68  C   UNL A   1      42.598  28.515  34.313  1.00  0.00     0.037 A 
BRANCH  55  69
ATOM     69  C   UNL A   1      41.486  27.852  28.205  1.00  0.00     0.064 A 
ATOM     70  C   UNL A   1      40.801  26.781  27.588  1.00  0.00     0.173 A 
ATOM     71  C   UNL A   1      42.604  28.309  27.464  1.00  0.00     0.173 A 
ATOM     72  F   UNL A   1      39.727  26.220  28.159  1.00  0.00    -0.203 F 
ATOM     73  C   UNL A   1      41.200  26.229  26.361  1.00  0.00     0.198 A 
ATOM     74  C   UNL A   1      42.970  27.792  26.218  1.00  0.00     0.198 A 
ATOM     75  F   UNL A   1      43.449  29.239  27.906  1.00  0.00    -0.203 F 
ATOM     76  F   UNL A   1      40.538  25.179  25.858  1.00  0.00    -0.200 F 
ATOM     77  C   UNL A   1      42.276  26.746  25.668  1.00  0.00     0.200 A 
ATOM     78  F   UNL A   1      44.029  28.310  25.576  1.00  0.00    -0.200 F 
ATOM     79  F   UNL A   1      42.650  26.231  24.490  1.00  0.00    -0.200 F 
ENDBRANCH  55  69
BRANCH  56  80
ATOM     80  C   UNL A   1      39.916  33.488  36.188  1.00  0.00     0.064 A 
ATOM     81  C   UNL A   1      38.930  32.676  36.780  1.00  0.00     0.173 A 
ATOM     82  C   UNL A   1      39.981  34.801  36.681  1.00  0.00     0.173 A 
ATOM     83  F   UNL A   1      38.652  31.474  36.254  1.00  0.00    -0.203 F 
ATOM     84  C   UNL A   1      38.251  33.063  37.944  1.00  0.00     0.198 A 
ATOM     85  C   UNL A   1      39.386  35.151  37.907  1.00  0.00     0.198 A 
ATOM     86  F   UNL A   1      40.722  35.726  36.055  1.00  0.00    -0.203 F 
ATOM     87  F   UNL A   1      37.356  32.243  38.513  1.00  0.00    -0.200 F 
ATOM     88  C   UNL A   1      38.570  34.253  38.569  1.00  0.00     0.200 A 
ATOM     89  F   UNL A   1      39.677  36.322  38.491  1.00  0.00    -0.200 F 
ATOM     90  F   UNL A   1      38.118  34.516  39.806  1.00  0.00    -0.200 F 
ENDBRANCH  56  80
BRANCH  68  91
ATOM     91  C   UNL A   1      42.971  27.146  34.774  1.00  0.00     0.064 A 
ATOM     92  C   UNL A   1      42.042  26.112  34.963  1.00  0.00     0.173 A 
ATOM     93  C   UNL A   1      44.330  26.796  34.917  1.00  0.00     0.173 A 
ATOM     94  F   UNL A   1      40.739  26.275  34.697  1.00  0.00    -0.203 F 
ATOM     95  C   UNL A   1      42.438  24.845  35.381  1.00  0.00     0.198 A 
ATOM     96  C   UNL A   1      44.725  25.510  35.259  1.00  0.00     0.198 A 
ATOM     97  F   UNL A   1      45.317  27.678  34.704  1.00  0.00    -0.203 F 
ATOM     98  F   UNL A   1      41.509  23.909  35.623  1.00  0.00    -0.200 F 
ATOM     99  C   UNL A   1      43.779  24.543  35.522  1.00  0.00     0.200 A 
ATOM    100  F   UNL A   1      46.030  25.214  35.315  1.00  0.00    -0.200 F 
ATOM    101  F   UNL A   1      44.158  23.313  35.886  1.00  0.00    -0.200 F 
ENDBRANCH  68  91
ENDBRANCH  42  43
ENDBRANCH  35  37
ENDBRANCH  34  35
ENDBRANCH  33  34
ENDBRANCH  32  33
ENDBRANCH  31  32
ENDBRANCH  30  31
ENDBRANCH   1  30
TORSDOF 21
ENDMDL
MODEL 3
REMARK VINA RESULT:     -12.0      4.335     11.109
REMARK SMILES Cc1ccc(-c2cc(C[C@H]3CCCC3=O)ccc2[C@@H](C)C(=O)OCCOCCOCCOC(=O)c2ccc(-c3c4nc(c(-c5c(F)c(F)c(F)c(F)c5F)c5ccc([nH]5)c(-c5c(F)c(F)c(F)c(F)c5F)c5nc(c(-c6c(F)c(F)c(F)c(F)c6F)c6ccc3[nH]6)C=C5)C=C4)cc2)cc1
REMARK SMILES IDX 27 1 26 2 25 3 24 4 23 5 21 6 22 7 19 8 20 9 18 10 6 11 7 12
REMARK SMILES IDX 8 13 17 14 16 15 5 16 1 17 2 18 3 19 99 20 4 21 98 22 9 23
REMARK SMILES IDX 10 24 11 25 14 26 12 27 13 28 15 29 28 30 29 31 30 32 31 33
REMARK SMILES IDX 32 34 33 35 34 36 35 37 36 38 97 39 37 40 96 41 38 42 39 43
REMARK SMILES IDX 40 44 90 45 41 46 95 47 89 48 91 49 42 50 94 51 88 52 87 53
REMARK SMILES IDX 43 55 75 56 55 57 74 58 56 59 59 60 73 61 92 62 57 63 58 64
REMARK SMILES IDX 72 66 93 67 60 68 44 69 45 70 53 71 46 72 47 73 51 74 54 75
REMARK SMILES IDX 48 76 49 77 52 78 50 79 76 80 77 81 85 82 78 83 79 84 83 85
REMARK SMILES IDX 86 86 80 87 81 88 84 89 82 90 61 91 62 92 70 93 63 94 64 95
REMARK SMILES IDX 68 96 71 97 65 98 66 99 69 100 67 101
REMARK H PARENT 91 54 59 65
REMARK Flexibility Score: inf
ROOT
ATOM      1  C   UNL A   1      39.758  21.397  26.104  1.00  0.00     0.188 C 
ENDROOT
BRANCH   1   2
ATOM      2  O   UNL A   1      38.595  21.702  25.375  1.00  0.00    -0.376 OA
BRANCH   2   3
ATOM      3  C   UNL A   1      37.826  20.552  25.050  1.00  0.00     0.202 C 
BRANCH   3   4
ATOM      4  C   UNL A   1      36.249  20.702  24.775  1.00  0.00     0.261 C 
BRANCH   4   5
ATOM      5  O   UNL A   1      35.209  21.989  24.506  1.00  0.00    -0.463 OA
BRANCH   5   6
ATOM      6  C   UNL A   1      35.212  23.274  23.863  1.00  0.00     0.313 C 
ATOM      7  O   UNL A   1      35.734  23.233  22.742  1.00  0.00    -0.252 OA
BRANCH   6   8
ATOM      8  C   UNL A   1      34.508  24.733  24.169  1.00  0.00     0.127 C 
ATOM      9  C   UNL A   1      34.615  25.054  25.687  1.00  0.00     0.025 C 
BRANCH   8  10
ATOM     10  C   UNL A   1      33.175  25.375  23.590  1.00  0.00    -0.026 A 
ATOM     11  C   UNL A   1      31.932  24.708  23.685  1.00  0.00    -0.014 A 
ATOM     12  C   UNL A   1      30.710  25.421  23.500  1.00  0.00     0.012 A 
ATOM     13  C   UNL A   1      30.665  26.788  23.173  1.00  0.00    -0.047 A 
ATOM     14  C   UNL A   1      33.113  26.678  23.033  1.00  0.00     0.005 A 
ATOM     15  C   UNL A   1      31.890  27.381  22.865  1.00  0.00     0.004 A 
BRANCH  11  16
ATOM     16  C   UNL A   1      31.893  23.268  23.904  1.00  0.00    -0.018 A 
ATOM     17  C   UNL A   1      32.506  19.065  24.563  1.00  0.00     0.044 C 
ATOM     18  C   UNL A   1      32.202  20.511  24.313  1.00  0.00    -0.051 A 
ATOM     19  C   UNL A   1      31.992  21.372  25.397  1.00  0.00     0.004 A 
ATOM     20  C   UNL A   1      32.222  21.030  23.016  1.00  0.00     0.004 A 
ATOM     21  C   UNL A   1      31.830  22.740  25.195  1.00  0.00     0.009 A 
ATOM     22  C   UNL A   1      32.065  22.399  22.812  1.00  0.00     0.009 A 
ENDBRANCH  11  16
BRANCH  13  23
ATOM     23  C   UNL A   1      29.336  27.507  22.973  1.00  0.00     0.047 C 
BRANCH  23  24
ATOM     24  C   UNL A   1      29.059  28.968  23.387  1.00  0.00     0.060 C 
ATOM     25  C   UNL A   1      30.043  30.044  22.936  1.00  0.00     0.012 C 
ATOM     26  C   UNL A   1      27.724  29.582  23.046  1.00  0.00     0.136 C 
ATOM     27  C   UNL A   1      29.280  31.374  22.944  1.00  0.00     0.009 C 
ATOM     28  C   UNL A   1      27.792  31.086  23.019  1.00  0.00     0.076 C 
ATOM     29  O   UNL A   1      26.672  28.962  22.940  1.00  0.00    -0.299 OA
ENDBRANCH  23  24
ENDBRANCH  13  23
ENDBRANCH   8  10
ENDBRANCH   6   8
ENDBRANCH   5   6
ENDBRANCH   4   5
ENDBRANCH   3   4
ENDBRANCH   2   3
ENDBRANCH   1   2
BRANCH   1  30
ATOM     30  C   UNL A   1      40.004  19.901  26.326  1.00  0.00     0.188 C 
BRANCH  30  31
ATOM     31  O   UNL A   1      41.085  19.400  25.535  1.00  0.00    -0.376 OA
BRANCH  31  32
ATOM     32  C   UNL A   1      42.088  18.626  26.170  1.00  0.00     0.202 C 
BRANCH  32  33
ATOM     33  C   UNL A   1      43.395  18.584  25.385  1.00  0.00     0.261 C 
BRANCH  33  34
ATOM     34  O   UNL A   1      44.180  19.711  25.799  1.00  0.00    -0.460 OA
BRANCH  34  35
ATOM     35  C   UNL A   1      44.085  20.770  24.979  1.00  0.00     0.338 C 
ATOM     36  O   UNL A   1      44.631  20.862  23.869  1.00  0.00    -0.246 OA
BRANCH  35  37
ATOM     37  C   UNL A   1      43.374  21.878  25.672  1.00  0.00     0.060 A 
ATOM     38  C   UNL A   1      43.022  22.913  24.873  1.00  0.00     0.016 A 
ATOM     39  C   UNL A   1      43.296  22.086  27.060  1.00  0.00     0.016 A 
ATOM     40  C   UNL A   1      42.888  24.163  25.482  1.00  0.00     0.010 A 
ATOM     41  C   UNL A   1      43.110  23.388  27.629  1.00  0.00     0.010 A 
ATOM     42  C   UNL A   1      43.012  24.529  26.834  1.00  0.00    -0.014 A 
BRANCH  42  43
ATOM     43  C   UNL A   1      43.331  25.977  27.453  1.00  0.00     0.031 A 
ATOM     44  C   UNL A   1      42.145  26.848  27.648  1.00  0.00     0.074 A 
ATOM     45  C   UNL A   1      44.506  26.633  27.876  1.00  0.00     0.049 A 
ATOM     46  N   UNL A   1      42.206  28.134  27.796  1.00  0.00    -0.248 NA
ATOM     47  C   UNL A   1      40.772  26.359  27.500  1.00  0.00     0.031 C 
ATOM     48  C   UNL A   1      44.665  27.458  29.093  1.00  0.00     0.029 A 
ATOM     49  N   UNL A   1      45.848  26.642  27.459  1.00  0.00    -0.354 N 
ATOM     50  C   UNL A   1      40.955  28.511  28.201  1.00  0.00     0.074 A 
ATOM     51  C   UNL A   1      40.097  27.499  27.658  1.00  0.00     0.031 C 
ATOM     52  C   UNL A   1      45.942  27.891  29.238  1.00  0.00     0.029 A 
ATOM     53  C   UNL A   1      46.726  27.511  28.074  1.00  0.00     0.049 A 
ATOM     54  H   UNL A   1      46.156  26.041  26.744  1.00  0.00     0.167 HD
ATOM     55  C   UNL A   1      40.835  29.411  29.217  1.00  0.00     0.037 A 
ATOM     56  C   UNL A   1      47.779  28.129  27.435  1.00  0.00     0.037 A 
ATOM     57  C   UNL A   1      42.118  30.081  29.493  1.00  0.00     0.049 A 
ATOM     58  C   UNL A   1      47.436  29.586  27.433  1.00  0.00     0.074 A 
ATOM     59  C   UNL A   1      42.981  30.056  30.579  1.00  0.00     0.029 A 
ATOM     60  N   UNL A   1      42.816  30.726  28.466  1.00  0.00    -0.354 N 
ATOM     61  N   UNL A   1      46.238  29.974  27.752  1.00  0.00    -0.248 NA
ATOM     62  C   UNL A   1      48.306  30.698  27.071  1.00  0.00     0.031 C 
ATOM     63  C   UNL A   1      44.203  30.669  30.189  1.00  0.00     0.029 A 
ATOM     64  C   UNL A   1      44.078  31.114  28.882  1.00  0.00     0.049 A 
ATOM     65  H   UNL A   1      42.456  30.883  27.563  1.00  0.00     0.167 HD
ATOM     66  C   UNL A   1      46.151  31.315  27.699  1.00  0.00     0.074 A 
ATOM     67  C   UNL A   1      47.466  31.737  27.247  1.00  0.00     0.031 C 
ATOM     68  C   UNL A   1      44.971  31.904  28.028  1.00  0.00     0.037 A 
BRANCH  55  69
ATOM     69  C   UNL A   1      39.627  29.477  30.158  1.00  0.00     0.064 A 
ATOM     70  C   UNL A   1      38.873  30.669  30.253  1.00  0.00     0.173 A 
ATOM     71  C   UNL A   1      39.200  28.467  31.055  1.00  0.00     0.173 A 
ATOM     72  F   UNL A   1      39.150  31.730  29.484  1.00  0.00    -0.203 F 
ATOM     73  C   UNL A   1      37.809  30.826  31.154  1.00  0.00     0.198 A 
ATOM     74  C   UNL A   1      38.108  28.607  31.917  1.00  0.00     0.198 A 
ATOM     75  F   UNL A   1      39.831  27.303  31.207  1.00  0.00    -0.203 F 
ATOM     76  F   UNL A   1      37.170  32.002  31.230  1.00  0.00    -0.200 F 
ATOM     77  C   UNL A   1      37.416  29.790  31.975  1.00  0.00     0.200 A 
ATOM     78  F   UNL A   1      37.760  27.583  32.710  1.00  0.00    -0.200 F 
ATOM     79  F   UNL A   1      36.392  29.932  32.825  1.00  0.00    -0.200 F 
ENDBRANCH  55  69
BRANCH  56  80
ATOM     80  C   UNL A   1      48.508  27.441  26.294  1.00  0.00     0.064 A 
ATOM     81  C   UNL A   1      48.123  27.695  24.964  1.00  0.00     0.173 A 
ATOM     82  C   UNL A   1      49.721  26.750  26.441  1.00  0.00     0.173 A 
ATOM     83  F   UNL A   1      46.897  28.171  24.704  1.00  0.00    -0.203 F 
ATOM     84  C   UNL A   1      49.003  27.509  23.889  1.00  0.00     0.198 A 
ATOM     85  C   UNL A   1      50.646  26.665  25.384  1.00  0.00     0.198 A 
ATOM     86  F   UNL A   1      50.085  26.263  27.636  1.00  0.00    -0.203 F 
ATOM     87  F   UNL A   1      48.623  27.812  22.639  1.00  0.00    -0.200 F 
ATOM     88  C   UNL A   1      50.304  27.106  24.120  1.00  0.00     0.200 A 
ATOM     89  F   UNL A   1      51.898  26.242  25.612  1.00  0.00    -0.200 F 
ATOM     90  F   UNL A   1      51.222  27.168  23.142  1.00  0.00    -0.200 F 
ENDBRANCH  56  80
BRANCH  68  91
ATOM     91  C   UNL A   1      44.631  33.319  27.699  1.00  0.00     0.064 A 
ATOM     92  C   UNL A   1      44.922  34.403  28.542  1.00  0.00     0.173 A 
ATOM     93  C   UNL A   1      44.103  33.642  26.432  1.00  0.00     0.173 A 
ATOM     94  F   UNL A   1      45.575  34.240  29.701  1.00  0.00    -0.203 F 
ATOM     95  C   UNL A   1      44.598  35.709  28.188  1.00  0.00     0.198 A 
ATOM     96  C   UNL A   1      43.853  34.953  26.052  1.00  0.00     0.198 A 
ATOM     97  F   UNL A   1      43.838  32.702  25.513  1.00  0.00    -0.203 F 
ATOM     98  F   UNL A   1      44.826  36.704  29.056  1.00  0.00    -0.200 F 
ATOM     99  C   UNL A   1      44.071  35.983  26.941  1.00  0.00     0.200 A 
ATOM    100  F   UNL A   1      43.415  35.209  24.812  1.00  0.00    -0.200 F 
ATOM    101  F   UNL A   1      43.797  37.244  26.588  1.00  0.00    -0.200 F 
ENDBRANCH  68  91
ENDBRANCH  42  43
ENDBRANCH  35  37
ENDBRANCH  34  35
ENDBRANCH  33  34
ENDBRANCH  32  33
ENDBRANCH  31  32
ENDBRANCH  30  31
ENDBRANCH   1  30
TORSDOF 21
ENDMDL
