MODEL 1
REMARK VINA RESULT:     -11.0      0.000      0.000
REMARK SMILES Cc1ncccc1Oc1ccc(C(=O)OCCOCCOCCOC(=O)c2ccc(-c3c4nc(c(-c5c(F)c(F)c(F)c(F)c5F)c5ccc([nH]5)c(-c5c(F)c(F)c(F)c(F)c5F)c5nc(c(-c6c(F)c(F)c(F)c(F)c6F)c6ccc3[nH]6)C=C5)C=C4)cc2)cc1Cl
REMARK SMILES IDX 19 1 18 2 17 3 16 4 15 5 13 6 14 7 12 8 9 9 10 10 91 11
REMARK SMILES IDX 11 12 90 13 92 14 8 15 7 16 1 17 2 18 3 19 4 20 6 21 5 22
REMARK SMILES IDX 20 23 21 24 22 25 23 26 24 27 25 28 26 29 27 30 28 31 89 32
REMARK SMILES IDX 29 33 88 34 30 35 31 36 32 37 82 38 33 39 87 40 81 41 83 42
REMARK SMILES IDX 34 43 86 44 80 45 79 46 35 48 67 49 47 50 66 51 48 52 51 53
REMARK SMILES IDX 65 54 84 55 49 56 50 57 64 59 85 60 52 61 36 62 37 63 45 64
REMARK SMILES IDX 38 65 39 66 43 67 46 68 40 69 41 70 44 71 42 72 68 73 69 74
REMARK SMILES IDX 77 75 70 76 71 77 75 78 78 79 72 80 73 81 76 82 74 83 53 84
REMARK SMILES IDX 54 85 62 86 55 87 56 88 60 89 63 90 57 91 58 92 61 93 59 94
REMARK H PARENT 83 47 51 58
REMARK Flexibility Score: inf
ROOT
ATOM      1  C   UNL A   1      31.333  26.565  25.644  1.00  0.00     0.188 C 
ENDROOT
BRANCH   1   2
ATOM      2  O   UNL A   1      30.204  26.127  24.918  1.00  0.00    -0.376 OA
BRANCH   2   3
ATOM      3  C   UNL A   1      30.291  25.847  23.530  1.00  0.00     0.202 C 
BRANCH   3   4
ATOM      4  C   UNL A   1      30.874  26.825  22.500  1.00  0.00     0.261 C 
BRANCH   4   5
ATOM      5  O   UNL A   1      32.303  26.870  22.448  1.00  0.00    -0.460 OA
BRANCH   5   6
ATOM      6  C   UNL A   1      32.868  25.896  21.698  1.00  0.00     0.338 C 
ATOM      7  O   UNL A   1      33.118  25.938  20.505  1.00  0.00    -0.246 OA
BRANCH   6   8
ATOM      8  C   UNL A   1      33.344  24.792  22.555  1.00  0.00     0.061 A 
ATOM      9  C   UNL A   1      33.819  22.699  24.287  1.00  0.00     0.146 A 
ATOM     10  C   UNL A   1      33.177  22.439  23.076  1.00  0.00     0.049 A 
ATOM     11  C   UNL A   1      34.419  23.941  24.532  1.00  0.00     0.084 A 
ATOM     12  C   UNL A   1      32.921  23.498  22.215  1.00  0.00     0.019 A 
ATOM     13  C   UNL A   1      34.165  25.006  23.669  1.00  0.00     0.040 A 
ATOM     14  Cl  UNL A   1      35.372  24.217  25.942  1.00  0.00    -0.080 Cl
BRANCH   9  15
ATOM     15  O   UNL A   1      33.769  21.715  25.233  1.00  0.00    -0.454 OA
BRANCH  15  16
ATOM     16  C   UNL A   1      34.405  20.511  24.975  1.00  0.00     0.148 A 
ATOM     17  C   UNL A   1      32.456  18.895  24.395  1.00  0.00     0.071 C 
ATOM     18  C   UNL A   1      33.891  19.248  24.630  1.00  0.00     0.080 A 
ATOM     19  N   UNL A   1      34.700  18.160  24.476  1.00  0.00    -0.258 NA
ATOM     20  C   UNL A   1      36.028  18.313  24.625  1.00  0.00     0.111 A 
ATOM     21  C   UNL A   1      35.799  20.628  25.083  1.00  0.00     0.050 A 
ATOM     22  C   UNL A   1      36.623  19.522  24.907  1.00  0.00     0.024 A 
ENDBRANCH  15  16
ENDBRANCH   9  15
ENDBRANCH   6   8
ENDBRANCH   5   6
ENDBRANCH   4   5
ENDBRANCH   3   4
ENDBRANCH   2   3
ENDBRANCH   1   2
BRANCH   1  23
ATOM     23  C   UNL A   1      31.444  28.032  26.105  1.00  0.00     0.188 C 
BRANCH  23  24
ATOM     24  O   UNL A   1      31.893  29.024  25.214  1.00  0.00    -0.376 OA
BRANCH  24  25
ATOM     25  C   UNL A   1      31.392  30.346  25.314  1.00  0.00     0.202 C 
BRANCH  25  26
ATOM     26  C   UNL A   1      31.713  31.323  26.460  1.00  0.00     0.261 C 
BRANCH  26  27
ATOM     27  O   UNL A   1      32.891  31.073  27.232  1.00  0.00    -0.460 OA
BRANCH  27  28
ATOM     28  C   UNL A   1      33.609  32.170  27.573  1.00  0.00     0.338 C 
ATOM     29  O   UNL A   1      33.227  33.334  27.604  1.00  0.00    -0.246 OA
BRANCH  28  30
ATOM     30  C   UNL A   1      34.917  31.738  28.087  1.00  0.00     0.060 A 
ATOM     31  C   UNL A   1      35.093  30.406  28.493  1.00  0.00     0.016 A 
ATOM     32  C   UNL A   1      35.955  32.661  28.194  1.00  0.00     0.016 A 
ATOM     33  C   UNL A   1      36.320  29.991  29.012  1.00  0.00     0.010 A 
ATOM     34  C   UNL A   1      37.170  32.252  28.739  1.00  0.00     0.010 A 
ATOM     35  C   UNL A   1      37.351  30.924  29.169  1.00  0.00    -0.014 A 
BRANCH  35  36
ATOM     36  C   UNL A   1      38.567  30.589  29.943  1.00  0.00     0.031 A 
ATOM     37  C   UNL A   1      39.519  29.584  29.365  1.00  0.00     0.074 A 
ATOM     38  C   UNL A   1      38.781  31.104  31.164  1.00  0.00     0.049 A 
ATOM     39  N   UNL A   1      40.528  28.972  29.926  1.00  0.00    -0.248 NA
ATOM     40  C   UNL A   1      39.282  29.207  27.963  1.00  0.00     0.031 C 
ATOM     41  C   UNL A   1      37.949  32.114  31.811  1.00  0.00     0.029 A 
ATOM     42  N   UNL A   1      39.745  30.806  32.096  1.00  0.00    -0.354 N 
ATOM     43  C   UNL A   1      41.026  28.112  28.957  1.00  0.00     0.074 A 
ATOM     44  C   UNL A   1      40.201  28.271  27.780  1.00  0.00     0.031 C 
ATOM     45  C   UNL A   1      38.412  32.323  33.056  1.00  0.00     0.029 A 
ATOM     46  C   UNL A   1      39.537  31.422  33.305  1.00  0.00     0.049 A 
ATOM     47  H   UNL A   1      40.508  30.211  31.914  1.00  0.00     0.167 HD
ATOM     48  C   UNL A   1      42.075  27.260  29.049  1.00  0.00     0.037 A 
ATOM     49  C   UNL A   1      40.154  31.238  34.489  1.00  0.00     0.037 A 
ATOM     50  C   UNL A   1      42.882  27.105  30.230  1.00  0.00     0.049 A 
ATOM     51  C   UNL A   1      41.279  30.240  34.594  1.00  0.00     0.074 A 
ATOM     52  C   UNL A   1      43.991  26.299  30.418  1.00  0.00     0.029 A 
ATOM     53  N   UNL A   1      42.652  27.756  31.434  1.00  0.00    -0.354 N 
ATOM     54  N   UNL A   1      41.771  29.448  33.672  1.00  0.00    -0.248 NA
ATOM     55  C   UNL A   1      41.933  30.108  35.904  1.00  0.00     0.031 C 
ATOM     56  C   UNL A   1      44.388  26.410  31.754  1.00  0.00     0.029 A 
ATOM     57  C   UNL A   1      43.576  27.342  32.380  1.00  0.00     0.049 A 
ATOM     58  H   UNL A   1      41.937  28.415  31.593  1.00  0.00     0.167 HD
ATOM     59  C   UNL A   1      42.809  28.749  34.277  1.00  0.00     0.074 A 
ATOM     60  C   UNL A   1      42.877  29.211  35.648  1.00  0.00     0.031 C 
ATOM     61  C   UNL A   1      43.637  27.818  33.741  1.00  0.00     0.037 A 
BRANCH  48  62
ATOM     62  C   UNL A   1      42.363  26.392  27.858  1.00  0.00     0.064 A 
ATOM     63  C   UNL A   1      41.717  25.162  27.657  1.00  0.00     0.173 A 
ATOM     64  C   UNL A   1      43.309  26.797  26.904  1.00  0.00     0.173 A 
ATOM     65  F   UNL A   1      40.813  24.720  28.544  1.00  0.00    -0.203 F 
ATOM     66  C   UNL A   1      42.043  24.351  26.573  1.00  0.00     0.198 A 
ATOM     67  C   UNL A   1      43.604  26.000  25.801  1.00  0.00     0.198 A 
ATOM     68  F   UNL A   1      43.953  27.965  27.042  1.00  0.00    -0.203 F 
ATOM     69  F   UNL A   1      41.465  23.149  26.442  1.00  0.00    -0.200 F 
ATOM     70  C   UNL A   1      42.981  24.772  25.643  1.00  0.00     0.200 A 
ATOM     71  F   UNL A   1      44.501  26.417  24.896  1.00  0.00    -0.200 F 
ATOM     72  F   UNL A   1      43.295  23.989  24.603  1.00  0.00    -0.200 F 
ENDBRANCH  48  62
BRANCH  49  73
ATOM     73  C   UNL A   1      39.688  31.999  35.678  1.00  0.00     0.064 A 
ATOM     74  C   UNL A   1      40.263  33.229  36.022  1.00  0.00     0.173 A 
ATOM     75  C   UNL A   1      38.638  31.522  36.478  1.00  0.00     0.173 A 
ATOM     76  F   UNL A   1      41.287  33.713  35.303  1.00  0.00    -0.203 F 
ATOM     77  C   UNL A   1      39.810  33.953  37.123  1.00  0.00     0.198 A 
ATOM     78  C   UNL A   1      38.166  32.260  37.561  1.00  0.00     0.198 A 
ATOM     79  F   UNL A   1      38.055  30.350  36.192  1.00  0.00    -0.203 F 
ATOM     80  F   UNL A   1      40.398  35.111  37.450  1.00  0.00    -0.200 F 
ATOM     81  C   UNL A   1      38.755  33.473  37.886  1.00  0.00     0.200 A 
ATOM     82  F   UNL A   1      37.138  31.799  38.287  1.00  0.00    -0.200 F 
ATOM     83  F   UNL A   1      38.308  34.177  38.934  1.00  0.00    -0.200 F 
ENDBRANCH  49  73
BRANCH  61  84
ATOM     84  C   UNL A   1      44.728  27.262  34.612  1.00  0.00     0.064 A 
ATOM     85  C   UNL A   1      44.572  26.066  35.326  1.00  0.00     0.173 A 
ATOM     86  C   UNL A   1      45.981  27.896  34.659  1.00  0.00     0.173 A 
ATOM     87  F   UNL A   1      43.393  25.428  35.326  1.00  0.00    -0.203 F 
ATOM     88  C   UNL A   1      45.627  25.530  36.063  1.00  0.00     0.198 A 
ATOM     89  C   UNL A   1      47.041  27.341  35.370  1.00  0.00     0.198 A 
ATOM     90  F   UNL A   1      46.186  29.039  33.987  1.00  0.00    -0.203 F 
ATOM     91  F   UNL A   1      45.447  24.402  36.764  1.00  0.00    -0.200 F 
ATOM     92  C   UNL A   1      46.863  26.160  36.074  1.00  0.00     0.200 A 
ATOM     93  F   UNL A   1      48.239  27.943  35.363  1.00  0.00    -0.200 F 
ATOM     94  F   UNL A   1      47.882  25.631  36.765  1.00  0.00    -0.200 F 
ENDBRANCH  61  84
ENDBRANCH  35  36
ENDBRANCH  28  30
ENDBRANCH  27  28
ENDBRANCH  26  27
ENDBRANCH  25  26
ENDBRANCH  24  25
ENDBRANCH  23  24
ENDBRANCH   1  23
TORSDOF 19
ENDMDL
MODEL 2
REMARK VINA RESULT:     -10.9      1.525      2.384
REMARK SMILES Cc1ncccc1Oc1ccc(C(=O)OCCOCCOCCOC(=O)c2ccc(-c3c4nc(c(-c5c(F)c(F)c(F)c(F)c5F)c5ccc([nH]5)c(-c5c(F)c(F)c(F)c(F)c5F)c5nc(c(-c6c(F)c(F)c(F)c(F)c6F)c6ccc3[nH]6)C=C5)C=C4)cc2)cc1Cl
REMARK SMILES IDX 19 1 18 2 17 3 16 4 15 5 13 6 14 7 12 8 9 9 10 10 91 11
REMARK SMILES IDX 11 12 90 13 92 14 8 15 7 16 1 17 2 18 3 19 4 20 6 21 5 22
REMARK SMILES IDX 20 23 21 24 22 25 23 26 24 27 25 28 26 29 27 30 28 31 89 32
REMARK SMILES IDX 29 33 88 34 30 35 31 36 32 37 82 38 33 39 87 40 81 41 83 42
REMARK SMILES IDX 34 43 86 44 80 45 79 46 35 48 67 49 47 50 66 51 48 52 51 53
REMARK SMILES IDX 65 54 84 55 49 56 50 57 64 59 85 60 52 61 36 62 37 63 45 64
REMARK SMILES IDX 38 65 39 66 43 67 46 68 40 69 41 70 44 71 42 72 68 73 69 74
REMARK SMILES IDX 77 75 70 76 71 77 75 78 78 79 72 80 73 81 76 82 74 83 53 84
REMARK SMILES IDX 54 85 62 86 55 87 56 88 60 89 63 90 57 91 58 92 61 93 59 94
REMARK H PARENT 83 47 51 58
REMARK Flexibility Score: inf
ROOT
ATOM      1  C   UNL A   1      32.211  27.923  26.391  1.00  0.00     0.188 C 
ENDROOT
BRANCH   1   2
ATOM      2  O   UNL A   1      31.143  27.332  25.681  1.00  0.00    -0.376 OA
BRANCH   2   3
ATOM      3  C   UNL A   1      31.238  27.088  24.287  1.00  0.00     0.202 C 
BRANCH   3   4
ATOM      4  C   UNL A   1      32.373  27.629  23.405  1.00  0.00     0.261 C 
BRANCH   4   5
ATOM      5  O   UNL A   1      33.524  26.786  23.313  1.00  0.00    -0.460 OA
BRANCH   5   6
ATOM      6  C   UNL A   1      33.414  25.780  22.415  1.00  0.00     0.338 C 
ATOM      7  O   UNL A   1      33.418  25.877  21.199  1.00  0.00    -0.246 OA
BRANCH   6   8
ATOM      8  C   UNL A   1      33.479  24.470  23.092  1.00  0.00     0.061 A 
ATOM      9  C   UNL A   1      33.164  22.021  24.321  1.00  0.00     0.146 A 
ATOM     10  C   UNL A   1      33.018  22.104  22.935  1.00  0.00     0.049 A 
ATOM     11  C   UNL A   1      33.684  23.095  25.055  1.00  0.00     0.084 A 
ATOM     12  C   UNL A   1      33.156  23.342  22.322  1.00  0.00     0.019 A 
ATOM     13  C   UNL A   1      33.824  24.338  24.443  1.00  0.00     0.040 A 
ATOM     14  Cl  UNL A   1      34.042  22.945  26.735  1.00  0.00    -0.080 Cl
BRANCH   9  15
ATOM     15  O   UNL A   1      32.715  20.878  24.918  1.00  0.00    -0.454 OA
BRANCH  15  16
ATOM     16  C   UNL A   1      33.373  19.687  24.658  1.00  0.00     0.148 A 
ATOM     17  C   UNL A   1      35.866  20.245  25.128  1.00  0.00     0.071 C 
ATOM     18  C   UNL A   1      34.738  19.354  24.708  1.00  0.00     0.080 A 
ATOM     19  N   UNL A   1      35.191  18.119  24.349  1.00  0.00    -0.258 NA
ATOM     20  C   UNL A   1      34.299  17.186  23.971  1.00  0.00     0.111 A 
ATOM     21  C   UNL A   1      32.478  18.670  24.294  1.00  0.00     0.050 A 
ATOM     22  C   UNL A   1      32.940  17.405  23.946  1.00  0.00     0.024 A 
ENDBRANCH  15  16
ENDBRANCH   9  15
ENDBRANCH   6   8
ENDBRANCH   5   6
ENDBRANCH   4   5
ENDBRANCH   3   4
ENDBRANCH   2   3
ENDBRANCH   1   2
BRANCH   1  23
ATOM     23  C   UNL A   1      32.132  29.398  26.834  1.00  0.00     0.188 C 
BRANCH  23  24
ATOM     24  O   UNL A   1      32.067  30.424  25.875  1.00  0.00    -0.376 OA
BRANCH  24  25
ATOM     25  C   UNL A   1      31.214  31.537  26.084  1.00  0.00     0.202 C 
BRANCH  25  26
ATOM     26  C   UNL A   1      31.565  32.762  26.948  1.00  0.00     0.261 C 
BRANCH  26  27
ATOM     27  O   UNL A   1      32.898  32.853  27.459  1.00  0.00    -0.460 OA
BRANCH  27  28
ATOM     28  C   UNL A   1      33.154  33.935  28.232  1.00  0.00     0.338 C 
ATOM     29  O   UNL A   1      32.455  34.929  28.383  1.00  0.00    -0.246 OA
BRANCH  28  30
ATOM     30  C   UNL A   1      34.357  33.669  29.034  1.00  0.00     0.060 A 
ATOM     31  C   UNL A   1      35.563  34.308  28.702  1.00  0.00     0.016 A 
ATOM     32  C   UNL A   1      34.296  32.765  30.092  1.00  0.00     0.016 A 
ATOM     33  C   UNL A   1      36.719  34.041  29.435  1.00  0.00     0.010 A 
ATOM     34  C   UNL A   1      35.458  32.478  30.805  1.00  0.00     0.010 A 
ATOM     35  C   UNL A   1      36.676  33.097  30.467  1.00  0.00    -0.014 A 
BRANCH  35  36
ATOM     36  C   UNL A   1      37.921  32.599  31.095  1.00  0.00     0.031 A 
ATOM     37  C   UNL A   1      38.645  31.468  30.429  1.00  0.00     0.074 A 
ATOM     38  C   UNL A   1      38.352  33.085  32.270  1.00  0.00     0.049 A 
ATOM     39  N   UNL A   1      39.622  30.723  30.876  1.00  0.00    -0.248 NA
ATOM     40  C   UNL A   1      38.188  31.120  29.075  1.00  0.00     0.031 C 
ATOM     41  C   UNL A   1      37.755  34.205  32.990  1.00  0.00     0.029 A 
ATOM     42  N   UNL A   1      39.374  32.660  33.084  1.00  0.00    -0.354 N 
ATOM     43  C   UNL A   1      39.873  29.797  29.874  1.00  0.00     0.074 A 
ATOM     44  C   UNL A   1      38.938  30.064  28.802  1.00  0.00     0.031 C 
ATOM     45  C   UNL A   1      38.391  34.353  34.165  1.00  0.00     0.029 A 
ATOM     46  C   UNL A   1      39.404  33.305  34.296  1.00  0.00     0.049 A 
ATOM     47  H   UNL A   1      40.018  31.963  32.825  1.00  0.00     0.167 HD
ATOM     48  C   UNL A   1      40.797  28.807  29.856  1.00  0.00     0.037 A 
ATOM     49  C   UNL A   1      40.130  33.043  35.400  1.00  0.00     0.037 A 
ATOM     50  C   UNL A   1      41.714  28.547  30.934  1.00  0.00     0.049 A 
ATOM     51  C   UNL A   1      41.110  31.897  35.390  1.00  0.00     0.074 A 
ATOM     52  C   UNL A   1      42.716  27.595  31.003  1.00  0.00     0.029 A 
ATOM     53  N   UNL A   1      41.726  29.230  32.142  1.00  0.00    -0.354 N 
ATOM     54  N   UNL A   1      41.371  31.039  34.432  1.00  0.00    -0.248 NA
ATOM     55  C   UNL A   1      41.897  31.682  36.613  1.00  0.00     0.031 C 
ATOM     56  C   UNL A   1      43.286  27.655  32.279  1.00  0.00     0.029 A 
ATOM     57  C   UNL A   1      42.694  28.695  32.978  1.00  0.00     0.049 A 
ATOM     58  H   UNL A   1      41.135  29.983  32.372  1.00  0.00     0.167 HD
ATOM     59  C   UNL A   1      42.369  30.205  34.922  1.00  0.00     0.074 A 
ATOM     60  C   UNL A   1      42.668  30.660  36.264  1.00  0.00     0.031 C 
ATOM     61  C   UNL A   1      42.987  29.165  34.310  1.00  0.00     0.037 A 
BRANCH  48  62
ATOM     62  C   UNL A   1      40.812  27.901  28.659  1.00  0.00     0.064 A 
ATOM     63  C   UNL A   1      41.593  28.176  27.525  1.00  0.00     0.173 A 
ATOM     64  C   UNL A   1      40.023  26.740  28.644  1.00  0.00     0.173 A 
ATOM     65  F   UNL A   1      42.356  29.279  27.480  1.00  0.00    -0.203 F 
ATOM     66  C   UNL A   1      41.546  27.349  26.406  1.00  0.00     0.198 A 
ATOM     67  C   UNL A   1      40.009  25.896  27.538  1.00  0.00     0.198 A 
ATOM     68  F   UNL A   1      39.262  26.426  29.702  1.00  0.00    -0.203 F 
ATOM     69  F   UNL A   1      42.244  27.671  25.308  1.00  0.00    -0.200 F 
ATOM     70  C   UNL A   1      40.758  26.207  26.414  1.00  0.00     0.200 A 
ATOM     71  F   UNL A   1      39.259  24.785  27.555  1.00  0.00    -0.200 F 
ATOM     72  F   UNL A   1      40.712  25.414  25.336  1.00  0.00    -0.200 F 
ENDBRANCH  48  62
BRANCH  49  73
ATOM     73  C   UNL A   1      39.924  33.867  36.619  1.00  0.00     0.064 A 
ATOM     74  C   UNL A   1      40.627  35.062  36.813  1.00  0.00     0.173 A 
ATOM     75  C   UNL A   1      38.998  33.488  37.603  1.00  0.00     0.173 A 
ATOM     76  F   UNL A   1      41.543  35.453  35.913  1.00  0.00    -0.203 F 
ATOM     77  C   UNL A   1      40.416  35.847  37.946  1.00  0.00     0.198 A 
ATOM     78  C   UNL A   1      38.766  34.287  38.720  1.00  0.00     0.198 A 
ATOM     79  F   UNL A   1      38.299  32.352  37.466  1.00  0.00    -0.203 F 
ATOM     80  F   UNL A   1      41.126  36.969  38.123  1.00  0.00    -0.200 F 
ATOM     81  C   UNL A   1      39.478  35.464  38.894  1.00  0.00     0.200 A 
ATOM     82  F   UNL A   1      37.849  33.919  39.627  1.00  0.00    -0.200 F 
ATOM     83  F   UNL A   1      39.264  36.226  39.973  1.00  0.00    -0.200 F 
ENDBRANCH  49  73
BRANCH  61  84
ATOM     84  C   UNL A   1      44.090  28.466  35.055  1.00  0.00     0.064 A 
ATOM     85  C   UNL A   1      43.858  27.312  35.817  1.00  0.00     0.173 A 
ATOM     86  C   UNL A   1      45.416  28.912  34.928  1.00  0.00     0.173 A 
ATOM     87  F   UNL A   1      42.609  26.851  35.981  1.00  0.00    -0.203 F 
ATOM     88  C   UNL A   1      44.911  26.637  36.432  1.00  0.00     0.198 A 
ATOM     89  C   UNL A   1      46.468  28.217  35.517  1.00  0.00     0.198 A 
ATOM     90  F   UNL A   1      45.694  30.007  34.203  1.00  0.00    -0.203 F 
ATOM     91  F   UNL A   1      44.663  25.554  37.182  1.00  0.00    -0.200 F 
ATOM     92  C   UNL A   1      46.214  27.082  36.271  1.00  0.00     0.200 A 
ATOM     93  F   UNL A   1      47.729  28.640  35.344  1.00  0.00    -0.200 F 
ATOM     94  F   UNL A   1      47.227  26.418  36.845  1.00  0.00    -0.200 F 
ENDBRANCH  61  84
ENDBRANCH  35  36
ENDBRANCH  28  30
ENDBRANCH  27  28
ENDBRANCH  26  27
ENDBRANCH  25  26
ENDBRANCH  24  25
ENDBRANCH  23  24
ENDBRANCH   1  23
TORSDOF 19
ENDMDL
MODEL 3
REMARK VINA RESULT:     -10.9      4.429      8.741
REMARK SMILES Cc1ncccc1Oc1ccc(C(=O)OCCOCCOCCOC(=O)c2ccc(-c3c4nc(c(-c5c(F)c(F)c(F)c(F)c5F)c5ccc([nH]5)c(-c5c(F)c(F)c(F)c(F)c5F)c5nc(c(-c6c(F)c(F)c(F)c(F)c6F)c6ccc3[nH]6)C=C5)C=C4)cc2)cc1Cl
REMARK SMILES IDX 19 1 18 2 17 3 16 4 15 5 13 6 14 7 12 8 9 9 10 10 91 11
REMARK SMILES IDX 11 12 90 13 92 14 8 15 7 16 1 17 2 18 3 19 4 20 6 21 5 22
REMARK SMILES IDX 20 23 21 24 22 25 23 26 24 27 25 28 26 29 27 30 28 31 89 32
REMARK SMILES IDX 29 33 88 34 30 35 31 36 32 37 82 38 33 39 87 40 81 41 83 42
REMARK SMILES IDX 34 43 86 44 80 45 79 46 35 48 67 49 47 50 66 51 48 52 51 53
REMARK SMILES IDX 65 54 84 55 49 56 50 57 64 59 85 60 52 61 36 62 37 63 45 64
REMARK SMILES IDX 38 65 39 66 43 67 46 68 40 69 41 70 44 71 42 72 68 73 69 74
REMARK SMILES IDX 77 75 70 76 71 77 75 78 78 79 72 80 73 81 76 82 74 83 53 84
REMARK SMILES IDX 54 85 62 86 55 87 56 88 60 89 63 90 57 91 58 92 61 93 59 94
REMARK H PARENT 83 47 51 58
REMARK Flexibility Score: inf
ROOT
ATOM      1  C   UNL A   1      33.967  33.132  28.017  1.00  0.00     0.188 C 
ENDROOT
BRANCH   1   2
ATOM      2  O   UNL A   1      33.132  32.162  27.422  1.00  0.00    -0.376 OA
BRANCH   2   3
ATOM      3  C   UNL A   1      33.554  30.813  27.294  1.00  0.00     0.202 C 
BRANCH   3   4
ATOM      4  C   UNL A   1      32.836  29.778  26.417  1.00  0.00     0.261 C 
BRANCH   4   5
ATOM      5  O   UNL A   1      33.151  28.413  26.708  1.00  0.00    -0.460 OA
BRANCH   5   6
ATOM      6  C   UNL A   1      32.075  27.613  26.880  1.00  0.00     0.338 C 
ATOM      7  O   UNL A   1      31.184  27.745  27.704  1.00  0.00    -0.246 OA
BRANCH   6   8
ATOM      8  C   UNL A   1      31.989  26.617  25.794  1.00  0.00     0.061 A 
ATOM      9  C   UNL A   1      32.142  24.544  23.982  1.00  0.00     0.146 A 
ATOM     10  C   UNL A   1      31.505  24.325  25.204  1.00  0.00     0.049 A 
ATOM     11  C   UNL A   1      32.494  25.837  23.574  1.00  0.00     0.084 A 
ATOM     12  C   UNL A   1      31.449  25.364  26.123  1.00  0.00     0.019 A 
ATOM     13  C   UNL A   1      32.437  26.883  24.494  1.00  0.00     0.040 A 
ATOM     14  Cl  UNL A   1      33.111  26.146  21.995  1.00  0.00    -0.080 Cl
BRANCH   9  15
ATOM     15  O   UNL A   1      32.459  23.437  23.247  1.00  0.00    -0.454 OA
BRANCH  15  16
ATOM     16  C   UNL A   1      33.181  22.420  23.851  1.00  0.00     0.148 A 
ATOM     17  C   UNL A   1      35.609  23.343  23.912  1.00  0.00     0.071 C 
ATOM     18  C   UNL A   1      34.552  22.309  24.146  1.00  0.00     0.080 A 
ATOM     19  N   UNL A   1      35.079  21.178  24.699  1.00  0.00    -0.258 NA
ATOM     20  C   UNL A   1      34.255  20.159  25.000  1.00  0.00     0.111 A 
ATOM     21  C   UNL A   1      32.357  21.346  24.217  1.00  0.00     0.050 A 
ATOM     22  C   UNL A   1      32.894  20.202  24.798  1.00  0.00     0.024 A 
ENDBRANCH  15  16
ENDBRANCH   9  15
ENDBRANCH   6   8
ENDBRANCH   5   6
ENDBRANCH   4   5
ENDBRANCH   3   4
ENDBRANCH   2   3
ENDBRANCH   1   2
BRANCH   1  23
ATOM     23  C   UNL A   1      33.419  34.535  28.350  1.00  0.00     0.188 C 
BRANCH  23  24
ATOM     24  O   UNL A   1      32.885  34.804  29.624  1.00  0.00    -0.376 OA
BRANCH  24  25
ATOM     25  C   UNL A   1      33.751  35.082  30.711  1.00  0.00     0.202 C 
BRANCH  25  26
ATOM     26  C   UNL A   1      34.276  34.031  31.707  1.00  0.00     0.261 C 
BRANCH  26  27
ATOM     27  O   UNL A   1      35.358  33.197  31.281  1.00  0.00    -0.460 OA
BRANCH  27  28
ATOM     28  C   UNL A   1      35.954  32.471  32.257  1.00  0.00     0.338 C 
ATOM     29  O   UNL A   1      35.591  32.342  33.420  1.00  0.00    -0.246 OA
BRANCH  28  30
ATOM     30  C   UNL A   1      37.048  31.689  31.664  1.00  0.00     0.060 A 
ATOM     31  C   UNL A   1      37.915  30.970  32.501  1.00  0.00     0.016 A 
ATOM     32  C   UNL A   1      37.230  31.694  30.283  1.00  0.00     0.016 A 
ATOM     33  C   UNL A   1      38.976  30.248  31.953  1.00  0.00     0.010 A 
ATOM     34  C   UNL A   1      38.306  30.997  29.739  1.00  0.00     0.010 A 
ATOM     35  C   UNL A   1      39.195  30.289  30.571  1.00  0.00    -0.014 A 
BRANCH  35  36
ATOM     36  C   UNL A   1      40.443  29.755  29.983  1.00  0.00     0.031 A 
ATOM     37  C   UNL A   1      41.573  30.710  29.736  1.00  0.00     0.074 A 
ATOM     38  C   UNL A   1      40.541  28.472  29.601  1.00  0.00     0.049 A 
ATOM     39  N   UNL A   1      42.673  30.541  29.050  1.00  0.00    -0.248 NA
ATOM     40  C   UNL A   1      41.428  32.046  30.334  1.00  0.00     0.031 C 
ATOM     41  C   UNL A   1      39.527  27.446  29.824  1.00  0.00     0.029 A 
ATOM     42  N   UNL A   1      41.533  27.827  28.903  1.00  0.00    -0.354 N 
ATOM     43  C   UNL A   1      43.335  31.760  29.105  1.00  0.00     0.074 A 
ATOM     44  C   UNL A   1      42.508  32.661  29.878  1.00  0.00     0.031 C 
ATOM     45  C   UNL A   1      39.927  26.307  29.232  1.00  0.00     0.029 A 
ATOM     46  C   UNL A   1      41.199  26.544  28.549  1.00  0.00     0.049 A 
ATOM     47  H   UNL A   1      42.396  28.245  28.680  1.00  0.00     0.167 HD
ATOM     48  C   UNL A   1      44.525  32.096  28.550  1.00  0.00     0.037 A 
ATOM     49  C   UNL A   1      41.825  25.681  27.724  1.00  0.00     0.037 A 
ATOM     50  C   UNL A   1      45.332  31.192  27.776  1.00  0.00     0.049 A 
ATOM     51  C   UNL A   1      43.116  26.090  27.062  1.00  0.00     0.074 A 
ATOM     52  C   UNL A   1      46.571  31.417  27.201  1.00  0.00     0.029 A 
ATOM     53  N   UNL A   1      44.969  29.893  27.448  1.00  0.00    -0.354 N 
ATOM     54  N   UNL A   1      43.760  27.231  27.137  1.00  0.00    -0.248 NA
ATOM     55  C   UNL A   1      43.768  25.094  26.201  1.00  0.00     0.031 C 
ATOM     56  C   UNL A   1      46.924  30.280  26.469  1.00  0.00     0.029 A 
ATOM     57  C   UNL A   1      45.943  29.317  26.648  1.00  0.00     0.049 A 
ATOM     58  H   UNL A   1      44.142  29.446  27.740  1.00  0.00     0.167 HD
ATOM     59  C   UNL A   1      44.903  27.080  26.362  1.00  0.00     0.074 A 
ATOM     60  C   UNL A   1      44.866  25.736  25.824  1.00  0.00     0.031 C 
ATOM     61  C   UNL A   1      45.898  27.972  26.127  1.00  0.00     0.037 A 
BRANCH  48  62
ATOM     62  C   UNL A   1      44.984  33.516  28.716  1.00  0.00     0.064 A 
ATOM     63  C   UNL A   1      44.660  34.518  27.788  1.00  0.00     0.173 A 
ATOM     64  C   UNL A   1      45.771  33.877  29.821  1.00  0.00     0.173 A 
ATOM     65  F   UNL A   1      43.922  34.225  26.707  1.00  0.00    -0.203 F 
ATOM     66  C   UNL A   1      45.146  35.815  27.936  1.00  0.00     0.198 A 
ATOM     67  C   UNL A   1      46.223  35.183  29.985  1.00  0.00     0.198 A 
ATOM     68  F   UNL A   1      46.107  32.961  30.741  1.00  0.00    -0.203 F 
ATOM     69  F   UNL A   1      44.883  36.736  27.000  1.00  0.00    -0.200 F 
ATOM     70  C   UNL A   1      45.922  36.148  29.036  1.00  0.00     0.200 A 
ATOM     71  F   UNL A   1      46.959  35.505  31.057  1.00  0.00    -0.200 F 
ATOM     72  F   UNL A   1      46.390  37.395  29.175  1.00  0.00    -0.200 F 
ENDBRANCH  48  62
BRANCH  49  73
ATOM     73  C   UNL A   1      41.210  24.355  27.457  1.00  0.00     0.064 A 
ATOM     74  C   UNL A   1      40.086  24.231  26.630  1.00  0.00     0.173 A 
ATOM     75  C   UNL A   1      41.751  23.181  28.002  1.00  0.00     0.173 A 
ATOM     76  F   UNL A   1      39.517  25.327  26.106  1.00  0.00    -0.203 F 
ATOM     77  C   UNL A   1      39.525  22.984  26.360  1.00  0.00     0.198 A 
ATOM     78  C   UNL A   1      41.207  21.933  27.709  1.00  0.00     0.198 A 
ATOM     79  F   UNL A   1      42.826  23.245  28.801  1.00  0.00    -0.203 F 
ATOM     80  F   UNL A   1      38.430  22.896  25.592  1.00  0.00    -0.200 F 
ATOM     81  C   UNL A   1      40.092  21.835  26.892  1.00  0.00     0.200 A 
ATOM     82  F   UNL A   1      41.767  20.824  28.214  1.00  0.00    -0.200 F 
ATOM     83  F   UNL A   1      39.561  20.636  26.619  1.00  0.00    -0.200 F 
ENDBRANCH  49  73
BRANCH  61  84
ATOM     84  C   UNL A   1      47.064  27.521  25.292  1.00  0.00     0.064 A 
ATOM     85  C   UNL A   1      47.157  27.817  23.925  1.00  0.00     0.173 A 
ATOM     86  C   UNL A   1      48.146  26.859  25.896  1.00  0.00     0.173 A 
ATOM     87  F   UNL A   1      46.147  28.436  23.297  1.00  0.00    -0.203 F 
ATOM     88  C   UNL A   1      48.286  27.458  23.191  1.00  0.00     0.198 A 
ATOM     89  C   UNL A   1      49.284  26.531  25.166  1.00  0.00     0.198 A 
ATOM     90  F   UNL A   1      48.110  26.560  27.203  1.00  0.00    -0.203 F 
ATOM     91  F   UNL A   1      48.342  27.722  21.878  1.00  0.00    -0.200 F 
ATOM     92  C   UNL A   1      49.353  26.827  23.814  1.00  0.00     0.200 A 
ATOM     93  F   UNL A   1      50.321  25.938  25.777  1.00  0.00    -0.200 F 
ATOM     94  F   UNL A   1      50.447  26.502  23.111  1.00  0.00    -0.200 F 
ENDBRANCH  61  84
ENDBRANCH  35  36
ENDBRANCH  28  30
ENDBRANCH  27  28
ENDBRANCH  26  27
ENDBRANCH  25  26
ENDBRANCH  24  25
ENDBRANCH  23  24
ENDBRANCH   1  23
TORSDOF 19
ENDMDL
