MODEL 1
REMARK VINA RESULT:     -11.7      0.000      0.000
REMARK SMILES CC(=O)Nc1cccc(-c2ccc(F)c(C(=O)OCCOCCOCCOC(=O)c3ccc(-c4c5nc(c(-c6c(F)c(F)c(F)c(F)c6F)c6ccc([nH]6)c(-c6c(F)c(F)c(F)c(F)c6F)c6nc(c(-c7c(F)c(F)c(F)c(F)c7F)c7ccc4[nH]7)C=C6)C=C5)cc3)c2)c1
REMARK SMILES IDX 22 1 21 2 20 3 19 4 18 5 16 6 17 7 15 8 10 9 11 10 93 11
REMARK SMILES IDX 12 12 13 13 14 14 9 15 5 16 6 17 94 18 7 19 8 20 4 21 1 22
REMARK SMILES IDX 2 23 3 24 23 26 24 27 25 28 26 29 27 30 28 31 29 32 30 33
REMARK SMILES IDX 31 34 92 35 32 36 91 37 33 38 34 39 35 40 85 41 36 42 90 43
REMARK SMILES IDX 84 44 86 45 37 46 89 47 83 48 82 49 38 51 70 52 50 53 69 54
REMARK SMILES IDX 51 55 54 56 68 57 87 58 52 59 53 60 67 62 88 63 55 64 39 65
REMARK SMILES IDX 40 66 48 67 41 68 42 69 46 70 49 71 43 72 44 73 47 74 45 75
REMARK SMILES IDX 71 76 72 77 80 78 73 79 74 80 78 81 81 82 75 83 76 84 79 85
REMARK SMILES IDX 77 86 56 87 57 88 65 89 58 90 59 91 63 92 66 93 60 94 61 95
REMARK SMILES IDX 64 96 62 97
REMARK H PARENT 4 25 86 50 54 61
REMARK Flexibility Score: inf
ROOT
ATOM      1  C   UNL A   1      42.832  18.535  26.128  1.00  0.00     0.188 C 
ENDROOT
BRANCH   1   2
ATOM      2  O   UNL A   1      41.606  18.907  25.505  1.00  0.00    -0.376 OA
BRANCH   2   3
ATOM      3  C   UNL A   1      40.606  19.577  26.267  1.00  0.00     0.202 C 
BRANCH   3   4
ATOM      4  C   UNL A   1      40.208  20.993  25.835  1.00  0.00     0.261 C 
BRANCH   4   5
ATOM      5  O   UNL A   1      38.794  21.230  25.933  1.00  0.00    -0.460 OA
BRANCH   5   6
ATOM      6  C   UNL A   1      38.422  22.518  26.139  1.00  0.00     0.341 C 
ATOM      7  O   UNL A   1      39.126  23.436  26.525  1.00  0.00    -0.246 OA
BRANCH   6   8
ATOM      8  C   UNL A   1      37.023  22.686  25.707  1.00  0.00     0.096 A 
ATOM      9  C   UNL A   1      34.938  21.772  24.819  1.00  0.00    -0.017 A 
ATOM     10  C   UNL A   1      34.379  23.061  24.896  1.00  0.00     0.012 A 
ATOM     11  C   UNL A   1      36.281  21.607  25.211  1.00  0.00     0.027 A 
ATOM     12  C   UNL A   1      35.129  24.142  25.369  1.00  0.00     0.041 A 
ATOM     13  C   UNL A   1      36.442  23.947  25.781  1.00  0.00     0.137 A 
ATOM     14  F   UNL A   1      37.144  25.008  26.198  1.00  0.00    -0.206 F 
BRANCH   9  15
ATOM     15  C   UNL A   1      34.129  20.610  24.401  1.00  0.00    -0.016 A 
ATOM     16  C   UNL A   1      33.908  18.172  24.236  1.00  0.00     0.041 A 
ATOM     17  C   UNL A   1      32.683  18.335  23.589  1.00  0.00     0.026 A 
ATOM     18  C   UNL A   1      34.623  19.308  24.614  1.00  0.00     0.034 A 
ATOM     19  C   UNL A   1      32.157  19.613  23.387  1.00  0.00     0.003 A 
ATOM     20  C   UNL A   1      32.874  20.742  23.794  1.00  0.00     0.009 A 
BRANCH  16  21
ATOM     21  N   UNL A   1      34.390  16.864  24.409  1.00  0.00    -0.326 N 
ATOM     22  C   UNL A   1      32.532  15.830  25.721  1.00  0.00     0.114 C 
ATOM     23  C   UNL A   1      33.932  15.821  25.164  1.00  0.00     0.221 C 
ATOM     24  O   UNL A   1      34.664  14.842  25.331  1.00  0.00    -0.275 OA
ATOM     25  H   UNL A   1      35.205  16.663  23.895  1.00  0.00     0.169 HD
ENDBRANCH  16  21
ENDBRANCH   9  15
ENDBRANCH   6   8
ENDBRANCH   5   6
ENDBRANCH   4   5
ENDBRANCH   3   4
ENDBRANCH   2   3
ENDBRANCH   1   2
BRANCH   1  26
ATOM     26  C   UNL A   1      44.162  18.752  25.375  1.00  0.00     0.188 C 
BRANCH  26  27
ATOM     27  O   UNL A   1      44.150  19.890  24.538  1.00  0.00    -0.376 OA
BRANCH  27  28
ATOM     28  C   UNL A   1      45.180  20.847  24.708  1.00  0.00     0.202 C 
BRANCH  28  29
ATOM     29  C   UNL A   1      44.963  21.973  25.730  1.00  0.00     0.261 C 
BRANCH  29  30
ATOM     30  O   UNL A   1      43.921  22.915  25.432  1.00  0.00    -0.460 OA
BRANCH  30  31
ATOM     31  C   UNL A   1      44.286  24.191  25.180  1.00  0.00     0.338 C 
ATOM     32  O   UNL A   1      44.928  24.601  24.232  1.00  0.00    -0.246 OA
BRANCH  31  33
ATOM     33  C   UNL A   1      43.615  25.052  26.180  1.00  0.00     0.060 A 
ATOM     34  C   UNL A   1      44.042  26.378  26.326  1.00  0.00     0.016 A 
ATOM     35  C   UNL A   1      42.564  24.560  26.960  1.00  0.00     0.016 A 
ATOM     36  C   UNL A   1      43.433  27.207  27.272  1.00  0.00     0.010 A 
ATOM     37  C   UNL A   1      41.965  25.387  27.916  1.00  0.00     0.010 A 
ATOM     38  C   UNL A   1      42.413  26.708  28.094  1.00  0.00    -0.014 A 
BRANCH  38  39
ATOM     39  C   UNL A   1      41.909  27.523  29.227  1.00  0.00     0.031 A 
ATOM     40  C   UNL A   1      42.619  27.449  30.551  1.00  0.00     0.074 A 
ATOM     41  C   UNL A   1      40.843  28.329  29.084  1.00  0.00     0.049 A 
ATOM     42  N   UNL A   1      42.362  28.077  31.671  1.00  0.00    -0.248 NA
ATOM     43  C   UNL A   1      43.774  26.542  30.619  1.00  0.00     0.031 C 
ATOM     44  C   UNL A   1      40.075  28.502  27.855  1.00  0.00     0.029 A 
ATOM     45  N   UNL A   1      40.218  29.150  29.992  1.00  0.00    -0.354 N 
ATOM     46  C   UNL A   1      43.325  27.646  32.573  1.00  0.00     0.074 A 
ATOM     47  C   UNL A   1      44.149  26.677  31.882  1.00  0.00     0.031 C 
ATOM     48  C   UNL A   1      39.071  29.365  28.087  1.00  0.00     0.029 A 
ATOM     49  C   UNL A   1      39.116  29.789  29.487  1.00  0.00     0.049 A 
ATOM     50  H   UNL A   1      40.532  29.267  30.918  1.00  0.00     0.167 HD
ATOM     51  C   UNL A   1      43.513  28.030  33.858  1.00  0.00     0.037 A 
ATOM     52  C   UNL A   1      38.235  30.613  30.089  1.00  0.00     0.037 A 
ATOM     53  C   UNL A   1      42.687  28.982  34.554  1.00  0.00     0.049 A 
ATOM     54  C   UNL A   1      38.427  30.980  31.537  1.00  0.00     0.074 A 
ATOM     55  C   UNL A   1      42.819  29.460  35.846  1.00  0.00     0.029 A 
ATOM     56  N   UNL A   1      41.560  29.586  34.017  1.00  0.00    -0.354 N 
ATOM     57  N   UNL A   1      39.373  30.612  32.368  1.00  0.00    -0.248 NA
ATOM     58  C   UNL A   1      37.430  31.884  32.130  1.00  0.00     0.031 C 
ATOM     59  C   UNL A   1      41.743  30.316  36.108  1.00  0.00     0.029 A 
ATOM     60  C   UNL A   1      40.968  30.410  34.963  1.00  0.00     0.049 A 
ATOM     61  H   UNL A   1      41.227  29.451  33.100  1.00  0.00     0.167 HD
ATOM     62  C   UNL A   1      39.098  31.250  33.570  1.00  0.00     0.074 A 
ATOM     63  C   UNL A   1      37.904  32.044  33.358  1.00  0.00     0.031 C 
ATOM     64  C   UNL A   1      39.775  31.188  34.744  1.00  0.00     0.037 A 
BRANCH  51  65
ATOM     65  C   UNL A   1      44.650  27.394  34.602  1.00  0.00     0.064 A 
ATOM     66  C   UNL A   1      45.917  27.994  34.662  1.00  0.00     0.173 A 
ATOM     67  C   UNL A   1      44.468  26.175  35.270  1.00  0.00     0.173 A 
ATOM     68  F   UNL A   1      46.146  29.153  34.027  1.00  0.00    -0.203 F 
ATOM     69  C   UNL A   1      46.969  27.378  35.336  1.00  0.00     0.198 A 
ATOM     70  C   UNL A   1      45.516  25.575  35.966  1.00  0.00     0.198 A 
ATOM     71  F   UNL A   1      43.276  25.561  35.246  1.00  0.00    -0.203 F 
ATOM     72  F   UNL A   1      48.185  27.943  35.334  1.00  0.00    -0.200 F 
ATOM     73  C   UNL A   1      46.767  26.173  35.990  1.00  0.00     0.200 A 
ATOM     74  F   UNL A   1      45.315  24.415  36.606  1.00  0.00    -0.200 F 
ATOM     75  F   UNL A   1      47.781  25.582  36.637  1.00  0.00    -0.200 F 
ENDBRANCH  51  65
BRANCH  52  76
ATOM     76  C   UNL A   1      37.085  31.150  29.317  1.00  0.00     0.064 A 
ATOM     77  C   UNL A   1      35.979  30.344  29.012  1.00  0.00     0.173 A 
ATOM     78  C   UNL A   1      37.070  32.479  28.870  1.00  0.00     0.173 A 
ATOM     79  F   UNL A   1      35.963  29.059  29.392  1.00  0.00    -0.203 F 
ATOM     80  C   UNL A   1      34.906  30.847  28.280  1.00  0.00     0.198 A 
ATOM     81  C   UNL A   1      35.985  32.988  28.160  1.00  0.00     0.198 A 
ATOM     82  F   UNL A   1      38.109  33.287  29.131  1.00  0.00    -0.203 F 
ATOM     83  F   UNL A   1      33.877  30.046  27.968  1.00  0.00    -0.200 F 
ATOM     84  C   UNL A   1      34.905  32.169  27.862  1.00  0.00     0.200 A 
ATOM     85  F   UNL A   1      35.986  34.266  27.761  1.00  0.00    -0.200 F 
ATOM     86  F   UNL A   1      33.870  32.652  27.162  1.00  0.00    -0.200 F 
ENDBRANCH  52  76
BRANCH  64  87
ATOM     87  C   UNL A   1      39.252  32.011  35.886  1.00  0.00     0.064 A 
ATOM     88  C   UNL A   1      38.327  31.491  36.805  1.00  0.00     0.173 A 
ATOM     89  C   UNL A   1      39.709  33.323  36.086  1.00  0.00     0.173 A 
ATOM     90  F   UNL A   1      37.850  30.248  36.651  1.00  0.00    -0.203 F 
ATOM     91  C   UNL A   1      37.860  32.265  37.865  1.00  0.00     0.198 A 
ATOM     92  C   UNL A   1      39.262  34.083  37.164  1.00  0.00     0.198 A 
ATOM     93  F   UNL A   1      40.599  33.866  35.241  1.00  0.00    -0.203 F 
ATOM     94  F   UNL A   1      36.943  31.763  38.703  1.00  0.00    -0.200 F 
ATOM     95  C   UNL A   1      38.332  33.556  38.048  1.00  0.00     0.200 A 
ATOM     96  F   UNL A   1      39.727  35.326  37.345  1.00  0.00    -0.200 F 
ATOM     97  F   UNL A   1      37.885  34.296  39.072  1.00  0.00    -0.200 F 
ENDBRANCH  64  87
ENDBRANCH  38  39
ENDBRANCH  31  33
ENDBRANCH  30  31
ENDBRANCH  29  30
ENDBRANCH  28  29
ENDBRANCH  27  28
ENDBRANCH  26  27
ENDBRANCH   1  26
TORSDOF 19
ENDMDL
MODEL 2
REMARK VINA RESULT:     -11.7      2.714      4.177
REMARK SMILES CC(=O)Nc1cccc(-c2ccc(F)c(C(=O)OCCOCCOCCOC(=O)c3ccc(-c4c5nc(c(-c6c(F)c(F)c(F)c(F)c6F)c6ccc([nH]6)c(-c6c(F)c(F)c(F)c(F)c6F)c6nc(c(-c7c(F)c(F)c(F)c(F)c7F)c7ccc4[nH]7)C=C6)C=C5)cc3)c2)c1
REMARK SMILES IDX 22 1 21 2 20 3 19 4 18 5 16 6 17 7 15 8 10 9 11 10 93 11
REMARK SMILES IDX 12 12 13 13 14 14 9 15 5 16 6 17 94 18 7 19 8 20 4 21 1 22
REMARK SMILES IDX 2 23 3 24 23 26 24 27 25 28 26 29 27 30 28 31 29 32 30 33
REMARK SMILES IDX 31 34 92 35 32 36 91 37 33 38 34 39 35 40 85 41 36 42 90 43
REMARK SMILES IDX 84 44 86 45 37 46 89 47 83 48 82 49 38 51 70 52 50 53 69 54
REMARK SMILES IDX 51 55 54 56 68 57 87 58 52 59 53 60 67 62 88 63 55 64 39 65
REMARK SMILES IDX 40 66 48 67 41 68 42 69 46 70 49 71 43 72 44 73 47 74 45 75
REMARK SMILES IDX 71 76 72 77 80 78 73 79 74 80 78 81 81 82 75 83 76 84 79 85
REMARK SMILES IDX 77 86 56 87 57 88 65 89 58 90 59 91 63 92 66 93 60 94 61 95
REMARK SMILES IDX 64 96 62 97
REMARK H PARENT 4 25 86 50 54 61
REMARK Flexibility Score: inf
ROOT
ATOM      1  C   UNL A   1      40.112  21.489  26.833  1.00  0.00     0.188 C 
ENDROOT
BRANCH   1   2
ATOM      2  O   UNL A   1      38.980  21.389  25.974  1.00  0.00    -0.376 OA
BRANCH   2   3
ATOM      3  C   UNL A   1      38.197  22.548  25.706  1.00  0.00     0.202 C 
BRANCH   3   4
ATOM      4  C   UNL A   1      36.678  22.440  25.875  1.00  0.00     0.261 C 
BRANCH   4   5
ATOM      5  O   UNL A   1      35.965  22.600  24.638  1.00  0.00    -0.460 OA
BRANCH   5   6
ATOM      6  C   UNL A   1      34.864  21.823  24.482  1.00  0.00     0.341 C 
ATOM      7  O   UNL A   1      34.754  20.638  24.751  1.00  0.00    -0.246 OA
BRANCH   6   8
ATOM      8  C   UNL A   1      33.743  22.668  24.035  1.00  0.00     0.096 A 
ATOM      9  C   UNL A   1      32.720  24.864  23.711  1.00  0.00    -0.017 A 
ATOM     10  C   UNL A   1      31.588  24.221  23.178  1.00  0.00     0.012 A 
ATOM     11  C   UNL A   1      33.788  24.062  24.160  1.00  0.00     0.027 A 
ATOM     12  C   UNL A   1      31.534  22.828  23.077  1.00  0.00     0.041 A 
ATOM     13  C   UNL A   1      32.614  22.060  23.496  1.00  0.00     0.137 A 
ATOM     14  F   UNL A   1      32.519  20.727  23.416  1.00  0.00    -0.206 F 
BRANCH   9  15
ATOM     15  C   UNL A   1      32.820  26.336  23.745  1.00  0.00    -0.016 A 
ATOM     16  C   UNL A   1      32.071  28.500  22.866  1.00  0.00     0.041 A 
ATOM     17  C   UNL A   1      32.984  29.146  23.701  1.00  0.00     0.026 A 
ATOM     18  C   UNL A   1      32.016  27.107  22.884  1.00  0.00     0.034 A 
ATOM     19  C   UNL A   1      33.776  28.409  24.583  1.00  0.00     0.003 A 
ATOM     20  C   UNL A   1      33.692  27.014  24.608  1.00  0.00     0.009 A 
BRANCH  16  21
ATOM     21  N   UNL A   1      31.303  29.292  21.997  1.00  0.00    -0.326 N 
ATOM     22  C   UNL A   1      29.360  29.874  23.456  1.00  0.00     0.114 C 
ATOM     23  C   UNL A   1      30.044  29.809  22.115  1.00  0.00     0.221 C 
ATOM     24  O   UNL A   1      29.497  30.278  21.113  1.00  0.00    -0.275 OA
ATOM     25  H   UNL A   1      31.752  29.514  21.149  1.00  0.00     0.169 HD
ENDBRANCH  16  21
ENDBRANCH   9  15
ENDBRANCH   6   8
ENDBRANCH   5   6
ENDBRANCH   4   5
ENDBRANCH   3   4
ENDBRANCH   2   3
ENDBRANCH   1   2
BRANCH   1  26
ATOM     26  C   UNL A   1      41.219  20.415  26.757  1.00  0.00     0.188 C 
BRANCH  26  27
ATOM     27  O   UNL A   1      42.524  20.956  26.776  1.00  0.00    -0.376 OA
BRANCH  27  28
ATOM     28  C   UNL A   1      43.414  20.573  25.743  1.00  0.00     0.202 C 
BRANCH  28  29
ATOM     29  C   UNL A   1      43.903  21.654  24.768  1.00  0.00     0.261 C 
BRANCH  29  30
ATOM     30  O   UNL A   1      43.224  22.918  24.821  1.00  0.00    -0.460 OA
BRANCH  30  31
ATOM     31  C   UNL A   1      43.982  24.031  24.928  1.00  0.00     0.338 C 
ATOM     32  O   UNL A   1      44.937  24.342  24.242  1.00  0.00    -0.246 OA
BRANCH  31  33
ATOM     33  C   UNL A   1      43.341  24.912  25.931  1.00  0.00     0.060 A 
ATOM     34  C   UNL A   1      43.773  26.239  26.039  1.00  0.00     0.016 A 
ATOM     35  C   UNL A   1      42.313  24.436  26.750  1.00  0.00     0.016 A 
ATOM     36  C   UNL A   1      43.192  27.087  26.987  1.00  0.00     0.010 A 
ATOM     37  C   UNL A   1      41.742  25.282  27.707  1.00  0.00     0.010 A 
ATOM     38  C   UNL A   1      42.196  26.605  27.847  1.00  0.00    -0.014 A 
BRANCH  38  39
ATOM     39  C   UNL A   1      41.726  27.443  28.978  1.00  0.00     0.031 A 
ATOM     40  C   UNL A   1      42.468  27.386  30.285  1.00  0.00     0.074 A 
ATOM     41  C   UNL A   1      40.661  28.252  28.848  1.00  0.00     0.049 A 
ATOM     42  N   UNL A   1      42.243  28.033  31.400  1.00  0.00    -0.248 NA
ATOM     43  C   UNL A   1      43.619  26.473  30.339  1.00  0.00     0.031 C 
ATOM     44  C   UNL A   1      39.863  28.409  27.636  1.00  0.00     0.029 A 
ATOM     45  N   UNL A   1      40.064  29.092  29.758  1.00  0.00    -0.354 N 
ATOM     46  C   UNL A   1      43.226  27.612  32.285  1.00  0.00     0.074 A 
ATOM     47  C   UNL A   1      44.026  26.626  31.590  1.00  0.00     0.031 C 
ATOM     48  C   UNL A   1      38.870  29.283  27.879  1.00  0.00     0.029 A 
ATOM     49  C   UNL A   1      38.953  29.730  29.270  1.00  0.00     0.049 A 
ATOM     50  H   UNL A   1      40.402  29.222  30.673  1.00  0.00     0.167 HD
ATOM     51  C   UNL A   1      43.448  28.016  33.559  1.00  0.00     0.037 A 
ATOM     52  C   UNL A   1      38.093  30.569  29.880  1.00  0.00     0.037 A 
ATOM     53  C   UNL A   1      42.646  28.985  34.259  1.00  0.00     0.049 A 
ATOM     54  C   UNL A   1      38.323  30.958  31.316  1.00  0.00     0.074 A 
ATOM     55  C   UNL A   1      42.813  29.484  35.538  1.00  0.00     0.029 A 
ATOM     56  N   UNL A   1      41.509  29.587  33.741  1.00  0.00    -0.354 N 
ATOM     57  N   UNL A   1      39.287  30.599  32.129  1.00  0.00    -0.248 NA
ATOM     58  C   UNL A   1      37.346  31.878  31.919  1.00  0.00     0.031 C 
ATOM     59  C   UNL A   1      41.749  30.350  35.813  1.00  0.00     0.029 A 
ATOM     60  C   UNL A   1      40.946  30.430  34.687  1.00  0.00     0.049 A 
ATOM     61  H   UNL A   1      41.153  29.439  32.834  1.00  0.00     0.167 HD
ATOM     62  C   UNL A   1      39.046  31.259  33.327  1.00  0.00     0.074 A 
ATOM     63  C   UNL A   1      37.852  32.056  33.131  1.00  0.00     0.031 C 
ATOM     64  C   UNL A   1      39.752  31.211  34.485  1.00  0.00     0.037 A 
BRANCH  51  65
ATOM     65  C   UNL A   1      44.600  27.386  34.285  1.00  0.00     0.064 A 
ATOM     66  C   UNL A   1      45.883  27.952  34.261  1.00  0.00     0.173 A 
ATOM     67  C   UNL A   1      44.416  26.205  35.018  1.00  0.00     0.173 A 
ATOM     68  F   UNL A   1      46.114  29.073  33.561  1.00  0.00    -0.203 F 
ATOM     69  C   UNL A   1      46.948  27.341  34.919  1.00  0.00     0.198 A 
ATOM     70  C   UNL A   1      45.478  25.611  35.698  1.00  0.00     0.198 A 
ATOM     71  F   UNL A   1      43.209  25.624  35.075  1.00  0.00    -0.203 F 
ATOM     72  F   UNL A   1      48.176  27.872  34.839  1.00  0.00    -0.200 F 
ATOM     73  C   UNL A   1      46.744  26.175  35.640  1.00  0.00     0.200 A 
ATOM     74  F   UNL A   1      45.276  24.489  36.402  1.00  0.00    -0.200 F 
ATOM     75  F   UNL A   1      47.769  25.587  36.272  1.00  0.00    -0.200 F 
ENDBRANCH  51  65
BRANCH  52  76
ATOM     76  C   UNL A   1      36.927  31.100  29.128  1.00  0.00     0.064 A 
ATOM     77  C   UNL A   1      35.837  30.278  28.807  1.00  0.00     0.173 A 
ATOM     78  C   UNL A   1      36.879  32.440  28.717  1.00  0.00     0.173 A 
ATOM     79  F   UNL A   1      35.852  28.983  29.152  1.00  0.00    -0.203 F 
ATOM     80  C   UNL A   1      34.749  30.776  28.094  1.00  0.00     0.198 A 
ATOM     81  C   UNL A   1      35.779  32.943  28.026  1.00  0.00     0.198 A 
ATOM     82  F   UNL A   1      37.901  33.264  28.995  1.00  0.00    -0.203 F 
ATOM     83  F   UNL A   1      33.737  29.960  27.765  1.00  0.00    -0.200 F 
ATOM     84  C   UNL A   1      34.716  32.108  27.711  1.00  0.00     0.200 A 
ATOM     85  F   UNL A   1      35.750  34.231  27.662  1.00  0.00    -0.200 F 
ATOM     86  F   UNL A   1      33.666  32.586  27.030  1.00  0.00    -0.200 F 
ENDBRANCH  52  76
BRANCH  64  87
ATOM     87  C   UNL A   1      39.264  32.057  35.625  1.00  0.00     0.064 A 
ATOM     88  C   UNL A   1      38.437  31.530  36.630  1.00  0.00     0.173 A 
ATOM     89  C   UNL A   1      39.656  33.400  35.736  1.00  0.00     0.173 A 
ATOM     90  F   UNL A   1      38.024  30.257  36.564  1.00  0.00    -0.203 F 
ATOM     91  C   UNL A   1      38.001  32.325  37.688  1.00  0.00     0.198 A 
ATOM     92  C   UNL A   1      39.241  34.183  36.810  1.00  0.00     0.198 A 
ATOM     93  F   UNL A   1      40.451  33.951  34.807  1.00  0.00    -0.203 F 
ATOM     94  F   UNL A   1      37.175  31.813  38.610  1.00  0.00    -0.200 F 
ATOM     95  C   UNL A   1      38.407  33.648  37.780  1.00  0.00     0.200 A 
ATOM     96  F   UNL A   1      39.645  35.457  36.904  1.00  0.00    -0.200 F 
ATOM     97  F   UNL A   1      37.991  34.409  38.802  1.00  0.00    -0.200 F 
ENDBRANCH  64  87
ENDBRANCH  38  39
ENDBRANCH  31  33
ENDBRANCH  30  31
ENDBRANCH  29  30
ENDBRANCH  28  29
ENDBRANCH  27  28
ENDBRANCH  26  27
ENDBRANCH   1  26
TORSDOF 19
ENDMDL
MODEL 3
REMARK VINA RESULT:     -11.6      1.900      2.987
REMARK SMILES CC(=O)Nc1cccc(-c2ccc(F)c(C(=O)OCCOCCOCCOC(=O)c3ccc(-c4c5nc(c(-c6c(F)c(F)c(F)c(F)c6F)c6ccc([nH]6)c(-c6c(F)c(F)c(F)c(F)c6F)c6nc(c(-c7c(F)c(F)c(F)c(F)c7F)c7ccc4[nH]7)C=C6)C=C5)cc3)c2)c1
REMARK SMILES IDX 22 1 21 2 20 3 19 4 18 5 16 6 17 7 15 8 10 9 11 10 93 11
REMARK SMILES IDX 12 12 13 13 14 14 9 15 5 16 6 17 94 18 7 19 8 20 4 21 1 22
REMARK SMILES IDX 2 23 3 24 23 26 24 27 25 28 26 29 27 30 28 31 29 32 30 33
REMARK SMILES IDX 31 34 92 35 32 36 91 37 33 38 34 39 35 40 85 41 36 42 90 43
REMARK SMILES IDX 84 44 86 45 37 46 89 47 83 48 82 49 38 51 70 52 50 53 69 54
REMARK SMILES IDX 51 55 54 56 68 57 87 58 52 59 53 60 67 62 88 63 55 64 39 65
REMARK SMILES IDX 40 66 48 67 41 68 42 69 46 70 49 71 43 72 44 73 47 74 45 75
REMARK SMILES IDX 71 76 72 77 80 78 73 79 74 80 78 81 81 82 75 83 76 84 79 85
REMARK SMILES IDX 77 86 56 87 57 88 65 89 58 90 59 91 63 92 66 93 60 94 61 95
REMARK SMILES IDX 64 96 62 97
REMARK H PARENT 4 25 86 50 54 61
REMARK Flexibility Score: inf
ROOT
ATOM      1  C   UNL A   1      42.331  18.858  26.252  1.00  0.00     0.188 C 
ENDROOT
BRANCH   1   2
ATOM      2  O   UNL A   1      41.144  19.474  25.759  1.00  0.00    -0.376 OA
BRANCH   2   3
ATOM      3  C   UNL A   1      40.371  20.303  26.622  1.00  0.00     0.202 C 
BRANCH   3   4
ATOM      4  C   UNL A   1      39.744  21.567  26.025  1.00  0.00     0.261 C 
BRANCH   4   5
ATOM      5  O   UNL A   1      38.428  21.339  25.493  1.00  0.00    -0.460 OA
BRANCH   5   6
ATOM      6  C   UNL A   1      37.549  22.363  25.629  1.00  0.00     0.341 C 
ATOM      7  O   UNL A   1      37.807  23.527  25.886  1.00  0.00    -0.246 OA
BRANCH   6   8
ATOM      8  C   UNL A   1      36.197  21.879  25.297  1.00  0.00     0.096 A 
ATOM      9  C   UNL A   1      33.815  22.282  24.923  1.00  0.00    -0.017 A 
ATOM     10  C   UNL A   1      33.657  20.907  24.670  1.00  0.00     0.012 A 
ATOM     11  C   UNL A   1      35.101  22.750  25.261  1.00  0.00     0.027 A 
ATOM     12  C   UNL A   1      34.747  20.034  24.732  1.00  0.00     0.041 A 
ATOM     13  C   UNL A   1      36.012  20.525  25.034  1.00  0.00     0.137 A 
ATOM     14  F   UNL A   1      37.030  19.659  25.117  1.00  0.00    -0.206 F 
BRANCH   9  15
ATOM     15  C   UNL A   1      32.688  23.223  24.778  1.00  0.00    -0.016 A 
ATOM     16  C   UNL A   1      31.404  25.099  25.701  1.00  0.00     0.041 A 
ATOM     17  C   UNL A   1      30.531  25.025  24.614  1.00  0.00     0.026 A 
ATOM     18  C   UNL A   1      32.456  24.187  25.779  1.00  0.00     0.034 A 
ATOM     19  C   UNL A   1      30.752  24.095  23.595  1.00  0.00     0.003 A 
ATOM     20  C   UNL A   1      31.826  23.204  23.674  1.00  0.00     0.009 A 
BRANCH  16  21
ATOM     21  N   UNL A   1      31.131  26.049  26.698  1.00  0.00    -0.326 N 
ATOM     22  C   UNL A   1      31.879  28.156  25.581  1.00  0.00     0.114 C 
ATOM     23  C   UNL A   1      31.439  27.377  26.794  1.00  0.00     0.221 C 
ATOM     24  O   UNL A   1      31.292  27.944  27.879  1.00  0.00    -0.275 OA
ATOM     25  H   UNL A   1      30.628  25.695  27.466  1.00  0.00     0.169 HD
ENDBRANCH  16  21
ENDBRANCH   9  15
ENDBRANCH   6   8
ENDBRANCH   5   6
ENDBRANCH   4   5
ENDBRANCH   3   4
ENDBRANCH   2   3
ENDBRANCH   1   2
BRANCH   1  26
ATOM     26  C   UNL A   1      43.596  18.833  25.368  1.00  0.00     0.188 C 
BRANCH  26  27
ATOM     27  O   UNL A   1      43.717  19.966  24.534  1.00  0.00    -0.376 OA
BRANCH  27  28
ATOM     28  C   UNL A   1      44.862  20.786  24.694  1.00  0.00     0.202 C 
BRANCH  28  29
ATOM     29  C   UNL A   1      44.806  21.916  25.732  1.00  0.00     0.261 C 
BRANCH  29  30
ATOM     30  O   UNL A   1      43.756  22.882  25.572  1.00  0.00    -0.460 OA
BRANCH  30  31
ATOM     31  C   UNL A   1      44.114  24.152  25.284  1.00  0.00     0.338 C 
ATOM     32  O   UNL A   1      44.737  24.541  24.314  1.00  0.00    -0.246 OA
BRANCH  31  33
ATOM     33  C   UNL A   1      43.463  25.035  26.277  1.00  0.00     0.060 A 
ATOM     34  C   UNL A   1      43.909  26.356  26.403  1.00  0.00     0.016 A 
ATOM     35  C   UNL A   1      42.409  24.568  27.069  1.00  0.00     0.016 A 
ATOM     36  C   UNL A   1      43.319  27.205  27.344  1.00  0.00     0.010 A 
ATOM     37  C   UNL A   1      41.829  25.415  28.019  1.00  0.00     0.010 A 
ATOM     38  C   UNL A   1      42.297  26.731  28.178  1.00  0.00    -0.014 A 
BRANCH  38  39
ATOM     39  C   UNL A   1      41.812  27.568  29.304  1.00  0.00     0.031 A 
ATOM     40  C   UNL A   1      42.528  27.499  30.624  1.00  0.00     0.074 A 
ATOM     41  C   UNL A   1      40.757  28.388  29.156  1.00  0.00     0.049 A 
ATOM     42  N   UNL A   1      42.287  28.144  31.738  1.00  0.00    -0.248 NA
ATOM     43  C   UNL A   1      43.670  26.575  30.697  1.00  0.00     0.031 C 
ATOM     44  C   UNL A   1      39.985  28.558  27.930  1.00  0.00     0.029 A 
ATOM     45  N   UNL A   1      40.151  29.229  30.058  1.00  0.00    -0.354 N 
ATOM     46  C   UNL A   1      43.249  27.709  32.640  1.00  0.00     0.074 A 
ATOM     47  C   UNL A   1      44.054  26.719  31.956  1.00  0.00     0.031 C 
ATOM     48  C   UNL A   1      38.995  29.439  28.157  1.00  0.00     0.029 A 
ATOM     49  C   UNL A   1      39.055  29.880  29.551  1.00  0.00     0.049 A 
ATOM     50  H   UNL A   1      40.472  29.352  30.981  1.00  0.00     0.167 HD
ATOM     51  C   UNL A   1      43.450  28.106  33.919  1.00  0.00     0.037 A 
ATOM     52  C   UNL A   1      38.191  30.724  30.148  1.00  0.00     0.037 A 
ATOM     53  C   UNL A   1      42.643  29.078  34.608  1.00  0.00     0.049 A 
ATOM     54  C   UNL A   1      38.396  31.105  31.591  1.00  0.00     0.074 A 
ATOM     55  C   UNL A   1      42.790  29.570  35.893  1.00  0.00     0.029 A 
ATOM     56  N   UNL A   1      41.522  29.693  34.071  1.00  0.00    -0.354 N 
ATOM     57  N   UNL A   1      39.341  30.732  32.421  1.00  0.00    -0.248 NA
ATOM     58  C   UNL A   1      37.416  32.031  32.178  1.00  0.00     0.031 C 
ATOM     59  C   UNL A   1      41.728  30.445  36.151  1.00  0.00     0.029 A 
ATOM     60  C   UNL A   1      40.948  30.538  35.009  1.00  0.00     0.049 A 
ATOM     61  H   UNL A   1      41.182  29.552  33.157  1.00  0.00     0.167 HD
ATOM     62  C   UNL A   1      39.083  31.389  33.617  1.00  0.00     0.074 A 
ATOM     63  C   UNL A   1      37.900  32.198  33.402  1.00  0.00     0.031 C 
ATOM     64  C   UNL A   1      39.766  31.330  34.788  1.00  0.00     0.037 A 
BRANCH  51  65
ATOM     65  C   UNL A   1      44.582  27.461  34.665  1.00  0.00     0.064 A 
ATOM     66  C   UNL A   1      45.795  28.131  34.881  1.00  0.00     0.173 A 
ATOM     67  C   UNL A   1      44.448  26.162  35.174  1.00  0.00     0.173 A 
ATOM     68  F   UNL A   1      45.979  29.369  34.400  1.00  0.00    -0.203 F 
ATOM     69  C   UNL A   1      46.846  27.510  35.553  1.00  0.00     0.198 A 
ATOM     70  C   UNL A   1      45.490  25.554  35.870  1.00  0.00     0.198 A 
ATOM     71  F   UNL A   1      43.307  25.479  34.997  1.00  0.00    -0.203 F 
ATOM     72  F   UNL A   1      48.014  28.149  35.702  1.00  0.00    -0.200 F 
ATOM     73  C   UNL A   1      46.691  26.225  36.050  1.00  0.00     0.200 A 
ATOM     74  F   UNL A   1      45.335  24.315  36.358  1.00  0.00    -0.200 F 
ATOM     75  F   UNL A   1      47.702  25.628  36.696  1.00  0.00    -0.200 F 
ENDBRANCH  51  65
BRANCH  52  76
ATOM     76  C   UNL A   1      37.044  31.268  29.376  1.00  0.00     0.064 A 
ATOM     77  C   UNL A   1      35.955  30.458  29.029  1.00  0.00     0.173 A 
ATOM     78  C   UNL A   1      37.016  32.611  28.973  1.00  0.00     0.173 A 
ATOM     79  F   UNL A   1      35.952  29.161  29.367  1.00  0.00    -0.203 F 
ATOM     80  C   UNL A   1      34.885  30.968  28.298  1.00  0.00     0.198 A 
ATOM     81  C   UNL A   1      35.934  33.127  28.262  1.00  0.00     0.198 A 
ATOM     82  F   UNL A   1      38.039  33.425  29.275  1.00  0.00    -0.203 F 
ATOM     83  F   UNL A   1      33.873  30.163  27.944  1.00  0.00    -0.200 F 
ATOM     84  C   UNL A   1      34.871  32.303  27.922  1.00  0.00     0.200 A 
ATOM     85  F   UNL A   1      35.923  34.417  27.905  1.00  0.00    -0.200 F 
ATOM     86  F   UNL A   1      33.839  32.794  27.222  1.00  0.00    -0.200 F 
ENDBRANCH  52  76
BRANCH  64  87
ATOM     87  C   UNL A   1      39.262  32.175  35.922  1.00  0.00     0.064 A 
ATOM     88  C   UNL A   1      38.320  31.687  36.841  1.00  0.00     0.173 A 
ATOM     89  C   UNL A   1      39.755  33.475  36.116  1.00  0.00     0.173 A 
ATOM     90  F   UNL A   1      37.808  30.457  36.693  1.00  0.00    -0.203 F 
ATOM     91  C   UNL A   1      37.871  32.480  37.895  1.00  0.00     0.198 A 
ATOM     92  C   UNL A   1      39.325  34.254  37.187  1.00  0.00     0.198 A 
ATOM     93  F   UNL A   1      40.663  33.987  35.272  1.00  0.00    -0.203 F 
ATOM     94  F   UNL A   1      36.937  32.010  38.732  1.00  0.00    -0.200 F 
ATOM     95  C   UNL A   1      38.378  33.759  38.071  1.00  0.00     0.200 A 
ATOM     96  F   UNL A   1      39.825  35.484  37.363  1.00  0.00    -0.200 F 
ATOM     97  F   UNL A   1      37.948  34.518  39.089  1.00  0.00    -0.200 F 
ENDBRANCH  64  87
ENDBRANCH  38  39
ENDBRANCH  31  33
ENDBRANCH  30  31
ENDBRANCH  29  30
ENDBRANCH  28  29
ENDBRANCH  27  28
ENDBRANCH  26  27
ENDBRANCH   1  26
TORSDOF 19
ENDMDL
