MODEL 1
REMARK VINA RESULT:     -11.7      0.000      0.000
REMARK SMILES Cc1ccc(NC(=O)C[C@H]([NH2+]Cc2cccnc2)C(=O)OCCOCCOCCOC(=O)c2ccc(-c3c4nc(c(-c5c(F)c(F)c(F)c(F)c5F)c5ccc([nH]5)c(-c5c(F)c(F)c(F)c(F)c5F)c5nc(c(-c6c(F)c(F)c(F)c(F)c6F)c6ccc3[nH]6)C=C5)C=C4)cc2)cc1Cl
REMARK SMILES IDX 25 1 24 2 23 3 22 4 21 5 19 6 20 7 10 8 9 9 7 10 6 11 8 13
REMARK SMILES IDX 5 14 1 15 2 16 3 17 97 18 4 19 96 20 98 21 11 22 12 25 13 26
REMARK SMILES IDX 14 27 18 28 15 29 17 30 16 31 26 32 27 33 28 34 29 35 30 36
REMARK SMILES IDX 31 37 32 38 33 39 34 40 95 41 35 42 94 43 36 44 37 45 38 46
REMARK SMILES IDX 88 47 39 48 93 49 87 50 89 51 40 52 92 53 86 54 85 55 41 57
REMARK SMILES IDX 73 58 53 59 72 60 54 61 57 62 71 63 90 64 55 65 56 66 70 68
REMARK SMILES IDX 91 69 58 70 42 71 43 72 51 73 44 74 45 75 49 76 52 77 46 78
REMARK SMILES IDX 47 79 50 80 48 81 74 82 75 83 83 84 76 85 77 86 81 87 84 88
REMARK SMILES IDX 78 89 79 90 82 91 80 92 59 93 60 94 68 95 61 96 62 97 66 98
REMARK SMILES IDX 69 99 63 100 64 101 67 102 65 103
REMARK H PARENT 6 12 11 23 11 24 89 56 57 67
REMARK Flexibility Score: inf
ROOT
ATOM      1  C   UNL A   1      39.733  21.235  26.183  1.00  0.00     0.188 C 
ENDROOT
BRANCH   1   2
ATOM      2  O   UNL A   1      38.601  21.467  25.354  1.00  0.00    -0.376 OA
BRANCH   2   3
ATOM      3  C   UNL A   1      37.593  22.373  25.775  1.00  0.00     0.202 C 
BRANCH   3   4
ATOM      4  C   UNL A   1      36.540  22.797  24.740  1.00  0.00     0.261 C 
BRANCH   4   5
ATOM      5  O   UNL A   1      35.398  23.577  25.169  1.00  0.00    -0.459 OA
BRANCH   5   6
ATOM      6  C   UNL A   1      34.377  22.922  25.794  1.00  0.00     0.365 C 
ATOM      7  O   UNL A   1      34.338  22.711  27.002  1.00  0.00    -0.245 OA
BRANCH   6   8
ATOM      8  C   UNL A   1      33.299  22.360  24.818  1.00  0.00     0.303 C 
BRANCH   8   9
ATOM      9  C   UNL A   1      32.296  23.463  24.513  1.00  0.00     0.177 C 
BRANCH   9  10
ATOM     10  C   UNL A   1      31.013  23.819  25.259  1.00  0.00     0.231 C 
ATOM     11  N   UNL A   1      30.333  24.978  25.401  1.00  0.00    -0.326 N 
ATOM     12  H   UNL A   1      29.732  24.916  26.178  1.00  0.00     0.169 HD
ATOM     13  O   UNL A   1      30.590  22.922  26.018  1.00  0.00    -0.274 OA
BRANCH  11  14
ATOM     14  C   UNL A   1      30.202  26.244  24.804  1.00  0.00     0.042 A 
ATOM     15  C   UNL A   1      29.642  30.087  22.827  1.00  0.00     0.046 C 
ATOM     16  C   UNL A   1      29.807  28.765  23.519  1.00  0.00    -0.032 A 
ATOM     17  C   UNL A   1      29.003  27.665  23.209  1.00  0.00     0.007 A 
ATOM     18  C   UNL A   1      30.796  28.583  24.476  1.00  0.00     0.046 A 
ATOM     19  C   UNL A   1      29.184  26.430  23.863  1.00  0.00     0.026 A 
ATOM     20  C   UNL A   1      31.031  27.317  25.022  1.00  0.00     0.047 A 
ATOM     21  Cl  UNL A   1      31.737  29.917  25.044  1.00  0.00    -0.084 Cl
ENDBRANCH  11  14
ENDBRANCH   9  10
ENDBRANCH   8   9
BRANCH   8  22
ATOM     22  N   UNL A   1      32.771  21.002  25.117  1.00  0.00    -0.330 N 
ATOM     23  H   UNL A   1      31.886  21.113  25.610  1.00  0.00     0.347 HD
ATOM     24  H   UNL A   1      33.497  20.537  25.662  1.00  0.00     0.347 HD
BRANCH  22  25
ATOM     25  C   UNL A   1      32.533  20.134  23.951  1.00  0.00     0.299 C 
BRANCH  25  26
ATOM     26  C   UNL A   1      32.909  18.684  24.175  1.00  0.00     0.024 A 
ATOM     27  C   UNL A   1      33.295  17.833  23.138  1.00  0.00     0.013 A 
ATOM     28  C   UNL A   1      32.881  18.126  25.456  1.00  0.00     0.120 A 
ATOM     29  C   UNL A   1      33.657  16.511  23.414  1.00  0.00     0.021 A 
ATOM     30  N   UNL A   1      33.213  16.845  25.754  1.00  0.00    -0.264 NA
ATOM     31  C   UNL A   1      33.608  16.069  24.726  1.00  0.00     0.111 A 
ENDBRANCH  25  26
ENDBRANCH  22  25
ENDBRANCH   8  22
ENDBRANCH   6   8
ENDBRANCH   5   6
ENDBRANCH   4   5
ENDBRANCH   3   4
ENDBRANCH   2   3
ENDBRANCH   1   2
BRANCH   1  32
ATOM     32  C   UNL A   1      40.346  19.837  26.247  1.00  0.00     0.188 C 
BRANCH  32  33
ATOM     33  O   UNL A   1      41.460  19.674  25.394  1.00  0.00    -0.376 OA
BRANCH  33  34
ATOM     34  C   UNL A   1      42.750  19.608  25.970  1.00  0.00     0.202 C 
BRANCH  34  35
ATOM     35  C   UNL A   1      43.641  20.828  25.731  1.00  0.00     0.261 C 
BRANCH  35  36
ATOM     36  O   UNL A   1      43.144  22.056  26.290  1.00  0.00    -0.460 OA
BRANCH  36  37
ATOM     37  C   UNL A   1      43.011  23.114  25.460  1.00  0.00     0.338 C 
ATOM     38  O   UNL A   1      43.096  23.122  24.241  1.00  0.00    -0.246 OA
BRANCH  37  39
ATOM     39  C   UNL A   1      42.604  24.263  26.295  1.00  0.00     0.060 A 
ATOM     40  C   UNL A   1      43.119  25.549  26.054  1.00  0.00     0.016 A 
ATOM     41  C   UNL A   1      41.668  24.059  27.308  1.00  0.00     0.016 A 
ATOM     42  C   UNL A   1      42.704  26.632  26.833  1.00  0.00     0.010 A 
ATOM     43  C   UNL A   1      41.273  25.135  28.099  1.00  0.00     0.010 A 
ATOM     44  C   UNL A   1      41.803  26.421  27.882  1.00  0.00    -0.014 A 
BRANCH  44  45
ATOM     45  C   UNL A   1      41.522  27.470  28.888  1.00  0.00     0.031 A 
ATOM     46  C   UNL A   1      42.310  27.444  30.163  1.00  0.00     0.074 A 
ATOM     47  C   UNL A   1      40.526  28.354  28.721  1.00  0.00     0.049 A 
ATOM     48  N   UNL A   1      42.085  28.052  31.298  1.00  0.00    -0.248 NA
ATOM     49  C   UNL A   1      43.506  26.587  30.161  1.00  0.00     0.031 C 
ATOM     50  C   UNL A   1      39.726  28.509  27.511  1.00  0.00     0.029 A 
ATOM     51  N   UNL A   1      39.986  29.257  29.607  1.00  0.00    -0.354 N 
ATOM     52  C   UNL A   1      43.084  27.617  32.158  1.00  0.00     0.074 A 
ATOM     53  C   UNL A   1      43.908  26.687  31.417  1.00  0.00     0.031 C 
ATOM     54  C   UNL A   1      38.761  29.416  27.744  1.00  0.00     0.029 A 
ATOM     55  C   UNL A   1      38.845  29.858  29.135  1.00  0.00     0.049 A 
ATOM     56  H   UNL A   1      40.377  29.452  30.489  1.00  0.00     0.167 HD
ATOM     57  C   UNL A   1      43.281  27.956  33.453  1.00  0.00     0.037 A 
ATOM     58  C   UNL A   1      37.940  30.624  29.775  1.00  0.00     0.037 A 
ATOM     59  C   UNL A   1      42.451  28.884  34.173  1.00  0.00     0.049 A 
ATOM     60  C   UNL A   1      38.140  30.947  31.235  1.00  0.00     0.074 A 
ATOM     61  C   UNL A   1      42.588  29.334  35.474  1.00  0.00     0.029 A 
ATOM     62  N   UNL A   1      41.315  29.490  33.655  1.00  0.00    -0.354 N 
ATOM     63  N   UNL A   1      39.092  30.555  32.046  1.00  0.00    -0.248 NA
ATOM     64  C   UNL A   1      37.138  31.817  31.869  1.00  0.00     0.031 C 
ATOM     65  C   UNL A   1      41.494  30.155  35.766  1.00  0.00     0.029 A 
ATOM     66  C   UNL A   1      40.719  30.282  34.623  1.00  0.00     0.049 A 
ATOM     67  H   UNL A   1      40.981  29.375  32.737  1.00  0.00     0.167 HD
ATOM     68  C   UNL A   1      38.825  31.152  33.272  1.00  0.00     0.074 A 
ATOM     69  C   UNL A   1      37.619  31.934  33.100  1.00  0.00     0.031 C 
ATOM     70  C   UNL A   1      39.523  31.066  34.432  1.00  0.00     0.037 A 
BRANCH  57  71
ATOM     71  C   UNL A   1      44.401  27.271  34.184  1.00  0.00     0.064 A 
ATOM     72  C   UNL A   1      44.198  26.111  34.947  1.00  0.00     0.173 A 
ATOM     73  C   UNL A   1      45.703  27.793  34.122  1.00  0.00     0.173 A 
ATOM     74  F   UNL A   1      42.971  25.576  35.052  1.00  0.00    -0.203 F 
ATOM     75  C   UNL A   1      45.245  25.528  35.656  1.00  0.00     0.198 A 
ATOM     76  C   UNL A   1      46.755  27.184  34.800  1.00  0.00     0.198 A 
ATOM     77  F   UNL A   1      45.957  28.897  33.404  1.00  0.00    -0.203 F 
ATOM     78  F   UNL A   1      45.011  24.462  36.437  1.00  0.00    -0.200 F 
ATOM     79  C   UNL A   1      46.523  26.060  35.579  1.00  0.00     0.200 A 
ATOM     80  F   UNL A   1      47.992  27.692  34.711  1.00  0.00    -0.200 F 
ATOM     81  F   UNL A   1      47.529  25.499  36.263  1.00  0.00    -0.200 F 
ENDBRANCH  57  71
BRANCH  58  82
ATOM     82  C   UNL A   1      36.742  31.106  29.038  1.00  0.00     0.064 A 
ATOM     83  C   UNL A   1      35.681  30.243  28.736  1.00  0.00     0.173 A 
ATOM     84  C   UNL A   1      36.624  32.448  28.643  1.00  0.00     0.173 A 
ATOM     85  F   UNL A   1      35.761  28.946  29.068  1.00  0.00    -0.203 F 
ATOM     86  C   UNL A   1      34.549  30.701  28.067  1.00  0.00     0.198 A 
ATOM     87  C   UNL A   1      35.478  32.911  28.000  1.00  0.00     0.198 A 
ATOM     88  F   UNL A   1      37.613  33.315  28.904  1.00  0.00    -0.203 F 
ATOM     89  F   UNL A   1      33.563  29.846  27.761  1.00  0.00    -0.200 F 
ATOM     90  C   UNL A   1      34.443  32.037  27.708  1.00  0.00     0.200 A 
ATOM     91  F   UNL A   1      35.376  34.206  27.667  1.00  0.00    -0.200 F 
ATOM     92  F   UNL A   1      33.347  32.479  27.078  1.00  0.00    -0.200 F 
ENDBRANCH  58  82
BRANCH  70  93
ATOM     93  C   UNL A   1      39.045  31.879  35.603  1.00  0.00     0.064 A 
ATOM     94  C   UNL A   1      38.230  31.332  36.604  1.00  0.00     0.173 A 
ATOM     95  C   UNL A   1      39.492  33.200  35.768  1.00  0.00     0.173 A 
ATOM     96  F   UNL A   1      37.766  30.080  36.489  1.00  0.00    -0.203 F 
ATOM     97  C   UNL A   1      37.873  32.082  37.723  1.00  0.00     0.198 A 
ATOM     98  C   UNL A   1      39.160  33.934  36.903  1.00  0.00     0.198 A 
ATOM     99  F   UNL A   1      40.280  33.768  34.843  1.00  0.00    -0.203 F 
ATOM    100  F   UNL A   1      37.069  31.551  38.654  1.00  0.00    -0.200 F 
ATOM    101  C   UNL A   1      38.348  33.376  37.878  1.00  0.00     0.200 A 
ATOM    102  F   UNL A   1      39.637  35.177  37.058  1.00  0.00    -0.200 F 
ATOM    103  F   UNL A   1      38.024  34.086  38.968  1.00  0.00    -0.200 F 
ENDBRANCH  70  93
ENDBRANCH  44  45
ENDBRANCH  37  39
ENDBRANCH  36  37
ENDBRANCH  35  36
ENDBRANCH  34  35
ENDBRANCH  33  34
ENDBRANCH  32  33
ENDBRANCH   1  32
TORSDOF 23
ENDMDL
MODEL 2
REMARK VINA RESULT:     -11.3      1.115      2.323
REMARK SMILES Cc1ccc(NC(=O)C[C@H]([NH2+]Cc2cccnc2)C(=O)OCCOCCOCCOC(=O)c2ccc(-c3c4nc(c(-c5c(F)c(F)c(F)c(F)c5F)c5ccc([nH]5)c(-c5c(F)c(F)c(F)c(F)c5F)c5nc(c(-c6c(F)c(F)c(F)c(F)c6F)c6ccc3[nH]6)C=C5)C=C4)cc2)cc1Cl
REMARK SMILES IDX 25 1 24 2 23 3 22 4 21 5 19 6 20 7 10 8 9 9 7 10 6 11 8 13
REMARK SMILES IDX 5 14 1 15 2 16 3 17 97 18 4 19 96 20 98 21 11 22 12 25 13 26
REMARK SMILES IDX 14 27 18 28 15 29 17 30 16 31 26 32 27 33 28 34 29 35 30 36
REMARK SMILES IDX 31 37 32 38 33 39 34 40 95 41 35 42 94 43 36 44 37 45 38 46
REMARK SMILES IDX 88 47 39 48 93 49 87 50 89 51 40 52 92 53 86 54 85 55 41 57
REMARK SMILES IDX 73 58 53 59 72 60 54 61 57 62 71 63 90 64 55 65 56 66 70 68
REMARK SMILES IDX 91 69 58 70 42 71 43 72 51 73 44 74 45 75 49 76 52 77 46 78
REMARK SMILES IDX 47 79 50 80 48 81 74 82 75 83 83 84 76 85 77 86 81 87 84 88
REMARK SMILES IDX 78 89 79 90 82 91 80 92 59 93 60 94 68 95 61 96 62 97 66 98
REMARK SMILES IDX 69 99 63 100 64 101 67 102 65 103
REMARK H PARENT 6 12 11 23 11 24 89 56 57 67
REMARK Flexibility Score: inf
ROOT
ATOM      1  C   UNL A   1      39.703  21.759  26.280  1.00  0.00     0.188 C 
ENDROOT
BRANCH   1   2
ATOM      2  O   UNL A   1      38.507  22.075  25.581  1.00  0.00    -0.376 OA
BRANCH   2   3
ATOM      3  C   UNL A   1      37.636  23.074  26.089  1.00  0.00     0.202 C 
BRANCH   3   4
ATOM      4  C   UNL A   1      36.159  23.010  25.672  1.00  0.00     0.261 C 
BRANCH   4   5
ATOM      5  O   UNL A   1      35.326  24.183  25.831  1.00  0.00    -0.459 OA
BRANCH   5   6
ATOM      6  C   UNL A   1      34.007  24.080  25.496  1.00  0.00     0.365 C 
ATOM      7  O   UNL A   1      33.087  24.428  26.229  1.00  0.00    -0.245 OA
BRANCH   6   8
ATOM      8  C   UNL A   1      33.757  23.372  24.130  1.00  0.00     0.303 C 
BRANCH   8   9
ATOM      9  C   UNL A   1      34.157  24.321  23.010  1.00  0.00     0.177 C 
BRANCH   9  10
ATOM     10  C   UNL A   1      33.261  25.042  22.005  1.00  0.00     0.231 C 
ATOM     11  N   UNL A   1      32.409  26.084  22.127  1.00  0.00    -0.326 N 
ATOM     12  H   UNL A   1      31.785  26.091  21.365  1.00  0.00     0.169 HD
ATOM     13  O   UNL A   1      33.163  24.472  20.899  1.00  0.00    -0.274 OA
BRANCH  11  14
ATOM     14  C   UNL A   1      32.120  27.160  22.983  1.00  0.00     0.042 A 
ATOM     15  C   UNL A   1      31.401  30.448  25.751  1.00  0.00     0.046 C 
ATOM     16  C   UNL A   1      31.673  29.329  24.789  1.00  0.00    -0.032 A 
ATOM     17  C   UNL A   1      32.817  28.533  24.888  1.00  0.00     0.007 A 
ATOM     18  C   UNL A   1      30.772  29.026  23.778  1.00  0.00     0.046 A 
ATOM     19  C   UNL A   1      33.047  27.480  23.980  1.00  0.00     0.026 A 
ATOM     20  C   UNL A   1      30.965  27.903  22.967  1.00  0.00     0.047 A 
ATOM     21  Cl  UNL A   1      29.408  30.043  23.471  1.00  0.00    -0.084 Cl
ENDBRANCH  11  14
ENDBRANCH   9  10
ENDBRANCH   8   9
BRANCH   8  22
ATOM     22  N   UNL A   1      32.479  22.626  23.988  1.00  0.00    -0.330 N 
ATOM     23  H   UNL A   1      31.764  23.286  23.685  1.00  0.00     0.347 HD
ATOM     24  H   UNL A   1      32.300  22.207  24.901  1.00  0.00     0.347 HD
BRANCH  22  25
ATOM     25  C   UNL A   1      32.492  21.504  23.033  1.00  0.00     0.299 C 
BRANCH  25  26
ATOM     26  C   UNL A   1      32.510  20.138  23.686  1.00  0.00     0.024 A 
ATOM     27  C   UNL A   1      32.529  18.949  22.954  1.00  0.00     0.013 A 
ATOM     28  C   UNL A   1      32.503  20.009  25.078  1.00  0.00     0.120 A 
ATOM     29  C   UNL A   1      32.573  17.719  23.618  1.00  0.00     0.021 A 
ATOM     30  N   UNL A   1      32.532  18.831  25.750  1.00  0.00    -0.264 NA
ATOM     31  C   UNL A   1      32.581  17.711  25.003  1.00  0.00     0.111 A 
ENDBRANCH  25  26
ENDBRANCH  22  25
ENDBRANCH   8  22
ENDBRANCH   6   8
ENDBRANCH   5   6
ENDBRANCH   4   5
ENDBRANCH   3   4
ENDBRANCH   2   3
ENDBRANCH   1   2
BRANCH   1  32
ATOM     32  C   UNL A   1      40.100  20.297  26.474  1.00  0.00     0.188 C 
BRANCH  32  33
ATOM     33  O   UNL A   1      41.106  19.866  25.580  1.00  0.00    -0.376 OA
BRANCH  33  34
ATOM     34  C   UNL A   1      42.400  19.611  26.090  1.00  0.00     0.202 C 
BRANCH  34  35
ATOM     35  C   UNL A   1      43.460  20.661  25.752  1.00  0.00     0.261 C 
BRANCH  35  36
ATOM     36  O   UNL A   1      43.240  21.952  26.345  1.00  0.00    -0.460 OA
BRANCH  36  37
ATOM     37  C   UNL A   1      43.115  23.011  25.514  1.00  0.00     0.338 C 
ATOM     38  O   UNL A   1      43.192  23.016  24.295  1.00  0.00    -0.246 OA
BRANCH  37  39
ATOM     39  C   UNL A   1      42.729  24.167  26.350  1.00  0.00     0.060 A 
ATOM     40  C   UNL A   1      43.225  25.453  26.076  1.00  0.00     0.016 A 
ATOM     41  C   UNL A   1      41.833  23.967  27.398  1.00  0.00     0.016 A 
ATOM     42  C   UNL A   1      42.830  26.542  26.857  1.00  0.00     0.010 A 
ATOM     43  C   UNL A   1      41.458  25.050  28.191  1.00  0.00     0.010 A 
ATOM     44  C   UNL A   1      41.969  26.337  27.940  1.00  0.00    -0.014 A 
BRANCH  44  45
ATOM     45  C   UNL A   1      41.717  27.396  28.944  1.00  0.00     0.031 A 
ATOM     46  C   UNL A   1      42.524  27.369  30.206  1.00  0.00     0.074 A 
ATOM     47  C   UNL A   1      40.728  28.291  28.786  1.00  0.00     0.049 A 
ATOM     48  N   UNL A   1      42.325  27.987  31.340  1.00  0.00    -0.248 NA
ATOM     49  C   UNL A   1      43.710  26.498  30.190  1.00  0.00     0.031 C 
ATOM     50  C   UNL A   1      39.911  28.446  27.588  1.00  0.00     0.029 A 
ATOM     51  N   UNL A   1      40.214  29.205  29.675  1.00  0.00    -0.354 N 
ATOM     52  C   UNL A   1      43.332  27.546  32.187  1.00  0.00     0.074 A 
ATOM     53  C   UNL A   1      44.134  26.601  31.439  1.00  0.00     0.031 C 
ATOM     54  C   UNL A   1      38.961  29.366  27.830  1.00  0.00     0.029 A 
ATOM     55  C   UNL A   1      39.072  29.816  29.217  1.00  0.00     0.049 A 
ATOM     56  H   UNL A   1      40.621  29.401  30.548  1.00  0.00     0.167 HD
ATOM     57  C   UNL A   1      43.554  27.891  33.476  1.00  0.00     0.037 A 
ATOM     58  C   UNL A   1      38.186  30.598  29.866  1.00  0.00     0.037 A 
ATOM     59  C   UNL A   1      42.746  28.833  34.203  1.00  0.00     0.049 A 
ATOM     60  C   UNL A   1      38.413  30.927  31.320  1.00  0.00     0.074 A 
ATOM     61  C   UNL A   1      42.909  29.290  35.498  1.00  0.00     0.029 A 
ATOM     62  N   UNL A   1      41.609  29.450  33.699  1.00  0.00    -0.354 N 
ATOM     63  N   UNL A   1      39.374  30.529  32.118  1.00  0.00    -0.248 NA
ATOM     64  C   UNL A   1      37.432  31.813  31.964  1.00  0.00     0.031 C 
ATOM     65  C   UNL A   1      41.830  30.126  35.802  1.00  0.00     0.029 A 
ATOM     66  C   UNL A   1      41.038  30.255  34.671  1.00  0.00     0.049 A 
ATOM     67  H   UNL A   1      41.260  29.332  32.787  1.00  0.00     0.167 HD
ATOM     68  C   UNL A   1      39.133  31.138  33.345  1.00  0.00     0.074 A 
ATOM     69  C   UNL A   1      37.933  31.933  33.186  1.00  0.00     0.031 C 
ATOM     70  C   UNL A   1      39.849  31.051  34.494  1.00  0.00     0.037 A 
BRANCH  57  71
ATOM     71  C   UNL A   1      44.677  27.198  34.194  1.00  0.00     0.064 A 
ATOM     72  C   UNL A   1      45.980  27.717  34.227  1.00  0.00     0.173 A 
ATOM     73  C   UNL A   1      44.442  25.983  34.858  1.00  0.00     0.173 A 
ATOM     74  F   UNL A   1      46.265  28.869  33.598  1.00  0.00    -0.203 F 
ATOM     75  C   UNL A   1      47.012  27.026  34.856  1.00  0.00     0.198 A 
ATOM     76  C   UNL A   1      45.468  25.314  35.519  1.00  0.00     0.198 A 
ATOM     77  F   UNL A   1      43.215  25.441  34.864  1.00  0.00    -0.203 F 
ATOM     78  F   UNL A   1      48.263  27.507  34.811  1.00  0.00    -0.200 F 
ATOM     79  C   UNL A   1      46.755  25.829  35.506  1.00  0.00     0.200 A 
ATOM     80  F   UNL A   1      45.213  24.165  36.160  1.00  0.00    -0.200 F 
ATOM     81  F   UNL A   1      47.750  25.163  36.109  1.00  0.00    -0.200 F 
ENDBRANCH  57  71
BRANCH  58  82
ATOM     82  C   UNL A   1      36.982  31.089  29.144  1.00  0.00     0.064 A 
ATOM     83  C   UNL A   1      36.894  32.415  28.704  1.00  0.00     0.173 A 
ATOM     84  C   UNL A   1      35.908  30.233  28.857  1.00  0.00     0.173 A 
ATOM     85  F   UNL A   1      37.883  33.279  28.978  1.00  0.00    -0.203 F 
ATOM     86  C   UNL A   1      35.776  32.869  28.006  1.00  0.00     0.198 A 
ATOM     87  C   UNL A   1      34.804  30.679  28.134  1.00  0.00     0.198 A 
ATOM     88  F   UNL A   1      35.941  28.954  29.260  1.00  0.00    -0.203 F 
ATOM     89  F   UNL A   1      35.703  34.152  27.625  1.00  0.00    -0.200 F 
ATOM     90  C   UNL A   1      34.737  31.998  27.712  1.00  0.00     0.200 A 
ATOM     91  F   UNL A   1      33.809  29.831  27.842  1.00  0.00    -0.200 F 
ATOM     92  F   UNL A   1      33.670  32.432  27.028  1.00  0.00    -0.200 F 
ENDBRANCH  58  82
BRANCH  70  93
ATOM     93  C   UNL A   1      39.399  31.877  35.667  1.00  0.00     0.064 A 
ATOM     94  C   UNL A   1      39.798  33.210  35.834  1.00  0.00     0.173 A 
ATOM     95  C   UNL A   1      38.478  31.346  36.586  1.00  0.00     0.173 A 
ATOM     96  F   UNL A   1      40.684  33.761  34.992  1.00  0.00    -0.203 F 
ATOM     97  C   UNL A   1      39.297  33.980  36.883  1.00  0.00     0.198 A 
ATOM     98  C   UNL A   1      37.957  32.128  37.612  1.00  0.00     0.198 A 
ATOM     99  F   UNL A   1      38.060  30.078  36.467  1.00  0.00    -0.203 F 
ATOM    100  F   UNL A   1      39.713  35.243  37.042  1.00  0.00    -0.200 F 
ATOM    101  C   UNL A   1      38.368  33.443  37.762  1.00  0.00     0.200 A 
ATOM    102  F   UNL A   1      37.045  31.611  38.448  1.00  0.00    -0.200 F 
ATOM    103  F   UNL A   1      37.870  34.193  38.755  1.00  0.00    -0.200 F 
ENDBRANCH  70  93
ENDBRANCH  44  45
ENDBRANCH  37  39
ENDBRANCH  36  37
ENDBRANCH  35  36
ENDBRANCH  34  35
ENDBRANCH  33  34
ENDBRANCH  32  33
ENDBRANCH   1  32
TORSDOF 23
ENDMDL
MODEL 3
REMARK VINA RESULT:     -11.0      4.317      8.627
REMARK SMILES Cc1ccc(NC(=O)C[C@H]([NH2+]Cc2cccnc2)C(=O)OCCOCCOCCOC(=O)c2ccc(-c3c4nc(c(-c5c(F)c(F)c(F)c(F)c5F)c5ccc([nH]5)c(-c5c(F)c(F)c(F)c(F)c5F)c5nc(c(-c6c(F)c(F)c(F)c(F)c6F)c6ccc3[nH]6)C=C5)C=C4)cc2)cc1Cl
REMARK SMILES IDX 25 1 24 2 23 3 22 4 21 5 19 6 20 7 10 8 9 9 7 10 6 11 8 13
REMARK SMILES IDX 5 14 1 15 2 16 3 17 97 18 4 19 96 20 98 21 11 22 12 25 13 26
REMARK SMILES IDX 14 27 18 28 15 29 17 30 16 31 26 32 27 33 28 34 29 35 30 36
REMARK SMILES IDX 31 37 32 38 33 39 34 40 95 41 35 42 94 43 36 44 37 45 38 46
REMARK SMILES IDX 88 47 39 48 93 49 87 50 89 51 40 52 92 53 86 54 85 55 41 57
REMARK SMILES IDX 73 58 53 59 72 60 54 61 57 62 71 63 90 64 55 65 56 66 70 68
REMARK SMILES IDX 91 69 58 70 42 71 43 72 51 73 44 74 45 75 49 76 52 77 46 78
REMARK SMILES IDX 47 79 50 80 48 81 74 82 75 83 83 84 76 85 77 86 81 87 84 88
REMARK SMILES IDX 78 89 79 90 82 91 80 92 59 93 60 94 68 95 61 96 62 97 66 98
REMARK SMILES IDX 69 99 63 100 64 101 67 102 65 103
REMARK H PARENT 6 12 11 23 11 24 89 56 57 67
REMARK Flexibility Score: inf
ROOT
ATOM      1  C   UNL A   1      36.320  21.984  25.614  1.00  0.00     0.188 C 
ENDROOT
BRANCH   1   2
ATOM      2  O   UNL A   1      36.240  23.375  25.899  1.00  0.00    -0.376 OA
BRANCH   2   3
ATOM      3  C   UNL A   1      34.980  24.026  25.884  1.00  0.00     0.202 C 
BRANCH   3   4
ATOM      4  C   UNL A   1      34.638  24.890  24.660  1.00  0.00     0.261 C 
BRANCH   4   5
ATOM      5  O   UNL A   1      34.322  24.244  23.403  1.00  0.00    -0.459 OA
BRANCH   5   6
ATOM      6  C   UNL A   1      33.017  24.231  23.004  1.00  0.00     0.365 C 
ATOM      7  O   UNL A   1      32.467  25.171  22.438  1.00  0.00    -0.245 OA
BRANCH   6   8
ATOM      8  C   UNL A   1      32.239  22.949  23.427  1.00  0.00     0.303 C 
BRANCH   8   9
ATOM      9  C   UNL A   1      31.013  23.365  24.225  1.00  0.00     0.177 C 
BRANCH   9  10
ATOM     10  C   UNL A   1      30.914  23.725  25.705  1.00  0.00     0.231 C 
ATOM     11  N   UNL A   1      31.160  24.868  26.384  1.00  0.00    -0.326 N 
ATOM     12  H   UNL A   1      31.284  24.665  27.340  1.00  0.00     0.169 HD
ATOM     13  O   UNL A   1      30.733  22.750  26.464  1.00  0.00    -0.274 OA
BRANCH  11  14
ATOM     14  C   UNL A   1      31.298  26.250  26.174  1.00  0.00     0.042 A 
ATOM     15  C   UNL A   1      31.780  30.559  25.732  1.00  0.00     0.046 C 
ATOM     16  C   UNL A   1      31.643  29.073  25.890  1.00  0.00    -0.032 A 
ATOM     17  C   UNL A   1      31.929  28.430  27.097  1.00  0.00     0.007 A 
ATOM     18  C   UNL A   1      31.193  28.285  24.840  1.00  0.00     0.046 A 
ATOM     19  C   UNL A   1      31.781  27.034  27.227  1.00  0.00     0.026 A 
ATOM     20  C   UNL A   1      30.943  26.922  25.030  1.00  0.00     0.047 A 
ATOM     21  Cl  UNL A   1      30.963  28.956  23.263  1.00  0.00    -0.084 Cl
ENDBRANCH  11  14
ENDBRANCH   9  10
ENDBRANCH   8   9
BRANCH   8  22
ATOM     22  N   UNL A   1      33.052  21.814  23.939  1.00  0.00    -0.330 N 
ATOM     23  H   UNL A   1      33.582  22.148  24.743  1.00  0.00     0.347 HD
ATOM     24  H   UNL A   1      33.629  21.510  23.155  1.00  0.00     0.347 HD
BRANCH  22  25
ATOM     25  C   UNL A   1      32.297  20.621  24.362  1.00  0.00     0.299 C 
BRANCH  25  26
ATOM     26  C   UNL A   1      32.952  19.310  23.980  1.00  0.00     0.024 A 
ATOM     27  C   UNL A   1      34.096  18.823  24.615  1.00  0.00     0.013 A 
ATOM     28  C   UNL A   1      32.430  18.520  22.952  1.00  0.00     0.120 A 
ATOM     29  C   UNL A   1      34.637  17.591  24.234  1.00  0.00     0.021 A 
ATOM     30  N   UNL A   1      32.940  17.329  22.551  1.00  0.00    -0.264 NA
ATOM     31  C   UNL A   1      34.026  16.884  23.213  1.00  0.00     0.111 A 
ENDBRANCH  25  26
ENDBRANCH  22  25
ENDBRANCH   8  22
ENDBRANCH   6   8
ENDBRANCH   5   6
ENDBRANCH   4   5
ENDBRANCH   3   4
ENDBRANCH   2   3
ENDBRANCH   1   2
BRANCH   1  32
ATOM     32  C   UNL A   1      37.645  21.385  25.148  1.00  0.00     0.188 C 
BRANCH  32  33
ATOM     33  O   UNL A   1      37.592  19.985  24.962  1.00  0.00    -0.376 OA
BRANCH  33  34
ATOM     34  C   UNL A   1      38.697  19.206  25.374  1.00  0.00     0.202 C 
BRANCH  34  35
ATOM     35  C   UNL A   1      39.894  19.991  25.914  1.00  0.00     0.261 C 
BRANCH  35  36
ATOM     36  O   UNL A   1      41.033  19.187  26.264  1.00  0.00    -0.460 OA
BRANCH  36  37
ATOM     37  C   UNL A   1      42.234  19.546  25.759  1.00  0.00     0.338 C 
ATOM     38  O   UNL A   1      42.918  18.934  24.953  1.00  0.00    -0.246 OA
BRANCH  37  39
ATOM     39  C   UNL A   1      42.522  20.905  26.265  1.00  0.00     0.060 A 
ATOM     40  C   UNL A   1      42.795  21.961  25.379  1.00  0.00     0.016 A 
ATOM     41  C   UNL A   1      42.481  21.131  27.639  1.00  0.00     0.016 A 
ATOM     42  C   UNL A   1      43.037  23.247  25.870  1.00  0.00     0.010 A 
ATOM     43  C   UNL A   1      42.746  22.408  28.128  1.00  0.00     0.010 A 
ATOM     44  C   UNL A   1      43.046  23.467  27.251  1.00  0.00    -0.014 A 
BRANCH  44  45
ATOM     45  C   UNL A   1      43.538  24.737  27.832  1.00  0.00     0.031 A 
ATOM     46  C   UNL A   1      42.523  25.774  28.208  1.00  0.00     0.074 A 
ATOM     47  C   UNL A   1      44.851  25.004  27.925  1.00  0.00     0.049 A 
ATOM     48  N   UNL A   1      42.682  27.044  28.468  1.00  0.00    -0.248 NA
ATOM     49  C   UNL A   1      41.127  25.311  28.271  1.00  0.00     0.031 C 
ATOM     50  C   UNL A   1      45.928  24.063  27.638  1.00  0.00     0.029 A 
ATOM     51  N   UNL A   1      45.494  26.177  28.240  1.00  0.00    -0.354 N 
ATOM     52  C   UNL A   1      41.404  27.543  28.682  1.00  0.00     0.074 A 
ATOM     53  C   UNL A   1      40.482  26.441  28.510  1.00  0.00     0.031 C 
ATOM     54  C   UNL A   1      47.103  24.708  27.740  1.00  0.00     0.029 A 
ATOM     55  C   UNL A   1      46.852  26.116  28.042  1.00  0.00     0.049 A 
ATOM     56  H   UNL A   1      45.030  26.979  28.573  1.00  0.00     0.167 HD
ATOM     57  C   UNL A   1      41.038  28.812  28.979  1.00  0.00     0.037 A 
ATOM     58  C   UNL A   1      47.774  27.099  28.043  1.00  0.00     0.037 A 
ATOM     59  C   UNL A   1      41.970  29.895  29.147  1.00  0.00     0.049 A 
ATOM     60  C   UNL A   1      47.345  28.519  28.318  1.00  0.00     0.074 A 
ATOM     61  C   UNL A   1      41.712  31.208  29.494  1.00  0.00     0.029 A 
ATOM     62  N   UNL A   1      43.342  29.791  28.960  1.00  0.00    -0.354 N 
ATOM     63  N   UNL A   1      46.143  28.992  28.540  1.00  0.00    -0.248 NA
ATOM     64  C   UNL A   1      48.401  29.542  28.341  1.00  0.00     0.031 C 
ATOM     65  C   UNL A   1      42.917  31.915  29.446  1.00  0.00     0.029 A 
ATOM     66  C   UNL A   1      43.940  31.026  29.148  1.00  0.00     0.049 A 
ATOM     67  H   UNL A   1      43.819  28.962  28.728  1.00  0.00     0.167 HD
ATOM     68  C   UNL A   1      46.299  30.355  28.759  1.00  0.00     0.074 A 
ATOM     69  C   UNL A   1      47.715  30.636  28.643  1.00  0.00     0.031 C 
ATOM     70  C   UNL A   1      45.354  31.287  29.041  1.00  0.00     0.037 A 
BRANCH  57  71
ATOM     71  C   UNL A   1      39.568  29.102  29.079  1.00  0.00     0.064 A 
ATOM     72  C   UNL A   1      38.782  29.387  27.953  1.00  0.00     0.173 A 
ATOM     73  C   UNL A   1      38.935  29.099  30.333  1.00  0.00     0.173 A 
ATOM     74  F   UNL A   1      39.337  29.417  26.731  1.00  0.00    -0.203 F 
ATOM     75  C   UNL A   1      37.432  29.704  28.082  1.00  0.00     0.198 A 
ATOM     76  C   UNL A   1      37.577  29.377  30.454  1.00  0.00     0.198 A 
ATOM     77  F   UNL A   1      39.636  28.828  31.445  1.00  0.00    -0.203 F 
ATOM     78  F   UNL A   1      36.719  30.045  26.999  1.00  0.00    -0.200 F 
ATOM     79  C   UNL A   1      36.829  29.693  29.330  1.00  0.00     0.200 A 
ATOM     80  F   UNL A   1      36.993  29.350  31.661  1.00  0.00    -0.200 F 
ATOM     81  F   UNL A   1      35.530  30.000  29.453  1.00  0.00    -0.200 F 
ENDBRANCH  57  71
BRANCH  58  82
ATOM     82  C   UNL A   1      49.191  26.769  27.736  1.00  0.00     0.064 A 
ATOM     83  C   UNL A   1      49.653  26.721  26.414  1.00  0.00     0.173 A 
ATOM     84  C   UNL A   1      50.118  26.522  28.760  1.00  0.00     0.173 A 
ATOM     85  F   UNL A   1      48.799  26.922  25.400  1.00  0.00    -0.203 F 
ATOM     86  C   UNL A   1      50.986  26.435  26.128  1.00  0.00     0.198 A 
ATOM     87  C   UNL A   1      51.457  26.266  28.474  1.00  0.00     0.198 A 
ATOM     88  F   UNL A   1      49.726  26.553  30.042  1.00  0.00    -0.203 F 
ATOM     89  F   UNL A   1      51.394  26.362  24.853  1.00  0.00    -0.200 F 
ATOM     90  C   UNL A   1      51.890  26.218  27.158  1.00  0.00     0.200 A 
ATOM     91  F   UNL A   1      52.328  26.070  29.474  1.00  0.00    -0.200 F 
ATOM     92  F   UNL A   1      53.174  25.960  26.882  1.00  0.00    -0.200 F 
ENDBRANCH  58  82
BRANCH  70  93
ATOM     93  C   UNL A   1      45.810  32.695  29.304  1.00  0.00     0.064 A 
ATOM     94  C   UNL A   1      46.233  33.115  30.572  1.00  0.00     0.173 A 
ATOM     95  C   UNL A   1      45.911  33.609  28.241  1.00  0.00     0.173 A 
ATOM     96  F   UNL A   1      46.146  32.286  31.623  1.00  0.00    -0.203 F 
ATOM     97  C   UNL A   1      46.733  34.401  30.769  1.00  0.00     0.198 A 
ATOM     98  C   UNL A   1      46.440  34.881  28.436  1.00  0.00     0.198 A 
ATOM     99  F   UNL A   1      45.525  33.255  27.007  1.00  0.00    -0.203 F 
ATOM    100  F   UNL A   1      47.105  34.793  31.996  1.00  0.00    -0.200 F 
ATOM    101  C   UNL A   1      46.848  35.278  29.701  1.00  0.00     0.200 A 
ATOM    102  F   UNL A   1      46.568  35.718  27.397  1.00  0.00    -0.200 F 
ATOM    103  F   UNL A   1      47.353  36.505  29.888  1.00  0.00    -0.200 F 
ENDBRANCH  70  93
ENDBRANCH  44  45
ENDBRANCH  37  39
ENDBRANCH  36  37
ENDBRANCH  35  36
ENDBRANCH  34  35
ENDBRANCH  33  34
ENDBRANCH  32  33
ENDBRANCH   1  32
TORSDOF 23
ENDMDL
