MODEL 1
REMARK VINA RESULT:      -8.4      0.000      0.000
REMARK SMILES O=C(/C=C/c1cc(F)cc(C[N@@H+]2CCC[C@H]2CO)c1)OCCOCCOCCOC(=O)c1ccc(-c2c3nc(c(-c4c(F)c(F)c(F)c(F)c4F)c4ccc([nH]4)c(-c4c(F)c(F)c(F)c(F)c4F)c4nc(c(-c5c(F)c(F)c(F)c(F)c5F)c5ccc2[nH]5)C=C4)C=C3)cc1
REMARK SMILES IDX 23 1 22 2 21 3 20 4 2 5 1 6 3 7 4 8 5 9 6 10 19 11 7 12
REMARK SMILES IDX 10 13 8 14 9 15 11 16 12 17 13 18 16 19 14 21 15 22 17 23
REMARK SMILES IDX 18 24 24 26 25 27 26 28 27 29 28 30 29 31 30 32 31 33 32 34
REMARK SMILES IDX 33 35 94 36 34 37 93 38 35 39 36 40 37 41 87 42 38 43 92 44
REMARK SMILES IDX 86 45 88 46 39 47 91 48 85 49 84 50 40 52 72 53 52 54 71 55
REMARK SMILES IDX 53 56 56 57 70 58 89 59 54 60 55 61 69 63 90 64 57 65 41 66
REMARK SMILES IDX 42 67 50 68 43 69 44 70 48 71 51 72 45 73 46 74 49 75 47 76
REMARK SMILES IDX 73 77 74 78 82 79 75 80 76 81 80 82 83 83 77 84 78 85 81 86
REMARK SMILES IDX 79 87 58 88 59 89 67 90 60 91 61 92 65 93 68 94 62 95 63 96
REMARK SMILES IDX 66 97 64 98
REMARK H PARENT 12 20 18 25 88 51 56 62
REMARK Flexibility Score: inf
ROOT
ATOM      1  O   UNL A   1      44.600  19.872  23.866  1.00  0.00    -0.376 OA
ENDROOT
BRANCH   1   2
ATOM      2  C   UNL A   1      45.344  21.047  24.155  1.00  0.00     0.202 C 
BRANCH   2   3
ATOM      3  C   UNL A   1      44.749  22.447  24.025  1.00  0.00     0.261 C 
BRANCH   3   4
ATOM      4  O   UNL A   1      44.876  23.474  25.042  1.00  0.00    -0.460 OA
BRANCH   4   5
ATOM      5  C   UNL A   1      45.568  24.611  25.195  1.00  0.00     0.330 C 
ATOM      6  O   UNL A   1      46.793  24.589  25.284  1.00  0.00    -0.247 OA
BRANCH   5   7
ATOM      7  C   UNL A   1      44.888  25.894  25.340  1.00  0.00     0.094 C 
ATOM      8  C   UNL A   1      45.211  26.793  26.274  1.00  0.00     0.016 C 
BRANCH   8   9
ATOM      9  C   UNL A   1      44.420  28.008  26.461  1.00  0.00    -0.022 A 
ATOM     10  C   UNL A   1      43.154  28.085  25.883  1.00  0.00     0.047 A 
ATOM     11  C   UNL A   1      44.888  29.062  27.265  1.00  0.00     0.018 A 
ATOM     12  C   UNL A   1      42.343  29.169  26.173  1.00  0.00     0.124 A 
ATOM     13  C   UNL A   1      44.065  30.163  27.569  1.00  0.00     0.010 A 
ATOM     14  F   UNL A   1      41.110  29.227  25.654  1.00  0.00    -0.207 F 
ATOM     15  C   UNL A   1      42.770  30.176  27.032  1.00  0.00     0.048 A 
BRANCH  13  16
ATOM     16  C   UNL A   1      44.512  31.205  28.575  1.00  0.00     0.299 C 
BRANCH  16  17
ATOM     17  N   UNL A   1      45.145  32.444  28.122  1.00  0.00    -0.327 N 
ATOM     18  C   UNL A   1      45.032  33.612  28.986  1.00  0.00     0.263 C 
ATOM     19  C   UNL A   1      44.826  32.881  26.757  1.00  0.00     0.210 C 
ATOM     20  H   UNL A   1      46.108  32.111  28.156  1.00  0.00     0.348 HD
ATOM     21  C   UNL A   1      43.946  34.482  28.379  1.00  0.00     0.068 C 
ATOM     22  C   UNL A   1      43.805  34.007  26.939  1.00  0.00     0.073 C 
BRANCH  19  23
ATOM     23  C   UNL A   1      46.122  33.396  26.077  1.00  0.00     0.220 C 
BRANCH  23  24
ATOM     24  O   UNL A   1      47.157  32.417  26.162  1.00  0.00    -0.390 OA
ATOM     25  H   UNL A   1      48.018  32.846  26.039  1.00  0.00     0.210 HD
ENDBRANCH  23  24
ENDBRANCH  19  23
ENDBRANCH  16  17
ENDBRANCH  13  16
ENDBRANCH   8   9
ENDBRANCH   5   7
ENDBRANCH   4   5
ENDBRANCH   3   4
ENDBRANCH   2   3
ENDBRANCH   1   2
BRANCH   1  26
ATOM     26  C   UNL A   1      44.493  18.842  24.829  1.00  0.00     0.188 C 
BRANCH  26  27
ATOM     27  C   UNL A   1      43.289  18.823  25.778  1.00  0.00     0.188 C 
BRANCH  27  28
ATOM     28  O   UNL A   1      42.388  19.913  25.774  1.00  0.00    -0.376 OA
BRANCH  28  29
ATOM     29  C   UNL A   1      41.741  20.267  26.993  1.00  0.00     0.202 C 
BRANCH  29  30
ATOM     30  C   UNL A   1      40.386  20.981  26.952  1.00  0.00     0.261 C 
BRANCH  30  31
ATOM     31  O   UNL A   1      40.430  22.242  26.257  1.00  0.00    -0.460 OA
BRANCH  31  32
ATOM     32  C   UNL A   1      39.232  22.862  26.135  1.00  0.00     0.338 C 
ATOM     33  O   UNL A   1      38.205  22.399  25.668  1.00  0.00    -0.246 OA
BRANCH  32  34
ATOM     34  C   UNL A   1      39.260  24.199  26.748  1.00  0.00     0.060 A 
ATOM     35  C   UNL A   1      40.016  25.195  26.121  1.00  0.00     0.016 A 
ATOM     36  C   UNL A   1      38.736  24.402  28.024  1.00  0.00     0.016 A 
ATOM     37  C   UNL A   1      40.310  26.376  26.801  1.00  0.00     0.010 A 
ATOM     38  C   UNL A   1      39.042  25.582  28.709  1.00  0.00     0.010 A 
ATOM     39  C   UNL A   1      39.871  26.552  28.120  1.00  0.00    -0.014 A 
BRANCH  39  40
ATOM     40  C   UNL A   1      40.476  27.622  28.951  1.00  0.00     0.031 A 
ATOM     41  C   UNL A   1      39.634  28.818  29.311  1.00  0.00     0.074 A 
ATOM     42  C   UNL A   1      41.727  27.514  29.433  1.00  0.00     0.049 A 
ATOM     43  N   UNL A   1      39.933  29.855  30.054  1.00  0.00    -0.248 NA
ATOM     44  C   UNL A   1      38.269  28.848  28.761  1.00  0.00     0.031 C 
ATOM     45  C   UNL A   1      42.634  26.398  29.183  1.00  0.00     0.029 A 
ATOM     46  N   UNL A   1      42.442  28.359  30.244  1.00  0.00    -0.354 N 
ATOM     47  C   UNL A   1      38.796  30.653  30.060  1.00  0.00     0.074 A 
ATOM     48  C   UNL A   1      37.816  30.005  29.216  1.00  0.00     0.031 C 
ATOM     49  C   UNL A   1      43.786  26.620  29.842  1.00  0.00     0.029 A 
ATOM     50  C   UNL A   1      43.701  27.901  30.543  1.00  0.00     0.049 A 
ATOM     51  H   UNL A   1      42.086  29.213  30.582  1.00  0.00     0.167 HD
ATOM     52  C   UNL A   1      38.579  31.813  30.722  1.00  0.00     0.037 A 
ATOM     53  C   UNL A   1      44.670  28.453  31.299  1.00  0.00     0.037 A 
ATOM     54  C   UNL A   1      39.545  32.463  31.563  1.00  0.00     0.049 A 
ATOM     55  C   UNL A   1      44.422  29.766  31.994  1.00  0.00     0.074 A 
ATOM     56  C   UNL A   1      39.420  33.649  32.264  1.00  0.00     0.029 A 
ATOM     57  N   UNL A   1      40.817  31.975  31.821  1.00  0.00    -0.354 N 
ATOM     58  N   UNL A   1      43.343  30.509  31.999  1.00  0.00    -0.248 NA
ATOM     59  C   UNL A   1      45.526  30.312  32.799  1.00  0.00     0.031 C 
ATOM     60  C   UNL A   1      40.630  33.898  32.920  1.00  0.00     0.029 A 
ATOM     61  C   UNL A   1      41.491  32.843  32.663  1.00  0.00     0.049 A 
ATOM     62  H   UNL A   1      41.185  31.138  31.458  1.00  0.00     0.167 HD
ATOM     63  C   UNL A   1      43.624  31.591  32.824  1.00  0.00     0.074 A 
ATOM     64  C   UNL A   1      44.977  31.407  33.308  1.00  0.00     0.031 C 
ATOM     65  C   UNL A   1      42.830  32.639  33.153  1.00  0.00     0.037 A 
BRANCH  52  66
ATOM     66  C   UNL A   1      37.237  32.459  30.551  1.00  0.00     0.064 A 
ATOM     67  C   UNL A   1      36.232  32.280  31.513  1.00  0.00     0.173 A 
ATOM     68  C   UNL A   1      36.936  33.232  29.420  1.00  0.00     0.173 A 
ATOM     69  F   UNL A   1      36.470  31.547  32.611  1.00  0.00    -0.203 F 
ATOM     70  C   UNL A   1      34.974  32.852  31.347  1.00  0.00     0.198 A 
ATOM     71  C   UNL A   1      35.684  33.822  29.269  1.00  0.00     0.198 A 
ATOM     72  F   UNL A   1      37.870  33.444  28.480  1.00  0.00    -0.203 F 
ATOM     73  F   UNL A   1      34.023  32.654  32.271  1.00  0.00    -0.200 F 
ATOM     74  C   UNL A   1      34.702  33.626  30.229  1.00  0.00     0.200 A 
ATOM     75  F   UNL A   1      35.432  34.591  28.201  1.00  0.00    -0.200 F 
ATOM     76  F   UNL A   1      33.496  34.189  30.080  1.00  0.00    -0.200 F 
ENDBRANCH  52  66
BRANCH  53  77
ATOM     77  C   UNL A   1      45.964  27.742  31.461  1.00  0.00     0.064 A 
ATOM     78  C   UNL A   1      47.080  28.078  30.682  1.00  0.00     0.173 A 
ATOM     79  C   UNL A   1      46.103  26.703  32.391  1.00  0.00     0.173 A 
ATOM     80  F   UNL A   1      46.997  29.068  29.781  1.00  0.00    -0.203 F 
ATOM     81  C   UNL A   1      48.283  27.388  30.815  1.00  0.00     0.198 A 
ATOM     82  C   UNL A   1      47.314  26.028  32.539  1.00  0.00     0.198 A 
ATOM     83  F   UNL A   1      45.070  26.365  33.177  1.00  0.00    -0.203 F 
ATOM     84  F   UNL A   1      49.328  27.714  30.044  1.00  0.00    -0.200 F 
ATOM     85  C   UNL A   1      48.400  26.367  31.746  1.00  0.00     0.200 A 
ATOM     86  F   UNL A   1      47.429  25.059  33.457  1.00  0.00    -0.200 F 
ATOM     87  F   UNL A   1      49.561  25.713  31.884  1.00  0.00    -0.200 F 
ENDBRANCH  53  77
BRANCH  65  88
ATOM     88  C   UNL A   1      43.373  33.657  34.111  1.00  0.00     0.064 A 
ATOM     89  C   UNL A   1      43.062  33.579  35.477  1.00  0.00     0.173 A 
ATOM     90  C   UNL A   1      44.126  34.754  33.669  1.00  0.00     0.173 A 
ATOM     91  F   UNL A   1      42.335  32.554  35.947  1.00  0.00    -0.203 F 
ATOM     92  C   UNL A   1      43.474  34.569  36.364  1.00  0.00     0.198 A 
ATOM     93  C   UNL A   1      44.559  35.730  34.563  1.00  0.00     0.198 A 
ATOM     94  F   UNL A   1      44.457  34.867  32.374  1.00  0.00    -0.203 F 
ATOM     95  F   UNL A   1      43.140  34.489  37.659  1.00  0.00    -0.200 F 
ATOM     96  C   UNL A   1      44.225  35.642  35.907  1.00  0.00     0.200 A 
ATOM     97  F   UNL A   1      45.299  36.758  34.124  1.00  0.00    -0.200 F 
ATOM     98  F   UNL A   1      44.628  36.592  36.762  1.00  0.00    -0.200 F 
ENDBRANCH  65  88
ENDBRANCH  39  40
ENDBRANCH  32  34
ENDBRANCH  31  32
ENDBRANCH  30  31
ENDBRANCH  29  30
ENDBRANCH  28  29
ENDBRANCH  27  28
ENDBRANCH  26  27
ENDBRANCH   1  26
TORSDOF 22
ENDMDL
MODEL 2
REMARK VINA RESULT:      -8.1      3.740      9.598
REMARK SMILES O=C(/C=C/c1cc(F)cc(C[N@@H+]2CCC[C@H]2CO)c1)OCCOCCOCCOC(=O)c1ccc(-c2c3nc(c(-c4c(F)c(F)c(F)c(F)c4F)c4ccc([nH]4)c(-c4c(F)c(F)c(F)c(F)c4F)c4nc(c(-c5c(F)c(F)c(F)c(F)c5F)c5ccc2[nH]5)C=C4)C=C3)cc1
REMARK SMILES IDX 23 1 22 2 21 3 20 4 2 5 1 6 3 7 4 8 5 9 6 10 19 11 7 12
REMARK SMILES IDX 10 13 8 14 9 15 11 16 12 17 13 18 16 19 14 21 15 22 17 23
REMARK SMILES IDX 18 24 24 26 25 27 26 28 27 29 28 30 29 31 30 32 31 33 32 34
REMARK SMILES IDX 33 35 94 36 34 37 93 38 35 39 36 40 37 41 87 42 38 43 92 44
REMARK SMILES IDX 86 45 88 46 39 47 91 48 85 49 84 50 40 52 72 53 52 54 71 55
REMARK SMILES IDX 53 56 56 57 70 58 89 59 54 60 55 61 69 63 90 64 57 65 41 66
REMARK SMILES IDX 42 67 50 68 43 69 44 70 48 71 51 72 45 73 46 74 49 75 47 76
REMARK SMILES IDX 73 77 74 78 82 79 75 80 76 81 80 82 83 83 77 84 78 85 81 86
REMARK SMILES IDX 79 87 58 88 59 89 67 90 60 91 61 92 65 93 68 94 62 95 63 96
REMARK SMILES IDX 66 97 64 98
REMARK H PARENT 12 20 18 25 88 51 56 62
REMARK Flexibility Score: inf
ROOT
ATOM      1  O   UNL A   1      32.824  24.121  26.254  1.00  0.00    -0.376 OA
ENDROOT
BRANCH   1   2
ATOM      2  C   UNL A   1      31.836  24.820  25.510  1.00  0.00     0.202 C 
BRANCH   2   3
ATOM      3  C   UNL A   1      31.002  25.949  26.112  1.00  0.00     0.261 C 
BRANCH   3   4
ATOM      4  O   UNL A   1      31.572  27.105  26.777  1.00  0.00    -0.460 OA
BRANCH   4   5
ATOM      5  C   UNL A   1      31.783  28.394  26.476  1.00  0.00     0.330 C 
ATOM      6  O   UNL A   1      31.262  28.896  25.484  1.00  0.00    -0.247 OA
BRANCH   5   7
ATOM      7  C   UNL A   1      32.696  29.213  27.267  1.00  0.00     0.094 C 
ATOM      8  C   UNL A   1      33.090  30.435  26.897  1.00  0.00     0.016 C 
BRANCH   8   9
ATOM      9  C   UNL A   1      34.103  31.166  27.658  1.00  0.00    -0.022 A 
ATOM     10  C   UNL A   1      35.403  30.663  27.708  1.00  0.00     0.047 A 
ATOM     11  C   UNL A   1      33.802  32.391  28.277  1.00  0.00     0.018 A 
ATOM     12  C   UNL A   1      36.397  31.420  28.304  1.00  0.00     0.124 A 
ATOM     13  C   UNL A   1      34.811  33.168  28.877  1.00  0.00     0.010 A 
ATOM     14  F   UNL A   1      37.655  30.961  28.317  1.00  0.00    -0.207 F 
ATOM     15  C   UNL A   1      36.121  32.670  28.847  1.00  0.00     0.048 A 
BRANCH  13  16
ATOM     16  C   UNL A   1      34.509  34.564  29.384  1.00  0.00     0.299 C 
BRANCH  16  17
ATOM     17  N   UNL A   1      33.685  34.753  30.579  1.00  0.00    -0.327 N 
ATOM     18  C   UNL A   1      32.632  35.758  30.518  1.00  0.00     0.263 C 
ATOM     19  C   UNL A   1      34.403  34.952  31.844  1.00  0.00     0.210 C 
ATOM     20  H   UNL A   1      33.250  33.831  30.576  1.00  0.00     0.348 HD
ATOM     21  C   UNL A   1      33.166  36.975  31.253  1.00  0.00     0.068 C 
ATOM     22  C   UNL A   1      34.317  36.458  32.106  1.00  0.00     0.073 C 
BRANCH  19  23
ATOM     23  C   UNL A   1      33.692  34.142  32.960  1.00  0.00     0.220 C 
BRANCH  23  24
ATOM     24  O   UNL A   1      33.736  32.745  32.673  1.00  0.00    -0.390 OA
ATOM     25  H   UNL A   1      34.393  32.579  31.977  1.00  0.00     0.210 HD
ENDBRANCH  23  24
ENDBRANCH  19  23
ENDBRANCH  16  17
ENDBRANCH  13  16
ENDBRANCH   8   9
ENDBRANCH   5   7
ENDBRANCH   4   5
ENDBRANCH   3   4
ENDBRANCH   2   3
ENDBRANCH   1   2
BRANCH   1  26
ATOM     26  C   UNL A   1      34.036  23.734  25.638  1.00  0.00     0.188 C 
BRANCH  26  27
ATOM     27  C   UNL A   1      34.998  22.803  26.387  1.00  0.00     0.188 C 
BRANCH  27  28
ATOM     28  O   UNL A   1      35.135  21.462  25.959  1.00  0.00    -0.376 OA
BRANCH  28  29
ATOM     29  C   UNL A   1      35.966  21.188  24.834  1.00  0.00     0.202 C 
BRANCH  29  30
ATOM     30  C   UNL A   1      37.450  20.874  25.048  1.00  0.00     0.261 C 
BRANCH  30  31
ATOM     31  O   UNL A   1      38.238  22.039  25.359  1.00  0.00    -0.460 OA
BRANCH  31  32
ATOM     32  C   UNL A   1      39.384  21.783  26.033  1.00  0.00     0.338 C 
ATOM     33  O   UNL A   1      40.127  20.826  25.890  1.00  0.00    -0.246 OA
BRANCH  32  34
ATOM     34  C   UNL A   1      39.725  22.887  26.943  1.00  0.00     0.060 A 
ATOM     35  C   UNL A   1      39.123  24.131  26.723  1.00  0.00     0.016 A 
ATOM     36  C   UNL A   1      40.776  22.758  27.849  1.00  0.00     0.016 A 
ATOM     37  C   UNL A   1      39.620  25.267  27.361  1.00  0.00     0.010 A 
ATOM     38  C   UNL A   1      41.281  23.899  28.479  1.00  0.00     0.010 A 
ATOM     39  C   UNL A   1      40.738  25.165  28.200  1.00  0.00    -0.014 A 
BRANCH  39  40
ATOM     40  C   UNL A   1      41.474  26.396  28.582  1.00  0.00     0.031 A 
ATOM     41  C   UNL A   1      42.848  26.621  28.005  1.00  0.00     0.074 A 
ATOM     42  C   UNL A   1      40.918  27.330  29.373  1.00  0.00     0.049 A 
ATOM     43  N   UNL A   1      43.661  27.636  28.164  1.00  0.00    -0.248 NA
ATOM     44  C   UNL A   1      43.375  25.561  27.131  1.00  0.00     0.031 C 
ATOM     45  C   UNL A   1      39.588  27.246  29.970  1.00  0.00     0.029 A 
ATOM     46  N   UNL A   1      41.407  28.539  29.799  1.00  0.00    -0.354 N 
ATOM     47  C   UNL A   1      44.789  27.335  27.409  1.00  0.00     0.074 A 
ATOM     48  C   UNL A   1      44.575  26.029  26.827  1.00  0.00     0.031 C 
ATOM     49  C   UNL A   1      39.360  28.368  30.677  1.00  0.00     0.029 A 
ATOM     50  C   UNL A   1      40.534  29.237  30.595  1.00  0.00     0.049 A 
ATOM     51  H   UNL A   1      42.300  28.876  29.555  1.00  0.00     0.167 HD
ATOM     52  C   UNL A   1      45.896  28.085  27.205  1.00  0.00     0.037 A 
ATOM     53  C   UNL A   1      40.668  30.440  31.187  1.00  0.00     0.037 A 
ATOM     54  C   UNL A   1      46.116  29.384  27.777  1.00  0.00     0.049 A 
ATOM     55  C   UNL A   1      41.927  31.241  30.979  1.00  0.00     0.074 A 
ATOM     56  C   UNL A   1      47.215  30.214  27.639  1.00  0.00     0.029 A 
ATOM     57  N   UNL A   1      45.214  30.045  28.598  1.00  0.00    -0.354 N 
ATOM     58  N   UNL A   1      42.983  30.950  30.260  1.00  0.00    -0.248 NA
ATOM     59  C   UNL A   1      42.007  32.543  31.659  1.00  0.00     0.031 C 
ATOM     60  C   UNL A   1      46.992  31.364  28.403  1.00  0.00     0.029 A 
ATOM     61  C   UNL A   1      45.736  31.269  28.980  1.00  0.00     0.049 A 
ATOM     62  H   UNL A   1      44.335  29.694  28.868  1.00  0.00     0.167 HD
ATOM     63  C   UNL A   1      43.838  32.039  30.375  1.00  0.00     0.074 A 
ATOM     64  C   UNL A   1      43.176  33.002  31.232  1.00  0.00     0.031 C 
ATOM     65  C   UNL A   1      45.059  32.225  29.818  1.00  0.00     0.037 A 
BRANCH  52  66
ATOM     66  C   UNL A   1      46.962  27.507  26.324  1.00  0.00     0.064 A 
ATOM     67  C   UNL A   1      47.012  27.827  24.960  1.00  0.00     0.173 A 
ATOM     68  C   UNL A   1      47.919  26.613  26.826  1.00  0.00     0.173 A 
ATOM     69  F   UNL A   1      46.117  28.675  24.431  1.00  0.00    -0.203 F 
ATOM     70  C   UNL A   1      47.981  27.270  24.130  1.00  0.00     0.198 A 
ATOM     71  C   UNL A   1      48.902  26.077  25.998  1.00  0.00     0.198 A 
ATOM     72  F   UNL A   1      47.922  26.288  28.128  1.00  0.00    -0.203 F 
ATOM     73  F   UNL A   1      47.999  27.577  22.825  1.00  0.00    -0.200 F 
ATOM     74  C   UNL A   1      48.927  26.401  24.649  1.00  0.00     0.200 A 
ATOM     75  F   UNL A   1      49.832  25.257  26.508  1.00  0.00    -0.200 F 
ATOM     76  F   UNL A   1      49.870  25.880  23.852  1.00  0.00    -0.200 F 
ENDBRANCH  52  66
BRANCH  53  77
ATOM     77  C   UNL A   1      39.557  30.975  32.014  1.00  0.00     0.064 A 
ATOM     78  C   UNL A   1      38.728  32.000  31.539  1.00  0.00     0.173 A 
ATOM     79  C   UNL A   1      39.314  30.480  33.302  1.00  0.00     0.173 A 
ATOM     80  F   UNL A   1      38.918  32.504  30.311  1.00  0.00    -0.203 F 
ATOM     81  C   UNL A   1      37.706  32.522  32.330  1.00  0.00     0.198 A 
ATOM     82  C   UNL A   1      38.278  30.988  34.084  1.00  0.00     0.198 A 
ATOM     83  F   UNL A   1      40.066  29.481  33.788  1.00  0.00    -0.203 F 
ATOM     84  F   UNL A   1      36.940  33.516  31.861  1.00  0.00    -0.200 F 
ATOM     85  C   UNL A   1      37.479  32.013  33.600  1.00  0.00     0.200 A 
ATOM     86  F   UNL A   1      38.048  30.476  35.301  1.00  0.00    -0.200 F 
ATOM     87  F   UNL A   1      36.488  32.506  34.355  1.00  0.00    -0.200 F 
ENDBRANCH  53  77
BRANCH  65  88
ATOM     88  C   UNL A   1      45.756  33.528  30.073  1.00  0.00     0.064 A 
ATOM     89  C   UNL A   1      45.570  34.613  29.202  1.00  0.00     0.173 A 
ATOM     90  C   UNL A   1      46.672  33.679  31.123  1.00  0.00     0.173 A 
ATOM     91  F   UNL A   1      44.711  34.515  28.175  1.00  0.00    -0.203 F 
ATOM     92  C   UNL A   1      46.283  35.796  29.366  1.00  0.00     0.198 A 
ATOM     93  C   UNL A   1      47.367  34.873  31.300  1.00  0.00     0.198 A 
ATOM     94  F   UNL A   1      46.879  32.673  31.988  1.00  0.00    -0.203 F 
ATOM     95  F   UNL A   1      46.110  36.808  28.505  1.00  0.00    -0.200 F 
ATOM     96  C   UNL A   1      47.179  35.926  30.417  1.00  0.00     0.200 A 
ATOM     97  F   UNL A   1      48.220  35.004  32.326  1.00  0.00    -0.200 F 
ATOM     98  F   UNL A   1      47.862  37.068  30.579  1.00  0.00    -0.200 F 
ENDBRANCH  65  88
ENDBRANCH  39  40
ENDBRANCH  32  34
ENDBRANCH  31  32
ENDBRANCH  30  31
ENDBRANCH  29  30
ENDBRANCH  28  29
ENDBRANCH  27  28
ENDBRANCH  26  27
ENDBRANCH   1  26
TORSDOF 22
ENDMDL
MODEL 3
REMARK VINA RESULT:      -8.0      3.829      7.349
REMARK SMILES O=C(/C=C/c1cc(F)cc(C[N@@H+]2CCC[C@H]2CO)c1)OCCOCCOCCOC(=O)c1ccc(-c2c3nc(c(-c4c(F)c(F)c(F)c(F)c4F)c4ccc([nH]4)c(-c4c(F)c(F)c(F)c(F)c4F)c4nc(c(-c5c(F)c(F)c(F)c(F)c5F)c5ccc2[nH]5)C=C4)C=C3)cc1
REMARK SMILES IDX 23 1 22 2 21 3 20 4 2 5 1 6 3 7 4 8 5 9 6 10 19 11 7 12
REMARK SMILES IDX 10 13 8 14 9 15 11 16 12 17 13 18 16 19 14 21 15 22 17 23
REMARK SMILES IDX 18 24 24 26 25 27 26 28 27 29 28 30 29 31 30 32 31 33 32 34
REMARK SMILES IDX 33 35 94 36 34 37 93 38 35 39 36 40 37 41 87 42 38 43 92 44
REMARK SMILES IDX 86 45 88 46 39 47 91 48 85 49 84 50 40 52 72 53 52 54 71 55
REMARK SMILES IDX 53 56 56 57 70 58 89 59 54 60 55 61 69 63 90 64 57 65 41 66
REMARK SMILES IDX 42 67 50 68 43 69 44 70 48 71 51 72 45 73 46 74 49 75 47 76
REMARK SMILES IDX 73 77 74 78 82 79 75 80 76 81 80 82 83 83 77 84 78 85 81 86
REMARK SMILES IDX 79 87 58 88 59 89 67 90 60 91 61 92 65 93 68 94 62 95 63 96
REMARK SMILES IDX 66 97 64 98
REMARK H PARENT 12 20 18 25 88 51 56 62
REMARK Flexibility Score: inf
ROOT
ATOM      1  O   UNL A   1      32.612  24.189  26.288  1.00  0.00    -0.376 OA
ENDROOT
BRANCH   1   2
ATOM      2  C   UNL A   1      31.393  24.641  25.715  1.00  0.00     0.202 C 
BRANCH   2   3
ATOM      3  C   UNL A   1      30.658  25.880  26.222  1.00  0.00     0.261 C 
BRANCH   3   4
ATOM      4  O   UNL A   1      31.328  27.061  26.734  1.00  0.00    -0.460 OA
BRANCH   4   5
ATOM      5  C   UNL A   1      31.912  28.149  26.215  1.00  0.00     0.330 C 
ATOM      6  O   UNL A   1      31.665  28.502  25.065  1.00  0.00    -0.247 OA
BRANCH   5   7
ATOM      7  C   UNL A   1      32.915  28.898  26.966  1.00  0.00     0.094 C 
ATOM      8  C   UNL A   1      32.944  30.232  27.020  1.00  0.00     0.016 C 
BRANCH   8   9
ATOM      9  C   UNL A   1      34.040  30.939  27.681  1.00  0.00    -0.022 A 
ATOM     10  C   UNL A   1      35.323  30.396  27.627  1.00  0.00     0.047 A 
ATOM     11  C   UNL A   1      33.830  32.180  28.307  1.00  0.00     0.018 A 
ATOM     12  C   UNL A   1      36.388  31.128  28.125  1.00  0.00     0.124 A 
ATOM     13  C   UNL A   1      34.910  32.931  28.808  1.00  0.00     0.010 A 
ATOM     14  F   UNL A   1      37.628  30.630  28.037  1.00  0.00    -0.207 F 
ATOM     15  C   UNL A   1      36.197  32.392  28.672  1.00  0.00     0.048 A 
BRANCH  13  16
ATOM     16  C   UNL A   1      34.695  34.341  29.320  1.00  0.00     0.299 C 
BRANCH  16  17
ATOM     17  N   UNL A   1      33.756  34.594  30.414  1.00  0.00    -0.327 N 
ATOM     18  C   UNL A   1      32.714  35.588  30.188  1.00  0.00     0.263 C 
ATOM     19  C   UNL A   1      34.343  34.871  31.730  1.00  0.00     0.210 C 
ATOM     20  H   UNL A   1      33.323  33.671  30.420  1.00  0.00     0.348 HD
ATOM     21  C   UNL A   1      33.172  36.848  30.901  1.00  0.00     0.068 C 
ATOM     22  C   UNL A   1      34.231  36.389  31.893  1.00  0.00     0.073 C 
BRANCH  19  23
ATOM     23  C   UNL A   1      33.524  34.123  32.814  1.00  0.00     0.220 C 
BRANCH  23  24
ATOM     24  O   UNL A   1      33.830  32.729  32.803  1.00  0.00    -0.390 OA
ATOM     25  H   UNL A   1      33.360  32.301  32.070  1.00  0.00     0.210 HD
ENDBRANCH  23  24
ENDBRANCH  19  23
ENDBRANCH  16  17
ENDBRANCH  13  16
ENDBRANCH   8   9
ENDBRANCH   5   7
ENDBRANCH   4   5
ENDBRANCH   3   4
ENDBRANCH   2   3
ENDBRANCH   1   2
BRANCH   1  26
ATOM     26  C   UNL A   1      33.722  23.900  25.463  1.00  0.00     0.188 C 
BRANCH  26  27
ATOM     27  C   UNL A   1      34.970  23.254  26.078  1.00  0.00     0.188 C 
BRANCH  27  28
ATOM     28  O   UNL A   1      35.103  21.847  26.049  1.00  0.00    -0.376 OA
BRANCH  28  29
ATOM     29  C   UNL A   1      35.770  21.248  24.940  1.00  0.00     0.202 C 
BRANCH  29  30
ATOM     30  C   UNL A   1      37.262  20.915  25.044  1.00  0.00     0.261 C 
BRANCH  30  31
ATOM     31  O   UNL A   1      38.078  22.057  25.366  1.00  0.00    -0.460 OA
BRANCH  31  32
ATOM     32  C   UNL A   1      39.190  21.772  26.085  1.00  0.00     0.338 C 
ATOM     33  O   UNL A   1      39.833  20.736  26.072  1.00  0.00    -0.246 OA
BRANCH  32  34
ATOM     34  C   UNL A   1      39.635  22.940  26.861  1.00  0.00     0.060 A 
ATOM     35  C   UNL A   1      39.137  24.198  26.502  1.00  0.00     0.016 A 
ATOM     36  C   UNL A   1      40.684  22.826  27.772  1.00  0.00     0.016 A 
ATOM     37  C   UNL A   1      39.737  25.352  27.003  1.00  0.00     0.010 A 
ATOM     38  C   UNL A   1      41.291  23.985  28.265  1.00  0.00     0.010 A 
ATOM     39  C   UNL A   1      40.854  25.252  27.844  1.00  0.00    -0.014 A 
BRANCH  39  40
ATOM     40  C   UNL A   1      41.696  26.451  28.079  1.00  0.00     0.031 A 
ATOM     41  C   UNL A   1      41.172  27.533  28.986  1.00  0.00     0.074 A 
ATOM     42  C   UNL A   1      42.929  26.557  27.552  1.00  0.00     0.049 A 
ATOM     43  N   UNL A   1      41.743  28.648  29.369  1.00  0.00    -0.248 NA
ATOM     44  C   UNL A   1      39.823  27.328  29.539  1.00  0.00     0.031 C 
ATOM     45  C   UNL A   1      43.563  25.569  26.683  1.00  0.00     0.029 A 
ATOM     46  N   UNL A   1      43.870  27.547  27.685  1.00  0.00    -0.354 N 
ATOM     47  C   UNL A   1      40.825  29.272  30.205  1.00  0.00     0.074 A 
ATOM     48  C   UNL A   1      39.646  28.435  30.243  1.00  0.00     0.031 C 
ATOM     49  C   UNL A   1      44.799  25.998  26.370  1.00  0.00     0.029 A 
ATOM     50  C   UNL A   1      45.033  27.296  27.003  1.00  0.00     0.049 A 
ATOM     51  H   UNL A   1      43.724  28.361  28.221  1.00  0.00     0.167 HD
ATOM     52  C   UNL A   1      40.957  30.429  30.894  1.00  0.00     0.037 A 
ATOM     53  C   UNL A   1      46.158  28.031  26.903  1.00  0.00     0.037 A 
ATOM     54  C   UNL A   1      42.125  31.266  30.863  1.00  0.00     0.049 A 
ATOM     55  C   UNL A   1      46.269  29.337  27.646  1.00  0.00     0.074 A 
ATOM     56  C   UNL A   1      42.345  32.465  31.517  1.00  0.00     0.029 A 
ATOM     57  N   UNL A   1      43.274  30.985  30.140  1.00  0.00    -0.354 N 
ATOM     58  N   UNL A   1      45.399  29.914  28.437  1.00  0.00    -0.248 NA
ATOM     59  C   UNL A   1      47.524  30.088  27.488  1.00  0.00     0.031 C 
ATOM     60  C   UNL A   1      43.616  32.928  31.163  1.00  0.00     0.029 A 
ATOM     61  C   UNL A   1      44.204  31.994  30.325  1.00  0.00     0.049 A 
ATOM     62  H   UNL A   1      43.407  30.188  29.579  1.00  0.00     0.167 HD
ATOM     63  C   UNL A   1      46.007  31.077  28.894  1.00  0.00     0.074 A 
ATOM     64  C   UNL A   1      47.325  31.123  28.294  1.00  0.00     0.031 C 
ATOM     65  C   UNL A   1      45.518  32.019  29.737  1.00  0.00     0.037 A 
BRANCH  52  66
ATOM     66  C   UNL A   1      39.795  30.861  31.736  1.00  0.00     0.064 A 
ATOM     67  C   UNL A   1      39.579  30.291  32.999  1.00  0.00     0.173 A 
ATOM     68  C   UNL A   1      38.879  31.821  31.281  1.00  0.00     0.173 A 
ATOM     69  F   UNL A   1      40.426  29.368  33.478  1.00  0.00    -0.203 F 
ATOM     70  C   UNL A   1      38.485  30.666  33.775  1.00  0.00     0.198 A 
ATOM     71  C   UNL A   1      37.800  32.211  32.070  1.00  0.00     0.198 A 
ATOM     72  F   UNL A   1      39.053  32.406  30.086  1.00  0.00    -0.203 F 
ATOM     73  F   UNL A   1      38.288  30.095  34.972  1.00  0.00    -0.200 F 
ATOM     74  C   UNL A   1      37.601  31.628  33.313  1.00  0.00     0.200 A 
ATOM     75  F   UNL A   1      36.960  33.159  31.632  1.00  0.00    -0.200 F 
ATOM     76  F   UNL A   1      36.558  31.999  34.068  1.00  0.00    -0.200 F 
ENDBRANCH  52  66
BRANCH  53  77
ATOM     77  C   UNL A   1      47.290  27.527  26.084  1.00  0.00     0.064 A 
ATOM     78  C   UNL A   1      47.358  27.778  24.707  1.00  0.00     0.173 A 
ATOM     79  C   UNL A   1      48.319  26.772  26.664  1.00  0.00     0.173 A 
ATOM     80  F   UNL A   1      46.400  28.499  24.107  1.00  0.00    -0.203 F 
ATOM     81  C   UNL A   1      48.406  27.277  23.936  1.00  0.00     0.198 A 
ATOM     82  C   UNL A   1      49.377  26.290  25.896  1.00  0.00     0.198 A 
ATOM     83  F   UNL A   1      48.309  26.530  27.983  1.00  0.00    -0.203 F 
ATOM     84  F   UNL A   1      48.437  27.513  22.618  1.00  0.00    -0.200 F 
ATOM     85  C   UNL A   1      49.416  26.537  24.532  1.00  0.00     0.200 A 
ATOM     86  F   UNL A   1      50.364  25.597  26.481  1.00  0.00    -0.200 F 
ATOM     87  F   UNL A   1      50.430  26.067  23.793  1.00  0.00    -0.200 F 
ENDBRANCH  53  77
BRANCH  65  88
ATOM     88  C   UNL A   1      46.413  33.165  30.104  1.00  0.00     0.064 A 
ATOM     89  C   UNL A   1      47.168  33.123  31.287  1.00  0.00     0.173 A 
ATOM     90  C   UNL A   1      46.459  34.337  29.336  1.00  0.00     0.173 A 
ATOM     91  F   UNL A   1      47.149  32.027  32.061  1.00  0.00    -0.203 F 
ATOM     92  C   UNL A   1      47.926  34.217  31.693  1.00  0.00     0.198 A 
ATOM     93  C   UNL A   1      47.238  35.421  29.732  1.00  0.00     0.198 A 
ATOM     94  F   UNL A   1      45.762  34.422  28.192  1.00  0.00    -0.203 F 
ATOM     95  F   UNL A   1      48.615  34.164  32.841  1.00  0.00    -0.200 F 
ATOM     96  C   UNL A   1      47.963  35.364  30.913  1.00  0.00     0.200 A 
ATOM     97  F   UNL A   1      47.287  36.522  28.970  1.00  0.00    -0.200 F 
ATOM     98  F   UNL A   1      48.699  36.415  31.301  1.00  0.00    -0.200 F 
ENDBRANCH  65  88
ENDBRANCH  39  40
ENDBRANCH  32  34
ENDBRANCH  31  32
ENDBRANCH  30  31
ENDBRANCH  29  30
ENDBRANCH  28  29
ENDBRANCH  27  28
ENDBRANCH  26  27
ENDBRANCH   1  26
TORSDOF 22
ENDMDL
