MODEL 1
REMARK VINA RESULT:      -9.9      0.000      0.000
REMARK SMILES COc1cc2[nH]nc(CC(=O)OCCOCCOCCOC(=O)c3ccc(-c4c5nc(c(-c6c(F)c(F)c(F)c(F)c6F)c6ccc([nH]6)c(-c6c(F)c(F)c(F)c(F)c6F)c6nc(c(-c7c(F)c(F)c(F)c(F)c7F)c7ccc4[nH]7)C=C6)C=C5)cc3)c2cc1OC(C)C
REMARK SMILES IDX 16 1 15 2 14 3 13 4 12 5 10 6 11 7 9 8 8 9 3 10 4 11 89 12
REMARK SMILES IDX 5 13 88 14 6 15 87 16 7 17 2 19 1 20 90 21 91 22 92 23 93 24
REMARK SMILES IDX 17 25 18 26 19 27 20 28 21 29 22 30 23 31 24 32 25 33 86 34
REMARK SMILES IDX 26 35 85 36 27 37 28 38 29 39 79 40 30 41 84 42 78 43 80 44
REMARK SMILES IDX 31 45 83 46 77 47 76 48 32 50 64 51 44 52 63 53 45 54 48 55
REMARK SMILES IDX 62 56 81 57 46 58 47 59 61 61 82 62 49 63 33 64 34 65 42 66
REMARK SMILES IDX 35 67 36 68 40 69 43 70 37 71 38 72 41 73 39 74 65 75 66 76
REMARK SMILES IDX 74 77 67 78 68 79 72 80 75 81 69 82 70 83 73 84 71 85 50 86
REMARK SMILES IDX 51 87 59 88 52 89 53 90 57 91 60 92 54 93 55 94 58 95 56 96
REMARK H PARENT 6 18 80 49 48 60
REMARK Flexibility Score: inf
ROOT
ATOM      1  C   UNL A   1      33.716  31.068  27.594  1.00  0.00     0.188 C 
ENDROOT
BRANCH   1   2
ATOM      2  O   UNL A   1      32.558  30.483  27.007  1.00  0.00    -0.376 OA
BRANCH   2   3
ATOM      3  C   UNL A   1      32.727  29.919  25.705  1.00  0.00     0.202 C 
BRANCH   3   4
ATOM      4  C   UNL A   1      31.487  29.258  25.073  1.00  0.00     0.261 C 
BRANCH   4   5
ATOM      5  O   UNL A   1      31.766  28.030  24.361  1.00  0.00    -0.463 OA
BRANCH   5   6
ATOM      6  C   UNL A   1      31.801  28.117  23.004  1.00  0.00     0.312 C 
ATOM      7  O   UNL A   1      30.946  28.691  22.332  1.00  0.00    -0.252 OA
BRANCH   6   8
ATOM      8  C   UNL A   1      33.073  27.609  22.363  1.00  0.00     0.181 C 
BRANCH   8   9
ATOM      9  C   UNL A   1      33.135  26.169  21.985  1.00  0.00     0.081 A 
ATOM     10  C   UNL A   1      33.117  22.488  23.987  1.00  0.00     0.162 A 
ATOM     11  C   UNL A   1      33.028  22.634  22.585  1.00  0.00     0.078 A 
ATOM     12  C   UNL A   1      33.218  23.607  24.827  1.00  0.00     0.162 A 
ATOM     13  C   UNL A   1      33.053  23.936  22.064  1.00  0.00     0.069 A 
ATOM     14  C   UNL A   1      33.223  24.892  24.260  1.00  0.00     0.062 A 
ATOM     15  N   UNL A   1      33.026  24.425  20.783  1.00  0.00    -0.277 N 
ATOM     16  C   UNL A   1      33.152  25.060  22.870  1.00  0.00     0.027 A 
ATOM     17  N   UNL A   1      33.001  25.773  20.709  1.00  0.00    -0.179 NA
ATOM     18  H   UNL A   1      33.026  23.844  19.988  1.00  0.00     0.190 HD
BRANCH  10  19
ATOM     19  O   UNL A   1      33.298  21.225  24.481  1.00  0.00    -0.493 OA
ATOM     20  C   UNL A   1      32.144  20.390  24.455  1.00  0.00     0.278 C 
ENDBRANCH  10  19
BRANCH  12  21
ATOM     21  O   UNL A   1      33.392  23.680  26.178  1.00  0.00    -0.487 OA
BRANCH  21  22
ATOM     22  C   UNL A   1      34.505  23.146  26.888  1.00  0.00     0.167 C 
ATOM     23  C   UNL A   1      34.242  21.822  27.603  1.00  0.00     0.052 C 
ATOM     24  C   UNL A   1      35.813  23.283  26.115  1.00  0.00     0.052 C 
ENDBRANCH  21  22
ENDBRANCH  12  21
ENDBRANCH   8   9
ENDBRANCH   6   8
ENDBRANCH   5   6
ENDBRANCH   4   5
ENDBRANCH   3   4
ENDBRANCH   2   3
ENDBRANCH   1   2
BRANCH   1  25
ATOM     25  C   UNL A   1      33.603  32.536  28.007  1.00  0.00     0.188 C 
BRANCH  25  26
ATOM     26  O   UNL A   1      34.834  33.233  28.135  1.00  0.00    -0.376 OA
BRANCH  26  27
ATOM     27  C   UNL A   1      34.852  34.370  28.999  1.00  0.00     0.202 C 
BRANCH  27  28
ATOM     28  C   UNL A   1      34.569  34.110  30.492  1.00  0.00     0.261 C 
BRANCH  28  29
ATOM     29  O   UNL A   1      35.730  33.839  31.309  1.00  0.00    -0.460 OA
BRANCH  29  30
ATOM     30  C   UNL A   1      35.772  32.658  31.976  1.00  0.00     0.338 C 
ATOM     31  O   UNL A   1      34.980  32.262  32.803  1.00  0.00    -0.246 OA
BRANCH  30  32
ATOM     32  C   UNL A   1      36.829  31.804  31.357  1.00  0.00     0.060 A 
ATOM     33  C   UNL A   1      37.876  31.374  32.183  1.00  0.00     0.016 A 
ATOM     34  C   UNL A   1      36.786  31.378  30.024  1.00  0.00     0.016 A 
ATOM     35  C   UNL A   1      38.914  30.595  31.667  1.00  0.00     0.010 A 
ATOM     36  C   UNL A   1      37.827  30.595  29.506  1.00  0.00     0.010 A 
ATOM     37  C   UNL A   1      38.925  30.243  30.312  1.00  0.00    -0.014 A 
BRANCH  37  38
ATOM     38  C   UNL A   1      40.178  29.693  29.725  1.00  0.00     0.031 A 
ATOM     39  C   UNL A   1      41.417  30.551  29.742  1.00  0.00     0.074 A 
ATOM     40  C   UNL A   1      40.255  28.428  29.270  1.00  0.00     0.049 A 
ATOM     41  N   UNL A   1      42.638  30.266  29.365  1.00  0.00    -0.248 NA
ATOM     42  C   UNL A   1      41.255  31.919  30.259  1.00  0.00     0.031 C 
ATOM     43  C   UNL A   1      39.151  27.474  29.225  1.00  0.00     0.029 A 
ATOM     44  N   UNL A   1      41.327  27.727  28.768  1.00  0.00    -0.354 N 
ATOM     45  C   UNL A   1      43.386  31.412  29.604  1.00  0.00     0.074 A 
ATOM     46  C   UNL A   1      42.474  32.413  30.113  1.00  0.00     0.031 C 
ATOM     47  C   UNL A   1      39.602  26.308  28.728  1.00  0.00     0.029 A 
ATOM     48  C   UNL A   1      41.022  26.439  28.400  1.00  0.00     0.049 A 
ATOM     49  H   UNL A   1      42.229  28.112  28.680  1.00  0.00     0.167 HD
ATOM     50  C   UNL A   1      44.715  31.612  29.434  1.00  0.00     0.037 A 
ATOM     51  C   UNL A   1      41.797  25.480  27.856  1.00  0.00     0.037 A 
ATOM     52  C   UNL A   1      45.631  30.624  28.926  1.00  0.00     0.049 A 
ATOM     53  C   UNL A   1      43.263  25.749  27.614  1.00  0.00     0.074 A 
ATOM     54  C   UNL A   1      46.996  30.733  28.732  1.00  0.00     0.029 A 
ATOM     55  N   UNL A   1      45.272  29.347  28.519  1.00  0.00    -0.354 N 
ATOM     56  N   UNL A   1      43.967  26.823  27.878  1.00  0.00    -0.248 NA
ATOM     57  C   UNL A   1      44.044  24.660  27.005  1.00  0.00     0.031 C 
ATOM     58  C   UNL A   1      47.454  29.546  28.152  1.00  0.00     0.029 A 
ATOM     59  C   UNL A   1      46.387  28.670  28.051  1.00  0.00     0.049 A 
ATOM     60  H   UNL A   1      44.361  28.978  28.559  1.00  0.00     0.167 HD
ATOM     61  C   UNL A   1      45.274  26.527  27.504  1.00  0.00     0.074 A 
ATOM     62  C   UNL A   1      45.268  25.167  27.011  1.00  0.00     0.031 C 
ATOM     63  C   UNL A   1      46.379  27.313  27.565  1.00  0.00     0.037 A 
BRANCH  50  64
ATOM     64  C   UNL A   1      45.258  32.970  29.779  1.00  0.00     0.064 A 
ATOM     65  C   UNL A   1      45.346  33.997  28.826  1.00  0.00     0.173 A 
ATOM     66  C   UNL A   1      45.669  33.257  31.089  1.00  0.00     0.173 A 
ATOM     67  F   UNL A   1      44.982  33.771  27.553  1.00  0.00    -0.203 F 
ATOM     68  C   UNL A   1      45.851  35.249  29.166  1.00  0.00     0.198 A 
ATOM     69  C   UNL A   1      46.142  34.519  31.434  1.00  0.00     0.198 A 
ATOM     70  F   UNL A   1      45.604  32.313  32.040  1.00  0.00    -0.203 F 
ATOM     71  F   UNL A   1      45.977  36.196  28.226  1.00  0.00    -0.200 F 
ATOM     72  C   UNL A   1      46.241  35.512  30.470  1.00  0.00     0.200 A 
ATOM     73  F   UNL A   1      46.504  34.776  32.698  1.00  0.00    -0.200 F 
ATOM     74  F   UNL A   1      46.720  36.720  30.797  1.00  0.00    -0.200 F 
ENDBRANCH  50  64
BRANCH  51  75
ATOM     75  C   UNL A   1      41.210  24.158  27.498  1.00  0.00     0.064 A 
ATOM     76  C   UNL A   1      40.276  24.033  26.459  1.00  0.00     0.173 A 
ATOM     77  C   UNL A   1      41.537  23.001  28.220  1.00  0.00     0.173 A 
ATOM     78  F   UNL A   1      39.902  25.115  25.760  1.00  0.00    -0.203 F 
ATOM     79  C   UNL A   1      39.675  22.809  26.173  1.00  0.00     0.198 A 
ATOM     80  C   UNL A   1      40.960  21.771  27.911  1.00  0.00     0.198 A 
ATOM     81  F   UNL A   1      42.417  23.067  29.230  1.00  0.00    -0.203 F 
ATOM     82  F   UNL A   1      38.740  22.730  25.216  1.00  0.00    -0.200 F 
ATOM     83  C   UNL A   1      40.023  21.677  26.896  1.00  0.00     0.200 A 
ATOM     84  F   UNL A   1      41.306  20.679  28.607  1.00  0.00    -0.200 F 
ATOM     85  F   UNL A   1      39.443  20.500  26.621  1.00  0.00    -0.200 F 
ENDBRANCH  51  75
BRANCH  63  86
ATOM     86  C   UNL A   1      47.687  26.706  27.135  1.00  0.00     0.064 A 
ATOM     87  C   UNL A   1      48.522  26.024  28.033  1.00  0.00     0.173 A 
ATOM     88  C   UNL A   1      48.104  26.794  25.797  1.00  0.00     0.173 A 
ATOM     89  F   UNL A   1      48.178  25.914  29.325  1.00  0.00    -0.203 F 
ATOM     90  C   UNL A   1      49.745  25.498  27.620  1.00  0.00     0.198 A 
ATOM     91  C   UNL A   1      49.309  26.235  25.379  1.00  0.00     0.198 A 
ATOM     92  F   UNL A   1      47.341  27.422  24.889  1.00  0.00    -0.203 F 
ATOM     93  F   UNL A   1      50.556  24.912  28.512  1.00  0.00    -0.200 F 
ATOM     94  C   UNL A   1      50.135  25.598  26.293  1.00  0.00     0.200 A 
ATOM     95  F   UNL A   1      49.674  26.317  24.092  1.00  0.00    -0.200 F 
ATOM     96  F   UNL A   1      51.311  25.093  25.898  1.00  0.00    -0.200 F 
ENDBRANCH  63  86
ENDBRANCH  37  38
ENDBRANCH  30  32
ENDBRANCH  29  30
ENDBRANCH  28  29
ENDBRANCH  27  28
ENDBRANCH  26  27
ENDBRANCH  25  26
ENDBRANCH   1  25
TORSDOF 21
ENDMDL
MODEL 2
REMARK VINA RESULT:      -9.8      5.544     12.014
REMARK SMILES COc1cc2[nH]nc(CC(=O)OCCOCCOCCOC(=O)c3ccc(-c4c5nc(c(-c6c(F)c(F)c(F)c(F)c6F)c6ccc([nH]6)c(-c6c(F)c(F)c(F)c(F)c6F)c6nc(c(-c7c(F)c(F)c(F)c(F)c7F)c7ccc4[nH]7)C=C6)C=C5)cc3)c2cc1OC(C)C
REMARK SMILES IDX 16 1 15 2 14 3 13 4 12 5 10 6 11 7 9 8 8 9 3 10 4 11 89 12
REMARK SMILES IDX 5 13 88 14 6 15 87 16 7 17 2 19 1 20 90 21 91 22 92 23 93 24
REMARK SMILES IDX 17 25 18 26 19 27 20 28 21 29 22 30 23 31 24 32 25 33 86 34
REMARK SMILES IDX 26 35 85 36 27 37 28 38 29 39 79 40 30 41 84 42 78 43 80 44
REMARK SMILES IDX 31 45 83 46 77 47 76 48 32 50 64 51 44 52 63 53 45 54 48 55
REMARK SMILES IDX 62 56 81 57 46 58 47 59 61 61 82 62 49 63 33 64 34 65 42 66
REMARK SMILES IDX 35 67 36 68 40 69 43 70 37 71 38 72 41 73 39 74 65 75 66 76
REMARK SMILES IDX 74 77 67 78 68 79 72 80 75 81 69 82 70 83 73 84 71 85 50 86
REMARK SMILES IDX 51 87 59 88 52 89 53 90 57 91 60 92 54 93 55 94 58 95 56 96
REMARK H PARENT 6 18 80 49 48 60
REMARK Flexibility Score: inf
ROOT
ATOM      1  C   UNL A   1      46.061  22.186  25.087  1.00  0.00     0.188 C 
ENDROOT
BRANCH   1   2
ATOM      2  O   UNL A   1      46.268  23.413  24.395  1.00  0.00    -0.376 OA
BRANCH   2   3
ATOM      3  C   UNL A   1      47.169  24.339  25.005  1.00  0.00     0.202 C 
BRANCH   3   4
ATOM      4  C   UNL A   1      47.127  25.788  24.484  1.00  0.00     0.261 C 
BRANCH   4   5
ATOM      5  O   UNL A   1      46.351  26.692  25.303  1.00  0.00    -0.463 OA
BRANCH   5   6
ATOM      6  C   UNL A   1      46.588  28.020  25.124  1.00  0.00     0.312 C 
ATOM      7  O   UNL A   1      46.646  28.563  24.022  1.00  0.00    -0.252 OA
BRANCH   6   8
ATOM      8  C   UNL A   1      46.599  28.844  26.392  1.00  0.00     0.181 C 
BRANCH   8   9
ATOM      9  C   UNL A   1      45.514  29.848  26.579  1.00  0.00     0.081 A 
ATOM     10  C   UNL A   1      45.208  34.026  26.662  1.00  0.00     0.162 A 
ATOM     11  C   UNL A   1      44.104  33.146  26.667  1.00  0.00     0.078 A 
ATOM     12  C   UNL A   1      46.523  33.540  26.625  1.00  0.00     0.162 A 
ATOM     13  C   UNL A   1      44.371  31.768  26.643  1.00  0.00     0.069 A 
ATOM     14  C   UNL A   1      46.740  32.152  26.584  1.00  0.00     0.062 A 
ATOM     15  N   UNL A   1      43.559  30.664  26.677  1.00  0.00    -0.277 N 
ATOM     16  C   UNL A   1      45.660  31.259  26.606  1.00  0.00     0.027 A 
ATOM     17  N   UNL A   1      44.220  29.491  26.566  1.00  0.00    -0.179 NA
ATOM     18  H   UNL A   1      42.581  30.721  26.775  1.00  0.00     0.190 HD
BRANCH  10  19
ATOM     19  O   UNL A   1      44.960  35.353  26.891  1.00  0.00    -0.493 OA
ATOM     20  C   UNL A   1      43.587  35.730  26.847  1.00  0.00     0.278 C 
ENDBRANCH  10  19
BRANCH  12  21
ATOM     21  O   UNL A   1      47.711  34.207  26.693  1.00  0.00    -0.487 OA
BRANCH  21  22
ATOM     22  C   UNL A   1      47.998  35.273  27.593  1.00  0.00     0.167 C 
ATOM     23  C   UNL A   1      48.852  34.890  28.800  1.00  0.00     0.052 C 
ATOM     24  C   UNL A   1      48.340  36.572  26.870  1.00  0.00     0.052 C 
ENDBRANCH  21  22
ENDBRANCH  12  21
ENDBRANCH   8   9
ENDBRANCH   6   8
ENDBRANCH   5   6
ENDBRANCH   4   5
ENDBRANCH   3   4
ENDBRANCH   2   3
ENDBRANCH   1   2
BRANCH   1  25
ATOM     25  C   UNL A   1      45.275  21.106  24.342  1.00  0.00     0.188 C 
BRANCH  25  26
ATOM     26  O   UNL A   1      45.576  19.767  24.708  1.00  0.00    -0.376 OA
BRANCH  26  27
ATOM     27  C   UNL A   1      44.524  18.808  24.589  1.00  0.00     0.202 C 
BRANCH  27  28
ATOM     28  C   UNL A   1      43.396  18.883  25.636  1.00  0.00     0.261 C 
BRANCH  28  29
ATOM     29  O   UNL A   1      42.164  19.488  25.184  1.00  0.00    -0.460 OA
BRANCH  29  30
ATOM     30  C   UNL A   1      41.398  20.126  26.105  1.00  0.00     0.338 C 
ATOM     31  O   UNL A   1      40.420  19.685  26.668  1.00  0.00    -0.246 OA
BRANCH  30  32
ATOM     32  C   UNL A   1      42.090  21.390  26.500  1.00  0.00     0.060 A 
ATOM     33  C   UNL A   1      42.473  21.522  27.841  1.00  0.00     0.016 A 
ATOM     34  C   UNL A   1      42.415  22.401  25.589  1.00  0.00     0.016 A 
ATOM     35  C   UNL A   1      43.101  22.686  28.289  1.00  0.00     0.010 A 
ATOM     36  C   UNL A   1      43.047  23.570  26.038  1.00  0.00     0.010 A 
ATOM     37  C   UNL A   1      43.346  23.742  27.401  1.00  0.00    -0.014 A 
BRANCH  37  38
ATOM     38  C   UNL A   1      43.719  25.072  27.956  1.00  0.00     0.031 A 
ATOM     39  C   UNL A   1      42.622  26.068  28.234  1.00  0.00     0.074 A 
ATOM     40  C   UNL A   1      44.986  25.369  28.299  1.00  0.00     0.049 A 
ATOM     41  N   UNL A   1      42.689  27.254  28.786  1.00  0.00    -0.248 NA
ATOM     42  C   UNL A   1      41.263  25.669  27.837  1.00  0.00     0.031 C 
ATOM     43  C   UNL A   1      46.141  24.494  28.122  1.00  0.00     0.029 A 
ATOM     44  N   UNL A   1      45.507  26.500  28.886  1.00  0.00    -0.354 N 
ATOM     45  C   UNL A   1      41.386  27.735  28.807  1.00  0.00     0.074 A 
ATOM     46  C   UNL A   1      40.556  26.737  28.169  1.00  0.00     0.031 C 
ATOM     47  C   UNL A   1      47.236  25.115  28.595  1.00  0.00     0.029 A 
ATOM     48  C   UNL A   1      46.865  26.442  29.088  1.00  0.00     0.049 A 
ATOM     49  H   UNL A   1      44.959  27.279  29.136  1.00  0.00     0.167 HD
ATOM     50  C   UNL A   1      40.915  28.896  29.326  1.00  0.00     0.037 A 
ATOM     51  C   UNL A   1      47.709  27.355  29.608  1.00  0.00     0.037 A 
ATOM     52  C   UNL A   1      41.733  29.897  29.960  1.00  0.00     0.049 A 
ATOM     53  C   UNL A   1      47.170  28.670  30.118  1.00  0.00     0.074 A 
ATOM     54  C   UNL A   1      41.341  31.097  30.526  1.00  0.00     0.029 A 
ATOM     55  N   UNL A   1      43.110  29.820  30.102  1.00  0.00    -0.354 N 
ATOM     56  N   UNL A   1      45.932  29.100  30.167  1.00  0.00    -0.248 NA
ATOM     57  C   UNL A   1      48.152  29.623  30.659  1.00  0.00     0.031 C 
ATOM     58  C   UNL A   1      42.486  31.774  30.956  1.00  0.00     0.029 A 
ATOM     59  C   UNL A   1      43.585  30.965  30.724  1.00  0.00     0.049 A 
ATOM     60  H   UNL A   1      43.667  29.064  29.807  1.00  0.00     0.167 HD
ATOM     61  C   UNL A   1      45.983  30.350  30.774  1.00  0.00     0.074 A 
ATOM     62  C   UNL A   1      47.372  30.602  31.092  1.00  0.00     0.031 C 
ATOM     63  C   UNL A   1      44.969  31.211  31.043  1.00  0.00     0.037 A 
BRANCH  50  64
ATOM     64  C   UNL A   1      39.441  29.158  29.204  1.00  0.00     0.064 A 
ATOM     65  C   UNL A   1      38.847  29.494  27.977  1.00  0.00     0.173 A 
ATOM     66  C   UNL A   1      38.606  29.042  30.324  1.00  0.00     0.173 A 
ATOM     67  F   UNL A   1      39.603  29.634  26.876  1.00  0.00    -0.203 F 
ATOM     68  C   UNL A   1      37.478  29.732  27.884  1.00  0.00     0.198 A 
ATOM     69  C   UNL A   1      37.233  29.248  30.222  1.00  0.00     0.198 A 
ATOM     70  F   UNL A   1      39.120  28.721  31.521  1.00  0.00    -0.203 F 
ATOM     71  F   UNL A   1      36.943  30.105  26.713  1.00  0.00    -0.200 F 
ATOM     72  C   UNL A   1      36.672  29.601  29.004  1.00  0.00     0.200 A 
ATOM     73  F   UNL A   1      36.453  29.106  31.302  1.00  0.00    -0.200 F 
ATOM     74  F   UNL A   1      35.353  29.824  28.911  1.00  0.00    -0.200 F 
ENDBRANCH  50  64
BRANCH  51  75
ATOM     75  C   UNL A   1      49.169  27.067  29.679  1.00  0.00     0.064 A 
ATOM     76  C   UNL A   1      49.739  26.461  30.808  1.00  0.00     0.173 A 
ATOM     77  C   UNL A   1      50.031  27.437  28.636  1.00  0.00     0.173 A 
ATOM     78  F   UNL A   1      48.964  26.119  31.848  1.00  0.00    -0.203 F 
ATOM     79  C   UNL A   1      51.115  26.257  30.901  1.00  0.00     0.198 A 
ATOM     80  C   UNL A   1      51.403  27.203  28.715  1.00  0.00     0.198 A 
ATOM     81  F   UNL A   1      49.539  28.029  27.538  1.00  0.00    -0.203 F 
ATOM     82  F   UNL A   1      51.639  25.733  32.017  1.00  0.00    -0.200 F 
ATOM     83  C   UNL A   1      51.944  26.624  29.851  1.00  0.00     0.200 A 
ATOM     84  F   UNL A   1      52.199  27.551  27.695  1.00  0.00    -0.200 F 
ATOM     85  F   UNL A   1      53.267  26.430  29.942  1.00  0.00    -0.200 F 
ENDBRANCH  51  75
BRANCH  63  86
ATOM     86  C   UNL A   1      45.315  32.487  31.763  1.00  0.00     0.064 A 
ATOM     87  C   UNL A   1      45.672  33.656  31.074  1.00  0.00     0.173 A 
ATOM     88  C   UNL A   1      45.273  32.545  33.165  1.00  0.00     0.173 A 
ATOM     89  F   UNL A   1      45.736  33.658  29.733  1.00  0.00    -0.203 F 
ATOM     90  C   UNL A   1      46.020  34.818  31.761  1.00  0.00     0.198 A 
ATOM     91  C   UNL A   1      45.585  33.718  33.848  1.00  0.00     0.198 A 
ATOM     92  F   UNL A   1      44.925  31.463  33.878  1.00  0.00    -0.203 F 
ATOM     93  F   UNL A   1      46.423  35.900  31.082  1.00  0.00    -0.200 F 
ATOM     94  C   UNL A   1      45.970  34.850  33.146  1.00  0.00     0.200 A 
ATOM     95  F   UNL A   1      45.517  33.751  35.186  1.00  0.00    -0.200 F 
ATOM     96  F   UNL A   1      46.306  35.967  33.805  1.00  0.00    -0.200 F 
ENDBRANCH  63  86
ENDBRANCH  37  38
ENDBRANCH  30  32
ENDBRANCH  29  30
ENDBRANCH  28  29
ENDBRANCH  27  28
ENDBRANCH  26  27
ENDBRANCH  25  26
ENDBRANCH   1  25
TORSDOF 21
ENDMDL
MODEL 3
REMARK VINA RESULT:      -9.7      5.046     10.100
REMARK SMILES COc1cc2[nH]nc(CC(=O)OCCOCCOCCOC(=O)c3ccc(-c4c5nc(c(-c6c(F)c(F)c(F)c(F)c6F)c6ccc([nH]6)c(-c6c(F)c(F)c(F)c(F)c6F)c6nc(c(-c7c(F)c(F)c(F)c(F)c7F)c7ccc4[nH]7)C=C6)C=C5)cc3)c2cc1OC(C)C
REMARK SMILES IDX 16 1 15 2 14 3 13 4 12 5 10 6 11 7 9 8 8 9 3 10 4 11 89 12
REMARK SMILES IDX 5 13 88 14 6 15 87 16 7 17 2 19 1 20 90 21 91 22 92 23 93 24
REMARK SMILES IDX 17 25 18 26 19 27 20 28 21 29 22 30 23 31 24 32 25 33 86 34
REMARK SMILES IDX 26 35 85 36 27 37 28 38 29 39 79 40 30 41 84 42 78 43 80 44
REMARK SMILES IDX 31 45 83 46 77 47 76 48 32 50 64 51 44 52 63 53 45 54 48 55
REMARK SMILES IDX 62 56 81 57 46 58 47 59 61 61 82 62 49 63 33 64 34 65 42 66
REMARK SMILES IDX 35 67 36 68 40 69 43 70 37 71 38 72 41 73 39 74 65 75 66 76
REMARK SMILES IDX 74 77 67 78 68 79 72 80 75 81 69 82 70 83 73 84 71 85 50 86
REMARK SMILES IDX 51 87 59 88 52 89 53 90 57 91 60 92 54 93 55 94 58 95 56 96
REMARK H PARENT 6 18 80 49 48 60
REMARK Flexibility Score: inf
ROOT
ATOM      1  C   UNL A   1      39.288  21.386  25.718  1.00  0.00     0.188 C 
ENDROOT
BRANCH   1   2
ATOM      2  O   UNL A   1      37.980  21.798  26.101  1.00  0.00    -0.376 OA
BRANCH   2   3
ATOM      3  C   UNL A   1      36.948  21.608  25.132  1.00  0.00     0.202 C 
BRANCH   3   4
ATOM      4  C   UNL A   1      36.901  22.613  23.966  1.00  0.00     0.261 C 
BRANCH   4   5
ATOM      5  O   UNL A   1      36.138  23.810  24.242  1.00  0.00    -0.463 OA
BRANCH   5   6
ATOM      6  C   UNL A   1      34.903  23.880  23.675  1.00  0.00     0.312 C 
ATOM      7  O   UNL A   1      34.678  23.631  22.492  1.00  0.00    -0.252 OA
BRANCH   6   8
ATOM      8  C   UNL A   1      33.767  24.114  24.645  1.00  0.00     0.181 C 
BRANCH   8   9
ATOM      9  C   UNL A   1      32.476  24.616  24.095  1.00  0.00     0.081 A 
ATOM     10  C   UNL A   1      30.663  28.346  23.499  1.00  0.00     0.162 A 
ATOM     11  C   UNL A   1      30.149  27.123  23.014  1.00  0.00     0.078 A 
ATOM     12  C   UNL A   1      31.855  28.390  24.235  1.00  0.00     0.162 A 
ATOM     13  C   UNL A   1      30.871  25.955  23.303  1.00  0.00     0.069 A 
ATOM     14  C   UNL A   1      32.552  27.196  24.485  1.00  0.00     0.062 A 
ATOM     15  N   UNL A   1      30.644  24.630  23.026  1.00  0.00    -0.277 N 
ATOM     16  C   UNL A   1      32.052  25.968  24.028  1.00  0.00     0.027 A 
ATOM     17  N   UNL A   1      31.636  23.807  23.430  1.00  0.00    -0.179 NA
ATOM     18  H   UNL A   1      29.831  24.309  22.574  1.00  0.00     0.190 HD
BRANCH  10  19
ATOM     19  O   UNL A   1      29.863  29.452  23.398  1.00  0.00    -0.493 OA
ATOM     20  C   UNL A   1      28.528  29.199  22.969  1.00  0.00     0.278 C 
ENDBRANCH  10  19
BRANCH  12  21
ATOM     21  O   UNL A   1      32.471  29.440  24.852  1.00  0.00    -0.487 OA
BRANCH  21  22
ATOM     22  C   UNL A   1      32.191  29.888  26.175  1.00  0.00     0.167 C 
ATOM     23  C   UNL A   1      31.463  31.227  26.264  1.00  0.00     0.052 C 
ATOM     24  C   UNL A   1      31.711  28.761  27.084  1.00  0.00     0.052 C 
ENDBRANCH  21  22
ENDBRANCH  12  21
ENDBRANCH   8   9
ENDBRANCH   6   8
ENDBRANCH   5   6
ENDBRANCH   4   5
ENDBRANCH   3   4
ENDBRANCH   2   3
ENDBRANCH   1   2
BRANCH   1  25
ATOM     25  C   UNL A   1      40.435  21.820  26.631  1.00  0.00     0.188 C 
BRANCH  25  26
ATOM     26  O   UNL A   1      41.491  20.881  26.777  1.00  0.00    -0.376 OA
BRANCH  26  27
ATOM     27  C   UNL A   1      42.815  21.344  26.509  1.00  0.00     0.202 C 
BRANCH  27  28
ATOM     28  C   UNL A   1      43.039  22.067  25.166  1.00  0.00     0.261 C 
BRANCH  28  29
ATOM     29  O   UNL A   1      42.853  23.499  25.190  1.00  0.00    -0.460 OA
BRANCH  29  30
ATOM     30  C   UNL A   1      43.942  24.274  25.427  1.00  0.00     0.338 C 
ATOM     31  O   UNL A   1      44.893  24.435  24.693  1.00  0.00    -0.246 OA
BRANCH  30  32
ATOM     32  C   UNL A   1      43.680  25.095  26.647  1.00  0.00     0.060 A 
ATOM     33  C   UNL A   1      42.829  24.552  27.619  1.00  0.00     0.016 A 
ATOM     34  C   UNL A   1      44.286  26.335  26.878  1.00  0.00     0.016 A 
ATOM     35  C   UNL A   1      42.518  25.274  28.773  1.00  0.00     0.010 A 
ATOM     36  C   UNL A   1      43.975  27.059  28.038  1.00  0.00     0.010 A 
ATOM     37  C   UNL A   1      43.047  26.556  28.968  1.00  0.00    -0.014 A 
BRANCH  37  38
ATOM     38  C   UNL A   1      42.461  27.419  30.030  1.00  0.00     0.031 A 
ATOM     39  C   UNL A   1      43.155  27.485  31.367  1.00  0.00     0.074 A 
ATOM     40  C   UNL A   1      41.393  28.204  29.799  1.00  0.00     0.049 A 
ATOM     41  N   UNL A   1      42.882  28.220  32.416  1.00  0.00    -0.248 NA
ATOM     42  C   UNL A   1      44.319  26.602  31.542  1.00  0.00     0.031 C 
ATOM     43  C   UNL A   1      40.644  28.271  28.548  1.00  0.00     0.029 A 
ATOM     44  N   UNL A   1      40.762  29.112  30.619  1.00  0.00    -0.354 N 
ATOM     45  C   UNL A   1      43.840  27.893  33.367  1.00  0.00     0.074 A 
ATOM     46  C   UNL A   1      44.672  26.858  32.791  1.00  0.00     0.031 C 
ATOM     47  C   UNL A   1      39.656  29.176  28.678  1.00  0.00     0.029 A 
ATOM     48  C   UNL A   1      39.689  29.737  30.029  1.00  0.00     0.049 A 
ATOM     49  H   UNL A   1      41.050  29.295  31.542  1.00  0.00     0.167 HD
ATOM     50  C   UNL A   1      44.026  28.416  34.603  1.00  0.00     0.037 A 
ATOM     51  C   UNL A   1      38.832  30.652  30.525  1.00  0.00     0.037 A 
ATOM     52  C   UNL A   1      43.204  29.443  35.186  1.00  0.00     0.049 A 
ATOM     53  C   UNL A   1      39.020  31.171  31.930  1.00  0.00     0.074 A 
ATOM     54  C   UNL A   1      43.326  30.043  36.427  1.00  0.00     0.029 A 
ATOM     55  N   UNL A   1      42.099  30.015  34.574  1.00  0.00    -0.354 N 
ATOM     56  N   UNL A   1      39.951  30.882  32.808  1.00  0.00    -0.248 NA
ATOM     57  C   UNL A   1      38.038  32.157  32.408  1.00  0.00     0.031 C 
ATOM     58  C   UNL A   1      42.260  30.934  36.591  1.00  0.00     0.029 A 
ATOM     59  C   UNL A   1      41.515  30.943  35.424  1.00  0.00     0.049 A 
ATOM     60  H   UNL A   1      41.778  29.796  33.670  1.00  0.00     0.167 HD
ATOM     61  C   UNL A   1      39.689  31.673  33.921  1.00  0.00     0.074 A 
ATOM     62  C   UNL A   1      38.523  32.468  33.601  1.00  0.00     0.031 C 
ATOM     63  C   UNL A   1      40.356  31.736  35.101  1.00  0.00     0.037 A 
BRANCH  50  64
ATOM     64  C   UNL A   1      45.157  27.862  35.423  1.00  0.00     0.064 A 
ATOM     65  C   UNL A   1      46.434  28.444  35.414  1.00  0.00     0.173 A 
ATOM     66  C   UNL A   1      44.951  26.750  36.253  1.00  0.00     0.173 A 
ATOM     67  F   UNL A   1      46.689  29.500  34.625  1.00  0.00    -0.203 F 
ATOM     68  C   UNL A   1      47.468  27.917  36.183  1.00  0.00     0.198 A 
ATOM     69  C   UNL A   1      45.978  26.246  37.046  1.00  0.00     0.198 A 
ATOM     70  F   UNL A   1      43.749  26.156  36.303  1.00  0.00    -0.203 F 
ATOM     71  F   UNL A   1      48.693  28.457  36.116  1.00  0.00    -0.200 F 
ATOM     72  C   UNL A   1      47.237  26.823  37.004  1.00  0.00     0.200 A 
ATOM     73  F   UNL A   1      45.748  25.198  37.850  1.00  0.00    -0.200 F 
ATOM     74  F   UNL A   1      48.232  26.321  37.749  1.00  0.00    -0.200 F 
ENDBRANCH  50  64
BRANCH  51  75
ATOM     75  C   UNL A   1      37.704  31.149  29.688  1.00  0.00     0.064 A 
ATOM     76  C   UNL A   1      37.694  32.457  29.182  1.00  0.00     0.173 A 
ATOM     77  C   UNL A   1      36.592  30.339  29.417  1.00  0.00     0.173 A 
ATOM     78  F   UNL A   1      38.717  33.284  29.440  1.00  0.00    -0.203 F 
ATOM     79  C   UNL A   1      36.605  32.941  28.459  1.00  0.00     0.198 A 
ATOM     80  C   UNL A   1      35.518  30.813  28.666  1.00  0.00     0.198 A 
ATOM     81  F   UNL A   1      36.547  29.083  29.887  1.00  0.00    -0.203 F 
ATOM     82  F   UNL A   1      36.593  34.214  28.041  1.00  0.00    -0.200 F 
ATOM     83  C   UNL A   1      35.521  32.116  28.197  1.00  0.00     0.200 A 
ATOM     84  F   UNL A   1      34.477  30.009  28.409  1.00  0.00    -0.200 F 
ATOM     85  F   UNL A   1      34.473  32.584  27.504  1.00  0.00    -0.200 F 
ENDBRANCH  51  75
BRANCH  63  86
ATOM     86  C   UNL A   1      39.873  32.734  36.119  1.00  0.00     0.064 A 
ATOM     87  C   UNL A   1      38.828  32.442  37.009  1.00  0.00     0.173 A 
ATOM     88  C   UNL A   1      40.477  33.997  36.216  1.00  0.00     0.173 A 
ATOM     89  F   UNL A   1      38.208  31.253  36.957  1.00  0.00    -0.203 F 
ATOM     90  C   UNL A   1      38.375  33.393  37.922  1.00  0.00     0.198 A 
ATOM     91  C   UNL A   1      40.048  34.932  37.155  1.00  0.00     0.198 A 
ATOM     92  F   UNL A   1      41.490  34.328  35.401  1.00  0.00    -0.203 F 
ATOM     93  F   UNL A   1      37.330  33.114  38.714  1.00  0.00    -0.200 F 
ATOM     94  C   UNL A   1      38.988  34.634  37.998  1.00  0.00     0.200 A 
ATOM     95  F   UNL A   1      40.655  36.124  37.240  1.00  0.00    -0.200 F 
ATOM     96  F   UNL A   1      38.551  35.546  38.876  1.00  0.00    -0.200 F 
ENDBRANCH  63  86
ENDBRANCH  37  38
ENDBRANCH  30  32
ENDBRANCH  29  30
ENDBRANCH  28  29
ENDBRANCH  27  28
ENDBRANCH  26  27
ENDBRANCH  25  26
ENDBRANCH   1  25
TORSDOF 21
ENDMDL
