MODEL 1
REMARK VINA RESULT:     -10.9      0.000      0.000
REMARK SMILES CC(C)[C@H](NC(=O)Cc1csc(-c2c(Cl)cccc2Cl)n1)C(=O)OCCOCCOCCOC(=O)c1ccc(-c2c3nc(c(-c4c(F)c(F)c(F)c(F)c4F)c4ccc([nH]4)c(-c4c(F)c(F)c(F)c(F)c4F)c4nc(c(-c5c(F)c(F)c(F)c(F)c5F)c5ccc2[nH]5)C=C4)C=C3)cc1
REMARK SMILES IDX 28 1 27 2 26 3 25 4 24 5 22 6 23 7 4 8 2 9 1 10 3 11 5 12
REMARK SMILES IDX 6 13 7 15 8 16 9 17 10 18 21 19 11 20 12 21 13 22 14 23
REMARK SMILES IDX 19 24 15 25 16 26 18 27 20 28 17 29 29 30 30 31 31 32 32 33
REMARK SMILES IDX 33 34 34 35 35 36 36 37 37 38 98 39 38 40 97 41 39 42 40 43
REMARK SMILES IDX 41 44 91 45 42 46 96 47 90 48 92 49 43 50 95 51 89 52 88 53
REMARK SMILES IDX 44 55 76 56 56 57 75 58 57 59 60 60 74 61 93 62 58 63 59 64
REMARK SMILES IDX 73 66 94 67 61 68 45 69 46 70 54 71 47 72 48 73 52 74 55 75
REMARK SMILES IDX 49 76 50 77 53 78 51 79 77 80 78 81 86 82 79 83 80 84 84 85
REMARK SMILES IDX 87 86 81 87 82 88 85 89 83 90 62 91 63 92 71 93 64 94 65 95
REMARK SMILES IDX 69 96 72 97 66 98 67 99 70 100 68 101
REMARK H PARENT 5 14 92 54 60 65
REMARK Flexibility Score: inf
ROOT
ATOM      1  C   UNL A   1      33.736  28.333  26.506  1.00  0.00     0.188 C 
ENDROOT
BRANCH   1   2
ATOM      2  O   UNL A   1      33.577  27.221  25.634  1.00  0.00    -0.376 OA
BRANCH   2   3
ATOM      3  C   UNL A   1      33.933  25.929  26.087  1.00  0.00     0.202 C 
BRANCH   3   4
ATOM      4  C   UNL A   1      34.793  25.083  25.151  1.00  0.00     0.261 C 
BRANCH   4   5
ATOM      5  O   UNL A   1      35.469  23.959  25.747  1.00  0.00    -0.462 OA
BRANCH   5   6
ATOM      6  C   UNL A   1      34.665  23.000  26.277  1.00  0.00     0.328 C 
ATOM      7  O   UNL A   1      34.334  22.968  27.459  1.00  0.00    -0.250 OA
BRANCH   6   8
ATOM      8  C   UNL A   1      34.093  21.991  25.236  1.00  0.00     0.194 C 
BRANCH   8   9
ATOM      9  C   UNL A   1      34.608  20.530  25.368  1.00  0.00     0.017 C 
ATOM     10  C   UNL A   1      33.789  19.470  24.629  1.00  0.00     0.010 C 
ATOM     11  C   UNL A   1      36.076  20.441  24.936  1.00  0.00     0.010 C 
ENDBRANCH   8   9
BRANCH   8  12
ATOM     12  N   UNL A   1      33.887  22.448  23.842  1.00  0.00    -0.342 N 
ATOM     13  C   UNL A   1      32.860  22.588  22.970  1.00  0.00     0.226 C 
ATOM     14  H   UNL A   1      34.737  22.729  23.434  1.00  0.00     0.164 HD
ATOM     15  O   UNL A   1      33.193  22.886  21.813  1.00  0.00    -0.275 OA
BRANCH  13  16
ATOM     16  C   UNL A   1      31.398  22.605  23.349  1.00  0.00     0.157 C 
BRANCH  16  17
ATOM     17  C   UNL A   1      30.886  23.866  23.950  1.00  0.00     0.061 A 
ATOM     18  C   UNL A   1      30.852  24.161  25.302  1.00  0.00     0.091 A 
ATOM     19  N   UNL A   1      30.458  24.892  23.135  1.00  0.00    -0.240 NA
ATOM     20  S   UNL A   1      30.303  25.766  25.548  1.00  0.00    -0.122 S 
ATOM     21  C   UNL A   1      30.154  25.953  23.852  1.00  0.00     0.126 A 
BRANCH  21  22
ATOM     22  C   UNL A   1      29.765  27.229  23.260  1.00  0.00     0.048 A 
ATOM     23  C   UNL A   1      30.714  28.084  22.678  1.00  0.00     0.052 A 
ATOM     24  C   UNL A   1      28.444  27.692  23.394  1.00  0.00     0.052 A 
ATOM     25  Cl  UNL A   1      32.349  27.593  22.385  1.00  0.00    -0.084 Cl
ATOM     26  C   UNL A   1      30.373  29.397  22.331  1.00  0.00     0.021 A 
ATOM     27  C   UNL A   1      28.101  28.996  23.022  1.00  0.00     0.021 A 
ATOM     28  Cl  UNL A   1      27.172  26.687  24.003  1.00  0.00    -0.084 Cl
ATOM     29  C   UNL A   1      29.072  29.858  22.518  1.00  0.00     0.003 A 
ENDBRANCH  21  22
ENDBRANCH  16  17
ENDBRANCH  13  16
ENDBRANCH   8  12
ENDBRANCH   6   8
ENDBRANCH   5   6
ENDBRANCH   4   5
ENDBRANCH   3   4
ENDBRANCH   2   3
ENDBRANCH   1   2
BRANCH   1  30
ATOM     30  C   UNL A   1      33.262  29.744  26.105  1.00  0.00     0.188 C 
BRANCH  30  31
ATOM     31  O   UNL A   1      32.183  30.256  26.867  1.00  0.00    -0.376 OA
BRANCH  31  32
ATOM     32  C   UNL A   1      31.555  31.417  26.346  1.00  0.00     0.202 C 
BRANCH  32  33
ATOM     33  C   UNL A   1      31.848  32.635  27.226  1.00  0.00     0.261 C 
BRANCH  33  34
ATOM     34  O   UNL A   1      33.182  33.143  27.059  1.00  0.00    -0.460 OA
BRANCH  34  35
ATOM     35  C   UNL A   1      33.744  33.702  28.155  1.00  0.00     0.338 C 
ATOM     36  O   UNL A   1      33.272  34.571  28.866  1.00  0.00    -0.246 OA
BRANCH  35  37
ATOM     37  C   UNL A   1      34.952  32.925  28.486  1.00  0.00     0.060 A 
ATOM     38  C   UNL A   1      34.807  31.569  28.803  1.00  0.00     0.016 A 
ATOM     39  C   UNL A   1      36.214  33.524  28.472  1.00  0.00     0.016 A 
ATOM     40  C   UNL A   1      35.925  30.814  29.152  1.00  0.00     0.010 A 
ATOM     41  C   UNL A   1      37.331  32.775  28.841  1.00  0.00     0.010 A 
ATOM     42  C   UNL A   1      37.182  31.430  29.221  1.00  0.00    -0.014 A 
BRANCH  42  43
ATOM     43  C   UNL A   1      38.286  30.748  29.932  1.00  0.00     0.031 A 
ATOM     44  C   UNL A   1      38.521  31.113  31.371  1.00  0.00     0.074 A 
ATOM     45  C   UNL A   1      39.054  29.827  29.326  1.00  0.00     0.049 A 
ATOM     46  N   UNL A   1      39.429  30.678  32.205  1.00  0.00    -0.248 NA
ATOM     47  C   UNL A   1      37.604  32.111  31.945  1.00  0.00     0.031 C 
ATOM     48  C   UNL A   1      38.908  29.373  27.946  1.00  0.00     0.029 A 
ATOM     49  N   UNL A   1      40.123  29.112  29.808  1.00  0.00    -0.354 N 
ATOM     50  C   UNL A   1      39.188  31.344  33.399  1.00  0.00     0.074 A 
ATOM     51  C   UNL A   1      38.073  32.237  33.176  1.00  0.00     0.031 C 
ATOM     52  C   UNL A   1      39.863  28.462  27.686  1.00  0.00     0.029 A 
ATOM     53  C   UNL A   1      40.696  28.286  28.875  1.00  0.00     0.049 A 
ATOM     54  H   UNL A   1      40.447  29.186  30.734  1.00  0.00     0.167 HD
ATOM     55  C   UNL A   1      39.833  31.217  34.582  1.00  0.00     0.037 A 
ATOM     56  C   UNL A   1      41.780  27.493  28.975  1.00  0.00     0.037 A 
ATOM     57  C   UNL A   1      40.954  30.346  34.799  1.00  0.00     0.049 A 
ATOM     58  C   UNL A   1      42.523  27.416  30.285  1.00  0.00     0.074 A 
ATOM     59  C   UNL A   1      41.680  30.144  35.959  1.00  0.00     0.029 A 
ATOM     60  N   UNL A   1      41.520  29.538  33.824  1.00  0.00    -0.354 N 
ATOM     61  N   UNL A   1      42.270  28.021  31.421  1.00  0.00    -0.248 NA
ATOM     62  C   UNL A   1      43.701  26.537  30.327  1.00  0.00     0.031 C 
ATOM     63  C   UNL A   1      42.712  29.242  35.675  1.00  0.00     0.029 A 
ATOM     64  C   UNL A   1      42.599  28.847  34.352  1.00  0.00     0.049 A 
ATOM     65  H   UNL A   1      41.202  29.465  32.895  1.00  0.00     0.167 HD
ATOM     66  C   UNL A   1      43.234  27.577  32.316  1.00  0.00     0.074 A 
ATOM     67  C   UNL A   1      44.071  26.641  31.596  1.00  0.00     0.031 C 
ATOM     68  C   UNL A   1      43.413  27.912  33.619  1.00  0.00     0.037 A 
BRANCH  55  69
ATOM     69  C   UNL A   1      39.347  32.065  35.717  1.00  0.00     0.064 A 
ATOM     70  C   UNL A   1      39.824  33.370  35.913  1.00  0.00     0.173 A 
ATOM     71  C   UNL A   1      38.393  31.569  36.618  1.00  0.00     0.173 A 
ATOM     72  F   UNL A   1      40.754  33.880  35.092  1.00  0.00    -0.203 F 
ATOM     73  C   UNL A   1      39.381  34.139  36.987  1.00  0.00     0.198 A 
ATOM     74  C   UNL A   1      37.934  32.351  37.674  1.00  0.00     0.198 A 
ATOM     75  F   UNL A   1      37.910  30.327  36.475  1.00  0.00    -0.203 F 
ATOM     76  F   UNL A   1      39.887  35.365  37.185  1.00  0.00    -0.200 F 
ATOM     77  C   UNL A   1      38.433  33.631  37.862  1.00  0.00     0.200 A 
ATOM     78  F   UNL A   1      37.014  31.861  38.516  1.00  0.00    -0.200 F 
ATOM     79  F   UNL A   1      38.008  34.372  38.894  1.00  0.00    -0.200 F 
ENDBRANCH  55  69
BRANCH  56  80
ATOM     80  C   UNL A   1      42.234  26.699  27.804  1.00  0.00     0.064 A 
ATOM     81  C   UNL A   1      43.204  27.201  26.925  1.00  0.00     0.173 A 
ATOM     82  C   UNL A   1      41.687  25.438  27.522  1.00  0.00     0.173 A 
ATOM     83  F   UNL A   1      43.734  28.414  27.136  1.00  0.00    -0.203 F 
ATOM     84  C   UNL A   1      43.594  26.481  25.797  1.00  0.00     0.198 A 
ATOM     85  C   UNL A   1      42.096  24.709  26.408  1.00  0.00     0.198 A 
ATOM     86  F   UNL A   1      40.752  24.918  28.330  1.00  0.00    -0.203 F 
ATOM     87  F   UNL A   1      44.486  27.006  24.945  1.00  0.00    -0.200 F 
ATOM     88  C   UNL A   1      43.042  25.235  25.542  1.00  0.00     0.200 A 
ATOM     89  F   UNL A   1      41.565  23.503  26.168  1.00  0.00    -0.200 F 
ATOM     90  F   UNL A   1      43.415  24.545  24.454  1.00  0.00    -0.200 F 
ENDBRANCH  56  80
BRANCH  68  91
ATOM     91  C   UNL A   1      44.528  27.232  34.358  1.00  0.00     0.064 A 
ATOM     92  C   UNL A   1      44.342  25.999  35.000  1.00  0.00     0.173 A 
ATOM     93  C   UNL A   1      45.808  27.804  34.391  1.00  0.00     0.173 A 
ATOM     94  F   UNL A   1      43.133  25.418  35.009  1.00  0.00    -0.203 F 
ATOM     95  C   UNL A   1      45.391  25.378  35.673  1.00  0.00     0.198 A 
ATOM     96  C   UNL A   1      46.862  27.166  35.039  1.00  0.00     0.198 A 
ATOM     97  F   UNL A   1      46.041  28.978  33.783  1.00  0.00    -0.203 F 
ATOM     98  F   UNL A   1      45.180  24.225  36.320  1.00  0.00    -0.200 F 
ATOM     99  C   UNL A   1      46.651  25.959  35.686  1.00  0.00     0.200 A 
ATOM    100  F   UNL A   1      48.082  27.723  35.040  1.00  0.00    -0.200 F 
ATOM    101  F   UNL A   1      47.661  25.358  36.330  1.00  0.00    -0.200 F 
ENDBRANCH  68  91
ENDBRANCH  42  43
ENDBRANCH  35  37
ENDBRANCH  34  35
ENDBRANCH  33  34
ENDBRANCH  32  33
ENDBRANCH  31  32
ENDBRANCH  30  31
ENDBRANCH   1  30
TORSDOF 22
ENDMDL
MODEL 2
REMARK VINA RESULT:     -10.6      4.355      7.140
REMARK SMILES CC(C)[C@H](NC(=O)Cc1csc(-c2c(Cl)cccc2Cl)n1)C(=O)OCCOCCOCCOC(=O)c1ccc(-c2c3nc(c(-c4c(F)c(F)c(F)c(F)c4F)c4ccc([nH]4)c(-c4c(F)c(F)c(F)c(F)c4F)c4nc(c(-c5c(F)c(F)c(F)c(F)c5F)c5ccc2[nH]5)C=C4)C=C3)cc1
REMARK SMILES IDX 28 1 27 2 26 3 25 4 24 5 22 6 23 7 4 8 2 9 1 10 3 11 5 12
REMARK SMILES IDX 6 13 7 15 8 16 9 17 10 18 21 19 11 20 12 21 13 22 14 23
REMARK SMILES IDX 19 24 15 25 16 26 18 27 20 28 17 29 29 30 30 31 31 32 32 33
REMARK SMILES IDX 33 34 34 35 35 36 36 37 37 38 98 39 38 40 97 41 39 42 40 43
REMARK SMILES IDX 41 44 91 45 42 46 96 47 90 48 92 49 43 50 95 51 89 52 88 53
REMARK SMILES IDX 44 55 76 56 56 57 75 58 57 59 60 60 74 61 93 62 58 63 59 64
REMARK SMILES IDX 73 66 94 67 61 68 45 69 46 70 54 71 47 72 48 73 52 74 55 75
REMARK SMILES IDX 49 76 50 77 53 78 51 79 77 80 78 81 86 82 79 83 80 84 84 85
REMARK SMILES IDX 87 86 81 87 82 88 85 89 83 90 62 91 63 92 71 93 64 94 65 95
REMARK SMILES IDX 69 96 72 97 66 98 67 99 70 100 68 101
REMARK H PARENT 5 14 92 54 60 65
REMARK Flexibility Score: inf
ROOT
ATOM      1  C   UNL A   1      34.022  30.282  27.807  1.00  0.00     0.188 C 
ENDROOT
BRANCH   1   2
ATOM      2  O   UNL A   1      34.747  29.680  26.742  1.00  0.00    -0.376 OA
BRANCH   2   3
ATOM      3  C   UNL A   1      34.087  28.772  25.881  1.00  0.00     0.202 C 
BRANCH   3   4
ATOM      4  C   UNL A   1      32.784  28.160  26.392  1.00  0.00     0.261 C 
BRANCH   4   5
ATOM      5  O   UNL A   1      31.700  28.087  25.446  1.00  0.00    -0.462 OA
BRANCH   5   6
ATOM      6  C   UNL A   1      31.393  29.247  24.808  1.00  0.00     0.328 C 
ATOM      7  O   UNL A   1      31.297  30.331  25.378  1.00  0.00    -0.250 OA
BRANCH   6   8
ATOM      8  C   UNL A   1      31.280  29.120  23.259  1.00  0.00     0.194 C 
BRANCH   8   9
ATOM      9  C   UNL A   1      29.878  28.722  22.721  1.00  0.00     0.017 C 
ATOM     10  C   UNL A   1      29.151  27.631  23.508  1.00  0.00     0.010 C 
ATOM     11  C   UNL A   1      28.980  29.958  22.604  1.00  0.00     0.010 C 
ENDBRANCH   8   9
BRANCH   8  12
ATOM     12  N   UNL A   1      32.416  28.536  22.509  1.00  0.00    -0.342 N 
ATOM     13  C   UNL A   1      33.004  27.325  22.354  1.00  0.00     0.226 C 
ATOM     14  H   UNL A   1      32.872  29.221  21.969  1.00  0.00     0.164 HD
ATOM     15  O   UNL A   1      34.063  27.336  21.708  1.00  0.00    -0.275 OA
BRANCH  13  16
ATOM     16  C   UNL A   1      32.375  26.003  22.724  1.00  0.00     0.157 C 
BRANCH  16  17
ATOM     17  C   UNL A   1      33.170  25.121  23.620  1.00  0.00     0.061 A 
ATOM     18  C   UNL A   1      34.111  25.543  24.542  1.00  0.00     0.091 A 
ATOM     19  N   UNL A   1      32.945  23.760  23.622  1.00  0.00    -0.240 NA
ATOM     20  S   UNL A   1      34.699  24.211  25.448  1.00  0.00    -0.122 S 
ATOM     21  C   UNL A   1      33.664  23.176  24.557  1.00  0.00     0.126 A 
BRANCH  21  22
ATOM     22  C   UNL A   1      33.563  21.754  24.867  1.00  0.00     0.048 A 
ATOM     23  C   UNL A   1      34.629  20.875  24.622  1.00  0.00     0.052 A 
ATOM     24  C   UNL A   1      32.334  21.213  25.285  1.00  0.00     0.052 A 
ATOM     25  Cl  UNL A   1      36.210  21.432  24.186  1.00  0.00    -0.084 Cl
ATOM     26  C   UNL A   1      34.442  19.489  24.698  1.00  0.00     0.021 A 
ATOM     27  C   UNL A   1      32.159  19.828  25.384  1.00  0.00     0.021 A 
ATOM     28  Cl  UNL A   1      30.984  22.210  25.713  1.00  0.00    -0.084 Cl
ATOM     29  C   UNL A   1      33.204  18.965  25.062  1.00  0.00     0.003 A 
ENDBRANCH  21  22
ENDBRANCH  16  17
ENDBRANCH  13  16
ENDBRANCH   8  12
ENDBRANCH   6   8
ENDBRANCH   5   6
ENDBRANCH   4   5
ENDBRANCH   3   4
ENDBRANCH   2   3
ENDBRANCH   1   2
BRANCH   1  30
ATOM     30  C   UNL A   1      33.706  31.791  27.814  1.00  0.00     0.188 C 
BRANCH  30  31
ATOM     31  O   UNL A   1      34.610  32.592  28.554  1.00  0.00    -0.376 OA
BRANCH  31  32
ATOM     32  C   UNL A   1      34.031  33.663  29.284  1.00  0.00     0.202 C 
BRANCH  32  33
ATOM     33  C   UNL A   1      34.419  33.584  30.763  1.00  0.00     0.261 C 
BRANCH  33  34
ATOM     34  O   UNL A   1      34.599  32.236  31.227  1.00  0.00    -0.460 OA
BRANCH  34  35
ATOM     35  C   UNL A   1      35.567  32.054  32.155  1.00  0.00     0.338 C 
ATOM     36  O   UNL A   1      35.514  32.323  33.342  1.00  0.00    -0.246 OA
BRANCH  35  37
ATOM     37  C   UNL A   1      36.643  31.261  31.533  1.00  0.00     0.060 A 
ATOM     38  C   UNL A   1      37.717  30.852  32.332  1.00  0.00     0.016 A 
ATOM     39  C   UNL A   1      36.587  30.915  30.181  1.00  0.00     0.016 A 
ATOM     40  C   UNL A   1      38.767  30.129  31.769  1.00  0.00     0.010 A 
ATOM     41  C   UNL A   1      37.646  30.210  29.610  1.00  0.00     0.010 A 
ATOM     42  C   UNL A   1      38.757  29.852  30.395  1.00  0.00    -0.014 A 
BRANCH  42  43
ATOM     43  C   UNL A   1      40.008  29.422  29.731  1.00  0.00     0.031 A 
ATOM     44  C   UNL A   1      41.095  30.446  29.562  1.00  0.00     0.074 A 
ATOM     45  C   UNL A   1      40.182  28.162  29.299  1.00  0.00     0.049 A 
ATOM     46  N   UNL A   1      42.270  30.331  29.000  1.00  0.00    -0.248 NA
ATOM     47  C   UNL A   1      40.812  31.788  30.098  1.00  0.00     0.031 C 
ATOM     48  C   UNL A   1      39.212  27.078  29.428  1.00  0.00     0.029 A 
ATOM     49  N   UNL A   1      41.248  27.590  28.652  1.00  0.00    -0.354 N 
ATOM     50  C   UNL A   1      42.865  31.579  29.122  1.00  0.00     0.074 A 
ATOM     51  C   UNL A   1      41.914  32.448  29.777  1.00  0.00     0.031 C 
ATOM     52  C   UNL A   1      39.724  25.970  28.865  1.00  0.00     0.029 A 
ATOM     53  C   UNL A   1      41.046  26.274  28.320  1.00  0.00     0.049 A 
ATOM     54  H   UNL A   1      42.078  28.077  28.444  1.00  0.00     0.167 HD
ATOM     55  C   UNL A   1      44.102  31.967  28.729  1.00  0.00     0.037 A 
ATOM     56  C   UNL A   1      41.841  25.425  27.640  1.00  0.00     0.037 A 
ATOM     57  C   UNL A   1      45.040  31.111  28.059  1.00  0.00     0.049 A 
ATOM     58  C   UNL A   1      43.188  25.898  27.155  1.00  0.00     0.074 A 
ATOM     59  C   UNL A   1      46.317  31.406  27.619  1.00  0.00     0.029 A 
ATOM     60  N   UNL A   1      44.794  29.788  27.722  1.00  0.00    -0.354 N 
ATOM     61  N   UNL A   1      43.760  27.069  27.302  1.00  0.00    -0.248 NA
ATOM     62  C   UNL A   1      44.003  24.925  26.413  1.00  0.00     0.031 C 
ATOM     63  C   UNL A   1      46.830  30.271  26.978  1.00  0.00     0.029 A 
ATOM     64  C   UNL A   1      45.889  29.257  27.062  1.00  0.00     0.049 A 
ATOM     65  H   UNL A   1      43.963  29.298  27.923  1.00  0.00     0.167 HD
ATOM     66  C   UNL A   1      45.008  26.966  26.701  1.00  0.00     0.074 A 
ATOM     67  C   UNL A   1      45.116  25.613  26.197  1.00  0.00     0.031 C 
ATOM     68  C   UNL A   1      45.979  27.905  26.577  1.00  0.00     0.037 A 
BRANCH  55  69
ATOM     69  C   UNL A   1      44.486  33.390  28.999  1.00  0.00     0.064 A 
ATOM     70  C   UNL A   1      44.213  34.409  28.075  1.00  0.00     0.173 A 
ATOM     71  C   UNL A   1      45.133  33.737  30.194  1.00  0.00     0.173 A 
ATOM     72  F   UNL A   1      43.617  34.122  26.908  1.00  0.00    -0.203 F 
ATOM     73  C   UNL A   1      44.598  35.724  28.328  1.00  0.00     0.198 A 
ATOM     74  C   UNL A   1      45.492  35.057  30.453  1.00  0.00     0.198 A 
ATOM     75  F   UNL A   1      45.419  32.797  31.106  1.00  0.00    -0.203 F 
ATOM     76  F   UNL A   1      44.373  36.675  27.410  1.00  0.00    -0.200 F 
ATOM     77  C   UNL A   1      45.231  36.046  29.518  1.00  0.00     0.200 A 
ATOM     78  F   UNL A   1      46.099  35.368  31.607  1.00  0.00    -0.200 F 
ATOM     79  F   UNL A   1      45.601  37.312  29.760  1.00  0.00    -0.200 F 
ENDBRANCH  55  69
BRANCH  56  80
ATOM     80  C   UNL A   1      41.391  24.034  27.374  1.00  0.00     0.064 A 
ATOM     81  C   UNL A   1      40.314  23.776  26.513  1.00  0.00     0.173 A 
ATOM     82  C   UNL A   1      42.005  22.938  27.999  1.00  0.00     0.173 A 
ATOM     83  F   UNL A   1      39.677  24.792  25.916  1.00  0.00    -0.203 F 
ATOM     84  C   UNL A   1      39.857  22.476  26.303  1.00  0.00     0.198 A 
ATOM     85  C   UNL A   1      41.563  21.637  27.768  1.00  0.00     0.198 A 
ATOM     86  F   UNL A   1      43.034  23.134  28.835  1.00  0.00    -0.203 F 
ATOM     87  F   UNL A   1      38.795  22.261  25.515  1.00  0.00    -0.200 F 
ATOM     88  C   UNL A   1      40.484  21.408  26.927  1.00  0.00     0.200 A 
ATOM     89  F   UNL A   1      42.174  20.608  28.369  1.00  0.00    -0.200 F 
ATOM     90  F   UNL A   1      40.041  20.159  26.728  1.00  0.00    -0.200 F 
ENDBRANCH  56  80
BRANCH  68  91
ATOM     91  C   UNL A   1      47.256  27.490  25.906  1.00  0.00     0.064 A 
ATOM     92  C   UNL A   1      48.316  26.921  26.628  1.00  0.00     0.173 A 
ATOM     93  C   UNL A   1      47.405  27.628  24.518  1.00  0.00     0.173 A 
ATOM     94  F   UNL A   1      48.227  26.779  27.959  1.00  0.00    -0.203 F 
ATOM     95  C   UNL A   1      49.489  26.532  25.987  1.00  0.00     0.198 A 
ATOM     96  C   UNL A   1      48.568  27.211  23.877  1.00  0.00     0.198 A 
ATOM     97  F   UNL A   1      46.417  28.157  23.781  1.00  0.00    -0.203 F 
ATOM     98  F   UNL A   1      50.508  26.035  26.702  1.00  0.00    -0.200 F 
ATOM     99  C   UNL A   1      49.612  26.672  24.612  1.00  0.00     0.200 A 
ATOM    100  F   UNL A   1      48.680  27.336  22.547  1.00  0.00    -0.200 F 
ATOM    101  F   UNL A   1      50.741  26.293  23.997  1.00  0.00    -0.200 F 
ENDBRANCH  68  91
ENDBRANCH  42  43
ENDBRANCH  35  37
ENDBRANCH  34  35
ENDBRANCH  33  34
ENDBRANCH  32  33
ENDBRANCH  31  32
ENDBRANCH  30  31
ENDBRANCH   1  30
TORSDOF 22
ENDMDL
MODEL 3
REMARK VINA RESULT:     -10.5      4.428      8.953
REMARK SMILES CC(C)[C@H](NC(=O)Cc1csc(-c2c(Cl)cccc2Cl)n1)C(=O)OCCOCCOCCOC(=O)c1ccc(-c2c3nc(c(-c4c(F)c(F)c(F)c(F)c4F)c4ccc([nH]4)c(-c4c(F)c(F)c(F)c(F)c4F)c4nc(c(-c5c(F)c(F)c(F)c(F)c5F)c5ccc2[nH]5)C=C4)C=C3)cc1
REMARK SMILES IDX 28 1 27 2 26 3 25 4 24 5 22 6 23 7 4 8 2 9 1 10 3 11 5 12
REMARK SMILES IDX 6 13 7 15 8 16 9 17 10 18 21 19 11 20 12 21 13 22 14 23
REMARK SMILES IDX 19 24 15 25 16 26 18 27 20 28 17 29 29 30 30 31 31 32 32 33
REMARK SMILES IDX 33 34 34 35 35 36 36 37 37 38 98 39 38 40 97 41 39 42 40 43
REMARK SMILES IDX 41 44 91 45 42 46 96 47 90 48 92 49 43 50 95 51 89 52 88 53
REMARK SMILES IDX 44 55 76 56 56 57 75 58 57 59 60 60 74 61 93 62 58 63 59 64
REMARK SMILES IDX 73 66 94 67 61 68 45 69 46 70 54 71 47 72 48 73 52 74 55 75
REMARK SMILES IDX 49 76 50 77 53 78 51 79 77 80 78 81 86 82 79 83 80 84 84 85
REMARK SMILES IDX 87 86 81 87 82 88 85 89 83 90 62 91 63 92 71 93 64 94 65 95
REMARK SMILES IDX 69 96 72 97 66 98 67 99 70 100 68 101
REMARK H PARENT 5 14 92 54 60 65
REMARK Flexibility Score: inf
ROOT
ATOM      1  C   UNL A   1      33.931  29.276  27.552  1.00  0.00     0.188 C 
ENDROOT
BRANCH   1   2
ATOM      2  O   UNL A   1      34.502  28.584  26.448  1.00  0.00    -0.376 OA
BRANCH   2   3
ATOM      3  C   UNL A   1      33.681  27.749  25.655  1.00  0.00     0.202 C 
BRANCH   3   4
ATOM      4  C   UNL A   1      32.247  27.534  26.135  1.00  0.00     0.261 C 
BRANCH   4   5
ATOM      5  O   UNL A   1      31.206  27.797  25.174  1.00  0.00    -0.462 OA
BRANCH   5   6
ATOM      6  C   UNL A   1      31.207  29.042  24.629  1.00  0.00     0.328 C 
ATOM      7  O   UNL A   1      31.280  30.074  25.291  1.00  0.00    -0.250 OA
BRANCH   6   8
ATOM      8  C   UNL A   1      31.220  29.063  23.071  1.00  0.00     0.194 C 
BRANCH   8   9
ATOM      9  C   UNL A   1      29.831  28.920  22.388  1.00  0.00     0.017 C 
ATOM     10  C   UNL A   1      28.675  28.531  23.312  1.00  0.00     0.010 C 
ATOM     11  C   UNL A   1      29.475  30.202  21.628  1.00  0.00     0.010 C 
ENDBRANCH   8   9
BRANCH   8  12
ATOM     12  N   UNL A   1      32.328  28.384  22.360  1.00  0.00    -0.342 N 
ATOM     13  C   UNL A   1      32.668  27.125  21.995  1.00  0.00     0.226 C 
ATOM     14  H   UNL A   1      33.009  29.032  22.069  1.00  0.00     0.164 HD
ATOM     15  O   UNL A   1      33.808  27.007  21.519  1.00  0.00    -0.275 OA
BRANCH  13  16
ATOM     16  C   UNL A   1      31.719  25.951  21.946  1.00  0.00     0.157 C 
BRANCH  16  17
ATOM     17  C   UNL A   1      31.825  24.968  23.057  1.00  0.00     0.061 A 
ATOM     18  C   UNL A   1      30.848  24.708  24.002  1.00  0.00     0.091 A 
ATOM     19  N   UNL A   1      32.945  24.170  23.165  1.00  0.00    -0.240 NA
ATOM     20  S   UNL A   1      31.333  23.418  25.022  1.00  0.00    -0.122 S 
ATOM     21  C   UNL A   1      32.795  23.297  24.139  1.00  0.00     0.126 A 
BRANCH  21  22
ATOM     22  C   UNL A   1      33.773  22.252  24.428  1.00  0.00     0.048 A 
ATOM     23  C   UNL A   1      33.516  20.907  24.123  1.00  0.00     0.052 A 
ATOM     24  C   UNL A   1      34.936  22.562  25.155  1.00  0.00     0.052 A 
ATOM     25  Cl  UNL A   1      32.162  20.415  23.162  1.00  0.00    -0.084 Cl
ATOM     26  C   UNL A   1      34.347  19.893  24.615  1.00  0.00     0.021 A 
ATOM     27  C   UNL A   1      35.778  21.547  25.623  1.00  0.00     0.021 A 
ATOM     28  Cl  UNL A   1      35.403  24.194  25.497  1.00  0.00    -0.084 Cl
ATOM     29  C   UNL A   1      35.468  20.211  25.379  1.00  0.00     0.003 A 
ENDBRANCH  21  22
ENDBRANCH  16  17
ENDBRANCH  13  16
ENDBRANCH   8  12
ENDBRANCH   6   8
ENDBRANCH   5   6
ENDBRANCH   4   5
ENDBRANCH   3   4
ENDBRANCH   2   3
ENDBRANCH   1   2
BRANCH   1  30
ATOM     30  C   UNL A   1      33.846  30.814  27.581  1.00  0.00     0.188 C 
BRANCH  30  31
ATOM     31  O   UNL A   1      34.795  31.455  28.416  1.00  0.00    -0.376 OA
BRANCH  31  32
ATOM     32  C   UNL A   1      34.369  32.667  29.017  1.00  0.00     0.202 C 
BRANCH  32  33
ATOM     33  C   UNL A   1      34.766  32.710  30.494  1.00  0.00     0.261 C 
BRANCH  33  34
ATOM     34  O   UNL A   1      35.152  31.426  31.011  1.00  0.00    -0.460 OA
BRANCH  34  35
ATOM     35  C   UNL A   1      36.183  31.426  31.887  1.00  0.00     0.338 C 
ATOM     36  O   UNL A   1      36.158  31.759  33.059  1.00  0.00    -0.246 OA
BRANCH  35  37
ATOM     37  C   UNL A   1      37.318  30.740  31.245  1.00  0.00     0.060 A 
ATOM     38  C   UNL A   1      38.384  30.317  32.049  1.00  0.00     0.016 A 
ATOM     39  C   UNL A   1      37.326  30.504  29.868  1.00  0.00     0.016 A 
ATOM     40  C   UNL A   1      39.487  29.694  31.469  1.00  0.00     0.010 A 
ATOM     41  C   UNL A   1      38.439  29.900  29.283  1.00  0.00     0.010 A 
ATOM     42  C   UNL A   1      39.538  29.531  30.078  1.00  0.00    -0.014 A 
BRANCH  42  43
ATOM     43  C   UNL A   1      40.832  29.218  29.431  1.00  0.00     0.031 A 
ATOM     44  C   UNL A   1      41.025  27.828  28.893  1.00  0.00     0.074 A 
ATOM     45  C   UNL A   1      41.804  30.137  29.315  1.00  0.00     0.049 A 
ATOM     46  N   UNL A   1      42.065  27.298  28.303  1.00  0.00    -0.248 NA
ATOM     47  C   UNL A   1      39.885  26.908  29.046  1.00  0.00     0.031 C 
ATOM     48  C   UNL A   1      41.725  31.521  29.775  1.00  0.00     0.029 A 
ATOM     49  N   UNL A   1      43.061  30.030  28.773  1.00  0.00    -0.354 N 
ATOM     50  C   UNL A   1      41.701  25.990  28.012  1.00  0.00     0.074 A 
ATOM     51  C   UNL A   1      40.361  25.792  28.518  1.00  0.00     0.031 C 
ATOM     52  C   UNL A   1      42.891  32.134  29.507  1.00  0.00     0.029 A 
ATOM     53  C   UNL A   1      43.802  31.180  28.875  1.00  0.00     0.049 A 
ATOM     54  H   UNL A   1      43.398  29.207  28.353  1.00  0.00     0.167 HD
ATOM     55  C   UNL A   1      42.418  25.038  27.371  1.00  0.00     0.037 A 
ATOM     56  C   UNL A   1      45.076  31.420  28.510  1.00  0.00     0.037 A 
ATOM     57  C   UNL A   1      43.757  25.225  26.887  1.00  0.00     0.049 A 
ATOM     58  C   UNL A   1      45.878  30.323  27.855  1.00  0.00     0.074 A 
ATOM     59  C   UNL A   1      44.571  24.325  26.225  1.00  0.00     0.029 A 
ATOM     60  N   UNL A   1      44.484  26.399  27.025  1.00  0.00    -0.354 N 
ATOM     61  N   UNL A   1      45.518  29.099  27.551  1.00  0.00    -0.248 NA
ATOM     62  C   UNL A   1      47.264  30.647  27.487  1.00  0.00     0.031 C 
ATOM     63  C   UNL A   1      45.808  24.941  25.998  1.00  0.00     0.029 A 
ATOM     64  C   UNL A   1      45.746  26.240  26.476  1.00  0.00     0.049 A 
ATOM     65  H   UNL A   1      44.152  27.223  27.450  1.00  0.00     0.167 HD
ATOM     66  C   UNL A   1      46.618  28.518  26.932  1.00  0.00     0.074 A 
ATOM     67  C   UNL A   1      47.655  29.528  26.892  1.00  0.00     0.031 C 
ATOM     68  C   UNL A   1      46.759  27.262  26.439  1.00  0.00     0.037 A 
BRANCH  55  69
ATOM     69  C   UNL A   1      41.764  23.702  27.186  1.00  0.00     0.064 A 
ATOM     70  C   UNL A   1      42.257  22.552  27.819  1.00  0.00     0.173 A 
ATOM     71  C   UNL A   1      40.632  23.572  26.369  1.00  0.00     0.173 A 
ATOM     72  F   UNL A   1      43.351  22.622  28.592  1.00  0.00    -0.203 F 
ATOM     73  C   UNL A   1      41.654  21.312  27.620  1.00  0.00     0.198 A 
ATOM     74  C   UNL A   1      40.017  22.336  26.193  1.00  0.00     0.198 A 
ATOM     75  F   UNL A   1      40.125  24.642  25.739  1.00  0.00    -0.203 F 
ATOM     76  F   UNL A   1      42.171  20.217  28.194  1.00  0.00    -0.200 F 
ATOM     77  C   UNL A   1      40.532  21.207  26.812  1.00  0.00     0.200 A 
ATOM     78  F   UNL A   1      38.929  22.237  25.417  1.00  0.00    -0.200 F 
ATOM     79  F   UNL A   1      39.952  20.014  26.621  1.00  0.00    -0.200 F 
ENDBRANCH  55  69
BRANCH  56  80
ATOM     80  C   UNL A   1      45.682  32.755  28.749  1.00  0.00     0.064 A 
ATOM     81  C   UNL A   1      46.292  33.062  29.973  1.00  0.00     0.173 A 
ATOM     82  C   UNL A   1      45.635  33.761  27.772  1.00  0.00     0.173 A 
ATOM     83  F   UNL A   1      46.334  32.144  30.948  1.00  0.00    -0.203 F 
ATOM     84  C   UNL A   1      46.814  34.331  30.219  1.00  0.00     0.198 A 
ATOM     85  C   UNL A   1      46.180  35.021  28.009  1.00  0.00     0.198 A 
ATOM     86  F   UNL A   1      45.057  33.518  26.587  1.00  0.00    -0.203 F 
ATOM     87  F   UNL A   1      47.347  34.614  31.415  1.00  0.00    -0.200 F 
ATOM     88  C   UNL A   1      46.761  35.307  29.235  1.00  0.00     0.200 A 
ATOM     89  F   UNL A   1      46.131  35.960  27.055  1.00  0.00    -0.200 F 
ATOM     90  F   UNL A   1      47.260  36.528  29.474  1.00  0.00    -0.200 F 
ENDBRANCH  56  80
BRANCH  68  91
ATOM     91  C   UNL A   1      48.064  26.924  25.779  1.00  0.00     0.064 A 
ATOM     92  C   UNL A   1      48.314  27.239  24.436  1.00  0.00     0.173 A 
ATOM     93  C   UNL A   1      49.091  26.311  26.512  1.00  0.00     0.173 A 
ATOM     94  F   UNL A   1      47.359  27.813  23.688  1.00  0.00    -0.203 F 
ATOM     95  C   UNL A   1      49.534  26.926  23.843  1.00  0.00     0.198 A 
ATOM     96  C   UNL A   1      50.320  26.027  25.925  1.00  0.00     0.198 A 
ATOM     97  F   UNL A   1      48.906  25.998  27.804  1.00  0.00    -0.203 F 
ATOM     98  F   UNL A   1      49.734  27.193  22.545  1.00  0.00    -0.200 F 
ATOM     99  C   UNL A   1      50.538  26.327  24.590  1.00  0.00     0.200 A 
ATOM    100  F   UNL A   1      51.294  25.459  26.651  1.00  0.00    -0.200 F 
ATOM    101  F   UNL A   1      51.714  26.031  24.019  1.00  0.00    -0.200 F 
ENDBRANCH  68  91
ENDBRANCH  42  43
ENDBRANCH  35  37
ENDBRANCH  34  35
ENDBRANCH  33  34
ENDBRANCH  32  33
ENDBRANCH  31  32
ENDBRANCH  30  31
ENDBRANCH   1  30
TORSDOF 22
ENDMDL
