MODEL 1
REMARK VINA RESULT:     -10.9      0.000      0.000
REMARK SMILES O=C(OCCOCCOCCOC(=O)c1ccc(NC(=O)[C@@H]2COCCO2)cc1O)c1ccc(-c2c3nc(c(-c4c(F)c(F)c(F)c(F)c4F)c4ccc([nH]4)c(-c4c(F)c(F)c(F)c(F)c4F)c4nc(c(-c5c(F)c(F)c(F)c(F)c5F)c5ccc2[nH]5)C=C4)C=C3)cc1
REMARK SMILES IDX 7 1 6 2 5 3 4 4 3 5 2 6 1 7 31 8 32 9 93 10 33 11 92 12
REMARK SMILES IDX 34 13 35 14 36 15 86 16 37 17 91 18 85 19 87 20 38 21 90 22
REMARK SMILES IDX 84 23 83 24 39 26 71 27 51 28 70 29 52 30 55 31 69 32 88 33
REMARK SMILES IDX 53 34 54 35 68 37 89 38 56 39 40 40 41 41 49 42 42 43 43 44
REMARK SMILES IDX 47 45 50 46 44 47 45 48 48 49 46 50 72 51 73 52 81 53 74 54
REMARK SMILES IDX 75 55 79 56 82 57 76 58 77 59 80 60 78 61 57 62 58 63 66 64
REMARK SMILES IDX 59 65 60 66 64 67 67 68 61 69 62 70 65 71 63 72 8 73 9 74
REMARK SMILES IDX 10 75 11 76 12 77 13 78 14 79 15 80 16 81 29 82 17 83 28 84
REMARK SMILES IDX 18 85 30 86 19 88 20 89 21 91 22 92 23 93 27 94 24 95 26 96
REMARK SMILES IDX 25 97
REMARK H PARENT 87 25 55 36 30 87 19 90
REMARK Flexibility Score: inf
ROOT
ATOM      1  C   UNL A   1      39.016  21.344  25.989  1.00  0.00     0.188 C 
ENDROOT
BRANCH   1   2
ATOM      2  O   UNL A   1      40.355  21.848  26.084  1.00  0.00    -0.376 OA
BRANCH   2   3
ATOM      3  C   UNL A   1      41.354  20.826  26.119  1.00  0.00     0.202 C 
BRANCH   3   4
ATOM      4  C   UNL A   1      42.756  21.302  25.720  1.00  0.00     0.261 C 
BRANCH   4   5
ATOM      5  O   UNL A   1      42.716  22.508  24.940  1.00  0.00    -0.460 OA
BRANCH   5   6
ATOM      6  C   UNL A   1      43.427  23.643  25.152  1.00  0.00     0.338 C 
ATOM      7  O   UNL A   1      44.389  23.895  24.427  1.00  0.00    -0.246 OA
BRANCH   6   8
ATOM      8  C   UNL A   1      43.075  24.643  26.203  1.00  0.00     0.060 A 
ATOM      9  C   UNL A   1      43.469  25.981  26.187  1.00  0.00     0.016 A 
ATOM     10  C   UNL A   1      42.201  24.225  27.219  1.00  0.00     0.016 A 
ATOM     11  C   UNL A   1      43.085  26.860  27.196  1.00  0.00     0.010 A 
ATOM     12  C   UNL A   1      41.733  25.129  28.181  1.00  0.00     0.010 A 
ATOM     13  C   UNL A   1      42.194  26.450  28.188  1.00  0.00    -0.014 A 
BRANCH  13  14
ATOM     14  C   UNL A   1      41.805  27.399  29.258  1.00  0.00     0.031 A 
ATOM     15  C   UNL A   1      42.621  27.456  30.515  1.00  0.00     0.074 A 
ATOM     16  C   UNL A   1      40.789  28.262  29.074  1.00  0.00     0.049 A 
ATOM     17  N   UNL A   1      42.416  28.153  31.603  1.00  0.00    -0.248 NA
ATOM     18  C   UNL A   1      43.843  26.637  30.544  1.00  0.00     0.031 C 
ATOM     19  C   UNL A   1      40.005  28.393  27.846  1.00  0.00     0.029 A 
ATOM     20  N   UNL A   1      40.258  29.214  29.910  1.00  0.00    -0.354 N 
ATOM     21  C   UNL A   1      43.475  27.851  32.444  1.00  0.00     0.074 A 
ATOM     22  C   UNL A   1      44.309  26.889  31.758  1.00  0.00     0.031 C 
ATOM     23  C   UNL A   1      39.112  29.382  28.006  1.00  0.00     0.029 A 
ATOM     24  C   UNL A   1      39.178  29.869  29.373  1.00  0.00     0.049 A 
ATOM     25  H   UNL A   1      40.616  29.408  30.806  1.00  0.00     0.167 HD
ATOM     26  C   UNL A   1      43.734  28.349  33.675  1.00  0.00     0.037 A 
ATOM     27  C   UNL A   1      38.298  30.721  29.930  1.00  0.00     0.037 A 
ATOM     28  C   UNL A   1      42.914  29.323  34.340  1.00  0.00     0.049 A 
ATOM     29  C   UNL A   1      38.510  31.129  31.357  1.00  0.00     0.074 A 
ATOM     30  C   UNL A   1      43.092  29.900  35.583  1.00  0.00     0.029 A 
ATOM     31  N   UNL A   1      41.752  29.862  33.808  1.00  0.00    -0.354 N 
ATOM     32  N   UNL A   1      39.496  30.814  32.160  1.00  0.00    -0.248 NA
ATOM     33  C   UNL A   1      37.495  32.003  31.956  1.00  0.00     0.031 C 
ATOM     34  C   UNL A   1      42.013  30.761  35.822  1.00  0.00     0.029 A 
ATOM     35  C   UNL A   1      41.183  30.743  34.713  1.00  0.00     0.049 A 
ATOM     36  H   UNL A   1      41.385  29.650  32.920  1.00  0.00     0.167 HD
ATOM     37  C   UNL A   1      39.233  31.467  33.353  1.00  0.00     0.074 A 
ATOM     38  C   UNL A   1      38.000  32.205  33.165  1.00  0.00     0.031 C 
ATOM     39  C   UNL A   1      39.954  31.460  34.501  1.00  0.00     0.037 A 
BRANCH  26  40
ATOM     40  C   UNL A   1      44.940  27.816  34.385  1.00  0.00     0.064 A 
ATOM     41  C   UNL A   1      46.195  28.432  34.272  1.00  0.00     0.173 A 
ATOM     42  C   UNL A   1      44.835  26.672  35.188  1.00  0.00     0.173 A 
ATOM     43  F   UNL A   1      46.349  29.513  33.492  1.00  0.00    -0.203 F 
ATOM     44  C   UNL A   1      47.307  27.908  34.924  1.00  0.00     0.198 A 
ATOM     45  C   UNL A   1      45.945  26.163  35.854  1.00  0.00     0.198 A 
ATOM     46  F   UNL A   1      43.657  26.044  35.319  1.00  0.00    -0.203 F 
ATOM     47  F   UNL A   1      48.507  28.485  34.768  1.00  0.00    -0.200 F 
ATOM     48  C   UNL A   1      47.181  26.777  35.718  1.00  0.00     0.200 A 
ATOM     49  F   UNL A   1      45.822  25.070  36.620  1.00  0.00    -0.200 F 
ATOM     50  F   UNL A   1      48.254  26.273  36.343  1.00  0.00    -0.200 F 
ENDBRANCH  26  40
BRANCH  27  51
ATOM     51  C   UNL A   1      37.093  31.165  29.177  1.00  0.00     0.064 A 
ATOM     52  C   UNL A   1      36.973  32.468  28.677  1.00  0.00     0.173 A 
ATOM     53  C   UNL A   1      36.016  30.288  28.970  1.00  0.00     0.173 A 
ATOM     54  F   UNL A   1      37.969  33.347  28.856  1.00  0.00    -0.203 F 
ATOM     55  C   UNL A   1      35.815  32.882  28.019  1.00  0.00     0.198 A 
ATOM     56  C   UNL A   1      34.869  30.697  28.292  1.00  0.00     0.198 A 
ATOM     57  F   UNL A   1      36.087  29.019  29.392  1.00  0.00    -0.203 F 
ATOM     58  F   UNL A   1      35.713  34.141  27.574  1.00  0.00    -0.200 F 
ATOM     59  C   UNL A   1      34.765  31.995  27.825  1.00  0.00     0.200 A 
ATOM     60  F   UNL A   1      33.881  29.820  28.072  1.00  0.00    -0.200 F 
ATOM     61  F   UNL A   1      33.659  32.390  27.180  1.00  0.00    -0.200 F 
ENDBRANCH  27  51
BRANCH  39  62
ATOM     62  C   UNL A   1      39.430  32.300  35.623  1.00  0.00     0.064 A 
ATOM     63  C   UNL A   1      39.811  33.641  35.769  1.00  0.00     0.173 A 
ATOM     64  C   UNL A   1      38.530  31.759  36.551  1.00  0.00     0.173 A 
ATOM     65  F   UNL A   1      40.691  34.189  34.918  1.00  0.00    -0.203 F 
ATOM     66  C   UNL A   1      39.319  34.408  36.819  1.00  0.00     0.198 A 
ATOM     67  C   UNL A   1      38.022  32.536  37.586  1.00  0.00     0.198 A 
ATOM     68  F   UNL A   1      38.142  30.478  36.451  1.00  0.00    -0.203 F 
ATOM     69  F   UNL A   1      39.728  35.675  36.968  1.00  0.00    -0.200 F 
ATOM     70  C   UNL A   1      38.421  33.858  37.721  1.00  0.00     0.200 A 
ATOM     71  F   UNL A   1      37.151  32.006  38.455  1.00  0.00    -0.200 F 
ATOM     72  F   UNL A   1      37.947  34.600  38.732  1.00  0.00    -0.200 F 
ENDBRANCH  39  62
ENDBRANCH  13  14
ENDBRANCH   6   8
ENDBRANCH   5   6
ENDBRANCH   4   5
ENDBRANCH   3   4
ENDBRANCH   2   3
ENDBRANCH   1   2
BRANCH   1  73
ATOM     73  C   UNL A   1      38.028  22.499  25.801  1.00  0.00     0.188 C 
BRANCH  73  74
ATOM     74  O   UNL A   1      36.657  22.109  25.680  1.00  0.00    -0.376 OA
BRANCH  74  75
ATOM     75  C   UNL A   1      36.337  21.231  24.604  1.00  0.00     0.202 C 
BRANCH  75  76
ATOM     76  C   UNL A   1      35.430  20.040  24.933  1.00  0.00     0.261 C 
BRANCH  76  77
ATOM     77  O   UNL A   1      34.116  20.095  24.356  1.00  0.00    -0.460 OA
BRANCH  77  78
ATOM     78  C   UNL A   1      33.101  20.014  25.253  1.00  0.00     0.341 C 
ATOM     79  O   UNL A   1      32.575  19.003  25.700  1.00  0.00    -0.246 OA
BRANCH  78  80
ATOM     80  C   UNL A   1      32.666  21.364  25.636  1.00  0.00     0.101 A 
ATOM     81  C   UNL A   1      31.868  22.115  24.774  1.00  0.00     0.022 A 
ATOM     82  C   UNL A   1      33.151  21.947  26.803  1.00  0.00     0.132 A 
ATOM     83  C   UNL A   1      31.493  23.422  25.119  1.00  0.00     0.027 A 
ATOM     84  C   UNL A   1      32.797  23.260  27.123  1.00  0.00     0.073 A 
ATOM     85  C   UNL A   1      31.896  23.985  26.326  1.00  0.00     0.044 A 
BRANCH  82  86
ATOM     86  O   UNL A   1      33.938  21.224  27.651  1.00  0.00    -0.507 OA
ATOM     87  H   UNL A   1      34.817  21.010  27.409  1.00  0.00     0.293 HD
ENDBRANCH  82  86
BRANCH  85  88
ATOM     88  N   UNL A   1      31.456  25.211  26.855  1.00  0.00    -0.324 N 
ATOM     89  C   UNL A   1      31.400  26.501  26.408  1.00  0.00     0.255 C 
ATOM     90  H   UNL A   1      31.104  25.118  27.770  1.00  0.00     0.170 HD
ATOM     91  O   UNL A   1      30.906  27.319  27.197  1.00  0.00    -0.272 OA
BRANCH  89  92
ATOM     92  C   UNL A   1      31.957  26.960  25.054  1.00  0.00     0.233 C 
ATOM     93  C   UNL A   1      33.468  27.239  25.178  1.00  0.00     0.202 C 
ATOM     94  O   UNL A   1      31.336  28.137  24.518  1.00  0.00    -0.364 OA
ATOM     95  O   UNL A   1      34.038  27.562  23.894  1.00  0.00    -0.376 OA
ATOM     96  C   UNL A   1      31.871  28.406  23.211  1.00  0.00     0.189 C 
ATOM     97  C   UNL A   1      33.365  28.690  23.317  1.00  0.00     0.188 C 
ENDBRANCH  89  92
ENDBRANCH  85  88
ENDBRANCH  78  80
ENDBRANCH  77  78
ENDBRANCH  76  77
ENDBRANCH  75  76
ENDBRANCH  74  75
ENDBRANCH  73  74
ENDBRANCH   1  73
TORSDOF 20
ENDMDL
MODEL 2
REMARK VINA RESULT:     -10.7      1.108      2.479
REMARK SMILES O=C(OCCOCCOCCOC(=O)c1ccc(NC(=O)[C@@H]2COCCO2)cc1O)c1ccc(-c2c3nc(c(-c4c(F)c(F)c(F)c(F)c4F)c4ccc([nH]4)c(-c4c(F)c(F)c(F)c(F)c4F)c4nc(c(-c5c(F)c(F)c(F)c(F)c5F)c5ccc2[nH]5)C=C4)C=C3)cc1
REMARK SMILES IDX 7 1 6 2 5 3 4 4 3 5 2 6 1 7 31 8 32 9 93 10 33 11 92 12
REMARK SMILES IDX 34 13 35 14 36 15 86 16 37 17 91 18 85 19 87 20 38 21 90 22
REMARK SMILES IDX 84 23 83 24 39 26 71 27 51 28 70 29 52 30 55 31 69 32 88 33
REMARK SMILES IDX 53 34 54 35 68 37 89 38 56 39 40 40 41 41 49 42 42 43 43 44
REMARK SMILES IDX 47 45 50 46 44 47 45 48 48 49 46 50 72 51 73 52 81 53 74 54
REMARK SMILES IDX 75 55 79 56 82 57 76 58 77 59 80 60 78 61 57 62 58 63 66 64
REMARK SMILES IDX 59 65 60 66 64 67 67 68 61 69 62 70 65 71 63 72 8 73 9 74
REMARK SMILES IDX 10 75 11 76 12 77 13 78 14 79 15 80 16 81 29 82 17 83 28 84
REMARK SMILES IDX 18 85 30 86 19 88 20 89 21 91 22 92 23 93 27 94 24 95 26 96
REMARK SMILES IDX 25 97
REMARK H PARENT 87 25 55 36 30 87 19 90
REMARK Flexibility Score: inf
ROOT
ATOM      1  C   UNL A   1      39.383  22.050  26.494  1.00  0.00     0.188 C 
ENDROOT
BRANCH   1   2
ATOM      2  O   UNL A   1      40.595  22.199  25.745  1.00  0.00    -0.376 OA
BRANCH   2   3
ATOM      3  C   UNL A   1      41.599  21.236  26.076  1.00  0.00     0.202 C 
BRANCH   3   4
ATOM      4  C   UNL A   1      43.022  21.645  25.672  1.00  0.00     0.261 C 
BRANCH   4   5
ATOM      5  O   UNL A   1      43.038  22.865  24.914  1.00  0.00    -0.460 OA
BRANCH   5   6
ATOM      6  C   UNL A   1      43.627  24.037  25.262  1.00  0.00     0.338 C 
ATOM      7  O   UNL A   1      44.585  24.447  24.607  1.00  0.00    -0.246 OA
BRANCH   6   8
ATOM      8  C   UNL A   1      43.142  24.892  26.386  1.00  0.00     0.060 A 
ATOM      9  C   UNL A   1      42.384  24.430  27.462  1.00  0.00     0.016 A 
ATOM     10  C   UNL A   1      43.572  26.228  26.407  1.00  0.00     0.016 A 
ATOM     11  C   UNL A   1      41.984  25.286  28.484  1.00  0.00     0.010 A 
ATOM     12  C   UNL A   1      43.255  27.068  27.481  1.00  0.00     0.010 A 
ATOM     13  C   UNL A   1      42.436  26.606  28.518  1.00  0.00    -0.014 A 
BRANCH  13  14
ATOM     14  C   UNL A   1      41.991  27.503  29.610  1.00  0.00     0.031 A 
ATOM     15  C   UNL A   1      42.764  27.529  30.895  1.00  0.00     0.074 A 
ATOM     16  C   UNL A   1      40.962  28.350  29.425  1.00  0.00     0.049 A 
ATOM     17  N   UNL A   1      42.507  28.178  32.001  1.00  0.00    -0.248 NA
ATOM     18  C   UNL A   1      44.003  26.736  30.933  1.00  0.00     0.031 C 
ATOM     19  C   UNL A   1      40.215  28.512  28.177  1.00  0.00     0.029 A 
ATOM     20  N   UNL A   1      40.381  29.257  30.279  1.00  0.00    -0.354 N 
ATOM     21  C   UNL A   1      43.545  27.867  32.865  1.00  0.00     0.074 A 
ATOM     22  C   UNL A   1      44.423  26.951  32.171  1.00  0.00     0.031 C 
ATOM     23  C   UNL A   1      39.295  29.474  28.345  1.00  0.00     0.029 A 
ATOM     24  C   UNL A   1      39.305  29.908  29.731  1.00  0.00     0.049 A 
ATOM     25  H   UNL A   1      40.706  29.424  31.193  1.00  0.00     0.167 HD
ATOM     26  C   UNL A   1      43.753  28.321  34.122  1.00  0.00     0.037 A 
ATOM     27  C   UNL A   1      38.388  30.719  30.291  1.00  0.00     0.037 A 
ATOM     28  C   UNL A   1      42.888  29.250  34.796  1.00  0.00     0.049 A 
ATOM     29  C   UNL A   1      38.543  31.075  31.738  1.00  0.00     0.074 A 
ATOM     30  C   UNL A   1      43.013  29.783  36.065  1.00  0.00     0.029 A 
ATOM     31  N   UNL A   1      41.732  29.785  34.246  1.00  0.00    -0.354 N 
ATOM     32  N   UNL A   1      39.510  30.751  32.562  1.00  0.00    -0.248 NA
ATOM     33  C   UNL A   1      37.489  31.902  32.337  1.00  0.00     0.031 C 
ATOM     34  C   UNL A   1      41.907  30.609  36.301  1.00  0.00     0.029 A 
ATOM     35  C   UNL A   1      41.113  30.617  35.165  1.00  0.00     0.049 A 
ATOM     36  H   UNL A   1      41.399  29.600  33.339  1.00  0.00     0.167 HD
ATOM     37  C   UNL A   1      39.193  31.351  33.770  1.00  0.00     0.074 A 
ATOM     38  C   UNL A   1      37.950  32.068  33.568  1.00  0.00     0.031 C 
ATOM     39  C   UNL A   1      39.876  31.315  34.940  1.00  0.00     0.037 A 
BRANCH  26  40
ATOM     40  C   UNL A   1      44.946  27.788  34.851  1.00  0.00     0.064 A 
ATOM     41  C   UNL A   1      44.871  26.637  35.648  1.00  0.00     0.173 A 
ATOM     42  C   UNL A   1      46.182  28.443  34.751  1.00  0.00     0.173 A 
ATOM     43  F   UNL A   1      43.703  25.993  35.796  1.00  0.00    -0.203 F 
ATOM     44  C   UNL A   1      45.988  26.170  36.334  1.00  0.00     0.198 A 
ATOM     45  C   UNL A   1      47.301  27.962  35.422  1.00  0.00     0.198 A 
ATOM     46  F   UNL A   1      46.300  29.554  34.008  1.00  0.00    -0.203 F 
ATOM     47  F   UNL A   1      45.886  25.093  37.125  1.00  0.00    -0.200 F 
ATOM     48  C   UNL A   1      47.204  26.830  36.217  1.00  0.00     0.200 A 
ATOM     49  F   UNL A   1      48.474  28.601  35.310  1.00  0.00    -0.200 F 
ATOM     50  F   UNL A   1      48.277  26.381  36.881  1.00  0.00    -0.200 F 
ENDBRANCH  26  40
BRANCH  27  51
ATOM     51  C   UNL A   1      37.198  31.165  29.515  1.00  0.00     0.064 A 
ATOM     52  C   UNL A   1      36.167  30.282  29.170  1.00  0.00     0.173 A 
ATOM     53  C   UNL A   1      37.087  32.495  29.077  1.00  0.00     0.173 A 
ATOM     54  F   UNL A   1      36.228  29.000  29.555  1.00  0.00    -0.203 F 
ATOM     55  C   UNL A   1      35.085  30.706  28.399  1.00  0.00     0.198 A 
ATOM     56  C   UNL A   1      35.995  32.922  28.326  1.00  0.00     0.198 A 
ATOM     57  F   UNL A   1      38.023  33.395  29.407  1.00  0.00    -0.203 F 
ATOM     58  F   UNL A   1      34.126  29.835  28.059  1.00  0.00    -0.200 F 
ATOM     59  C   UNL A   1      34.998  32.025  27.980  1.00  0.00     0.200 A 
ATOM     60  F   UNL A   1      35.899  34.208  27.965  1.00  0.00    -0.200 F 
ATOM     61  F   UNL A   1      33.951  32.434  27.251  1.00  0.00    -0.200 F 
ENDBRANCH  27  51
BRANCH  39  62
ATOM     62  C   UNL A   1      39.297  32.098  36.075  1.00  0.00     0.064 A 
ATOM     63  C   UNL A   1      38.312  31.551  36.909  1.00  0.00     0.173 A 
ATOM     64  C   UNL A   1      39.744  33.400  36.338  1.00  0.00     0.173 A 
ATOM     65  F   UNL A   1      37.838  30.319  36.676  1.00  0.00    -0.203 F 
ATOM     66  C   UNL A   1      37.781  32.292  37.959  1.00  0.00     0.198 A 
ATOM     67  C   UNL A   1      39.228  34.128  37.404  1.00  0.00     0.198 A 
ATOM     68  F   UNL A   1      40.683  33.963  35.562  1.00  0.00    -0.203 F 
ATOM     69  F   UNL A   1      36.808  31.770  38.719  1.00  0.00    -0.200 F 
ATOM     70  C   UNL A   1      38.243  33.576  38.210  1.00  0.00     0.200 A 
ATOM     71  F   UNL A   1      39.678  35.366  37.648  1.00  0.00    -0.200 F 
ATOM     72  F   UNL A   1      37.731  34.287  39.224  1.00  0.00    -0.200 F 
ENDBRANCH  39  62
ENDBRANCH  13  14
ENDBRANCH   6   8
ENDBRANCH   5   6
ENDBRANCH   4   5
ENDBRANCH   3   4
ENDBRANCH   2   3
ENDBRANCH   1   2
BRANCH   1  73
ATOM     73  C   UNL A   1      38.294  21.420  25.620  1.00  0.00     0.188 C 
BRANCH  73  74
ATOM     74  O   UNL A   1      36.965  21.879  25.883  1.00  0.00    -0.376 OA
BRANCH  74  75
ATOM     75  C   UNL A   1      35.905  21.135  25.290  1.00  0.00     0.202 C 
BRANCH  75  76
ATOM     76  C   UNL A   1      34.484  21.467  25.758  1.00  0.00     0.261 C 
BRANCH  76  77
ATOM     77  O   UNL A   1      33.559  21.804  24.712  1.00  0.00    -0.460 OA
BRANCH  77  78
ATOM     78  C   UNL A   1      32.429  22.425  25.135  1.00  0.00     0.341 C 
ATOM     79  O   UNL A   1      31.354  21.913  25.418  1.00  0.00    -0.246 OA
BRANCH  78  80
ATOM     80  C   UNL A   1      32.652  23.876  25.201  1.00  0.00     0.101 A 
ATOM     81  C   UNL A   1      33.442  24.508  24.240  1.00  0.00     0.022 A 
ATOM     82  C   UNL A   1      32.183  24.604  26.289  1.00  0.00     0.132 A 
ATOM     83  C   UNL A   1      33.694  25.885  24.330  1.00  0.00     0.027 A 
ATOM     84  C   UNL A   1      32.466  25.969  26.386  1.00  0.00     0.073 A 
ATOM     85  C   UNL A   1      33.155  26.644  25.364  1.00  0.00     0.044 A 
BRANCH  82  86
ATOM     86  O   UNL A   1      31.415  23.995  27.239  1.00  0.00    -0.507 OA
ATOM     87  H   UNL A   1      30.532  23.752  27.043  1.00  0.00     0.293 HD
ENDBRANCH  82  86
BRANCH  85  88
ATOM     88  N   UNL A   1      33.199  28.045  25.473  1.00  0.00    -0.324 N 
ATOM     89  C   UNL A   1      32.400  29.077  25.071  1.00  0.00     0.255 C 
ATOM     90  H   UNL A   1      33.998  28.357  25.955  1.00  0.00     0.170 HD
ATOM     91  O   UNL A   1      32.790  30.210  25.390  1.00  0.00    -0.272 OA
BRANCH  89  92
ATOM     92  C   UNL A   1      31.132  28.898  24.226  1.00  0.00     0.233 C 
ATOM     93  C   UNL A   1      31.516  28.513  22.783  1.00  0.00     0.202 C 
ATOM     94  O   UNL A   1      30.285  30.053  24.161  1.00  0.00    -0.364 OA
ATOM     95  O   UNL A   1      30.342  28.227  21.997  1.00  0.00    -0.376 OA
ATOM     96  C   UNL A   1      29.091  29.731  23.429  1.00  0.00     0.189 C 
ATOM     97  C   UNL A   1      29.453  29.354  21.997  1.00  0.00     0.188 C 
ENDBRANCH  89  92
ENDBRANCH  85  88
ENDBRANCH  78  80
ENDBRANCH  77  78
ENDBRANCH  76  77
ENDBRANCH  75  76
ENDBRANCH  74  75
ENDBRANCH  73  74
ENDBRANCH   1  73
TORSDOF 20
ENDMDL
MODEL 3
REMARK VINA RESULT:     -10.7      2.511      8.292
REMARK SMILES O=C(OCCOCCOCCOC(=O)c1ccc(NC(=O)[C@@H]2COCCO2)cc1O)c1ccc(-c2c3nc(c(-c4c(F)c(F)c(F)c(F)c4F)c4ccc([nH]4)c(-c4c(F)c(F)c(F)c(F)c4F)c4nc(c(-c5c(F)c(F)c(F)c(F)c5F)c5ccc2[nH]5)C=C4)C=C3)cc1
REMARK SMILES IDX 7 1 6 2 5 3 4 4 3 5 2 6 1 7 31 8 32 9 93 10 33 11 92 12
REMARK SMILES IDX 34 13 35 14 36 15 86 16 37 17 91 18 85 19 87 20 38 21 90 22
REMARK SMILES IDX 84 23 83 24 39 26 71 27 51 28 70 29 52 30 55 31 69 32 88 33
REMARK SMILES IDX 53 34 54 35 68 37 89 38 56 39 40 40 41 41 49 42 42 43 43 44
REMARK SMILES IDX 47 45 50 46 44 47 45 48 48 49 46 50 72 51 73 52 81 53 74 54
REMARK SMILES IDX 75 55 79 56 82 57 76 58 77 59 80 60 78 61 57 62 58 63 66 64
REMARK SMILES IDX 59 65 60 66 64 67 67 68 61 69 62 70 65 71 63 72 8 73 9 74
REMARK SMILES IDX 10 75 11 76 12 77 13 78 14 79 15 80 16 81 29 82 17 83 28 84
REMARK SMILES IDX 18 85 30 86 19 88 20 89 21 91 22 92 23 93 27 94 24 95 26 96
REMARK SMILES IDX 25 97
REMARK H PARENT 87 25 55 36 30 87 19 90
REMARK Flexibility Score: inf
ROOT
ATOM      1  C   UNL A   1      33.718  28.297  24.412  1.00  0.00     0.188 C 
ENDROOT
BRANCH   1   2
ATOM      2  O   UNL A   1      33.575  28.315  25.838  1.00  0.00    -0.376 OA
BRANCH   2   3
ATOM      3  C   UNL A   1      32.261  28.662  26.281  1.00  0.00     0.202 C 
BRANCH   3   4
ATOM      4  C   UNL A   1      31.899  30.139  26.082  1.00  0.00     0.261 C 
BRANCH   4   5
ATOM      5  O   UNL A   1      33.057  30.989  26.120  1.00  0.00    -0.460 OA
BRANCH   5   6
ATOM      6  C   UNL A   1      33.524  31.689  27.183  1.00  0.00     0.338 C 
ATOM      7  O   UNL A   1      32.937  32.711  27.537  1.00  0.00    -0.246 OA
BRANCH   6   8
ATOM      8  C   UNL A   1      34.706  31.258  27.989  1.00  0.00     0.060 A 
ATOM      9  C   UNL A   1      34.855  29.995  28.562  1.00  0.00     0.016 A 
ATOM     10  C   UNL A   1      35.781  32.156  28.082  1.00  0.00     0.016 A 
ATOM     11  C   UNL A   1      35.996  29.660  29.286  1.00  0.00     0.010 A 
ATOM     12  C   UNL A   1      36.970  31.789  28.724  1.00  0.00     0.010 A 
ATOM     13  C   UNL A   1      37.074  30.543  29.352  1.00  0.00    -0.014 A 
BRANCH  13  14
ATOM     14  C   UNL A   1      38.276  30.171  30.135  1.00  0.00     0.031 A 
ATOM     15  C   UNL A   1      39.280  29.235  29.532  1.00  0.00     0.074 A 
ATOM     16  C   UNL A   1      38.513  30.731  31.336  1.00  0.00     0.049 A 
ATOM     17  N   UNL A   1      40.357  28.720  30.067  1.00  0.00    -0.248 NA
ATOM     18  C   UNL A   1      39.055  28.843  28.131  1.00  0.00     0.031 C 
ATOM     19  C   UNL A   1      37.680  31.753  31.970  1.00  0.00     0.029 A 
ATOM     20  N   UNL A   1      39.542  30.542  32.227  1.00  0.00    -0.354 N 
ATOM     21  C   UNL A   1      40.930  27.941  29.075  1.00  0.00     0.074 A 
ATOM     22  C   UNL A   1      40.074  28.025  27.912  1.00  0.00     0.031 C 
ATOM     23  C   UNL A   1      38.245  32.111  33.133  1.00  0.00     0.029 A 
ATOM     24  C   UNL A   1      39.402  31.270  33.382  1.00  0.00     0.049 A 
ATOM     25  H   UNL A   1      40.304  29.944  32.054  1.00  0.00     0.167 HD
ATOM     26  C   UNL A   1      42.081  27.232  29.128  1.00  0.00     0.037 A 
ATOM     27  C   UNL A   1      40.088  31.226  34.539  1.00  0.00     0.037 A 
ATOM     28  C   UNL A   1      42.939  27.173  30.279  1.00  0.00     0.049 A 
ATOM     29  C   UNL A   1      41.264  30.301  34.633  1.00  0.00     0.074 A 
ATOM     30  C   UNL A   1      44.133  26.493  30.434  1.00  0.00     0.029 A 
ATOM     31  N   UNL A   1      42.688  27.824  31.477  1.00  0.00    -0.354 N 
ATOM     32  N   UNL A   1      41.784  29.540  33.702  1.00  0.00    -0.248 NA
ATOM     33  C   UNL A   1      41.948  30.225  35.929  1.00  0.00     0.031 C 
ATOM     34  C   UNL A   1      44.584  26.700  31.743  1.00  0.00     0.029 A 
ATOM     35  C   UNL A   1      43.688  27.536  32.391  1.00  0.00     0.049 A 
ATOM     36  H   UNL A   1      41.913  28.405  31.653  1.00  0.00     0.167 HD
ATOM     37  C   UNL A   1      42.868  28.910  34.290  1.00  0.00     0.074 A 
ATOM     38  C   UNL A   1      42.937  29.386  35.658  1.00  0.00     0.031 C 
ATOM     39  C   UNL A   1      43.731  28.020  33.745  1.00  0.00     0.037 A 
BRANCH  26  40
ATOM     40  C   UNL A   1      42.451  26.441  27.912  1.00  0.00     0.064 A 
ATOM     41  C   UNL A   1      41.942  25.154  27.685  1.00  0.00     0.173 A 
ATOM     42  C   UNL A   1      43.330  26.982  26.962  1.00  0.00     0.173 A 
ATOM     43  F   UNL A   1      41.120  24.585  28.580  1.00  0.00    -0.203 F 
ATOM     44  C   UNL A   1      42.316  24.428  26.558  1.00  0.00     0.198 A 
ATOM     45  C   UNL A   1      43.685  26.261  25.827  1.00  0.00     0.198 A 
ATOM     46  F   UNL A   1      43.849  28.205  27.141  1.00  0.00    -0.203 F 
ATOM     47  F   UNL A   1      41.853  23.183  26.381  1.00  0.00    -0.200 F 
ATOM     48  C   UNL A   1      43.183  24.983  25.627  1.00  0.00     0.200 A 
ATOM     49  F   UNL A   1      44.524  26.797  24.930  1.00  0.00    -0.200 F 
ATOM     50  F   UNL A   1      43.543  24.282  24.544  1.00  0.00    -0.200 F 
ENDBRANCH  26  40
BRANCH  27  51
ATOM     51  C   UNL A   1      39.626  32.001  35.723  1.00  0.00     0.064 A 
ATOM     52  C   UNL A   1      38.618  31.525  36.571  1.00  0.00     0.173 A 
ATOM     53  C   UNL A   1      40.174  33.262  36.010  1.00  0.00     0.173 A 
ATOM     54  F   UNL A   1      38.055  30.332  36.336  1.00  0.00    -0.203 F 
ATOM     55  C   UNL A   1      38.162  32.289  37.646  1.00  0.00     0.198 A 
ATOM     56  C   UNL A   1      39.733  34.013  37.097  1.00  0.00     0.198 A 
ATOM     57  F   UNL A   1      41.166  33.755  35.258  1.00  0.00    -0.203 F 
ATOM     58  F   UNL A   1      37.178  31.823  38.425  1.00  0.00    -0.200 F 
ATOM     59  C   UNL A   1      38.721  33.531  37.909  1.00  0.00     0.200 A 
ATOM     60  F   UNL A   1      40.311  35.190  37.369  1.00  0.00    -0.200 F 
ATOM     61  F   UNL A   1      38.292  34.256  38.950  1.00  0.00    -0.200 F 
ENDBRANCH  27  51
BRANCH  39  62
ATOM     62  C   UNL A   1      44.835  27.532  34.628  1.00  0.00     0.064 A 
ATOM     63  C   UNL A   1      46.048  28.229  34.730  1.00  0.00     0.173 A 
ATOM     64  C   UNL A   1      44.671  26.366  35.388  1.00  0.00     0.173 A 
ATOM     65  F   UNL A   1      46.255  29.334  33.999  1.00  0.00    -0.203 F 
ATOM     66  C   UNL A   1      47.067  27.762  35.553  1.00  0.00     0.198 A 
ATOM     67  C   UNL A   1      45.684  25.917  36.228  1.00  0.00     0.198 A 
ATOM     68  F   UNL A   1      43.528  25.667  35.318  1.00  0.00    -0.203 F 
ATOM     69  F   UNL A   1      48.235  28.416  35.604  1.00  0.00    -0.200 F 
ATOM     70  C   UNL A   1      46.882  26.611  36.306  1.00  0.00     0.200 A 
ATOM     71  F   UNL A   1      45.503  24.808  36.959  1.00  0.00    -0.200 F 
ATOM     72  F   UNL A   1      47.865  26.165  37.099  1.00  0.00    -0.200 F 
ENDBRANCH  39  62
ENDBRANCH  13  14
ENDBRANCH   6   8
ENDBRANCH   5   6
ENDBRANCH   4   5
ENDBRANCH   3   4
ENDBRANCH   2   3
ENDBRANCH   1   2
BRANCH   1  73
ATOM     73  C   UNL A   1      32.694  27.343  23.789  1.00  0.00     0.188 C 
BRANCH  73  74
ATOM     74  O   UNL A   1      32.032  27.843  22.624  1.00  0.00    -0.376 OA
BRANCH  74  75
ATOM     75  C   UNL A   1      30.640  27.558  22.511  1.00  0.00     0.202 C 
BRANCH  75  76
ATOM     76  C   UNL A   1      29.886  27.275  23.815  1.00  0.00     0.261 C 
BRANCH  76  77
ATOM     77  O   UNL A   1      29.640  25.887  24.090  1.00  0.00    -0.460 OA
BRANCH  77  78
ATOM     78  C   UNL A   1      30.140  25.449  25.274  1.00  0.00     0.341 C 
ATOM     79  O   UNL A   1      30.061  25.993  26.367  1.00  0.00    -0.246 OA
BRANCH  78  80
ATOM     80  C   UNL A   1      30.846  24.176  25.075  1.00  0.00     0.101 A 
ATOM     81  C   UNL A   1      31.376  23.855  23.826  1.00  0.00     0.022 A 
ATOM     82  C   UNL A   1      30.880  23.231  26.096  1.00  0.00     0.132 A 
ATOM     83  C   UNL A   1      32.009  22.619  23.624  1.00  0.00     0.027 A 
ATOM     84  C   UNL A   1      31.485  21.991  25.876  1.00  0.00     0.073 A 
ATOM     85  C   UNL A   1      32.130  21.701  24.663  1.00  0.00     0.044 A 
BRANCH  82  86
ATOM     86  O   UNL A   1      30.359  23.531  27.321  1.00  0.00    -0.507 OA
ATOM     87  H   UNL A   1      29.668  23.009  27.678  1.00  0.00     0.293 HD
ENDBRANCH  82  86
BRANCH  85  88
ATOM     88  N   UNL A   1      32.877  20.511  24.633  1.00  0.00    -0.324 N 
ATOM     89  C   UNL A   1      34.204  20.193  24.696  1.00  0.00     0.255 C 
ATOM     90  H   UNL A   1      32.306  19.714  24.544  1.00  0.00     0.170 HD
ATOM     91  O   UNL A   1      34.465  18.982  24.655  1.00  0.00    -0.272 OA
BRANCH  89  92
ATOM     92  C   UNL A   1      35.331  21.233  24.749  1.00  0.00     0.233 C 
ATOM     93  C   UNL A   1      36.690  20.523  24.910  1.00  0.00     0.202 C 
ATOM     94  O   UNL A   1      35.210  22.195  25.805  1.00  0.00    -0.364 OA
ATOM     95  O   UNL A   1      37.775  21.470  24.848  1.00  0.00    -0.376 OA
ATOM     96  C   UNL A   1      36.263  23.167  25.689  1.00  0.00     0.189 C 
ATOM     97  C   UNL A   1      37.615  22.482  25.852  1.00  0.00     0.188 C 
ENDBRANCH  89  92
ENDBRANCH  85  88
ENDBRANCH  78  80
ENDBRANCH  77  78
ENDBRANCH  76  77
ENDBRANCH  75  76
ENDBRANCH  74  75
ENDBRANCH  73  74
ENDBRANCH   1  73
TORSDOF 20
ENDMDL
