MODEL 1
REMARK VINA RESULT:      -9.8      0.000      0.000
REMARK SMILES CCOc1ccc([C@H](C)[C@](O)(C(=O)OCCOCCOCCOC(=O)c2ccc(-c3c4nc(c(-c5c(F)c(F)c(F)c(F)c5F)c5ccc([nH]5)c(-c5c(F)c(F)c(F)c(F)c5F)c5nc(c(-c6c(F)c(F)c(F)c(F)c6F)c6ccc3[nH]6)C=C5)C=C4)cc2)C(C)C)cc1
REMARK SMILES IDX 18 1 17 2 16 3 15 4 14 5 12 6 13 7 10 8 8 9 9 10 7 11 4 12
REMARK SMILES IDX 5 13 93 14 6 15 92 16 3 17 2 18 1 19 89 20 90 21 91 22 11 23
REMARK SMILES IDX 19 25 20 26 21 27 22 28 23 29 24 30 25 31 26 32 27 33 88 34
REMARK SMILES IDX 28 35 87 36 29 37 30 38 31 39 81 40 32 41 86 42 80 43 82 44
REMARK SMILES IDX 33 45 85 46 79 47 78 48 34 50 66 51 46 52 65 53 47 54 50 55
REMARK SMILES IDX 64 56 83 57 48 58 49 59 63 61 84 62 51 63 35 64 36 65 44 66
REMARK SMILES IDX 37 67 38 68 42 69 45 70 39 71 40 72 43 73 41 74 67 75 68 76
REMARK SMILES IDX 76 77 69 78 70 79 74 80 77 81 71 82 72 83 75 84 73 85 52 86
REMARK SMILES IDX 53 87 61 88 54 89 55 90 59 91 62 92 56 93 57 94 60 95 58 96
REMARK H PARENT 11 24 82 49 50 60
REMARK Flexibility Score: inf
ROOT
ATOM      1  C   UNL A   1      35.691  21.284  25.349  1.00  0.00     0.188 C 
ENDROOT
BRANCH   1   2
ATOM      2  O   UNL A   1      34.488  21.192  26.068  1.00  0.00    -0.376 OA
BRANCH   2   3
ATOM      3  C   UNL A   1      33.296  20.830  25.399  1.00  0.00     0.202 C 
BRANCH   3   4
ATOM      4  C   UNL A   1      33.021  20.989  23.889  1.00  0.00     0.261 C 
BRANCH   4   5
ATOM      5  O   UNL A   1      32.541  22.236  23.379  1.00  0.00    -0.461 OA
BRANCH   5   6
ATOM      6  C   UNL A   1      33.428  23.283  23.355  1.00  0.00     0.339 C 
ATOM      7  O   UNL A   1      34.464  23.302  22.703  1.00  0.00    -0.249 OA
BRANCH   6   8
ATOM      8  C   UNL A   1      32.974  24.392  24.347  1.00  0.00     0.170 C 
BRANCH   8   9
ATOM      9  C   UNL A   1      33.540  25.767  23.788  1.00  0.00     0.060 C 
ATOM     10  C   UNL A   1      33.220  26.100  22.318  1.00  0.00     0.016 C 
BRANCH   9  11
ATOM     11  C   UNL A   1      33.248  26.981  24.646  1.00  0.00    -0.041 A 
ATOM     12  C   UNL A   1      32.992  29.448  25.894  1.00  0.00     0.119 A 
ATOM     13  C   UNL A   1      33.839  28.491  26.443  1.00  0.00     0.047 A 
ATOM     14  C   UNL A   1      32.251  29.178  24.749  1.00  0.00     0.047 A 
ATOM     15  C   UNL A   1      33.945  27.240  25.836  1.00  0.00     0.008 A 
ATOM     16  C   UNL A   1      32.347  27.933  24.149  1.00  0.00     0.008 A 
BRANCH  12  17
ATOM     17  O   UNL A   1      32.951  30.701  26.434  1.00  0.00    -0.494 OA
BRANCH  17  18
ATOM     18  C   UNL A   1      33.781  30.786  27.598  1.00  0.00     0.226 C 
ATOM     19  C   UNL A   1      34.131  32.225  27.945  1.00  0.00     0.049 C 
ENDBRANCH  17  18
ENDBRANCH  12  17
ENDBRANCH   9  11
ENDBRANCH   8   9
BRANCH   8  20
ATOM     20  C   UNL A   1      31.413  24.279  24.596  1.00  0.00     0.027 C 
ATOM     21  C   UNL A   1      30.908  24.976  25.872  1.00  0.00     0.011 C 
ATOM     22  C   UNL A   1      30.538  24.859  23.472  1.00  0.00     0.011 C 
ENDBRANCH   8  20
BRANCH   8  23
ATOM     23  O   UNL A   1      33.574  24.226  25.650  1.00  0.00    -0.377 OA
ATOM     24  H   UNL A   1      33.177  23.460  26.094  1.00  0.00     0.212 HD
ENDBRANCH   8  23
ENDBRANCH   6   8
ENDBRANCH   5   6
ENDBRANCH   4   5
ENDBRANCH   3   4
ENDBRANCH   2   3
ENDBRANCH   1   2
BRANCH   1  25
ATOM     25  C   UNL A   1      36.570  22.490  25.735  1.00  0.00     0.188 C 
BRANCH  25  26
ATOM     26  O   UNL A   1      37.911  22.567  25.288  1.00  0.00    -0.376 OA
BRANCH  26  27
ATOM     27  C   UNL A   1      38.901  21.866  26.023  1.00  0.00     0.202 C 
BRANCH  27  28
ATOM     28  C   UNL A   1      39.399  20.480  25.563  1.00  0.00     0.261 C 
BRANCH  28  29
ATOM     29  O   UNL A   1      40.240  19.753  26.481  1.00  0.00    -0.460 OA
BRANCH  29  30
ATOM     30  C   UNL A   1      41.550  19.645  26.138  1.00  0.00     0.338 C 
ATOM     31  O   UNL A   1      42.063  18.767  25.458  1.00  0.00    -0.246 OA
BRANCH  30  32
ATOM     32  C   UNL A   1      42.279  20.876  26.528  1.00  0.00     0.060 A 
ATOM     33  C   UNL A   1      42.300  21.243  27.883  1.00  0.00     0.016 A 
ATOM     34  C   UNL A   1      42.906  21.685  25.581  1.00  0.00     0.016 A 
ATOM     35  C   UNL A   1      42.949  22.408  28.296  1.00  0.00     0.010 A 
ATOM     36  C   UNL A   1      43.521  22.878  25.991  1.00  0.00     0.010 A 
ATOM     37  C   UNL A   1      43.535  23.255  27.349  1.00  0.00    -0.014 A 
BRANCH  37  38
ATOM     38  C   UNL A   1      43.978  24.619  27.743  1.00  0.00     0.031 A 
ATOM     39  C   UNL A   1      42.929  25.633  28.107  1.00  0.00     0.074 A 
ATOM     40  C   UNL A   1      45.278  24.963  27.797  1.00  0.00     0.049 A 
ATOM     41  N   UNL A   1      43.054  26.909  28.371  1.00  0.00    -0.248 NA
ATOM     42  C   UNL A   1      41.548  25.134  28.188  1.00  0.00     0.031 C 
ATOM     43  C   UNL A   1      46.403  24.064  27.559  1.00  0.00     0.029 A 
ATOM     44  N   UNL A   1      45.866  26.179  28.059  1.00  0.00    -0.354 N 
ATOM     45  C   UNL A   1      41.770  27.366  28.638  1.00  0.00     0.074 A 
ATOM     46  C   UNL A   1      40.879  26.236  28.488  1.00  0.00     0.031 C 
ATOM     47  C   UNL A   1      47.548  24.766  27.661  1.00  0.00     0.029 A 
ATOM     48  C   UNL A   1      47.233  26.171  27.926  1.00  0.00     0.049 A 
ATOM     49  H   UNL A   1      45.355  26.980  28.317  1.00  0.00     0.167 HD
ATOM     50  C   UNL A   1      41.369  28.615  28.977  1.00  0.00     0.037 A 
ATOM     51  C   UNL A   1      48.121  27.185  27.976  1.00  0.00     0.037 A 
ATOM     52  C   UNL A   1      42.249  29.744  29.115  1.00  0.00     0.049 A 
ATOM     53  C   UNL A   1      47.635  28.594  28.231  1.00  0.00     0.074 A 
ATOM     54  C   UNL A   1      41.930  31.050  29.446  1.00  0.00     0.029 A 
ATOM     55  N   UNL A   1      43.621  29.706  28.915  1.00  0.00    -0.354 N 
ATOM     56  N   UNL A   1      46.422  29.024  28.477  1.00  0.00    -0.248 NA
ATOM     57  C   UNL A   1      48.648  29.662  28.208  1.00  0.00     0.031 C 
ATOM     58  C   UNL A   1      43.099  31.815  29.383  1.00  0.00     0.029 A 
ATOM     59  C   UNL A   1      44.158  30.973  29.083  1.00  0.00     0.049 A 
ATOM     60  H   UNL A   1      44.137  28.899  28.688  1.00  0.00     0.167 HD
ATOM     61  C   UNL A   1      46.530  30.396  28.673  1.00  0.00     0.074 A 
ATOM     62  C   UNL A   1      47.930  30.730  28.528  1.00  0.00     0.031 C 
ATOM     63  C   UNL A   1      45.556  31.298  28.952  1.00  0.00     0.037 A 
BRANCH  50  64
ATOM     64  C   UNL A   1      39.896  28.835  29.175  1.00  0.00     0.064 A 
ATOM     65  C   UNL A   1      39.285  28.679  30.428  1.00  0.00     0.173 A 
ATOM     66  C   UNL A   1      39.090  29.229  28.096  1.00  0.00     0.173 A 
ATOM     67  F   UNL A   1      40.008  28.289  31.489  1.00  0.00    -0.203 F 
ATOM     68  C   UNL A   1      37.916  28.881  30.587  1.00  0.00     0.198 A 
ATOM     69  C   UNL A   1      37.729  29.462  28.265  1.00  0.00     0.198 A 
ATOM     70  F   UNL A   1      39.626  29.396  26.878  1.00  0.00    -0.203 F 
ATOM     71  F   UNL A   1      37.344  28.674  31.781  1.00  0.00    -0.200 F 
ATOM     72  C   UNL A   1      37.141  29.279  29.507  1.00  0.00     0.200 A 
ATOM     73  F   UNL A   1      36.986  29.863  27.225  1.00  0.00    -0.200 F 
ATOM     74  F   UNL A   1      35.826  29.479  29.663  1.00  0.00    -0.200 F 
ENDBRANCH  50  64
BRANCH  51  75
ATOM     75  C   UNL A   1      49.569  26.929  27.737  1.00  0.00     0.064 A 
ATOM     76  C   UNL A   1      50.091  26.863  26.438  1.00  0.00     0.173 A 
ATOM     77  C   UNL A   1      50.451  26.689  28.803  1.00  0.00     0.173 A 
ATOM     78  F   UNL A   1      49.283  27.046  25.382  1.00  0.00    -0.203 F 
ATOM     79  C   UNL A   1      51.430  26.546  26.212  1.00  0.00     0.198 A 
ATOM     80  C   UNL A   1      51.797  26.407  28.577  1.00  0.00     0.198 A 
ATOM     81  F   UNL A   1      50.004  26.724  30.067  1.00  0.00    -0.203 F 
ATOM     82  F   UNL A   1      51.886  26.428  24.957  1.00  0.00    -0.200 F 
ATOM     83  C   UNL A   1      52.283  26.324  27.282  1.00  0.00     0.200 A 
ATOM     84  F   UNL A   1      52.619  26.199  29.615  1.00  0.00    -0.200 F 
ATOM     85  F   UNL A   1      53.569  26.017  27.065  1.00  0.00    -0.200 F 
ENDBRANCH  51  75
BRANCH  63  86
ATOM     86  C   UNL A   1      45.963  32.730  29.169  1.00  0.00     0.064 A 
ATOM     87  C   UNL A   1      46.028  33.652  28.115  1.00  0.00     0.173 A 
ATOM     88  C   UNL A   1      46.231  33.200  30.465  1.00  0.00     0.173 A 
ATOM     89  F   UNL A   1      45.793  33.255  26.855  1.00  0.00    -0.203 F 
ATOM     90  C   UNL A   1      46.368  34.983  28.345  1.00  0.00     0.198 A 
ATOM     91  C   UNL A   1      46.537  34.539  30.697  1.00  0.00     0.198 A 
ATOM     92  F   UNL A   1      46.175  32.365  31.514  1.00  0.00    -0.203 F 
ATOM     93  F   UNL A   1      46.467  35.836  27.316  1.00  0.00    -0.200 F 
ATOM     94  C   UNL A   1      46.612  35.427  29.637  1.00  0.00     0.200 A 
ATOM     95  F   UNL A   1      46.754  34.968  31.948  1.00  0.00    -0.200 F 
ATOM     96  F   UNL A   1      46.923  36.712  29.858  1.00  0.00    -0.200 F 
ENDBRANCH  63  86
ENDBRANCH  37  38
ENDBRANCH  30  32
ENDBRANCH  29  30
ENDBRANCH  28  29
ENDBRANCH  27  28
ENDBRANCH  26  27
ENDBRANCH  25  26
ENDBRANCH   1  25
TORSDOF 23
ENDMDL
MODEL 2
REMARK VINA RESULT:      -9.7      1.787      2.760
REMARK SMILES CCOc1ccc([C@H](C)[C@](O)(C(=O)OCCOCCOCCOC(=O)c2ccc(-c3c4nc(c(-c5c(F)c(F)c(F)c(F)c5F)c5ccc([nH]5)c(-c5c(F)c(F)c(F)c(F)c5F)c5nc(c(-c6c(F)c(F)c(F)c(F)c6F)c6ccc3[nH]6)C=C5)C=C4)cc2)C(C)C)cc1
REMARK SMILES IDX 18 1 17 2 16 3 15 4 14 5 12 6 13 7 10 8 8 9 9 10 7 11 4 12
REMARK SMILES IDX 5 13 93 14 6 15 92 16 3 17 2 18 1 19 89 20 90 21 91 22 11 23
REMARK SMILES IDX 19 25 20 26 21 27 22 28 23 29 24 30 25 31 26 32 27 33 88 34
REMARK SMILES IDX 28 35 87 36 29 37 30 38 31 39 81 40 32 41 86 42 80 43 82 44
REMARK SMILES IDX 33 45 85 46 79 47 78 48 34 50 66 51 46 52 65 53 47 54 50 55
REMARK SMILES IDX 64 56 83 57 48 58 49 59 63 61 84 62 51 63 35 64 36 65 44 66
REMARK SMILES IDX 37 67 38 68 42 69 45 70 39 71 40 72 43 73 41 74 67 75 68 76
REMARK SMILES IDX 76 77 69 78 70 79 74 80 77 81 71 82 72 83 75 84 73 85 52 86
REMARK SMILES IDX 53 87 61 88 54 89 55 90 59 91 62 92 56 93 57 94 60 95 58 96
REMARK H PARENT 11 24 82 49 50 60
REMARK Flexibility Score: inf
ROOT
ATOM      1  C   UNL A   1      34.796  21.026  25.214  1.00  0.00     0.188 C 
ENDROOT
BRANCH   1   2
ATOM      2  O   UNL A   1      34.029  21.810  26.092  1.00  0.00    -0.376 OA
BRANCH   2   3
ATOM      3  C   UNL A   1      32.734  22.228  25.711  1.00  0.00     0.202 C 
BRANCH   3   4
ATOM      4  C   UNL A   1      31.755  23.049  26.575  1.00  0.00     0.261 C 
BRANCH   4   5
ATOM      5  O   UNL A   1      31.986  24.445  26.783  1.00  0.00    -0.461 OA
BRANCH   5   6
ATOM      6  C   UNL A   1      31.080  25.316  26.230  1.00  0.00     0.339 C 
ATOM      7  O   UNL A   1      29.876  25.302  26.452  1.00  0.00    -0.249 OA
BRANCH   6   8
ATOM      8  C   UNL A   1      31.791  26.253  25.212  1.00  0.00     0.170 C 
BRANCH   8   9
ATOM      9  C   UNL A   1      31.158  25.948  23.787  1.00  0.00     0.060 C 
ATOM     10  C   UNL A   1      30.517  24.559  23.600  1.00  0.00     0.016 C 
BRANCH   9  11
ATOM     11  C   UNL A   1      30.210  27.006  23.263  1.00  0.00    -0.041 A 
ATOM     12  C   UNL A   1      28.650  29.225  22.669  1.00  0.00     0.119 A 
ATOM     13  C   UNL A   1      28.067  28.130  23.300  1.00  0.00     0.047 A 
ATOM     14  C   UNL A   1      29.992  29.213  22.306  1.00  0.00     0.047 A 
ATOM     15  C   UNL A   1      28.842  27.003  23.570  1.00  0.00     0.008 A 
ATOM     16  C   UNL A   1      30.761  28.091  22.565  1.00  0.00     0.008 A 
BRANCH  12  17
ATOM     17  O   UNL A   1      27.918  30.363  22.481  1.00  0.00    -0.494 OA
BRANCH  17  18
ATOM     18  C   UNL A   1      28.727  31.407  21.928  1.00  0.00     0.226 C 
ATOM     19  C   UNL A   1      28.668  32.677  22.764  1.00  0.00     0.049 C 
ENDBRANCH  17  18
ENDBRANCH  12  17
ENDBRANCH   9  11
ENDBRANCH   8   9
BRANCH   8  20
ATOM     20  C   UNL A   1      31.745  27.747  25.739  1.00  0.00     0.027 C 
ATOM     21  C   UNL A   1      31.539  27.892  27.257  1.00  0.00     0.011 C 
ATOM     22  C   UNL A   1      33.007  28.574  25.442  1.00  0.00     0.011 C 
ENDBRANCH   8  20
BRANCH   8  23
ATOM     23  O   UNL A   1      33.196  25.944  25.087  1.00  0.00    -0.377 OA
ATOM     24  H   UNL A   1      33.722  26.684  25.429  1.00  0.00     0.212 HD
ENDBRANCH   8  23
ENDBRANCH   6   8
ENDBRANCH   5   6
ENDBRANCH   4   5
ENDBRANCH   3   4
ENDBRANCH   2   3
ENDBRANCH   1   2
BRANCH   1  25
ATOM     25  C   UNL A   1      36.210  21.576  24.943  1.00  0.00     0.188 C 
BRANCH  25  26
ATOM     26  O   UNL A   1      37.267  20.693  24.615  1.00  0.00    -0.376 OA
BRANCH  26  27
ATOM     27  C   UNL A   1      38.415  20.688  25.449  1.00  0.00     0.202 C 
BRANCH  27  28
ATOM     28  C   UNL A   1      39.370  19.477  25.479  1.00  0.00     0.261 C 
BRANCH  28  29
ATOM     29  O   UNL A   1      40.375  19.465  26.513  1.00  0.00    -0.460 OA
BRANCH  29  30
ATOM     30  C   UNL A   1      41.630  19.815  26.132  1.00  0.00     0.338 C 
ATOM     31  O   UNL A   1      42.381  19.187  25.398  1.00  0.00    -0.246 OA
BRANCH  30  32
ATOM     32  C   UNL A   1      41.923  21.204  26.565  1.00  0.00     0.060 A 
ATOM     33  C   UNL A   1      41.876  22.229  25.607  1.00  0.00     0.016 A 
ATOM     34  C   UNL A   1      42.274  21.500  27.881  1.00  0.00     0.016 A 
ATOM     35  C   UNL A   1      42.171  23.548  25.960  1.00  0.00     0.010 A 
ATOM     36  C   UNL A   1      42.613  22.818  28.226  1.00  0.00     0.010 A 
ATOM     37  C   UNL A   1      42.577  23.849  27.264  1.00  0.00    -0.014 A 
BRANCH  37  38
ATOM     38  C   UNL A   1      43.156  25.183  27.575  1.00  0.00     0.031 A 
ATOM     39  C   UNL A   1      42.265  26.219  28.204  1.00  0.00     0.074 A 
ATOM     40  C   UNL A   1      44.444  25.481  27.327  1.00  0.00     0.049 A 
ATOM     41  N   UNL A   1      42.499  27.480  28.461  1.00  0.00    -0.248 NA
ATOM     42  C   UNL A   1      40.923  25.763  28.598  1.00  0.00     0.031 C 
ATOM     43  C   UNL A   1      45.444  24.555  26.806  1.00  0.00     0.029 A 
ATOM     44  N   UNL A   1      45.125  26.668  27.471  1.00  0.00    -0.354 N 
ATOM     45  C   UNL A   1      41.335  27.970  29.038  1.00  0.00     0.074 A 
ATOM     46  C   UNL A   1      40.389  26.876  29.076  1.00  0.00     0.031 C 
ATOM     47  C   UNL A   1      46.607  25.214  26.650  1.00  0.00     0.029 A 
ATOM     48  C   UNL A   1      46.421  26.619  27.017  1.00  0.00     0.049 A 
ATOM     49  H   UNL A   1      44.723  27.476  27.863  1.00  0.00     0.167 HD
ATOM     50  C   UNL A   1      41.076  29.219  29.493  1.00  0.00     0.037 A 
ATOM     51  C   UNL A   1      47.336  27.601  26.879  1.00  0.00     0.037 A 
ATOM     52  C   UNL A   1      42.009  30.314  29.446  1.00  0.00     0.049 A 
ATOM     53  C   UNL A   1      46.981  29.016  27.277  1.00  0.00     0.074 A 
ATOM     54  C   UNL A   1      41.830  31.617  29.875  1.00  0.00     0.029 A 
ATOM     55  N   UNL A   1      43.291  30.237  28.924  1.00  0.00    -0.354 N 
ATOM     56  N   UNL A   1      45.879  29.477  27.816  1.00  0.00    -0.248 NA
ATOM     57  C   UNL A   1      48.002  30.050  27.040  1.00  0.00     0.031 C 
ATOM     58  C   UNL A   1      42.980  32.345  29.555  1.00  0.00     0.029 A 
ATOM     59  C   UNL A   1      43.903  31.479  28.991  1.00  0.00     0.049 A 
ATOM     60  H   UNL A   1      43.706  29.421  28.560  1.00  0.00     0.167 HD
ATOM     61  C   UNL A   1      46.085  30.838  28.014  1.00  0.00     0.074 A 
ATOM     62  C   UNL A   1      47.423  31.130  27.548  1.00  0.00     0.031 C 
ATOM     63  C   UNL A   1      45.242  31.761  28.539  1.00  0.00     0.037 A 
BRANCH  50  64
ATOM     64  C   UNL A   1      39.702  29.481  30.042  1.00  0.00     0.064 A 
ATOM     65  C   UNL A   1      38.637  29.875  29.218  1.00  0.00     0.173 A 
ATOM     66  C   UNL A   1      39.446  29.314  31.412  1.00  0.00     0.173 A 
ATOM     67  F   UNL A   1      38.833  30.062  27.904  1.00  0.00    -0.203 F 
ATOM     68  C   UNL A   1      37.374  30.119  29.750  1.00  0.00     0.198 A 
ATOM     69  C   UNL A   1      38.174  29.528  31.934  1.00  0.00     0.198 A 
ATOM     70  F   UNL A   1      40.428  28.936  32.243  1.00  0.00    -0.203 F 
ATOM     71  F   UNL A   1      36.384  30.546  28.953  1.00  0.00    -0.200 F 
ATOM     72  C   UNL A   1      37.142  29.938  31.106  1.00  0.00     0.200 A 
ATOM     73  F   UNL A   1      37.949  29.337  33.241  1.00  0.00    -0.200 F 
ATOM     74  F   UNL A   1      35.924  30.169  31.615  1.00  0.00    -0.200 F 
ENDBRANCH  50  64
BRANCH  51  75
ATOM     75  C   UNL A   1      48.675  27.305  26.296  1.00  0.00     0.064 A 
ATOM     76  C   UNL A   1      48.889  27.342  24.911  1.00  0.00     0.173 A 
ATOM     77  C   UNL A   1      49.753  26.924  27.109  1.00  0.00     0.173 A 
ATOM     78  F   UNL A   1      47.880  27.663  24.087  1.00  0.00    -0.203 F 
ATOM     79  C   UNL A   1      50.120  26.990  24.360  1.00  0.00     0.198 A 
ATOM     80  C   UNL A   1      50.994  26.605  26.560  1.00  0.00     0.198 A 
ATOM     81  F   UNL A   1      49.602  26.856  28.440  1.00  0.00    -0.203 F 
ATOM     82  F   UNL A   1      50.277  26.974  23.029  1.00  0.00    -0.200 F 
ATOM     83  C   UNL A   1      51.174  26.628  25.186  1.00  0.00     0.200 A 
ATOM     84  F   UNL A   1      52.012  26.261  27.362  1.00  0.00    -0.200 F 
ATOM     85  F   UNL A   1      52.356  26.286  24.657  1.00  0.00    -0.200 F 
ENDBRANCH  51  75
BRANCH  63  86
ATOM     86  C   UNL A   1      45.746  33.171  28.688  1.00  0.00     0.064 A 
ATOM     87  C   UNL A   1      45.584  34.129  27.677  1.00  0.00     0.173 A 
ATOM     88  C   UNL A   1      46.346  33.584  29.890  1.00  0.00     0.173 A 
ATOM     89  F   UNL A   1      45.029  33.787  26.505  1.00  0.00    -0.203 F 
ATOM     90  C   UNL A   1      46.022  35.440  27.854  1.00  0.00     0.198 A 
ATOM     91  C   UNL A   1      46.751  34.903  30.075  1.00  0.00     0.198 A 
ATOM     92  F   UNL A   1      46.518  32.713  30.895  1.00  0.00    -0.203 F 
ATOM     93  F   UNL A   1      45.897  36.327  26.856  1.00  0.00    -0.200 F 
ATOM     94  C   UNL A   1      46.597  35.828  29.055  1.00  0.00     0.200 A 
ATOM     95  F   UNL A   1      47.288  35.279  31.244  1.00  0.00    -0.200 F 
ATOM     96  F   UNL A   1      47.003  37.093  29.229  1.00  0.00    -0.200 F 
ENDBRANCH  63  86
ENDBRANCH  37  38
ENDBRANCH  30  32
ENDBRANCH  29  30
ENDBRANCH  28  29
ENDBRANCH  27  28
ENDBRANCH  26  27
ENDBRANCH  25  26
ENDBRANCH   1  25
TORSDOF 23
ENDMDL
MODEL 3
REMARK VINA RESULT:      -9.6      3.071      8.517
REMARK SMILES CCOc1ccc([C@H](C)[C@](O)(C(=O)OCCOCCOCCOC(=O)c2ccc(-c3c4nc(c(-c5c(F)c(F)c(F)c(F)c5F)c5ccc([nH]5)c(-c5c(F)c(F)c(F)c(F)c5F)c5nc(c(-c6c(F)c(F)c(F)c(F)c6F)c6ccc3[nH]6)C=C5)C=C4)cc2)C(C)C)cc1
REMARK SMILES IDX 18 1 17 2 16 3 15 4 14 5 12 6 13 7 10 8 8 9 9 10 7 11 4 12
REMARK SMILES IDX 5 13 93 14 6 15 92 16 3 17 2 18 1 19 89 20 90 21 91 22 11 23
REMARK SMILES IDX 19 25 20 26 21 27 22 28 23 29 24 30 25 31 26 32 27 33 88 34
REMARK SMILES IDX 28 35 87 36 29 37 30 38 31 39 81 40 32 41 86 42 80 43 82 44
REMARK SMILES IDX 33 45 85 46 79 47 78 48 34 50 66 51 46 52 65 53 47 54 50 55
REMARK SMILES IDX 64 56 83 57 48 58 49 59 63 61 84 62 51 63 35 64 36 65 44 66
REMARK SMILES IDX 37 67 38 68 42 69 45 70 39 71 40 72 43 73 41 74 67 75 68 76
REMARK SMILES IDX 76 77 69 78 70 79 74 80 77 81 71 82 72 83 75 84 73 85 52 86
REMARK SMILES IDX 53 87 61 88 54 89 55 90 59 91 62 92 56 93 57 94 60 95 58 96
REMARK H PARENT 11 24 82 49 50 60
REMARK Flexibility Score: inf
ROOT
ATOM      1  C   UNL A   1      34.065  22.111  27.278  1.00  0.00     0.188 C 
ENDROOT
BRANCH   1   2
ATOM      2  O   UNL A   1      33.068  23.101  27.229  1.00  0.00    -0.376 OA
BRANCH   2   3
ATOM      3  C   UNL A   1      31.728  22.734  26.972  1.00  0.00     0.202 C 
BRANCH   3   4
ATOM      4  C   UNL A   1      30.827  23.312  25.861  1.00  0.00     0.261 C 
BRANCH   4   5
ATOM      5  O   UNL A   1      31.251  24.464  25.127  1.00  0.00    -0.461 OA
BRANCH   5   6
ATOM      6  C   UNL A   1      31.046  24.449  23.770  1.00  0.00     0.339 C 
ATOM      7  O   UNL A   1      30.669  23.473  23.135  1.00  0.00    -0.249 OA
BRANCH   6   8
ATOM      8  C   UNL A   1      31.456  25.816  23.151  1.00  0.00     0.170 C 
BRANCH   8   9
ATOM      9  C   UNL A   1      30.363  26.874  23.610  1.00  0.00     0.060 C 
ATOM     10  C   UNL A   1      28.951  26.328  23.898  1.00  0.00     0.016 C 
BRANCH   9  11
ATOM     11  C   UNL A   1      30.784  27.785  24.745  1.00  0.00    -0.041 A 
ATOM     12  C   UNL A   1      32.011  29.398  26.642  1.00  0.00     0.119 A 
ATOM     13  C   UNL A   1      31.610  28.114  26.995  1.00  0.00     0.047 A 
ATOM     14  C   UNL A   1      31.781  29.895  25.364  1.00  0.00     0.047 A 
ATOM     15  C   UNL A   1      30.965  27.314  26.053  1.00  0.00     0.008 A 
ATOM     16  C   UNL A   1      31.132  29.107  24.429  1.00  0.00     0.008 A 
BRANCH  12  17
ATOM     17  O   UNL A   1      32.720  30.152  27.533  1.00  0.00    -0.494 OA
BRANCH  17  18
ATOM     18  C   UNL A   1      34.071  30.329  27.096  1.00  0.00     0.226 C 
ATOM     19  C   UNL A   1      34.817  29.006  27.000  1.00  0.00     0.049 C 
ENDBRANCH  17  18
ENDBRANCH  12  17
ENDBRANCH   9  11
ENDBRANCH   8   9
BRANCH   8  20
ATOM     20  C   UNL A   1      32.973  26.123  23.491  1.00  0.00     0.027 C 
ATOM     21  C   UNL A   1      33.892  24.889  23.521  1.00  0.00     0.011 C 
ATOM     22  C   UNL A   1      33.667  27.094  22.521  1.00  0.00     0.011 C 
ENDBRANCH   8  20
BRANCH   8  23
ATOM     23  O   UNL A   1      31.393  25.794  21.708  1.00  0.00    -0.377 OA
ATOM     24  H   UNL A   1      31.997  25.115  21.369  1.00  0.00     0.212 HD
ENDBRANCH   8  23
ENDBRANCH   6   8
ENDBRANCH   5   6
ENDBRANCH   4   5
ENDBRANCH   3   4
ENDBRANCH   2   3
ENDBRANCH   1   2
BRANCH   1  25
ATOM     25  C   UNL A   1      35.154  22.252  26.198  1.00  0.00     0.188 C 
BRANCH  25  26
ATOM     26  O   UNL A   1      35.712  21.101  25.593  1.00  0.00    -0.376 OA
BRANCH  26  27
ATOM     27  C   UNL A   1      36.848  21.269  24.759  1.00  0.00     0.202 C 
BRANCH  27  28
ATOM     28  C   UNL A   1      38.255  21.460  25.362  1.00  0.00     0.261 C 
BRANCH  28  29
ATOM     29  O   UNL A   1      38.476  22.660  26.131  1.00  0.00    -0.460 OA
BRANCH  29  30
ATOM     30  C   UNL A   1      39.768  22.951  26.429  1.00  0.00     0.338 C 
ATOM     31  O   UNL A   1      40.759  22.299  26.129  1.00  0.00    -0.246 OA
BRANCH  30  32
ATOM     32  C   UNL A   1      39.860  24.314  27.009  1.00  0.00     0.060 A 
ATOM     33  C   UNL A   1      40.524  25.311  26.277  1.00  0.00     0.016 A 
ATOM     34  C   UNL A   1      39.338  24.608  28.268  1.00  0.00     0.016 A 
ATOM     35  C   UNL A   1      40.660  26.602  26.794  1.00  0.00     0.010 A 
ATOM     36  C   UNL A   1      39.513  25.893  28.805  1.00  0.00     0.010 A 
ATOM     37  C   UNL A   1      40.188  26.895  28.078  1.00  0.00    -0.014 A 
BRANCH  37  38
ATOM     38  C   UNL A   1      40.572  28.170  28.740  1.00  0.00     0.031 A 
ATOM     39  C   UNL A   1      41.991  28.330  29.212  1.00  0.00     0.074 A 
ATOM     40  C   UNL A   1      39.699  29.180  28.912  1.00  0.00     0.049 A 
ATOM     41  N   UNL A   1      42.536  29.292  29.913  1.00  0.00    -0.248 NA
ATOM     42  C   UNL A   1      42.922  27.255  28.837  1.00  0.00     0.031 C 
ATOM     43  C   UNL A   1      38.322  29.202  28.428  1.00  0.00     0.029 A 
ATOM     44  N   UNL A   1      39.849  30.383  29.562  1.00  0.00    -0.354 N 
ATOM     45  C   UNL A   1      43.868  28.934  30.071  1.00  0.00     0.074 A 
ATOM     46  C   UNL A   1      44.046  27.659  29.409  1.00  0.00     0.031 C 
ATOM     47  C   UNL A   1      37.744  30.352  28.819  1.00  0.00     0.029 A 
ATOM     48  C   UNL A   1      38.695  31.126  29.619  1.00  0.00     0.049 A 
ATOM     49  H   UNL A   1      40.702  30.684  29.949  1.00  0.00     0.167 HD
ATOM     50  C   UNL A   1      44.856  29.605  30.711  1.00  0.00     0.037 A 
ATOM     51  C   UNL A   1      38.428  32.276  30.272  1.00  0.00     0.037 A 
ATOM     52  C   UNL A   1      44.682  30.866  31.382  1.00  0.00     0.049 A 
ATOM     53  C   UNL A   1      39.514  32.943  31.086  1.00  0.00     0.074 A 
ATOM     54  C   UNL A   1      45.624  31.615  32.065  1.00  0.00     0.029 A 
ATOM     55  N   UNL A   1      43.483  31.557  31.467  1.00  0.00    -0.354 N 
ATOM     56  N   UNL A   1      40.770  32.600  31.238  1.00  0.00    -0.248 NA
ATOM     57  C   UNL A   1      39.139  34.160  31.826  1.00  0.00     0.031 C 
ATOM     58  C   UNL A   1      44.980  32.727  32.618  1.00  0.00     0.029 A 
ATOM     59  C   UNL A   1      43.654  32.708  32.220  1.00  0.00     0.049 A 
ATOM     60  H   UNL A   1      42.636  31.273  31.053  1.00  0.00     0.167 HD
ATOM     61  C   UNL A   1      41.340  33.571  32.055  1.00  0.00     0.074 A 
ATOM     62  C   UNL A   1      40.296  34.525  32.360  1.00  0.00     0.031 C 
ATOM     63  C   UNL A   1      42.614  33.664  32.509  1.00  0.00     0.037 A 
BRANCH  50  64
ATOM     64  C   UNL A   1      46.211  28.958  30.757  1.00  0.00     0.064 A 
ATOM     65  C   UNL A   1      47.187  29.210  29.781  1.00  0.00     0.173 A 
ATOM     66  C   UNL A   1      46.543  28.089  31.808  1.00  0.00     0.173 A 
ATOM     67  F   UNL A   1      46.915  30.022  28.748  1.00  0.00    -0.203 F 
ATOM     68  C   UNL A   1      48.434  28.593  29.840  1.00  0.00     0.198 A 
ATOM     69  C   UNL A   1      47.801  27.500  31.881  1.00  0.00     0.198 A 
ATOM     70  F   UNL A   1      45.647  27.817  32.769  1.00  0.00    -0.203 F 
ATOM     71  F   UNL A   1      49.332  28.807  28.868  1.00  0.00    -0.200 F 
ATOM     72  C   UNL A   1      48.742  27.745  30.893  1.00  0.00     0.200 A 
ATOM     73  F   UNL A   1      48.102  26.694  32.908  1.00  0.00    -0.200 F 
ATOM     74  F   UNL A   1      49.944  27.157  30.952  1.00  0.00    -0.200 F 
ENDBRANCH  50  64
BRANCH  51  75
ATOM     75  C   UNL A   1      37.061  32.865  30.231  1.00  0.00     0.064 A 
ATOM     76  C   UNL A   1      36.129  32.613  31.248  1.00  0.00     0.173 A 
ATOM     77  C   UNL A   1      36.638  33.647  29.144  1.00  0.00     0.173 A 
ATOM     78  F   UNL A   1      36.470  31.839  32.290  1.00  0.00    -0.203 F 
ATOM     79  C   UNL A   1      34.825  33.099  31.171  1.00  0.00     0.198 A 
ATOM     80  C   UNL A   1      35.344  34.162  29.085  1.00  0.00     0.198 A 
ATOM     81  F   UNL A   1      37.481  33.908  28.135  1.00  0.00    -0.203 F 
ATOM     82  F   UNL A   1      33.939  32.789  32.127  1.00  0.00    -0.200 F 
ATOM     83  C   UNL A   1      34.435  33.878  30.093  1.00  0.00     0.200 A 
ATOM     84  F   UNL A   1      34.974  34.920  28.043  1.00  0.00    -0.200 F 
ATOM     85  F   UNL A   1      33.181  34.344  30.016  1.00  0.00    -0.200 F 
ENDBRANCH  51  75
BRANCH  63  86
ATOM     86  C   UNL A   1      42.979  34.860  33.345  1.00  0.00     0.064 A 
ATOM     87  C   UNL A   1      42.898  34.840  34.745  1.00  0.00     0.173 A 
ATOM     88  C   UNL A   1      43.477  36.024  32.736  1.00  0.00     0.173 A 
ATOM     89  F   UNL A   1      42.419  33.759  35.378  1.00  0.00    -0.203 F 
ATOM     90  C   UNL A   1      43.280  35.946  35.502  1.00  0.00     0.198 A 
ATOM     91  C   UNL A   1      43.890  37.114  33.497  1.00  0.00     0.198 A 
ATOM     92  F   UNL A   1      43.585  36.096  31.401  1.00  0.00    -0.203 F 
ATOM     93  F   UNL A   1      43.152  35.920  36.836  1.00  0.00    -0.200 F 
ATOM     94  C   UNL A   1      43.784  37.078  34.878  1.00  0.00     0.200 A 
ATOM     95  F   UNL A   1      44.394  38.198  32.892  1.00  0.00    -0.200 F 
ATOM     96  F   UNL A   1      44.166  38.134  35.609  1.00  0.00    -0.200 F 
ENDBRANCH  63  86
ENDBRANCH  37  38
ENDBRANCH  30  32
ENDBRANCH  29  30
ENDBRANCH  28  29
ENDBRANCH  27  28
ENDBRANCH  26  27
ENDBRANCH  25  26
ENDBRANCH   1  25
TORSDOF 23
ENDMDL
