MODEL 1
REMARK VINA RESULT:     -11.4      0.000      0.000
REMARK SMILES CNC(=O)NC1=[NH+]N=CN[C@@H]1C(=O)OCCOCCOCCOC(=O)c1ccc(-c2c3nc(c(-c4c(F)c(F)c(F)c(F)c4F)c4ccc([nH]4)c(-c4c(F)c(F)c(F)c(F)c4F)c4nc(c(-c5c(F)c(F)c(F)c(F)c5F)c5ccc2[nH]5)C=C4)C=C3)cc1
REMARK SMILES IDX 19 1 18 2 17 3 16 4 15 5 14 6 12 7 13 8 11 9 1 10 2 11 3 12
REMARK SMILES IDX 4 14 5 15 6 16 7 18 8 19 10 21 9 22 20 24 21 25 22 26 23 27
REMARK SMILES IDX 24 28 25 29 26 30 27 31 88 32 28 33 87 34 29 35 30 36 31 37
REMARK SMILES IDX 81 38 32 39 86 40 80 41 82 42 33 43 85 44 79 45 78 46 34 48
REMARK SMILES IDX 66 49 46 50 65 51 47 52 50 53 64 54 83 55 48 56 49 57 63 59
REMARK SMILES IDX 84 60 51 61 35 62 36 63 44 64 37 65 38 66 42 67 45 68 39 69
REMARK SMILES IDX 40 70 43 71 41 72 67 73 68 74 76 75 69 76 70 77 74 78 77 79
REMARK SMILES IDX 71 80 72 81 75 82 73 83 52 84 53 85 61 86 54 87 55 88 59 89
REMARK SMILES IDX 62 90 56 91 57 92 60 93 58 94
REMARK H PARENT 2 13 5 17 7 20 10 23 82 47 50 58
REMARK Flexibility Score: inf
ROOT
ATOM      1  C   UNL A   1      39.066  21.763  26.138  1.00  0.00     0.188 C 
ENDROOT
BRANCH   1   2
ATOM      2  C   UNL A   1      38.333  23.090  25.932  1.00  0.00     0.188 C 
BRANCH   2   3
ATOM      3  O   UNL A   1      36.943  23.142  26.161  1.00  0.00    -0.376 OA
BRANCH   3   4
ATOM      4  C   UNL A   1      36.158  24.015  25.357  1.00  0.00     0.202 C 
BRANCH   4   5
ATOM      5  C   UNL A   1      34.968  23.478  24.541  1.00  0.00     0.261 C 
BRANCH   5   6
ATOM      6  O   UNL A   1      35.254  22.247  23.848  1.00  0.00    -0.461 OA
BRANCH   6   7
ATOM      7  C   UNL A   1      34.890  21.103  24.503  1.00  0.00     0.341 C 
ATOM      8  O   UNL A   1      35.699  20.314  24.981  1.00  0.00    -0.249 OA
BRANCH   7   9
ATOM      9  C   UNL A   1      33.379  21.027  24.769  1.00  0.00     0.308 C 
ATOM     10  C   UNL A   1      31.135  22.844  26.516  1.00  0.00     0.147 C 
ATOM     11  N   UNL A   1      32.455  23.129  27.041  1.00  0.00    -0.321 N 
ATOM     12  C   UNL A   1      33.364  22.265  27.565  1.00  0.00     0.406 C 
ATOM     13  H   UNL A   1      32.730  24.075  27.015  1.00  0.00     0.167 HD
ATOM     14  O   UNL A   1      34.250  22.695  28.297  1.00  0.00    -0.221 OA
ATOM     15  N   UNL A   1      33.238  20.937  27.283  1.00  0.00    -0.191 N 
ATOM     16  C   UNL A   1      33.134  20.284  26.076  1.00  0.00     0.311 C 
ATOM     17  H   UNL A   1      33.218  20.348  28.072  1.00  0.00     0.317 HD
ATOM     18  N   UNL A   1      32.841  19.021  26.138  1.00  0.00    -0.148 N 
ATOM     19  N   UNL A   1      32.562  18.333  24.938  1.00  0.00    -0.077 NA
ATOM     20  H   UNL A   1      32.814  18.552  27.004  1.00  0.00     0.342 HD
ATOM     21  N   UNL A   1      32.633  20.357  23.708  1.00  0.00    -0.350 N 
ATOM     22  C   UNL A   1      32.410  19.026  23.857  1.00  0.00     0.241 C 
ATOM     23  H   UNL A   1      32.306  20.848  22.920  1.00  0.00     0.163 HD
ENDBRANCH   7   9
ENDBRANCH   6   7
ENDBRANCH   5   6
ENDBRANCH   4   5
ENDBRANCH   3   4
ENDBRANCH   2   3
ENDBRANCH   1   2
BRANCH   1  24
ATOM     24  O   UNL A   1      39.965  21.525  27.198  1.00  0.00    -0.376 OA
BRANCH  24  25
ATOM     25  C   UNL A   1      41.269  20.990  26.964  1.00  0.00     0.202 C 
BRANCH  25  26
ATOM     26  C   UNL A   1      42.498  21.758  26.411  1.00  0.00     0.261 C 
BRANCH  26  27
ATOM     27  O   UNL A   1      42.316  22.636  25.301  1.00  0.00    -0.460 OA
BRANCH  27  28
ATOM     28  C   UNL A   1      43.184  23.678  25.234  1.00  0.00     0.338 C 
ATOM     29  O   UNL A   1      44.106  23.821  24.447  1.00  0.00    -0.246 OA
BRANCH  28  30
ATOM     30  C   UNL A   1      42.639  24.769  26.077  1.00  0.00     0.060 A 
ATOM     31  C   UNL A   1      43.239  26.039  26.002  1.00  0.00     0.016 A 
ATOM     32  C   UNL A   1      41.511  24.567  26.869  1.00  0.00     0.016 A 
ATOM     33  C   UNL A   1      42.727  27.108  26.738  1.00  0.00     0.010 A 
ATOM     34  C   UNL A   1      41.024  25.625  27.638  1.00  0.00     0.010 A 
ATOM     35  C   UNL A   1      41.648  26.888  27.600  1.00  0.00    -0.014 A 
BRANCH  35  36
ATOM     36  C   UNL A   1      41.319  27.866  28.663  1.00  0.00     0.031 A 
ATOM     37  C   UNL A   1      42.136  27.809  29.922  1.00  0.00     0.074 A 
ATOM     38  C   UNL A   1      40.297  28.729  28.557  1.00  0.00     0.049 A 
ATOM     39  N   UNL A   1      41.923  28.370  31.083  1.00  0.00    -0.248 NA
ATOM     40  C   UNL A   1      43.353  26.983  29.861  1.00  0.00     0.031 C 
ATOM     41  C   UNL A   1      39.473  28.930  27.369  1.00  0.00     0.029 A 
ATOM     42  N   UNL A   1      39.757  29.578  29.494  1.00  0.00    -0.354 N 
ATOM     43  C   UNL A   1      42.957  27.933  31.900  1.00  0.00     0.074 A 
ATOM     44  C   UNL A   1      43.787  27.053  31.109  1.00  0.00     0.031 C 
ATOM     45  C   UNL A   1      38.504  29.815  27.660  1.00  0.00     0.029 A 
ATOM     46  C   UNL A   1      38.610  30.199  29.069  1.00  0.00     0.049 A 
ATOM     47  H   UNL A   1      40.154  29.724  30.382  1.00  0.00     0.167 HD
ATOM     48  C   UNL A   1      43.187  28.234  33.200  1.00  0.00     0.037 A 
ATOM     49  C   UNL A   1      37.722  30.946  29.755  1.00  0.00     0.037 A 
ATOM     50  C   UNL A   1      42.352  29.106  33.980  1.00  0.00     0.049 A 
ATOM     51  C   UNL A   1      37.947  31.208  31.226  1.00  0.00     0.074 A 
ATOM     52  C   UNL A   1      42.505  29.493  35.299  1.00  0.00     0.029 A 
ATOM     53  N   UNL A   1      41.196  29.716  33.513  1.00  0.00    -0.354 N 
ATOM     54  N   UNL A   1      38.923  30.798  32.000  1.00  0.00    -0.248 NA
ATOM     55  C   UNL A   1      36.944  32.031  31.919  1.00  0.00     0.031 C 
ATOM     56  C   UNL A   1      41.405  30.282  35.651  1.00  0.00     0.029 A 
ATOM     57  C   UNL A   1      40.610  30.454  34.527  1.00  0.00     0.049 A 
ATOM     58  H   UNL A   1      40.845  29.636  32.597  1.00  0.00     0.167 HD
ATOM     59  C   UNL A   1      38.677  31.347  33.254  1.00  0.00     0.074 A 
ATOM     60  C   UNL A   1      37.455  32.113  33.140  1.00  0.00     0.031 C 
ATOM     61  C   UNL A   1      39.405  31.234  34.393  1.00  0.00     0.037 A 
BRANCH  48  62
ATOM     62  C   UNL A   1      44.354  27.566  33.866  1.00  0.00     0.064 A 
ATOM     63  C   UNL A   1      44.234  26.329  34.516  1.00  0.00     0.173 A 
ATOM     64  C   UNL A   1      45.616  28.180  33.855  1.00  0.00     0.173 A 
ATOM     65  F   UNL A   1      43.047  25.707  34.571  1.00  0.00    -0.203 F 
ATOM     66  C   UNL A   1      45.323  25.752  35.165  1.00  0.00     0.198 A 
ATOM     67  C   UNL A   1      46.711  27.582  34.471  1.00  0.00     0.198 A 
ATOM     68  F   UNL A   1      45.788  29.364  33.248  1.00  0.00    -0.203 F 
ATOM     69  F   UNL A   1      45.167  24.603  35.839  1.00  0.00    -0.200 F 
ATOM     70  C   UNL A   1      46.561  26.375  35.136  1.00  0.00     0.200 A 
ATOM     71  F   UNL A   1      47.910  28.180  34.430  1.00  0.00    -0.200 F 
ATOM     72  F   UNL A   1      47.609  25.818  35.760  1.00  0.00    -0.200 F 
ENDBRANCH  48  62
BRANCH  49  73
ATOM     73  C   UNL A   1      36.517  31.480  29.065  1.00  0.00     0.064 A 
ATOM     74  C   UNL A   1      35.450  30.640  28.721  1.00  0.00     0.173 A 
ATOM     75  C   UNL A   1      36.409  32.840  28.735  1.00  0.00     0.173 A 
ATOM     76  F   UNL A   1      35.519  29.328  28.988  1.00  0.00    -0.203 F 
ATOM     77  C   UNL A   1      34.324  31.137  28.067  1.00  0.00     0.198 A 
ATOM     78  C   UNL A   1      35.270  33.341  28.110  1.00  0.00     0.198 A 
ATOM     79  F   UNL A   1      37.404  33.686  29.037  1.00  0.00    -0.203 F 
ATOM     80  F   UNL A   1      33.335  30.304  27.715  1.00  0.00    -0.200 F 
ATOM     81  C   UNL A   1      34.230  32.488  27.770  1.00  0.00     0.200 A 
ATOM     82  F   UNL A   1      35.178  34.649  27.835  1.00  0.00    -0.200 F 
ATOM     83  F   UNL A   1      33.142  32.967  27.152  1.00  0.00    -0.200 F 
ENDBRANCH  49  73
BRANCH  61  84
ATOM     84  C   UNL A   1      38.957  32.011  35.599  1.00  0.00     0.064 A 
ATOM     85  C   UNL A   1      38.257  31.414  36.656  1.00  0.00     0.173 A 
ATOM     86  C   UNL A   1      39.325  33.361  35.735  1.00  0.00     0.173 A 
ATOM     87  F   UNL A   1      37.873  30.133  36.572  1.00  0.00    -0.203 F 
ATOM     88  C   UNL A   1      37.931  32.142  37.799  1.00  0.00     0.198 A 
ATOM     89  C   UNL A   1      39.028  34.075  36.891  1.00  0.00     0.198 A 
ATOM     90  F   UNL A   1      40.005  33.978  34.756  1.00  0.00    -0.203 F 
ATOM     91  F   UNL A   1      37.234  31.561  38.785  1.00  0.00    -0.200 F 
ATOM     92  C   UNL A   1      38.327  33.466  37.922  1.00  0.00     0.200 A 
ATOM     93  F   UNL A   1      39.429  35.347  37.014  1.00  0.00    -0.200 F 
ATOM     94  F   UNL A   1      38.035  34.156  39.033  1.00  0.00    -0.200 F 
ENDBRANCH  61  84
ENDBRANCH  35  36
ENDBRANCH  28  30
ENDBRANCH  27  28
ENDBRANCH  26  27
ENDBRANCH  25  26
ENDBRANCH  24  25
ENDBRANCH   1  24
TORSDOF 17
ENDMDL
MODEL 2
REMARK VINA RESULT:     -11.3      1.148      2.140
REMARK SMILES CNC(=O)NC1=[NH+]N=CN[C@@H]1C(=O)OCCOCCOCCOC(=O)c1ccc(-c2c3nc(c(-c4c(F)c(F)c(F)c(F)c4F)c4ccc([nH]4)c(-c4c(F)c(F)c(F)c(F)c4F)c4nc(c(-c5c(F)c(F)c(F)c(F)c5F)c5ccc2[nH]5)C=C4)C=C3)cc1
REMARK SMILES IDX 19 1 18 2 17 3 16 4 15 5 14 6 12 7 13 8 11 9 1 10 2 11 3 12
REMARK SMILES IDX 4 14 5 15 6 16 7 18 8 19 10 21 9 22 20 24 21 25 22 26 23 27
REMARK SMILES IDX 24 28 25 29 26 30 27 31 88 32 28 33 87 34 29 35 30 36 31 37
REMARK SMILES IDX 81 38 32 39 86 40 80 41 82 42 33 43 85 44 79 45 78 46 34 48
REMARK SMILES IDX 66 49 46 50 65 51 47 52 50 53 64 54 83 55 48 56 49 57 63 59
REMARK SMILES IDX 84 60 51 61 35 62 36 63 44 64 37 65 38 66 42 67 45 68 39 69
REMARK SMILES IDX 40 70 43 71 41 72 67 73 68 74 76 75 69 76 70 77 74 78 77 79
REMARK SMILES IDX 71 80 72 81 75 82 73 83 52 84 53 85 61 86 54 87 55 88 59 89
REMARK SMILES IDX 62 90 56 91 57 92 60 93 58 94
REMARK H PARENT 2 13 5 17 7 20 10 23 82 47 50 58
REMARK Flexibility Score: inf
ROOT
ATOM      1  C   UNL A   1      40.369  19.949  26.133  1.00  0.00     0.188 C 
ENDROOT
BRANCH   1   2
ATOM      2  C   UNL A   1      39.645  21.291  26.008  1.00  0.00     0.188 C 
BRANCH   2   3
ATOM      3  O   UNL A   1      38.241  21.298  25.893  1.00  0.00    -0.376 OA
BRANCH   3   4
ATOM      4  C   UNL A   1      37.667  21.078  24.610  1.00  0.00     0.202 C 
BRANCH   4   5
ATOM      5  C   UNL A   1      36.895  22.198  23.888  1.00  0.00     0.261 C 
BRANCH   5   6
ATOM      6  O   UNL A   1      35.514  22.296  24.289  1.00  0.00    -0.461 OA
BRANCH   6   7
ATOM      7  C   UNL A   1      35.177  23.433  24.971  1.00  0.00     0.341 C 
ATOM      8  O   UNL A   1      35.988  24.114  25.589  1.00  0.00    -0.249 OA
BRANCH   7   9
ATOM      9  C   UNL A   1      33.734  23.882  24.695  1.00  0.00     0.308 C 
ATOM     10  C   UNL A   1      30.664  22.936  25.733  1.00  0.00     0.147 C 
ATOM     11  N   UNL A   1      31.580  21.836  25.963  1.00  0.00    -0.321 N 
ATOM     12  C   UNL A   1      32.357  21.177  25.064  1.00  0.00     0.406 C 
ATOM     13  H   UNL A   1      31.647  21.524  26.895  1.00  0.00     0.167 HD
ATOM     14  O   UNL A   1      32.771  20.054  25.335  1.00  0.00    -0.221 OA
ATOM     15  N   UNL A   1      32.622  21.777  23.868  1.00  0.00    -0.191 N 
ATOM     16  C   UNL A   1      33.141  23.020  23.587  1.00  0.00     0.311 C 
ATOM     17  H   UNL A   1      32.407  21.233  23.077  1.00  0.00     0.317 HD
ATOM     18  N   UNL A   1      33.107  23.380  22.341  1.00  0.00    -0.148 N 
ATOM     19  N   UNL A   1      33.474  24.702  22.009  1.00  0.00    -0.077 NA
ATOM     20  H   UNL A   1      32.831  22.745  21.641  1.00  0.00     0.342 HD
ATOM     21  N   UNL A   1      33.624  25.283  24.301  1.00  0.00    -0.350 N 
ATOM     22  C   UNL A   1      33.631  25.552  22.970  1.00  0.00     0.241 C 
ATOM     23  H   UNL A   1      33.547  26.001  24.971  1.00  0.00     0.163 HD
ENDBRANCH   7   9
ENDBRANCH   6   7
ENDBRANCH   5   6
ENDBRANCH   4   5
ENDBRANCH   3   4
ENDBRANCH   2   3
ENDBRANCH   1   2
BRANCH   1  24
ATOM     24  O   UNL A   1      41.509  19.604  25.378  1.00  0.00    -0.376 OA
BRANCH  24  25
ATOM     25  C   UNL A   1      42.824  19.961  25.806  1.00  0.00     0.202 C 
BRANCH  25  26
ATOM     26  C   UNL A   1      43.413  21.393  25.884  1.00  0.00     0.261 C 
BRANCH  26  27
ATOM     27  O   UNL A   1      42.637  22.483  25.388  1.00  0.00    -0.460 OA
BRANCH  27  28
ATOM     28  C   UNL A   1      43.323  23.634  25.167  1.00  0.00     0.338 C 
ATOM     29  O   UNL A   1      44.102  23.864  24.256  1.00  0.00    -0.246 OA
BRANCH  28  30
ATOM     30  C   UNL A   1      42.737  24.679  26.038  1.00  0.00     0.060 A 
ATOM     31  C   UNL A   1      43.076  26.023  25.796  1.00  0.00     0.016 A 
ATOM     32  C   UNL A   1      41.810  24.351  27.026  1.00  0.00     0.016 A 
ATOM     33  C   UNL A   1      42.507  27.044  26.558  1.00  0.00     0.010 A 
ATOM     34  C   UNL A   1      41.274  25.369  27.816  1.00  0.00     0.010 A 
ATOM     35  C   UNL A   1      41.643  26.713  27.606  1.00  0.00    -0.014 A 
BRANCH  35  36
ATOM     36  C   UNL A   1      41.323  27.702  28.662  1.00  0.00     0.031 A 
ATOM     37  C   UNL A   1      42.127  27.637  29.928  1.00  0.00     0.074 A 
ATOM     38  C   UNL A   1      40.317  28.584  28.543  1.00  0.00     0.049 A 
ATOM     39  N   UNL A   1      41.915  28.207  31.085  1.00  0.00    -0.248 NA
ATOM     40  C   UNL A   1      43.329  26.788  29.883  1.00  0.00     0.031 C 
ATOM     41  C   UNL A   1      39.508  28.793  27.347  1.00  0.00     0.029 A 
ATOM     42  N   UNL A   1      39.785  29.446  29.471  1.00  0.00    -0.354 N 
ATOM     43  C   UNL A   1      42.934  27.755  31.913  1.00  0.00     0.074 A 
ATOM     44  C   UNL A   1      43.754  26.856  31.134  1.00  0.00     0.031 C 
ATOM     45  C   UNL A   1      38.553  29.697  27.625  1.00  0.00     0.029 A 
ATOM     46  C   UNL A   1      38.653  30.086  29.033  1.00  0.00     0.049 A 
ATOM     47  H   UNL A   1      40.177  29.590  30.362  1.00  0.00     0.167 HD
ATOM     48  C   UNL A   1      43.158  28.059  33.213  1.00  0.00     0.037 A 
ATOM     49  C   UNL A   1      37.773  30.853  29.707  1.00  0.00     0.037 A 
ATOM     50  C   UNL A   1      42.331  28.949  33.982  1.00  0.00     0.049 A 
ATOM     51  C   UNL A   1      37.991  31.118  31.179  1.00  0.00     0.074 A 
ATOM     52  C   UNL A   1      42.480  29.340  35.300  1.00  0.00     0.029 A 
ATOM     53  N   UNL A   1      41.191  29.578  33.502  1.00  0.00    -0.354 N 
ATOM     54  N   UNL A   1      38.952  30.694  31.964  1.00  0.00    -0.248 NA
ATOM     55  C   UNL A   1      36.996  31.963  31.858  1.00  0.00     0.031 C 
ATOM     56  C   UNL A   1      41.391  30.150  35.638  1.00  0.00     0.029 A 
ATOM     57  C   UNL A   1      40.610  30.332  34.507  1.00  0.00     0.049 A 
ATOM     58  H   UNL A   1      40.847  29.500  32.583  1.00  0.00     0.167 HD
ATOM     59  C   UNL A   1      38.705  31.253  33.213  1.00  0.00     0.074 A 
ATOM     60  C   UNL A   1      37.498  32.042  33.084  1.00  0.00     0.031 C 
ATOM     61  C   UNL A   1      39.421  31.133  34.358  1.00  0.00     0.037 A 
BRANCH  48  62
ATOM     62  C   UNL A   1      44.306  27.372  33.893  1.00  0.00     0.064 A 
ATOM     63  C   UNL A   1      44.148  26.164  34.588  1.00  0.00     0.173 A 
ATOM     64  C   UNL A   1      45.589  27.939  33.850  1.00  0.00     0.173 A 
ATOM     65  F   UNL A   1      42.939  25.589  34.676  1.00  0.00    -0.203 F 
ATOM     66  C   UNL A   1      45.221  25.572  35.248  1.00  0.00     0.198 A 
ATOM     67  C   UNL A   1      46.668  27.324  34.477  1.00  0.00     0.198 A 
ATOM     68  F   UNL A   1      45.797  29.094  33.199  1.00  0.00    -0.203 F 
ATOM     69  F   UNL A   1      45.031  24.454  35.964  1.00  0.00    -0.200 F 
ATOM     70  C   UNL A   1      46.481  26.148  35.186  1.00  0.00     0.200 A 
ATOM     71  F   UNL A   1      47.887  27.876  34.405  1.00  0.00    -0.200 F 
ATOM     72  F   UNL A   1      47.514  25.576  35.820  1.00  0.00    -0.200 F 
ENDBRANCH  48  62
BRANCH  49  73
ATOM     73  C   UNL A   1      36.585  31.406  29.004  1.00  0.00     0.064 A 
ATOM     74  C   UNL A   1      36.518  32.761  28.656  1.00  0.00     0.173 A 
ATOM     75  C   UNL A   1      35.493  30.592  28.665  1.00  0.00     0.173 A 
ATOM     76  F   UNL A   1      37.523  33.586  28.984  1.00  0.00    -0.203 F 
ATOM     77  C   UNL A   1      35.403  33.283  28.003  1.00  0.00     0.198 A 
ATOM     78  C   UNL A   1      34.392  31.108  27.986  1.00  0.00     0.198 A 
ATOM     79  F   UNL A   1      35.504  29.288  28.980  1.00  0.00    -0.203 F 
ATOM     80  F   UNL A   1      35.350  34.592  27.718  1.00  0.00    -0.200 F 
ATOM     81  C   UNL A   1      34.345  32.456  27.660  1.00  0.00     0.200 A 
ATOM     82  F   UNL A   1      33.377  30.302  27.646  1.00  0.00    -0.200 F 
ATOM     83  F   UNL A   1      33.278  32.956  27.023  1.00  0.00    -0.200 F 
ENDBRANCH  49  73
BRANCH  61  84
ATOM     84  C   UNL A   1      38.976  31.925  35.557  1.00  0.00     0.064 A 
ATOM     85  C   UNL A   1      38.217  31.357  36.588  1.00  0.00     0.173 A 
ATOM     86  C   UNL A   1      39.405  33.253  35.713  1.00  0.00     0.173 A 
ATOM     87  F   UNL A   1      37.773  30.096  36.485  1.00  0.00    -0.203 F 
ATOM     88  C   UNL A   1      37.895  32.093  37.727  1.00  0.00     0.198 A 
ATOM     89  C   UNL A   1      39.110  33.974  36.865  1.00  0.00     0.198 A 
ATOM     90  F   UNL A   1      40.143  33.842  34.759  1.00  0.00    -0.203 F 
ATOM     91  F   UNL A   1      37.142  31.541  38.688  1.00  0.00    -0.200 F 
ATOM     92  C   UNL A   1      38.351  33.395  37.871  1.00  0.00     0.200 A 
ATOM     93  F   UNL A   1      39.570  35.225  37.009  1.00  0.00    -0.200 F 
ATOM     94  F   UNL A   1      38.060  34.092  38.978  1.00  0.00    -0.200 F 
ENDBRANCH  61  84
ENDBRANCH  35  36
ENDBRANCH  28  30
ENDBRANCH  27  28
ENDBRANCH  26  27
ENDBRANCH  25  26
ENDBRANCH  24  25
ENDBRANCH   1  24
TORSDOF 17
ENDMDL
MODEL 3
REMARK VINA RESULT:     -11.3      5.868     11.531
REMARK SMILES CNC(=O)NC1=[NH+]N=CN[C@@H]1C(=O)OCCOCCOCCOC(=O)c1ccc(-c2c3nc(c(-c4c(F)c(F)c(F)c(F)c4F)c4ccc([nH]4)c(-c4c(F)c(F)c(F)c(F)c4F)c4nc(c(-c5c(F)c(F)c(F)c(F)c5F)c5ccc2[nH]5)C=C4)C=C3)cc1
REMARK SMILES IDX 19 1 18 2 17 3 16 4 15 5 14 6 12 7 13 8 11 9 1 10 2 11 3 12
REMARK SMILES IDX 4 14 5 15 6 16 7 18 8 19 10 21 9 22 20 24 21 25 22 26 23 27
REMARK SMILES IDX 24 28 25 29 26 30 27 31 88 32 28 33 87 34 29 35 30 36 31 37
REMARK SMILES IDX 81 38 32 39 86 40 80 41 82 42 33 43 85 44 79 45 78 46 34 48
REMARK SMILES IDX 66 49 46 50 65 51 47 52 50 53 64 54 83 55 48 56 49 57 63 59
REMARK SMILES IDX 84 60 51 61 35 62 36 63 44 64 37 65 38 66 42 67 45 68 39 69
REMARK SMILES IDX 40 70 43 71 41 72 67 73 68 74 76 75 69 76 70 77 74 78 77 79
REMARK SMILES IDX 71 80 72 81 75 82 73 83 52 84 53 85 61 86 54 87 55 88 59 89
REMARK SMILES IDX 62 90 56 91 57 92 60 93 58 94
REMARK H PARENT 2 13 5 17 7 20 10 23 82 47 50 58
REMARK Flexibility Score: inf
ROOT
ATOM      1  C   UNL A   1      33.059  36.200  29.863  1.00  0.00     0.188 C 
ENDROOT
BRANCH   1   2
ATOM      2  C   UNL A   1      32.994  37.084  31.111  1.00  0.00     0.188 C 
BRANCH   2   3
ATOM      3  O   UNL A   1      32.840  36.471  32.371  1.00  0.00    -0.376 OA
BRANCH   3   4
ATOM      4  C   UNL A   1      33.884  36.620  33.326  1.00  0.00     0.202 C 
BRANCH   4   5
ATOM      5  C   UNL A   1      34.780  35.428  33.707  1.00  0.00     0.261 C 
BRANCH   5   6
ATOM      6  O   UNL A   1      35.573  34.929  32.612  1.00  0.00    -0.461 OA
BRANCH   6   7
ATOM      7  C   UNL A   1      35.335  33.632  32.253  1.00  0.00     0.341 C 
ATOM      8  O   UNL A   1      34.213  33.190  32.029  1.00  0.00    -0.249 OA
BRANCH   7   9
ATOM      9  C   UNL A   1      36.624  32.856  31.945  1.00  0.00     0.308 C 
ATOM     10  C   UNL A   1      38.386  30.397  33.443  1.00  0.00     0.147 C 
ATOM     11  N   UNL A   1      37.548  31.028  34.444  1.00  0.00    -0.321 N 
ATOM     12  C   UNL A   1      37.517  32.333  34.823  1.00  0.00     0.406 C 
ATOM     13  H   UNL A   1      36.919  30.432  34.911  1.00  0.00     0.167 HD
ATOM     14  O   UNL A   1      37.045  32.631  35.915  1.00  0.00    -0.221 OA
ATOM     15  N   UNL A   1      38.047  33.268  33.984  1.00  0.00    -0.191 N 
ATOM     16  C   UNL A   1      37.795  33.524  32.655  1.00  0.00     0.311 C 
ATOM     17  H   UNL A   1      38.720  33.858  34.396  1.00  0.00     0.317 HD
ATOM     18  N   UNL A   1      38.596  34.368  32.079  1.00  0.00    -0.148 N 
ATOM     19  N   UNL A   1      38.493  34.551  30.683  1.00  0.00    -0.077 NA
ATOM     20  H   UNL A   1      39.260  34.871  32.604  1.00  0.00     0.342 HD
ATOM     21  N   UNL A   1      36.932  32.776  30.521  1.00  0.00    -0.350 N 
ATOM     22  C   UNL A   1      37.753  33.729  30.012  1.00  0.00     0.241 C 
ATOM     23  H   UNL A   1      36.560  32.061  29.954  1.00  0.00     0.163 HD
ENDBRANCH   7   9
ENDBRANCH   6   7
ENDBRANCH   5   6
ENDBRANCH   4   5
ENDBRANCH   3   4
ENDBRANCH   2   3
ENDBRANCH   1   2
BRANCH   1  24
ATOM     24  O   UNL A   1      34.155  35.371  29.550  1.00  0.00    -0.376 OA
BRANCH  24  25
ATOM     25  C   UNL A   1      34.123  34.481  28.433  1.00  0.00     0.202 C 
BRANCH  25  26
ATOM     26  C   UNL A   1      33.710  32.986  28.455  1.00  0.00     0.261 C 
BRANCH  26  27
ATOM     27  O   UNL A   1      34.689  32.008  28.804  1.00  0.00    -0.460 OA
BRANCH  27  28
ATOM     28  C   UNL A   1      34.759  30.933  27.977  1.00  0.00     0.338 C 
ATOM     29  O   UNL A   1      34.031  30.683  27.030  1.00  0.00    -0.246 OA
BRANCH  28  30
ATOM     30  C   UNL A   1      36.060  30.266  28.221  1.00  0.00     0.060 A 
ATOM     31  C   UNL A   1      36.257  29.607  29.447  1.00  0.00     0.016 A 
ATOM     32  C   UNL A   1      37.039  30.223  27.230  1.00  0.00     0.016 A 
ATOM     33  C   UNL A   1      37.445  28.921  29.699  1.00  0.00     0.010 A 
ATOM     34  C   UNL A   1      38.245  29.573  27.498  1.00  0.00     0.010 A 
ATOM     35  C   UNL A   1      38.465  28.948  28.742  1.00  0.00    -0.014 A 
BRANCH  35  36
ATOM     36  C   UNL A   1      39.851  28.575  29.105  1.00  0.00     0.031 A 
ATOM     37  C   UNL A   1      40.678  29.611  29.809  1.00  0.00     0.074 A 
ATOM     38  C   UNL A   1      40.391  27.392  28.769  1.00  0.00     0.049 A 
ATOM     39  N   UNL A   1      41.966  29.646  30.030  1.00  0.00    -0.248 NA
ATOM     40  C   UNL A   1      39.945  30.783  30.315  1.00  0.00     0.031 C 
ATOM     41  C   UNL A   1      39.680  26.280  28.146  1.00  0.00     0.029 A 
ATOM     42  N   UNL A   1      41.688  26.950  28.878  1.00  0.00    -0.354 N 
ATOM     43  C   UNL A   1      42.200  30.859  30.665  1.00  0.00     0.074 A 
ATOM     44  C   UNL A   1      40.928  31.535  30.781  1.00  0.00     0.031 C 
ATOM     45  C   UNL A   1      40.558  25.295  27.890  1.00  0.00     0.029 A 
ATOM     46  C   UNL A   1      41.900  25.733  28.281  1.00  0.00     0.049 A 
ATOM     47  H   UNL A   1      42.394  27.457  29.338  1.00  0.00     0.167 HD
ATOM     48  C   UNL A   1      43.376  31.366  31.102  1.00  0.00     0.037 A 
ATOM     49  C   UNL A   1      43.051  25.076  28.033  1.00  0.00     0.037 A 
ATOM     50  C   UNL A   1      44.638  30.688  30.975  1.00  0.00     0.049 A 
ATOM     51  C   UNL A   1      44.364  25.691  28.455  1.00  0.00     0.074 A 
ATOM     52  C   UNL A   1      45.886  31.104  31.402  1.00  0.00     0.029 A 
ATOM     53  N   UNL A   1      44.812  29.455  30.363  1.00  0.00    -0.354 N 
ATOM     54  N   UNL A   1      44.589  26.835  29.055  1.00  0.00    -0.248 NA
ATOM     55  C   UNL A   1      45.585  24.925  28.158  1.00  0.00     0.031 C 
ATOM     56  C   UNL A   1      46.825  30.155  30.986  1.00  0.00     0.029 A 
ATOM     57  C   UNL A   1      46.152  29.108  30.375  1.00  0.00     0.049 A 
ATOM     58  H   UNL A   1      44.089  28.908  29.978  1.00  0.00     0.167 HD
ATOM     59  C   UNL A   1      45.964  26.906  29.248  1.00  0.00     0.074 A 
ATOM     60  C   UNL A   1      46.526  25.692  28.693  1.00  0.00     0.031 C 
ATOM     61  C   UNL A   1      46.694  27.884  29.840  1.00  0.00     0.037 A 
BRANCH  48  62
ATOM     62  C   UNL A   1      43.353  32.742  31.702  1.00  0.00     0.064 A 
ATOM     63  C   UNL A   1      43.222  32.952  33.082  1.00  0.00     0.173 A 
ATOM     64  C   UNL A   1      43.461  33.871  30.875  1.00  0.00     0.173 A 
ATOM     65  F   UNL A   1      43.098  31.908  33.916  1.00  0.00    -0.203 F 
ATOM     66  C   UNL A   1      43.159  34.240  33.608  1.00  0.00     0.198 A 
ATOM     67  C   UNL A   1      43.436  35.156  31.407  1.00  0.00     0.198 A 
ATOM     68  F   UNL A   1      43.588  33.727  29.547  1.00  0.00    -0.203 F 
ATOM     69  F   UNL A   1      42.963  34.417  34.922  1.00  0.00    -0.200 F 
ATOM     70  C   UNL A   1      43.273  35.340  32.771  1.00  0.00     0.200 A 
ATOM     71  F   UNL A   1      43.560  36.217  30.598  1.00  0.00    -0.200 F 
ATOM     72  F   UNL A   1      43.213  36.579  33.278  1.00  0.00    -0.200 F 
ENDBRANCH  48  62
BRANCH  49  73
ATOM     73  C   UNL A   1      43.017  23.768  27.325  1.00  0.00     0.064 A 
ATOM     74  C   UNL A   1      43.391  23.667  25.978  1.00  0.00     0.173 A 
ATOM     75  C   UNL A   1      42.611  22.595  27.978  1.00  0.00     0.173 A 
ATOM     76  F   UNL A   1      43.758  24.765  25.302  1.00  0.00    -0.203 F 
ATOM     77  C   UNL A   1      43.352  22.445  25.310  1.00  0.00     0.198 A 
ATOM     78  C   UNL A   1      42.602  21.368  27.318  1.00  0.00     0.198 A 
ATOM     79  F   UNL A   1      42.238  22.637  29.265  1.00  0.00    -0.203 F 
ATOM     80  F   UNL A   1      43.678  22.385  24.011  1.00  0.00    -0.200 F 
ATOM     81  C   UNL A   1      42.967  21.295  25.982  1.00  0.00     0.200 A 
ATOM     82  F   UNL A   1      42.241  20.258  27.975  1.00  0.00    -0.200 F 
ATOM     83  F   UNL A   1      42.941  20.118  25.342  1.00  0.00    -0.200 F 
ENDBRANCH  49  73
BRANCH  61  84
ATOM     84  C   UNL A   1      48.173  27.666  29.999  1.00  0.00     0.064 A 
ATOM     85  C   UNL A   1      48.723  27.066  31.139  1.00  0.00     0.173 A 
ATOM     86  C   UNL A   1      49.041  27.982  28.940  1.00  0.00     0.173 A 
ATOM     87  F   UNL A   1      47.940  26.754  32.182  1.00  0.00    -0.203 F 
ATOM     88  C   UNL A   1      50.089  26.799  31.219  1.00  0.00     0.198 A 
ATOM     89  C   UNL A   1      50.399  27.684  29.009  1.00  0.00     0.198 A 
ATOM     90  F   UNL A   1      48.565  28.549  27.822  1.00  0.00    -0.203 F 
ATOM     91  F   UNL A   1      50.599  26.253  32.330  1.00  0.00    -0.200 F 
ATOM     92  C   UNL A   1      50.923  27.096  30.150  1.00  0.00     0.200 A 
ATOM     93  F   UNL A   1      51.197  27.954  27.967  1.00  0.00    -0.200 F 
ATOM     94  F   UNL A   1      52.231  26.816  30.220  1.00  0.00    -0.200 F 
ENDBRANCH  61  84
ENDBRANCH  35  36
ENDBRANCH  28  30
ENDBRANCH  27  28
ENDBRANCH  26  27
ENDBRANCH  25  26
ENDBRANCH  24  25
ENDBRANCH   1  24
TORSDOF 17
ENDMDL
