MODEL 1
REMARK VINA RESULT:     -10.8      0.000      0.000
REMARK SMILES COc1ccc(CNC(=O)[C@H]2CC(C)=C(C)C[C@@H]2C(=O)OCCOCCOCCOC(=O)c2ccc(-c3c4nc(c(-c5c(F)c(F)c(F)c(F)c5F)c5ccc([nH]5)c(-c5c(F)c(F)c(F)c(F)c5F)c5nc(c(-c6c(F)c(F)c(F)c(F)c6F)c6ccc3[nH]6)C=C5)C=C4)cc2)cc1OC
REMARK SMILES IDX 25 1 24 2 23 3 22 4 21 5 19 6 20 7 18 8 11 9 12 10 13 11
REMARK SMILES IDX 17 12 14 13 15 14 16 15 9 16 8 17 10 19 7 20 6 21 3 22 4 23
REMARK SMILES IDX 97 24 5 25 96 26 2 27 1 28 98 29 99 30 26 31 27 32 28 33
REMARK SMILES IDX 29 34 30 35 31 36 32 37 33 38 34 39 95 40 35 41 94 42 36 43
REMARK SMILES IDX 37 44 38 45 88 46 39 47 93 48 87 49 89 50 40 51 92 52 86 53
REMARK SMILES IDX 85 54 41 56 73 57 53 58 72 59 54 60 57 61 71 62 90 63 55 64
REMARK SMILES IDX 56 65 70 67 91 68 58 69 42 70 43 71 51 72 44 73 45 74 49 75
REMARK SMILES IDX 52 76 46 77 47 78 50 79 48 80 74 81 75 82 83 83 76 84 77 85
REMARK SMILES IDX 81 86 84 87 78 88 79 89 82 90 80 91 59 92 60 93 68 94 61 95
REMARK SMILES IDX 62 96 66 97 69 98 63 99 64 100 67 101 65 102
REMARK H PARENT 8 18 89 55 57 66
REMARK Flexibility Score: inf
ROOT
ATOM      1  C   UNL A   1      34.379  31.171  28.254  1.00  0.00     0.188 C 
ENDROOT
BRANCH   1   2
ATOM      2  O   UNL A   1      33.969  30.317  27.193  1.00  0.00    -0.376 OA
BRANCH   2   3
ATOM      3  C   UNL A   1      34.083  28.913  27.332  1.00  0.00     0.202 C 
BRANCH   3   4
ATOM      4  C   UNL A   1      33.413  28.035  26.276  1.00  0.00     0.261 C 
BRANCH   4   5
ATOM      5  O   UNL A   1      34.214  26.963  25.752  1.00  0.00    -0.463 OA
BRANCH   5   6
ATOM      6  C   UNL A   1      33.610  25.745  25.667  1.00  0.00     0.310 C 
ATOM      7  O   UNL A   1      32.615  25.411  26.300  1.00  0.00    -0.252 OA
BRANCH   6   8
ATOM      8  C   UNL A   1      34.310  24.818  24.680  1.00  0.00     0.116 C 
ATOM      9  C   UNL A   1      33.345  23.689  24.293  1.00  0.00     0.097 C 
ATOM     10  C   UNL A   1      33.792  22.256  24.571  1.00  0.00     0.045 C 
ATOM     11  C   UNL A   1      35.215  21.995  24.983  1.00  0.00    -0.074 C 
ATOM     12  C   UNL A   1      35.742  24.440  25.081  1.00  0.00     0.046 C 
ATOM     13  C   UNL A   1      35.570  20.525  25.000  1.00  0.00     0.039 C 
ATOM     14  C   UNL A   1      36.077  22.983  25.282  1.00  0.00    -0.073 C 
ATOM     15  C   UNL A   1      37.461  22.705  25.819  1.00  0.00     0.039 C 
BRANCH   9  16
ATOM     16  C   UNL A   1      32.767  24.072  22.936  1.00  0.00     0.224 C 
ATOM     17  N   UNL A   1      31.473  24.384  22.722  1.00  0.00    -0.352 N 
ATOM     18  H   UNL A   1      31.184  24.300  21.784  1.00  0.00     0.163 HD
ATOM     19  O   UNL A   1      33.482  23.966  21.933  1.00  0.00    -0.275 OA
BRANCH  17  20
ATOM     20  C   UNL A   1      30.440  24.817  23.627  1.00  0.00     0.151 C 
BRANCH  20  21
ATOM     21  C   UNL A   1      30.098  26.270  23.384  1.00  0.00    -0.025 A 
ATOM     22  C   UNL A   1      29.562  29.007  22.958  1.00  0.00     0.160 A 
ATOM     23  C   UNL A   1      28.548  28.152  23.393  1.00  0.00     0.051 A 
ATOM     24  C   UNL A   1      30.850  28.507  22.734  1.00  0.00     0.161 A 
ATOM     25  C   UNL A   1      28.820  26.802  23.617  1.00  0.00     0.009 A 
ATOM     26  C   UNL A   1      31.092  27.138  22.923  1.00  0.00     0.056 A 
BRANCH  22  27
ATOM     27  O   UNL A   1      29.275  30.344  22.915  1.00  0.00    -0.493 OA
ATOM     28  C   UNL A   1      28.981  30.789  21.591  1.00  0.00     0.278 C 
ENDBRANCH  22  27
BRANCH  24  29
ATOM     29  O   UNL A   1      31.984  29.181  22.374  1.00  0.00    -0.493 OA
ATOM     30  C   UNL A   1      33.239  28.576  22.626  1.00  0.00     0.278 C 
ENDBRANCH  24  29
ENDBRANCH  20  21
ENDBRANCH  17  20
ENDBRANCH   9  16
ENDBRANCH   6   8
ENDBRANCH   5   6
ENDBRANCH   4   5
ENDBRANCH   3   4
ENDBRANCH   2   3
ENDBRANCH   1   2
BRANCH   1  31
ATOM     31  C   UNL A   1      34.808  32.629  27.972  1.00  0.00     0.188 C 
BRANCH  31  32
ATOM     32  O   UNL A   1      33.745  33.543  28.139  1.00  0.00    -0.376 OA
BRANCH  32  33
ATOM     33  C   UNL A   1      34.078  34.895  28.361  1.00  0.00     0.202 C 
BRANCH  33  34
ATOM     34  C   UNL A   1      33.140  35.734  29.244  1.00  0.00     0.261 C 
BRANCH  34  35
ATOM     35  O   UNL A   1      32.548  35.086  30.386  1.00  0.00    -0.460 OA
BRANCH  35  36
ATOM     36  C   UNL A   1      32.772  35.620  31.605  1.00  0.00     0.338 C 
ATOM     37  O   UNL A   1      32.070  36.435  32.187  1.00  0.00    -0.246 OA
BRANCH  36  38
ATOM     38  C   UNL A   1      33.929  34.930  32.229  1.00  0.00     0.060 A 
ATOM     39  C   UNL A   1      35.191  35.540  32.180  1.00  0.00     0.016 A 
ATOM     40  C   UNL A   1      33.784  33.689  32.852  1.00  0.00     0.016 A 
ATOM     41  C   UNL A   1      36.313  34.900  32.721  1.00  0.00     0.010 A 
ATOM     42  C   UNL A   1      34.911  33.039  33.375  1.00  0.00     0.010 A 
ATOM     43  C   UNL A   1      36.189  33.623  33.287  1.00  0.00    -0.014 A 
BRANCH  43  44
ATOM     44  C   UNL A   1      37.401  32.819  33.611  1.00  0.00     0.031 A 
ATOM     45  C   UNL A   1      38.119  33.095  34.908  1.00  0.00     0.074 A 
ATOM     46  C   UNL A   1      37.868  31.861  32.790  1.00  0.00     0.049 A 
ATOM     47  N   UNL A   1      39.245  32.604  35.364  1.00  0.00    -0.248 NA
ATOM     48  C   UNL A   1      37.474  34.060  35.812  1.00  0.00     0.031 C 
ATOM     49  C   UNL A   1      37.255  31.449  31.532  1.00  0.00     0.029 A 
ATOM     50  N   UNL A   1      38.990  31.069  32.893  1.00  0.00    -0.354 N 
ATOM     51  C   UNL A   1      39.442  33.201  36.603  1.00  0.00     0.074 A 
ATOM     52  C   UNL A   1      38.341  34.118  36.811  1.00  0.00     0.031 C 
ATOM     53  C   UNL A   1      38.019  30.497  30.965  1.00  0.00     0.029 A 
ATOM     54  C   UNL A   1      39.195  30.258  31.801  1.00  0.00     0.049 A 
ATOM     55  H   UNL A   1      39.588  31.080  33.675  1.00  0.00     0.167 HD
ATOM     56  C   UNL A   1      40.442  32.998  37.495  1.00  0.00     0.037 A 
ATOM     57  C   UNL A   1      40.230  29.446  31.498  1.00  0.00     0.037 A 
ATOM     58  C   UNL A   1      41.548  32.099  37.291  1.00  0.00     0.049 A 
ATOM     59  C   UNL A   1      41.386  29.314  32.463  1.00  0.00     0.074 A 
ATOM     60  C   UNL A   1      42.615  31.838  38.133  1.00  0.00     0.029 A 
ATOM     61  N   UNL A   1      41.732  31.317  36.160  1.00  0.00    -0.354 N 
ATOM     62  N   UNL A   1      41.561  29.873  33.635  1.00  0.00    -0.248 NA
ATOM     63  C   UNL A   1      42.492  28.431  32.057  1.00  0.00     0.031 C 
ATOM     64  C   UNL A   1      43.472  30.939  37.491  1.00  0.00     0.029 A 
ATOM     65  C   UNL A   1      42.906  30.590  36.276  1.00  0.00     0.049 A 
ATOM     66  H   UNL A   1      41.120  31.285  35.390  1.00  0.00     0.167 HD
ATOM     67  C   UNL A   1      42.768  29.382  34.120  1.00  0.00     0.074 A 
ATOM     68  C   UNL A   1      43.279  28.467  33.123  1.00  0.00     0.031 C 
ATOM     69  C   UNL A   1      43.398  29.664  35.288  1.00  0.00     0.037 A 
BRANCH  56  70
ATOM     70  C   UNL A   1      40.396  33.782  38.776  1.00  0.00     0.064 A 
ATOM     71  C   UNL A   1      39.661  33.335  39.884  1.00  0.00     0.173 A 
ATOM     72  C   UNL A   1      41.126  34.973  38.910  1.00  0.00     0.173 A 
ATOM     73  F   UNL A   1      38.935  32.210  39.805  1.00  0.00    -0.203 F 
ATOM     74  C   UNL A   1      39.637  34.066  41.069  1.00  0.00     0.198 A 
ATOM     75  C   UNL A   1      41.127  35.683  40.107  1.00  0.00     0.198 A 
ATOM     76  F   UNL A   1      41.850  35.442  37.883  1.00  0.00    -0.203 F 
ATOM     77  F   UNL A   1      38.888  33.646  42.099  1.00  0.00    -0.200 F 
ATOM     78  C   UNL A   1      40.376  35.234  41.183  1.00  0.00     0.200 A 
ATOM     79  F   UNL A   1      41.854  36.804  40.220  1.00  0.00    -0.200 F 
ATOM     80  F   UNL A   1      40.360  35.930  42.328  1.00  0.00    -0.200 F 
ENDBRANCH  56  70
BRANCH  57  81
ATOM     81  C   UNL A   1      40.253  28.706  30.205  1.00  0.00     0.064 A 
ATOM     82  C   UNL A   1      40.871  29.247  29.067  1.00  0.00     0.173 A 
ATOM     83  C   UNL A   1      39.594  27.475  30.061  1.00  0.00     0.173 A 
ATOM     84  F   UNL A   1      41.483  30.438  29.141  1.00  0.00    -0.203 F 
ATOM     85  C   UNL A   1      40.802  28.603  27.833  1.00  0.00     0.198 A 
ATOM     86  C   UNL A   1      39.557  26.814  28.834  1.00  0.00     0.198 A 
ATOM     87  F   UNL A   1      38.974  26.917  31.111  1.00  0.00    -0.203 F 
ATOM     88  F   UNL A   1      41.339  29.180  26.749  1.00  0.00    -0.200 F 
ATOM     89  C   UNL A   1      40.150  27.385  27.718  1.00  0.00     0.200 A 
ATOM     90  F   UNL A   1      38.930  25.635  28.729  1.00  0.00    -0.200 F 
ATOM     91  F   UNL A   1      40.076  26.772  26.529  1.00  0.00    -0.200 F 
ENDBRANCH  57  81
BRANCH  69  92
ATOM     92  C   UNL A   1      44.681  28.934  35.585  1.00  0.00     0.064 A 
ATOM     93  C   UNL A   1      44.699  27.702  36.255  1.00  0.00     0.173 A 
ATOM     94  C   UNL A   1      45.910  29.461  35.155  1.00  0.00     0.173 A 
ATOM     95  F   UNL A   1      43.555  27.157  36.697  1.00  0.00    -0.203 F 
ATOM     96  C   UNL A   1      45.898  27.041  36.512  1.00  0.00     0.198 A 
ATOM     97  C   UNL A   1      47.104  28.781  35.382  1.00  0.00     0.198 A 
ATOM     98  F   UNL A   1      45.953  30.631  34.500  1.00  0.00    -0.203 F 
ATOM     99  F   UNL A   1      45.894  25.892  37.202  1.00  0.00    -0.200 F 
ATOM    100  C   UNL A   1      47.098  27.578  36.069  1.00  0.00     0.200 A 
ATOM    101  F   UNL A   1      48.260  29.293  34.937  1.00  0.00    -0.200 F 
ATOM    102  F   UNL A   1      48.251  26.936  36.310  1.00  0.00    -0.200 F 
ENDBRANCH  69  92
ENDBRANCH  43  44
ENDBRANCH  36  38
ENDBRANCH  35  36
ENDBRANCH  34  35
ENDBRANCH  33  34
ENDBRANCH  32  33
ENDBRANCH  31  32
ENDBRANCH   1  31
TORSDOF 22
ENDMDL
MODEL 2
REMARK VINA RESULT:     -10.7      1.066      4.190
REMARK SMILES COc1ccc(CNC(=O)[C@H]2CC(C)=C(C)C[C@@H]2C(=O)OCCOCCOCCOC(=O)c2ccc(-c3c4nc(c(-c5c(F)c(F)c(F)c(F)c5F)c5ccc([nH]5)c(-c5c(F)c(F)c(F)c(F)c5F)c5nc(c(-c6c(F)c(F)c(F)c(F)c6F)c6ccc3[nH]6)C=C5)C=C4)cc2)cc1OC
REMARK SMILES IDX 25 1 24 2 23 3 22 4 21 5 19 6 20 7 18 8 11 9 12 10 13 11
REMARK SMILES IDX 17 12 14 13 15 14 16 15 9 16 8 17 10 19 7 20 6 21 3 22 4 23
REMARK SMILES IDX 97 24 5 25 96 26 2 27 1 28 98 29 99 30 26 31 27 32 28 33
REMARK SMILES IDX 29 34 30 35 31 36 32 37 33 38 34 39 95 40 35 41 94 42 36 43
REMARK SMILES IDX 37 44 38 45 88 46 39 47 93 48 87 49 89 50 40 51 92 52 86 53
REMARK SMILES IDX 85 54 41 56 73 57 53 58 72 59 54 60 57 61 71 62 90 63 55 64
REMARK SMILES IDX 56 65 70 67 91 68 58 69 42 70 43 71 51 72 44 73 45 74 49 75
REMARK SMILES IDX 52 76 46 77 47 78 50 79 48 80 74 81 75 82 83 83 76 84 77 85
REMARK SMILES IDX 81 86 84 87 78 88 79 89 82 90 80 91 59 92 60 93 68 94 61 95
REMARK SMILES IDX 62 96 66 97 69 98 63 99 64 100 67 101 65 102
REMARK H PARENT 8 18 89 55 57 66
REMARK Flexibility Score: inf
ROOT
ATOM      1  C   UNL A   1      34.192  31.408  28.203  1.00  0.00     0.188 C 
ENDROOT
BRANCH   1   2
ATOM      2  O   UNL A   1      33.202  30.839  27.355  1.00  0.00    -0.376 OA
BRANCH   2   3
ATOM      3  C   UNL A   1      33.304  29.481  26.965  1.00  0.00     0.202 C 
BRANCH   3   4
ATOM      4  C   UNL A   1      32.006  28.707  26.732  1.00  0.00     0.261 C 
BRANCH   4   5
ATOM      5  O   UNL A   1      31.735  28.336  25.371  1.00  0.00    -0.463 OA
BRANCH   5   6
ATOM      6  C   UNL A   1      31.000  27.203  25.190  1.00  0.00     0.310 C 
ATOM      7  O   UNL A   1      30.895  26.299  26.010  1.00  0.00    -0.252 OA
BRANCH   6   8
ATOM      8  C   UNL A   1      30.304  27.173  23.834  1.00  0.00     0.116 C 
ATOM      9  C   UNL A   1      31.196  27.880  22.805  1.00  0.00     0.097 C 
ATOM     10  C   UNL A   1      30.607  29.083  22.072  1.00  0.00     0.045 C 
ATOM     11  C   UNL A   1      29.139  29.380  22.207  1.00  0.00    -0.074 C 
ATOM     12  C   UNL A   1      28.818  27.549  23.883  1.00  0.00     0.046 C 
ATOM     13  C   UNL A   1      28.658  30.451  21.253  1.00  0.00     0.039 C 
ATOM     14  C   UNL A   1      28.343  28.733  23.077  1.00  0.00    -0.073 C 
ATOM     15  C   UNL A   1      26.902  29.129  23.295  1.00  0.00     0.039 C 
BRANCH   9  16
ATOM     16  C   UNL A   1      31.912  26.777  22.035  1.00  0.00     0.224 C 
ATOM     17  N   UNL A   1      33.146  26.322  22.330  1.00  0.00    -0.352 N 
ATOM     18  H   UNL A   1      33.596  25.855  21.589  1.00  0.00     0.163 HD
ATOM     19  O   UNL A   1      31.403  26.353  20.991  1.00  0.00    -0.275 OA
BRANCH  17  20
ATOM     20  C   UNL A   1      33.921  26.400  23.542  1.00  0.00     0.151 C 
BRANCH  20  21
ATOM     21  C   UNL A   1      33.983  25.049  24.218  1.00  0.00    -0.025 A 
ATOM     22  C   UNL A   1      34.208  22.527  25.465  1.00  0.00     0.160 A 
ATOM     23  C   UNL A   1      33.057  22.856  24.746  1.00  0.00     0.051 A 
ATOM     24  C   UNL A   1      35.256  23.450  25.565  1.00  0.00     0.161 A 
ATOM     25  C   UNL A   1      32.955  24.098  24.118  1.00  0.00     0.009 A 
ATOM     26  C   UNL A   1      35.116  24.710  24.964  1.00  0.00     0.056 A 
BRANCH  22  27
ATOM     27  O   UNL A   1      34.316  21.241  25.916  1.00  0.00    -0.493 OA
ATOM     28  C   UNL A   1      33.847  21.099  27.256  1.00  0.00     0.278 C 
ENDBRANCH  22  27
BRANCH  24  29
ATOM     29  O   UNL A   1      36.479  23.301  26.160  1.00  0.00    -0.493 OA
ATOM     30  C   UNL A   1      37.487  22.589  25.466  1.00  0.00     0.278 C 
ENDBRANCH  24  29
ENDBRANCH  20  21
ENDBRANCH  17  20
ENDBRANCH   9  16
ENDBRANCH   6   8
ENDBRANCH   5   6
ENDBRANCH   4   5
ENDBRANCH   3   4
ENDBRANCH   2   3
ENDBRANCH   1   2
BRANCH   1  31
ATOM     31  C   UNL A   1      34.659  32.868  28.000  1.00  0.00     0.188 C 
BRANCH  31  32
ATOM     32  O   UNL A   1      33.595  33.790  28.088  1.00  0.00    -0.376 OA
BRANCH  32  33
ATOM     33  C   UNL A   1      33.919  35.133  28.370  1.00  0.00     0.202 C 
BRANCH  33  34
ATOM     34  C   UNL A   1      32.957  35.935  29.263  1.00  0.00     0.261 C 
BRANCH  34  35
ATOM     35  O   UNL A   1      32.338  35.242  30.362  1.00  0.00    -0.460 OA
BRANCH  35  36
ATOM     36  C   UNL A   1      32.548  35.713  31.609  1.00  0.00     0.338 C 
ATOM     37  O   UNL A   1      31.838  36.495  32.225  1.00  0.00    -0.246 OA
BRANCH  36  38
ATOM     38  C   UNL A   1      33.701  34.994  32.208  1.00  0.00     0.060 A 
ATOM     39  C   UNL A   1      34.976  35.575  32.134  1.00  0.00     0.016 A 
ATOM     40  C   UNL A   1      33.539  33.756  32.833  1.00  0.00     0.016 A 
ATOM     41  C   UNL A   1      36.093  34.907  32.651  1.00  0.00     0.010 A 
ATOM     42  C   UNL A   1      34.662  33.078  33.331  1.00  0.00     0.010 A 
ATOM     43  C   UNL A   1      35.951  33.633  33.218  1.00  0.00    -0.014 A 
BRANCH  43  44
ATOM     44  C   UNL A   1      37.150  32.800  33.515  1.00  0.00     0.031 A 
ATOM     45  C   UNL A   1      37.901  33.055  34.798  1.00  0.00     0.074 A 
ATOM     46  C   UNL A   1      37.577  31.832  32.683  1.00  0.00     0.049 A 
ATOM     47  N   UNL A   1      39.023  32.537  35.230  1.00  0.00    -0.248 NA
ATOM     48  C   UNL A   1      37.297  34.034  35.716  1.00  0.00     0.031 C 
ATOM     49  C   UNL A   1      36.929  31.437  31.437  1.00  0.00     0.029 A 
ATOM     50  N   UNL A   1      38.682  31.013  32.762  1.00  0.00    -0.354 N 
ATOM     51  C   UNL A   1      39.260  33.126  36.466  1.00  0.00     0.074 A 
ATOM     52  C   UNL A   1      38.186  34.069  36.697  1.00  0.00     0.031 C 
ATOM     53  C   UNL A   1      37.658  30.469  30.853  1.00  0.00     0.029 A 
ATOM     54  C   UNL A   1      38.846  30.200  31.665  1.00  0.00     0.049 A 
ATOM     55  H   UNL A   1      39.296  31.009  33.531  1.00  0.00     0.167 HD
ATOM     56  C   UNL A   1      40.273  32.898  37.336  1.00  0.00     0.037 A 
ATOM     57  C   UNL A   1      39.854  29.365  31.339  1.00  0.00     0.037 A 
ATOM     58  C   UNL A   1      41.353  31.974  37.109  1.00  0.00     0.049 A 
ATOM     59  C   UNL A   1      41.026  29.204  32.280  1.00  0.00     0.074 A 
ATOM     60  C   UNL A   1      42.430  31.686  37.928  1.00  0.00     0.029 A 
ATOM     61  N   UNL A   1      41.495  31.191  35.973  1.00  0.00    -0.354 N 
ATOM     62  N   UNL A   1      41.238  29.756  33.450  1.00  0.00    -0.248 NA
ATOM     63  C   UNL A   1      42.103  28.296  31.850  1.00  0.00     0.031 C 
ATOM     64  C   UNL A   1      43.253  30.768  37.267  1.00  0.00     0.029 A 
ATOM     65  C   UNL A   1      42.654  30.435  36.064  1.00  0.00     0.049 A 
ATOM     66  H   UNL A   1      40.867  31.174  35.215  1.00  0.00     0.167 HD
ATOM     67  C   UNL A   1      42.443  29.235  33.909  1.00  0.00     0.074 A 
ATOM     68  C   UNL A   1      42.912  28.311  32.900  1.00  0.00     0.031 C 
ATOM     69  C   UNL A   1      43.104  29.500  35.064  1.00  0.00     0.037 A 
BRANCH  56  70
ATOM     70  C   UNL A   1      40.272  33.681  38.619  1.00  0.00     0.064 A 
ATOM     71  C   UNL A   1      41.065  34.828  38.780  1.00  0.00     0.173 A 
ATOM     72  C   UNL A   1      39.440  33.305  39.684  1.00  0.00     0.173 A 
ATOM     73  F   UNL A   1      41.888  35.223  37.798  1.00  0.00    -0.203 F 
ATOM     74  C   UNL A   1      41.046  35.550  39.970  1.00  0.00     0.198 A 
ATOM     75  C   UNL A   1      39.398  34.049  40.859  1.00  0.00     0.198 A 
ATOM     76  F   UNL A   1      38.657  32.221  39.581  1.00  0.00    -0.203 F 
ATOM     77  F   UNL A   1      41.849  36.613  40.119  1.00  0.00    -0.200 F 
ATOM     78  C   UNL A   1      40.207  35.166  41.005  1.00  0.00     0.200 A 
ATOM     79  F   UNL A   1      38.575  33.685  41.853  1.00  0.00    -0.200 F 
ATOM     80  F   UNL A   1      40.182  35.869  42.146  1.00  0.00    -0.200 F 
ENDBRANCH  56  70
BRANCH  57  81
ATOM     81  C   UNL A   1      39.833  28.627  30.044  1.00  0.00     0.064 A 
ATOM     82  C   UNL A   1      39.289  27.337  29.951  1.00  0.00     0.173 A 
ATOM     83  C   UNL A   1      40.421  29.168  28.891  1.00  0.00     0.173 A 
ATOM     84  F   UNL A   1      38.748  26.759  31.034  1.00  0.00    -0.203 F 
ATOM     85  C   UNL A   1      39.364  26.607  28.766  1.00  0.00     0.198 A 
ATOM     86  C   UNL A   1      40.462  28.451  27.697  1.00  0.00     0.198 A 
ATOM     87  F   UNL A   1      40.969  30.392  28.925  1.00  0.00    -0.203 F 
ATOM     88  F   UNL A   1      38.902  25.349  28.728  1.00  0.00    -0.200 F 
ATOM     89  C   UNL A   1      39.945  27.165  27.639  1.00  0.00     0.200 A 
ATOM     90  F   UNL A   1      41.021  28.997  26.608  1.00  0.00    -0.200 F 
ATOM     91  F   UNL A   1      40.025  26.458  26.503  1.00  0.00    -0.200 F 
ENDBRANCH  57  81
BRANCH  69  92
ATOM     92  C   UNL A   1      44.374  28.740  35.334  1.00  0.00     0.064 A 
ATOM     93  C   UNL A   1      45.633  29.240  34.971  1.00  0.00     0.173 A 
ATOM     94  C   UNL A   1      44.331  27.506  36.004  1.00  0.00     0.173 A 
ATOM     95  F   UNL A   1      45.733  30.408  34.318  1.00  0.00    -0.203 F 
ATOM     96  C   UNL A   1      46.796  28.520  35.237  1.00  0.00     0.198 A 
ATOM     97  C   UNL A   1      45.498  26.806  36.301  1.00  0.00     0.198 A 
ATOM     98  F   UNL A   1      43.156  26.984  36.386  1.00  0.00    -0.203 F 
ATOM     99  F   UNL A   1      47.983  28.994  34.831  1.00  0.00    -0.200 F 
ATOM    100  C   UNL A   1      46.729  27.309  35.908  1.00  0.00     0.200 A 
ATOM    101  F   UNL A   1      45.431  25.645  36.966  1.00  0.00    -0.200 F 
ATOM    102  F   UNL A   1      47.849  26.623  36.172  1.00  0.00    -0.200 F 
ENDBRANCH  69  92
ENDBRANCH  43  44
ENDBRANCH  36  38
ENDBRANCH  35  36
ENDBRANCH  34  35
ENDBRANCH  33  34
ENDBRANCH  32  33
ENDBRANCH  31  32
ENDBRANCH   1  31
TORSDOF 22
ENDMDL
MODEL 3
REMARK VINA RESULT:     -10.1      1.143      7.922
REMARK SMILES COc1ccc(CNC(=O)[C@H]2CC(C)=C(C)C[C@@H]2C(=O)OCCOCCOCCOC(=O)c2ccc(-c3c4nc(c(-c5c(F)c(F)c(F)c(F)c5F)c5ccc([nH]5)c(-c5c(F)c(F)c(F)c(F)c5F)c5nc(c(-c6c(F)c(F)c(F)c(F)c6F)c6ccc3[nH]6)C=C5)C=C4)cc2)cc1OC
REMARK SMILES IDX 25 1 24 2 23 3 22 4 21 5 19 6 20 7 18 8 11 9 12 10 13 11
REMARK SMILES IDX 17 12 14 13 15 14 16 15 9 16 8 17 10 19 7 20 6 21 3 22 4 23
REMARK SMILES IDX 97 24 5 25 96 26 2 27 1 28 98 29 99 30 26 31 27 32 28 33
REMARK SMILES IDX 29 34 30 35 31 36 32 37 33 38 34 39 95 40 35 41 94 42 36 43
REMARK SMILES IDX 37 44 38 45 88 46 39 47 93 48 87 49 89 50 40 51 92 52 86 53
REMARK SMILES IDX 85 54 41 56 73 57 53 58 72 59 54 60 57 61 71 62 90 63 55 64
REMARK SMILES IDX 56 65 70 67 91 68 58 69 42 70 43 71 51 72 44 73 45 74 49 75
REMARK SMILES IDX 52 76 46 77 47 78 50 79 48 80 74 81 75 82 83 83 76 84 77 85
REMARK SMILES IDX 81 86 84 87 78 88 79 89 82 90 80 91 59 92 60 93 68 94 61 95
REMARK SMILES IDX 62 96 66 97 69 98 63 99 64 100 67 101 65 102
REMARK H PARENT 8 18 89 55 57 66
REMARK Flexibility Score: inf
ROOT
ATOM      1  C   UNL A   1      33.914  31.190  27.997  1.00  0.00     0.188 C 
ENDROOT
BRANCH   1   2
ATOM      2  O   UNL A   1      32.972  30.667  27.068  1.00  0.00    -0.376 OA
BRANCH   2   3
ATOM      3  C   UNL A   1      32.888  29.269  26.859  1.00  0.00     0.202 C 
BRANCH   3   4
ATOM      4  C   UNL A   1      31.708  28.739  26.044  1.00  0.00     0.261 C 
BRANCH   4   5
ATOM      5  O   UNL A   1      31.926  27.493  25.364  1.00  0.00    -0.463 OA
BRANCH   5   6
ATOM      6  C   UNL A   1      30.833  26.697  25.199  1.00  0.00     0.310 C 
ATOM      7  O   UNL A   1      30.378  25.947  26.054  1.00  0.00    -0.252 OA
BRANCH   6   8
ATOM      8  C   UNL A   1      30.217  26.838  23.811  1.00  0.00     0.116 C 
ATOM      9  C   UNL A   1      31.188  27.620  22.917  1.00  0.00     0.097 C 
ATOM     10  C   UNL A   1      30.678  28.915  22.289  1.00  0.00     0.045 C 
ATOM     11  C   UNL A   1      29.213  29.248  22.375  1.00  0.00    -0.074 C 
ATOM     12  C   UNL A   1      28.742  27.259  23.820  1.00  0.00     0.046 C 
ATOM     13  C   UNL A   1      28.820  30.432  21.520  1.00  0.00     0.039 C 
ATOM     14  C   UNL A   1      28.350  28.539  23.124  1.00  0.00    -0.073 C 
ATOM     15  C   UNL A   1      26.911  28.960  23.305  1.00  0.00     0.039 C 
BRANCH   9  16
ATOM     16  C   UNL A   1      31.914  26.581  22.070  1.00  0.00     0.224 C 
ATOM     17  N   UNL A   1      33.188  26.192  22.275  1.00  0.00    -0.352 N 
ATOM     18  H   UNL A   1      33.616  25.772  21.494  1.00  0.00     0.163 HD
ATOM     19  O   UNL A   1      31.366  26.158  21.047  1.00  0.00    -0.275 OA
BRANCH  17  20
ATOM     20  C   UNL A   1      34.032  26.281  23.439  1.00  0.00     0.151 C 
BRANCH  20  21
ATOM     21  C   UNL A   1      34.068  24.958  24.171  1.00  0.00    -0.025 A 
ATOM     22  C   UNL A   1      34.044  22.460  25.482  1.00  0.00     0.160 A 
ATOM     23  C   UNL A   1      34.552  23.589  26.129  1.00  0.00     0.051 A 
ATOM     24  C   UNL A   1      33.542  22.568  24.180  1.00  0.00     0.161 A 
ATOM     25  C   UNL A   1      34.549  24.825  25.483  1.00  0.00     0.009 A 
ATOM     26  C   UNL A   1      33.588  23.811  23.532  1.00  0.00     0.056 A 
BRANCH  22  27
ATOM     27  O   UNL A   1      33.924  21.317  26.224  1.00  0.00    -0.493 OA
ATOM     28  C   UNL A   1      33.981  21.576  27.626  1.00  0.00     0.278 C 
ENDBRANCH  22  27
BRANCH  24  29
ATOM     29  O   UNL A   1      32.947  21.610  23.405  1.00  0.00    -0.493 OA
ATOM     30  C   UNL A   1      32.195  22.022  22.279  1.00  0.00     0.278 C 
ENDBRANCH  24  29
ENDBRANCH  20  21
ENDBRANCH  17  20
ENDBRANCH   9  16
ENDBRANCH   6   8
ENDBRANCH   5   6
ENDBRANCH   4   5
ENDBRANCH   3   4
ENDBRANCH   2   3
ENDBRANCH   1   2
BRANCH   1  31
ATOM     31  C   UNL A   1      34.261  32.696  28.005  1.00  0.00     0.188 C 
BRANCH  31  32
ATOM     32  O   UNL A   1      33.110  33.512  28.021  1.00  0.00    -0.376 OA
BRANCH  32  33
ATOM     33  C   UNL A   1      33.302  34.907  28.098  1.00  0.00     0.202 C 
BRANCH  33  34
ATOM     34  C   UNL A   1      33.105  35.589  29.462  1.00  0.00     0.261 C 
BRANCH  34  35
ATOM     35  O   UNL A   1      32.859  34.740  30.598  1.00  0.00    -0.460 OA
BRANCH  35  36
ATOM     36  C   UNL A   1      32.955  35.283  31.830  1.00  0.00     0.338 C 
ATOM     37  O   UNL A   1      32.113  35.964  32.397  1.00  0.00    -0.246 OA
BRANCH  36  38
ATOM     38  C   UNL A   1      34.191  34.782  32.483  1.00  0.00     0.060 A 
ATOM     39  C   UNL A   1      35.409  35.421  32.214  1.00  0.00     0.016 A 
ATOM     40  C   UNL A   1      34.160  33.687  33.349  1.00  0.00     0.016 A 
ATOM     41  C   UNL A   1      36.601  34.950  32.779  1.00  0.00     0.010 A 
ATOM     42  C   UNL A   1      35.356  33.202  33.898  1.00  0.00     0.010 A 
ATOM     43  C   UNL A   1      36.589  33.809  33.595  1.00  0.00    -0.014 A 
BRANCH  43  44
ATOM     44  C   UNL A   1      37.865  33.138  33.973  1.00  0.00     0.031 A 
ATOM     45  C   UNL A   1      38.399  32.053  33.072  1.00  0.00     0.074 A 
ATOM     46  C   UNL A   1      38.550  33.471  35.082  1.00  0.00     0.049 A 
ATOM     47  N   UNL A   1      39.426  31.257  33.236  1.00  0.00    -0.248 NA
ATOM     48  C   UNL A   1      37.668  31.840  31.813  1.00  0.00     0.031 C 
ATOM     49  C   UNL A   1      38.187  34.529  36.019  1.00  0.00     0.029 A 
ATOM     50  N   UNL A   1      39.698  32.928  35.616  1.00  0.00    -0.354 N 
ATOM     51  C   UNL A   1      39.463  30.450  32.105  1.00  0.00     0.074 A 
ATOM     52  C   UNL A   1      38.333  30.826  31.281  1.00  0.00     0.031 C 
ATOM     53  C   UNL A   1      39.079  34.545  37.026  1.00  0.00     0.029 A 
ATOM     54  C   UNL A   1      40.056  33.474  36.826  1.00  0.00     0.049 A 
ATOM     55  H   UNL A   1      40.216  32.217  35.172  1.00  0.00     0.167 HD
ATOM     56  C   UNL A   1      40.359  29.490  31.775  1.00  0.00     0.037 A 
ATOM     57  C   UNL A   1      41.035  33.125  37.686  1.00  0.00     0.037 A 
ATOM     58  C   UNL A   1      41.477  29.100  32.593  1.00  0.00     0.049 A 
ATOM     59  C   UNL A   1      41.962  31.981  37.343  1.00  0.00     0.074 A 
ATOM     60  C   UNL A   1      42.432  28.128  32.347  1.00  0.00     0.029 A 
ATOM     61  N   UNL A   1      41.787  29.659  33.824  1.00  0.00    -0.354 N 
ATOM     62  N   UNL A   1      41.996  31.231  36.269  1.00  0.00    -0.248 NA
ATOM     63  C   UNL A   1      42.991  31.639  38.339  1.00  0.00     0.031 C 
ATOM     64  C   UNL A   1      43.288  28.062  33.450  1.00  0.00     0.029 A 
ATOM     65  C   UNL A   1      42.906  29.038  34.356  1.00  0.00     0.049 A 
ATOM     66  H   UNL A   1      41.286  30.388  34.256  1.00  0.00     0.167 HD
ATOM     67  C   UNL A   1      43.067  30.360  36.442  1.00  0.00     0.074 A 
ATOM     68  C   UNL A   1      43.667  30.683  37.718  1.00  0.00     0.031 C 
ATOM     69  C   UNL A   1      43.512  29.379  35.617  1.00  0.00     0.037 A 
BRANCH  56  70
ATOM     70  C   UNL A   1      40.157  28.775  30.469  1.00  0.00     0.064 A 
ATOM     71  C   UNL A   1      40.704  29.264  29.272  1.00  0.00     0.173 A 
ATOM     72  C   UNL A   1      39.444  27.568  30.419  1.00  0.00     0.173 A 
ATOM     73  F   UNL A   1      41.383  30.420  29.261  1.00  0.00    -0.203 F 
ATOM     74  C   UNL A   1      40.518  28.585  28.070  1.00  0.00     0.198 A 
ATOM     75  C   UNL A   1      39.290  26.875  29.222  1.00  0.00     0.198 A 
ATOM     76  F   UNL A   1      38.906  27.053  31.534  1.00  0.00    -0.203 F 
ATOM     77  F   UNL A   1      41.007  29.096  26.931  1.00  0.00    -0.200 F 
ATOM     78  C   UNL A   1      39.820  27.387  28.047  1.00  0.00     0.200 A 
ATOM     79  F   UNL A   1      38.627  25.709  29.204  1.00  0.00    -0.200 F 
ATOM     80  F   UNL A   1      39.652  26.729  26.892  1.00  0.00    -0.200 F 
ENDBRANCH  56  70
BRANCH  57  81
ATOM     81  C   UNL A   1      41.186  33.840  38.985  1.00  0.00     0.064 A 
ATOM     82  C   UNL A   1      40.442  33.464  40.114  1.00  0.00     0.173 A 
ATOM     83  C   UNL A   1      42.025  34.959  39.105  1.00  0.00     0.173 A 
ATOM     84  F   UNL A   1      39.598  32.424  40.043  1.00  0.00    -0.203 F 
ATOM     85  C   UNL A   1      40.506  34.198  41.298  1.00  0.00     0.198 A 
ATOM     86  C   UNL A   1      42.115  35.670  40.301  1.00  0.00     0.198 A 
ATOM     87  F   UNL A   1      42.749  35.372  38.055  1.00  0.00    -0.203 F 
ATOM     88  F   UNL A   1      39.728  33.858  42.335  1.00  0.00    -0.200 F 
ATOM     89  C   UNL A   1      41.346  35.296  41.392  1.00  0.00     0.200 A 
ATOM     90  F   UNL A   1      42.933  36.728  40.389  1.00  0.00    -0.200 F 
ATOM     91  F   UNL A   1      41.400  36.006  42.528  1.00  0.00    -0.200 F 
ENDBRANCH  57  81
BRANCH  69  92
ATOM     92  C   UNL A   1      44.744  28.620  36.035  1.00  0.00     0.064 A 
ATOM     93  C   UNL A   1      44.671  27.437  36.784  1.00  0.00     0.173 A 
ATOM     94  C   UNL A   1      46.016  29.067  35.641  1.00  0.00     0.173 A 
ATOM     95  F   UNL A   1      43.482  26.971  37.196  1.00  0.00    -0.203 F 
ATOM     96  C   UNL A   1      45.825  26.748  37.152  1.00  0.00     0.198 A 
ATOM     97  C   UNL A   1      47.165  28.357  35.980  1.00  0.00     0.198 A 
ATOM     98  F   UNL A   1      46.146  30.186  34.913  1.00  0.00    -0.203 F 
ATOM     99  F   UNL A   1      45.733  25.650  37.915  1.00  0.00    -0.200 F 
ATOM    100  C   UNL A   1      47.070  27.204  36.744  1.00  0.00     0.200 A 
ATOM    101  F   UNL A   1      48.365  28.789  35.569  1.00  0.00    -0.200 F 
ATOM    102  F   UNL A   1      48.178  26.535  37.091  1.00  0.00    -0.200 F 
ENDBRANCH  69  92
ENDBRANCH  43  44
ENDBRANCH  36  38
ENDBRANCH  35  36
ENDBRANCH  34  35
ENDBRANCH  33  34
ENDBRANCH  32  33
ENDBRANCH  31  32
ENDBRANCH   1  31
TORSDOF 22
ENDMDL
