MODEL 1
REMARK VINA RESULT:     -10.7      0.000      0.000
REMARK SMILES O=C(NCc1ccsc1)NC[C@H]1CC[C@@H](C(=O)OCCOCCOCCOC(=O)c2ccc(-c3c4nc(c(-c5c(F)c(F)c(F)c(F)c5F)c5ccc([nH]5)c(-c5c(F)c(F)c(F)c(F)c5F)c5nc(c(-c6c(F)c(F)c(F)c(F)c6F)c6ccc3[nH]6)C=C5)C=C4)cc2)CC1
REMARK SMILES IDX 22 1 21 2 20 3 19 4 18 5 16 6 17 7 15 8 12 9 13 10 94 11
REMARK SMILES IDX 14 12 93 13 11 14 10 15 1 16 2 17 3 18 4 21 5 22 6 23 9 24
REMARK SMILES IDX 7 25 8 26 23 27 24 28 25 29 26 30 27 31 28 32 29 33 30 34
REMARK SMILES IDX 31 35 92 36 32 37 91 38 33 39 34 40 35 41 85 42 36 43 90 44
REMARK SMILES IDX 84 45 86 46 37 47 89 48 83 49 82 50 38 52 70 53 50 54 69 55
REMARK SMILES IDX 51 56 54 57 68 58 87 59 52 60 53 61 67 63 88 64 55 65 39 66
REMARK SMILES IDX 40 67 48 68 41 69 42 70 46 71 49 72 43 73 44 74 47 75 45 76
REMARK SMILES IDX 71 77 72 78 80 79 73 80 74 81 78 82 81 83 75 84 76 85 79 86
REMARK SMILES IDX 77 87 56 88 57 89 65 90 58 91 59 92 63 93 66 94 60 95 61 96
REMARK SMILES IDX 64 97 62 98
REMARK H PARENT 3 19 10 20 86 51 54 62
REMARK Flexibility Score: inf
ROOT
ATOM      1  C   UNL A   1      34.301  28.587  27.073  1.00  0.00     0.188 C 
ENDROOT
BRANCH   1   2
ATOM      2  O   UNL A   1      33.206  27.707  26.850  1.00  0.00    -0.376 OA
BRANCH   2   3
ATOM      3  C   UNL A   1      33.248  26.816  25.742  1.00  0.00     0.202 C 
BRANCH   3   4
ATOM      4  C   UNL A   1      33.364  25.307  26.016  1.00  0.00     0.261 C 
BRANCH   4   5
ATOM      5  O   UNL A   1      32.174  24.505  25.820  1.00  0.00    -0.463 OA
BRANCH   5   6
ATOM      6  C   UNL A   1      32.358  23.250  25.331  1.00  0.00     0.309 C 
ATOM      7  O   UNL A   1      33.067  22.408  25.873  1.00  0.00    -0.252 OA
BRANCH   6   8
ATOM      8  C   UNL A   1      31.697  22.963  23.972  1.00  0.00     0.099 C 
ATOM      9  C   UNL A   1      32.453  25.121  22.031  1.00  0.00     0.008 C 
ATOM     10  C   UNL A   1      33.451  24.067  22.555  1.00  0.00     0.006 C 
ATOM     11  C   UNL A   1      31.199  25.243  22.914  1.00  0.00     0.006 C 
ATOM     12  C   UNL A   1      32.801  22.743  22.944  1.00  0.00     0.015 C 
ATOM     13  C   UNL A   1      30.647  23.890  23.348  1.00  0.00     0.015 C 
BRANCH   9  14
ATOM     14  C   UNL A   1      33.086  26.522  21.859  1.00  0.00     0.121 C 
BRANCH  14  15
ATOM     15  N   UNL A   1      32.223  27.586  22.318  1.00  0.00    -0.338 N 
ATOM     16  O   UNL A   1      33.860  29.082  22.829  1.00  0.00    -0.249 OA
ATOM     17  C   UNL A   1      32.683  28.740  22.858  1.00  0.00     0.315 C 
ATOM     18  N   UNL A   1      31.771  29.524  23.478  1.00  0.00    -0.334 N 
ATOM     19  H   UNL A   1      32.094  30.422  23.717  1.00  0.00     0.165 HD
ATOM     20  H   UNL A   1      31.250  27.467  22.233  1.00  0.00     0.165 HD
BRANCH  18  21
ATOM     21  C   UNL A   1      30.396  29.258  23.845  1.00  0.00     0.154 C 
BRANCH  21  22
ATOM     22  C   UNL A   1      29.516  30.204  23.086  1.00  0.00    -0.018 A 
ATOM     23  C   UNL A   1      28.682  31.206  23.687  1.00  0.00     0.017 A 
ATOM     24  C   UNL A   1      29.387  30.229  21.708  1.00  0.00     0.070 A 
ATOM     25  C   UNL A   1      27.976  31.939  22.758  1.00  0.00     0.065 A 
ATOM     26  S   UNL A   1      28.303  31.432  21.160  1.00  0.00    -0.152 S 
ENDBRANCH  21  22
ENDBRANCH  18  21
ENDBRANCH  14  15
ENDBRANCH   9  14
ENDBRANCH   6   8
ENDBRANCH   5   6
ENDBRANCH   4   5
ENDBRANCH   3   4
ENDBRANCH   2   3
ENDBRANCH   1   2
BRANCH   1  27
ATOM     27  C   UNL A   1      34.092  30.098  26.900  1.00  0.00     0.188 C 
BRANCH  27  28
ATOM     28  O   UNL A   1      32.948  30.436  26.149  1.00  0.00    -0.376 OA
BRANCH  28  29
ATOM     29  C   UNL A   1      31.824  30.932  26.844  1.00  0.00     0.202 C 
BRANCH  29  30
ATOM     30  C   UNL A   1      31.725  32.461  26.913  1.00  0.00     0.261 C 
BRANCH  30  31
ATOM     31  O   UNL A   1      32.977  33.172  26.925  1.00  0.00    -0.460 OA
BRANCH  31  32
ATOM     32  C   UNL A   1      33.253  33.939  28.005  1.00  0.00     0.338 C 
ATOM     33  O   UNL A   1      32.538  34.794  28.501  1.00  0.00    -0.246 OA
BRANCH  32  34
ATOM     34  C   UNL A   1      34.468  33.375  28.644  1.00  0.00     0.060 A 
ATOM     35  C   UNL A   1      34.329  32.391  29.635  1.00  0.00     0.016 A 
ATOM     36  C   UNL A   1      35.739  33.766  28.219  1.00  0.00     0.016 A 
ATOM     37  C   UNL A   1      35.461  31.795  30.202  1.00  0.00     0.010 A 
ATOM     38  C   UNL A   1      36.869  33.189  28.807  1.00  0.00     0.010 A 
ATOM     39  C   UNL A   1      36.739  32.212  29.811  1.00  0.00    -0.014 A 
BRANCH  39  40
ATOM     40  C   UNL A   1      37.948  31.774  30.555  1.00  0.00     0.031 A 
ATOM     41  C   UNL A   1      38.813  30.709  29.940  1.00  0.00     0.074 A 
ATOM     42  C   UNL A   1      38.260  32.273  31.764  1.00  0.00     0.049 A 
ATOM     43  N   UNL A   1      39.822  30.053  30.453  1.00  0.00    -0.248 NA
ATOM     44  C   UNL A   1      38.486  30.329  28.557  1.00  0.00     0.031 C 
ATOM     45  C   UNL A   1      37.541  33.343  32.451  1.00  0.00     0.029 A 
ATOM     46  N   UNL A   1      39.257  31.918  32.641  1.00  0.00    -0.354 N 
ATOM     47  C   UNL A   1      40.238  29.172  29.464  1.00  0.00     0.074 A 
ATOM     48  C   UNL A   1      39.361  29.361  28.329  1.00  0.00     0.031 C 
ATOM     49  C   UNL A   1      38.107  33.542  33.655  1.00  0.00     0.029 A 
ATOM     50  C   UNL A   1      39.195  32.582  33.843  1.00  0.00     0.049 A 
ATOM     51  H   UNL A   1      39.951  31.252  32.429  1.00  0.00     0.167 HD
ATOM     52  C   UNL A   1      41.263  28.286  29.498  1.00  0.00     0.037 A 
ATOM     53  C   UNL A   1      39.906  32.405  34.975  1.00  0.00     0.037 A 
ATOM     54  C   UNL A   1      42.133  28.096  30.627  1.00  0.00     0.049 A 
ATOM     55  C   UNL A   1      40.976  31.340  35.025  1.00  0.00     0.074 A 
ATOM     56  C   UNL A   1      43.212  27.237  30.748  1.00  0.00     0.029 A 
ATOM     57  N   UNL A   1      42.015  28.763  31.837  1.00  0.00    -0.354 N 
ATOM     58  N   UNL A   1      41.383  30.524  34.081  1.00  0.00    -0.248 NA
ATOM     59  C   UNL A   1      41.684  31.166  36.303  1.00  0.00     0.031 C 
ATOM     60  C   UNL A   1      43.706  27.337  32.052  1.00  0.00     0.029 A 
ATOM     61  C   UNL A   1      42.980  28.308  32.723  1.00  0.00     0.049 A 
ATOM     62  H   UNL A   1      41.347  29.458  32.038  1.00  0.00     0.167 HD
ATOM     63  C   UNL A   1      42.405  29.767  34.640  1.00  0.00     0.074 A 
ATOM     64  C   UNL A   1      42.570  30.226  36.002  1.00  0.00     0.031 C 
ATOM     65  C   UNL A   1      43.143  28.779  34.075  1.00  0.00     0.037 A 
BRANCH  52  66
ATOM     66  C   UNL A   1      41.475  27.427  28.286  1.00  0.00     0.064 A 
ATOM     67  C   UNL A   1      40.752  26.242  28.082  1.00  0.00     0.173 A 
ATOM     68  C   UNL A   1      42.392  27.815  27.297  1.00  0.00     0.173 A 
ATOM     69  F   UNL A   1      39.874  25.819  29.004  1.00  0.00    -0.203 F 
ATOM     70  C   UNL A   1      40.959  25.464  26.947  1.00  0.00     0.198 A 
ATOM     71  C   UNL A   1      42.573  27.052  26.147  1.00  0.00     0.198 A 
ATOM     72  F   UNL A   1      43.107  28.941  27.440  1.00  0.00    -0.203 F 
ATOM     73  F   UNL A   1      40.296  24.309  26.797  1.00  0.00    -0.200 F 
ATOM     74  C   UNL A   1      41.863  25.873  25.977  1.00  0.00     0.200 A 
ATOM     75  F   UNL A   1      43.435  27.457  25.204  1.00  0.00    -0.200 F 
ATOM     76  F   UNL A   1      42.054  25.127  24.880  1.00  0.00    -0.200 F 
ENDBRANCH  52  66
BRANCH  53  77
ATOM     77  C   UNL A   1      39.615  33.231  36.180  1.00  0.00     0.064 A 
ATOM     78  C   UNL A   1      38.678  32.811  37.134  1.00  0.00     0.173 A 
ATOM     79  C   UNL A   1      40.237  34.471  36.383  1.00  0.00     0.173 A 
ATOM     80  F   UNL A   1      38.030  31.648  36.969  1.00  0.00    -0.203 F 
ATOM     81  C   UNL A   1      38.361  33.607  38.233  1.00  0.00     0.198 A 
ATOM     82  C   UNL A   1      39.944  35.253  37.498  1.00  0.00     0.198 A 
ATOM     83  F   UNL A   1      41.132  34.928  35.494  1.00  0.00    -0.203 F 
ATOM     84  F   UNL A   1      37.419  33.206  39.099  1.00  0.00    -0.200 F 
ATOM     85  C   UNL A   1      38.999  34.825  38.418  1.00  0.00     0.200 A 
ATOM     86  F   UNL A   1      40.568  36.425  37.677  1.00  0.00    -0.200 F 
ATOM     87  F   UNL A   1      38.694  35.590  39.475  1.00  0.00    -0.200 F 
ENDBRANCH  53  77
BRANCH  65  88
ATOM     88  C   UNL A   1      44.225  28.146  34.905  1.00  0.00     0.064 A 
ATOM     89  C   UNL A   1      43.987  27.004  35.682  1.00  0.00     0.173 A 
ATOM     90  C   UNL A   1      45.535  28.649  34.864  1.00  0.00     0.173 A 
ATOM     91  F   UNL A   1      42.751  26.490  35.767  1.00  0.00    -0.203 F 
ATOM     92  C   UNL A   1      45.016  26.401  36.403  1.00  0.00     0.198 A 
ATOM     93  C   UNL A   1      46.568  28.024  35.559  1.00  0.00     0.198 A 
ATOM     94  F   UNL A   1      45.822  29.734  34.128  1.00  0.00    -0.203 F 
ATOM     95  F   UNL A   1      44.756  25.333  37.171  1.00  0.00    -0.200 F 
ATOM     96  C   UNL A   1      46.306  26.904  36.332  1.00  0.00     0.200 A 
ATOM     97  F   UNL A   1      47.817  28.503  35.474  1.00  0.00    -0.200 F 
ATOM     98  F   UNL A   1      47.297  26.311  37.011  1.00  0.00    -0.200 F 
ENDBRANCH  65  88
ENDBRANCH  39  40
ENDBRANCH  32  34
ENDBRANCH  31  32
ENDBRANCH  30  31
ENDBRANCH  29  30
ENDBRANCH  28  29
ENDBRANCH  27  28
ENDBRANCH   1  27
TORSDOF 21
ENDMDL
MODEL 2
REMARK VINA RESULT:     -10.7      4.813      9.407
REMARK SMILES O=C(NCc1ccsc1)NC[C@H]1CC[C@@H](C(=O)OCCOCCOCCOC(=O)c2ccc(-c3c4nc(c(-c5c(F)c(F)c(F)c(F)c5F)c5ccc([nH]5)c(-c5c(F)c(F)c(F)c(F)c5F)c5nc(c(-c6c(F)c(F)c(F)c(F)c6F)c6ccc3[nH]6)C=C5)C=C4)cc2)CC1
REMARK SMILES IDX 22 1 21 2 20 3 19 4 18 5 16 6 17 7 15 8 12 9 13 10 94 11
REMARK SMILES IDX 14 12 93 13 11 14 10 15 1 16 2 17 3 18 4 21 5 22 6 23 9 24
REMARK SMILES IDX 7 25 8 26 23 27 24 28 25 29 26 30 27 31 28 32 29 33 30 34
REMARK SMILES IDX 31 35 92 36 32 37 91 38 33 39 34 40 35 41 85 42 36 43 90 44
REMARK SMILES IDX 84 45 86 46 37 47 89 48 83 49 82 50 38 52 70 53 50 54 69 55
REMARK SMILES IDX 51 56 54 57 68 58 87 59 52 60 53 61 67 63 88 64 55 65 39 66
REMARK SMILES IDX 40 67 48 68 41 69 42 70 46 71 49 72 43 73 44 74 47 75 45 76
REMARK SMILES IDX 71 77 72 78 80 79 73 80 74 81 78 82 81 83 75 84 76 85 79 86
REMARK SMILES IDX 77 87 56 88 57 89 65 90 58 91 59 92 63 93 66 94 60 95 61 96
REMARK SMILES IDX 64 97 62 98
REMARK H PARENT 3 19 10 20 86 51 54 62
REMARK Flexibility Score: inf
ROOT
ATOM      1  C   UNL A   1      34.224  34.784  27.961  1.00  0.00     0.188 C 
ENDROOT
BRANCH   1   2
ATOM      2  O   UNL A   1      34.526  33.403  28.123  1.00  0.00    -0.376 OA
BRANCH   2   3
ATOM      3  C   UNL A   1      33.486  32.445  27.979  1.00  0.00     0.202 C 
BRANCH   3   4
ATOM      4  C   UNL A   1      33.866  30.990  27.654  1.00  0.00     0.261 C 
BRANCH   4   5
ATOM      5  O   UNL A   1      32.796  30.100  27.256  1.00  0.00    -0.463 OA
BRANCH   5   6
ATOM      6  C   UNL A   1      32.308  30.257  25.997  1.00  0.00     0.309 C 
ATOM      7  O   UNL A   1      31.354  30.979  25.724  1.00  0.00    -0.252 OA
BRANCH   6   8
ATOM      8  C   UNL A   1      32.964  29.381  24.915  1.00  0.00     0.099 C 
ATOM      9  C   UNL A   1      31.853  26.600  25.091  1.00  0.00     0.008 C 
ATOM     10  C   UNL A   1      31.030  27.810  24.600  1.00  0.00     0.006 C 
ATOM     11  C   UNL A   1      33.102  27.015  25.887  1.00  0.00     0.006 C 
ATOM     12  C   UNL A   1      31.873  28.909  23.961  1.00  0.00     0.015 C 
ATOM     13  C   UNL A   1      33.853  28.177  25.249  1.00  0.00     0.015 C 
BRANCH   9  14
ATOM     14  C   UNL A   1      31.023  25.605  25.936  1.00  0.00     0.121 C 
BRANCH  14  15
ATOM     15  N   UNL A   1      31.789  24.453  26.355  1.00  0.00    -0.338 N 
ATOM     16  O   UNL A   1      30.065  23.282  27.269  1.00  0.00    -0.249 OA
ATOM     17  C   UNL A   1      31.266  23.431  27.074  1.00  0.00     0.315 C 
ATOM     18  N   UNL A   1      32.148  22.558  27.614  1.00  0.00    -0.334 N 
ATOM     19  H   UNL A   1      31.744  21.744  27.991  1.00  0.00     0.165 HD
ATOM     20  H   UNL A   1      32.739  24.408  26.102  1.00  0.00     0.165 HD
BRANCH  18  21
ATOM     21  C   UNL A   1      33.590  22.627  27.727  1.00  0.00     0.154 C 
BRANCH  21  22
ATOM     22  C   UNL A   1      34.186  21.749  26.669  1.00  0.00    -0.018 A 
ATOM     23  C   UNL A   1      33.480  20.707  25.977  1.00  0.00     0.017 A 
ATOM     24  C   UNL A   1      35.495  21.823  26.228  1.00  0.00     0.070 A 
ATOM     25  C   UNL A   1      34.267  20.054  25.053  1.00  0.00     0.065 A 
ATOM     26  S   UNL A   1      35.855  20.679  25.009  1.00  0.00    -0.152 S 
ENDBRANCH  21  22
ENDBRANCH  18  21
ENDBRANCH  14  15
ENDBRANCH   9  14
ENDBRANCH   6   8
ENDBRANCH   5   6
ENDBRANCH   4   5
ENDBRANCH   3   4
ENDBRANCH   2   3
ENDBRANCH   1   2
BRANCH   1  27
ATOM     27  C   UNL A   1      33.379  35.493  29.030  1.00  0.00     0.188 C 
BRANCH  27  28
ATOM     28  O   UNL A   1      33.263  34.776  30.237  1.00  0.00    -0.376 OA
BRANCH  28  29
ATOM     29  C   UNL A   1      33.620  35.436  31.434  1.00  0.00     0.202 C 
BRANCH  29  30
ATOM     30  C   UNL A   1      34.793  34.806  32.198  1.00  0.00     0.261 C 
BRANCH  30  31
ATOM     31  O   UNL A   1      35.587  33.858  31.461  1.00  0.00    -0.460 OA
BRANCH  31  32
ATOM     32  C   UNL A   1      35.418  32.545  31.744  1.00  0.00     0.338 C 
ATOM     33  O   UNL A   1      34.399  32.004  32.140  1.00  0.00    -0.246 OA
BRANCH  32  34
ATOM     34  C   UNL A   1      36.615  31.830  31.235  1.00  0.00     0.060 A 
ATOM     35  C   UNL A   1      37.473  31.193  32.145  1.00  0.00     0.016 A 
ATOM     36  C   UNL A   1      36.853  31.733  29.863  1.00  0.00     0.016 A 
ATOM     37  C   UNL A   1      38.569  30.456  31.685  1.00  0.00     0.010 A 
ATOM     38  C   UNL A   1      37.964  31.018  29.406  1.00  0.00     0.010 A 
ATOM     39  C   UNL A   1      38.837  30.388  30.312  1.00  0.00    -0.014 A 
BRANCH  39  40
ATOM     40  C   UNL A   1      40.113  29.817  29.809  1.00  0.00     0.031 A 
ATOM     41  C   UNL A   1      41.301  30.730  29.688  1.00  0.00     0.074 A 
ATOM     42  C   UNL A   1      40.218  28.530  29.430  1.00  0.00     0.049 A 
ATOM     43  N   UNL A   1      42.468  30.515  29.137  1.00  0.00    -0.248 NA
ATOM     44  C   UNL A   1      41.144  32.075  30.263  1.00  0.00     0.031 C 
ATOM     45  C   UNL A   1      39.165  27.525  29.543  1.00  0.00     0.029 A 
ATOM     46  N   UNL A   1      41.265  27.859  28.844  1.00  0.00    -0.354 N 
ATOM     47  C   UNL A   1      43.176  31.701  29.283  1.00  0.00     0.074 A 
ATOM     48  C   UNL A   1      42.302  32.638  29.954  1.00  0.00     0.031 C 
ATOM     49  C   UNL A   1      39.611  26.369  29.020  1.00  0.00     0.029 A 
ATOM     50  C   UNL A   1      40.961  26.566  28.492  1.00  0.00     0.049 A 
ATOM     51  H   UNL A   1      42.149  28.265  28.692  1.00  0.00     0.167 HD
ATOM     52  C   UNL A   1      44.443  31.981  28.895  1.00  0.00     0.037 A 
ATOM     53  C   UNL A   1      41.675  25.663  27.790  1.00  0.00     0.037 A 
ATOM     54  C   UNL A   1      45.311  31.050  28.224  1.00  0.00     0.049 A 
ATOM     55  C   UNL A   1      43.047  26.033  27.276  1.00  0.00     0.074 A 
ATOM     56  C   UNL A   1      46.618  31.237  27.811  1.00  0.00     0.029 A 
ATOM     57  N   UNL A   1      44.954  29.762  27.856  1.00  0.00    -0.354 N 
ATOM     58  N   UNL A   1      43.723  27.146  27.435  1.00  0.00    -0.248 NA
ATOM     59  C   UNL A   1      43.755  25.020  26.477  1.00  0.00     0.031 C 
ATOM     60  C   UNL A   1      47.031  30.085  27.134  1.00  0.00     0.029 A 
ATOM     61  C   UNL A   1      46.005  29.155  27.186  1.00  0.00     0.049 A 
ATOM     62  H   UNL A   1      44.085  29.340  28.043  1.00  0.00     0.167 HD
ATOM     63  C   UNL A   1      44.937  26.956  26.787  1.00  0.00     0.074 A 
ATOM     64  C   UNL A   1      44.915  25.617  26.241  1.00  0.00     0.031 C 
ATOM     65  C   UNL A   1      45.978  27.816  26.655  1.00  0.00     0.037 A 
BRANCH  52  66
ATOM     66  C   UNL A   1      44.955  33.368  29.154  1.00  0.00     0.064 A 
ATOM     67  C   UNL A   1      44.796  34.403  28.220  1.00  0.00     0.173 A 
ATOM     68  C   UNL A   1      45.583  33.673  30.371  1.00  0.00     0.173 A 
ATOM     69  F   UNL A   1      44.215  34.160  27.036  1.00  0.00    -0.203 F 
ATOM     70  C   UNL A   1      45.272  35.684  28.484  1.00  0.00     0.198 A 
ATOM     71  C   UNL A   1      46.029  34.963  30.646  1.00  0.00     0.198 A 
ATOM     72  F   UNL A   1      45.758  32.721  31.300  1.00  0.00    -0.203 F 
ATOM     73  F   UNL A   1      45.156  36.645  27.557  1.00  0.00    -0.200 F 
ATOM     74  C   UNL A   1      45.880  35.965  29.699  1.00  0.00     0.200 A 
ATOM     75  F   UNL A   1      46.602  35.236  31.826  1.00  0.00    -0.200 F 
ATOM     76  F   UNL A   1      46.330  37.202  29.955  1.00  0.00    -0.200 F 
ENDBRANCH  52  66
BRANCH  53  77
ATOM     77  C   UNL A   1      41.101  24.322  27.492  1.00  0.00     0.064 A 
ATOM     78  C   UNL A   1      41.597  23.168  28.116  1.00  0.00     0.173 A 
ATOM     79  C   UNL A   1      40.073  24.160  26.551  1.00  0.00     0.173 A 
ATOM     80  F   UNL A   1      42.603  23.264  28.997  1.00  0.00    -0.203 F 
ATOM     81  C   UNL A   1      41.101  21.905  27.797  1.00  0.00     0.198 A 
ATOM     82  C   UNL A   1      39.555  22.901  26.256  1.00  0.00     0.198 A 
ATOM     83  F   UNL A   1      39.571  25.229  25.915  1.00  0.00    -0.203 F 
ATOM     84  F   UNL A   1      41.633  20.815  28.366  1.00  0.00    -0.200 F 
ATOM     85  C   UNL A   1      40.075  21.773  26.872  1.00  0.00     0.200 A 
ATOM     86  F   UNL A   1      38.560  22.778  25.367  1.00  0.00    -0.200 F 
ATOM     87  F   UNL A   1      39.599  20.559  26.566  1.00  0.00    -0.200 F 
ENDBRANCH  53  77
BRANCH  65  88
ATOM     88  C   UNL A   1      47.202  27.333  25.927  1.00  0.00     0.064 A 
ATOM     89  C   UNL A   1      47.375  27.546  24.552  1.00  0.00     0.173 A 
ATOM     90  C   UNL A   1      48.245  26.710  26.630  1.00  0.00     0.173 A 
ATOM     91  F   UNL A   1      46.404  28.124  23.829  1.00  0.00    -0.203 F 
ATOM     92  C   UNL A   1      48.541  27.137  23.905  1.00  0.00     0.198 A 
ATOM     93  C   UNL A   1      49.422  26.334  25.987  1.00  0.00     0.198 A 
ATOM     94  F   UNL A   1      48.136  26.491  27.949  1.00  0.00    -0.203 F 
ATOM     95  F   UNL A   1      48.668  27.316  22.582  1.00  0.00    -0.200 F 
ATOM     96  C   UNL A   1      49.566  26.543  24.625  1.00  0.00     0.200 A 
ATOM     97  F   UNL A   1      50.418  25.776  26.689  1.00  0.00    -0.200 F 
ATOM     98  F   UNL A   1      50.692  26.168  24.004  1.00  0.00    -0.200 F 
ENDBRANCH  65  88
ENDBRANCH  39  40
ENDBRANCH  32  34
ENDBRANCH  31  32
ENDBRANCH  30  31
ENDBRANCH  29  30
ENDBRANCH  28  29
ENDBRANCH  27  28
ENDBRANCH   1  27
TORSDOF 21
ENDMDL
MODEL 3
REMARK VINA RESULT:     -10.5      1.413      2.394
REMARK SMILES O=C(NCc1ccsc1)NC[C@H]1CC[C@@H](C(=O)OCCOCCOCCOC(=O)c2ccc(-c3c4nc(c(-c5c(F)c(F)c(F)c(F)c5F)c5ccc([nH]5)c(-c5c(F)c(F)c(F)c(F)c5F)c5nc(c(-c6c(F)c(F)c(F)c(F)c6F)c6ccc3[nH]6)C=C5)C=C4)cc2)CC1
REMARK SMILES IDX 22 1 21 2 20 3 19 4 18 5 16 6 17 7 15 8 12 9 13 10 94 11
REMARK SMILES IDX 14 12 93 13 11 14 10 15 1 16 2 17 3 18 4 21 5 22 6 23 9 24
REMARK SMILES IDX 7 25 8 26 23 27 24 28 25 29 26 30 27 31 28 32 29 33 30 34
REMARK SMILES IDX 31 35 92 36 32 37 91 38 33 39 34 40 35 41 85 42 36 43 90 44
REMARK SMILES IDX 84 45 86 46 37 47 89 48 83 49 82 50 38 52 70 53 50 54 69 55
REMARK SMILES IDX 51 56 54 57 68 58 87 59 52 60 53 61 67 63 88 64 55 65 39 66
REMARK SMILES IDX 40 67 48 68 41 69 42 70 46 71 49 72 43 73 44 74 47 75 45 76
REMARK SMILES IDX 71 77 72 78 80 79 73 80 74 81 78 82 81 83 75 84 76 85 79 86
REMARK SMILES IDX 77 87 56 88 57 89 65 90 58 91 59 92 63 93 66 94 60 95 61 96
REMARK SMILES IDX 64 97 62 98
REMARK H PARENT 3 19 10 20 86 51 54 62
REMARK Flexibility Score: inf
ROOT
ATOM      1  C   UNL A   1      33.996  27.885  26.002  1.00  0.00     0.188 C 
ENDROOT
BRANCH   1   2
ATOM      2  O   UNL A   1      33.277  26.658  26.044  1.00  0.00    -0.376 OA
BRANCH   2   3
ATOM      3  C   UNL A   1      31.958  26.646  26.574  1.00  0.00     0.202 C 
BRANCH   3   4
ATOM      4  C   UNL A   1      31.115  25.369  26.419  1.00  0.00     0.261 C 
BRANCH   4   5
ATOM      5  O   UNL A   1      31.619  24.163  27.043  1.00  0.00    -0.463 OA
BRANCH   5   6
ATOM      6  C   UNL A   1      31.398  22.996  26.382  1.00  0.00     0.309 C 
ATOM      7  O   UNL A   1      30.279  22.572  26.110  1.00  0.00    -0.252 OA
BRANCH   6   8
ATOM      8  C   UNL A   1      32.652  22.159  26.074  1.00  0.00     0.099 C 
ATOM      9  C   UNL A   1      33.530  22.699  23.257  1.00  0.00     0.008 C 
ATOM     10  C   UNL A   1      33.650  23.736  24.395  1.00  0.00     0.006 C 
ATOM     11  C   UNL A   1      32.534  21.573  23.582  1.00  0.00     0.006 C 
ATOM     12  C   UNL A   1      33.801  23.116  25.780  1.00  0.00     0.015 C 
ATOM     13  C   UNL A   1      32.670  21.055  25.009  1.00  0.00     0.015 C 
BRANCH   9  14
ATOM     14  C   UNL A   1      33.150  23.332  21.897  1.00  0.00     0.121 C 
BRANCH  14  15
ATOM     15  N   UNL A   1      32.317  24.504  22.039  1.00  0.00    -0.338 N 
ATOM     16  O   UNL A   1      33.027  25.587  20.168  1.00  0.00    -0.249 OA
ATOM     17  C   UNL A   1      32.396  25.579  21.219  1.00  0.00     0.315 C 
ATOM     18  N   UNL A   1      31.749  26.697  21.622  1.00  0.00    -0.334 N 
ATOM     19  H   UNL A   1      31.685  27.405  20.941  1.00  0.00     0.165 HD
ATOM     20  H   UNL A   1      31.658  24.522  22.769  1.00  0.00     0.165 HD
BRANCH  18  21
ATOM     21  C   UNL A   1      31.135  27.021  22.893  1.00  0.00     0.154 C 
BRANCH  21  22
ATOM     22  C   UNL A   1      30.183  28.157  22.677  1.00  0.00    -0.018 A 
ATOM     23  C   UNL A   1      28.819  28.179  23.125  1.00  0.00     0.017 A 
ATOM     24  C   UNL A   1      30.493  29.331  22.010  1.00  0.00     0.070 A 
ATOM     25  C   UNL A   1      28.168  29.347  22.793  1.00  0.00     0.065 A 
ATOM     26  S   UNL A   1      29.181  30.425  21.940  1.00  0.00    -0.152 S 
ENDBRANCH  21  22
ENDBRANCH  18  21
ENDBRANCH  14  15
ENDBRANCH   9  14
ENDBRANCH   6   8
ENDBRANCH   5   6
ENDBRANCH   4   5
ENDBRANCH   3   4
ENDBRANCH   2   3
ENDBRANCH   1   2
BRANCH   1  27
ATOM     27  C   UNL A   1      33.215  29.206  25.939  1.00  0.00     0.188 C 
BRANCH  27  28
ATOM     28  O   UNL A   1      33.748  30.227  26.751  1.00  0.00    -0.376 OA
BRANCH  28  29
ATOM     29  C   UNL A   1      32.859  31.202  27.254  1.00  0.00     0.202 C 
BRANCH  29  30
ATOM     30  C   UNL A   1      33.510  32.537  27.641  1.00  0.00     0.261 C 
BRANCH  30  31
ATOM     31  O   UNL A   1      32.605  33.630  27.883  1.00  0.00    -0.460 OA
BRANCH  31  32
ATOM     32  C   UNL A   1      33.074  34.688  28.585  1.00  0.00     0.338 C 
ATOM     33  O   UNL A   1      32.522  35.764  28.749  1.00  0.00    -0.246 OA
BRANCH  32  34
ATOM     34  C   UNL A   1      34.260  34.220  29.343  1.00  0.00     0.060 A 
ATOM     35  C   UNL A   1      35.544  34.565  28.891  1.00  0.00     0.016 A 
ATOM     36  C   UNL A   1      34.105  33.501  30.530  1.00  0.00     0.016 A 
ATOM     37  C   UNL A   1      36.675  34.192  29.627  1.00  0.00     0.010 A 
ATOM     38  C   UNL A   1      35.238  33.107  31.249  1.00  0.00     0.010 A 
ATOM     39  C   UNL A   1      36.529  33.436  30.796  1.00  0.00    -0.014 A 
BRANCH  39  40
ATOM     40  C   UNL A   1      37.707  32.828  31.467  1.00  0.00     0.031 A 
ATOM     41  C   UNL A   1      38.363  31.643  30.814  1.00  0.00     0.074 A 
ATOM     42  C   UNL A   1      38.170  33.284  32.644  1.00  0.00     0.049 A 
ATOM     43  N   UNL A   1      39.297  30.849  31.270  1.00  0.00    -0.248 NA
ATOM     44  C   UNL A   1      37.891  31.307  29.462  1.00  0.00     0.031 C 
ATOM     45  C   UNL A   1      37.665  34.453  33.359  1.00  0.00     0.029 A 
ATOM     46  N   UNL A   1      39.162  32.792  33.460  1.00  0.00    -0.354 N 
ATOM     47  C   UNL A   1      39.511  29.910  30.270  1.00  0.00     0.074 A 
ATOM     48  C   UNL A   1      38.597  30.219  29.193  1.00  0.00     0.031 C 
ATOM     49  C   UNL A   1      38.334  34.574  34.520  1.00  0.00     0.029 A 
ATOM     50  C   UNL A   1      39.278  33.465  34.652  1.00  0.00     0.049 A 
ATOM     51  H   UNL A   1      39.734  32.029  33.213  1.00  0.00     0.167 HD
ATOM     52  C   UNL A   1      40.394  28.883  30.251  1.00  0.00     0.037 A 
ATOM     53  C   UNL A   1      40.031  33.193  35.737  1.00  0.00     0.037 A 
ATOM     54  C   UNL A   1      41.301  28.573  31.324  1.00  0.00     0.049 A 
ATOM     55  C   UNL A   1      40.934  31.981  35.734  1.00  0.00     0.074 A 
ATOM     56  C   UNL A   1      42.248  27.565  31.387  1.00  0.00     0.029 A 
ATOM     57  N   UNL A   1      41.365  29.258  32.528  1.00  0.00    -0.354 N 
ATOM     58  N   UNL A   1      41.151  31.108  34.779  1.00  0.00    -0.248 NA
ATOM     59  C   UNL A   1      41.693  31.713  36.966  1.00  0.00     0.031 C 
ATOM     60  C   UNL A   1      42.839  27.600  32.654  1.00  0.00     0.029 A 
ATOM     61  C   UNL A   1      42.310  28.671  33.355  1.00  0.00     0.049 A 
ATOM     62  H   UNL A   1      40.822  30.045  32.760  1.00  0.00     0.167 HD
ATOM     63  C   UNL A   1      42.087  30.212  35.282  1.00  0.00     0.074 A 
ATOM     64  C   UNL A   1      42.409  30.651  36.622  1.00  0.00     0.031 C 
ATOM     65  C   UNL A   1      42.632  29.122  34.686  1.00  0.00     0.037 A 
BRANCH  52  66
ATOM     66  C   UNL A   1      40.396  27.994  29.042  1.00  0.00     0.064 A 
ATOM     67  C   UNL A   1      41.184  28.275  27.916  1.00  0.00     0.173 A 
ATOM     68  C   UNL A   1      39.622  26.823  29.025  1.00  0.00     0.173 A 
ATOM     69  F   UNL A   1      41.931  29.389  27.876  1.00  0.00    -0.203 F 
ATOM     70  C   UNL A   1      41.176  27.433  26.808  1.00  0.00     0.198 A 
ATOM     71  C   UNL A   1      39.641  25.965  27.929  1.00  0.00     0.198 A 
ATOM     72  F   UNL A   1      38.852  26.505  30.077  1.00  0.00    -0.203 F 
ATOM     73  F   UNL A   1      41.896  27.748  25.723  1.00  0.00    -0.200 F 
ATOM     74  C   UNL A   1      40.411  26.275  26.818  1.00  0.00     0.200 A 
ATOM     75  F   UNL A   1      38.914  24.840  27.947  1.00  0.00    -0.200 F 
ATOM     76  F   UNL A   1      40.412  25.460  25.754  1.00  0.00    -0.200 F 
ENDBRANCH  52  66
BRANCH  53  77
ATOM     77  C   UNL A   1      39.946  34.060  36.945  1.00  0.00     0.064 A 
ATOM     78  C   UNL A   1      39.077  33.747  38.000  1.00  0.00     0.173 A 
ATOM     79  C   UNL A   1      40.702  35.237  37.053  1.00  0.00     0.173 A 
ATOM     80  F   UNL A   1      38.307  32.651  37.930  1.00  0.00    -0.203 F 
ATOM     81  C   UNL A   1      38.954  34.586  39.105  1.00  0.00     0.198 A 
ATOM     82  C   UNL A   1      40.602  36.059  38.173  1.00  0.00     0.198 A 
ATOM     83  F   UNL A   1      41.539  35.591  36.067  1.00  0.00    -0.203 F 
ATOM     84  F   UNL A   1      38.073  34.292  40.072  1.00  0.00    -0.200 F 
ATOM     85  C   UNL A   1      39.721  35.739  39.195  1.00  0.00     0.200 A 
ATOM     86  F   UNL A   1      41.350  37.168  38.259  1.00  0.00    -0.200 F 
ATOM     87  F   UNL A   1      39.601  36.545  40.258  1.00  0.00    -0.200 F 
ENDBRANCH  53  77
BRANCH  65  88
ATOM     88  C   UNL A   1      43.663  28.342  35.453  1.00  0.00     0.064 A 
ATOM     89  C   UNL A   1      45.033  28.616  35.337  1.00  0.00     0.173 A 
ATOM     90  C   UNL A   1      43.268  27.354  36.369  1.00  0.00     0.173 A 
ATOM     91  F   UNL A   1      45.466  29.541  34.466  1.00  0.00    -0.203 F 
ATOM     92  C   UNL A   1      45.971  27.917  36.096  1.00  0.00     0.198 A 
ATOM     93  C   UNL A   1      44.204  26.682  37.150  1.00  0.00     0.198 A 
ATOM     94  F   UNL A   1      41.969  27.058  36.527  1.00  0.00    -0.203 F 
ATOM     95  F   UNL A   1      47.278  28.169  35.939  1.00  0.00    -0.200 F 
ATOM     96  C   UNL A   1      45.555  26.961  37.009  1.00  0.00     0.200 A 
ATOM     97  F   UNL A   1      43.798  25.770  38.044  1.00  0.00    -0.200 F 
ATOM     98  F   UNL A   1      46.457  26.303  37.750  1.00  0.00    -0.200 F 
ENDBRANCH  65  88
ENDBRANCH  39  40
ENDBRANCH  32  34
ENDBRANCH  31  32
ENDBRANCH  30  31
ENDBRANCH  29  30
ENDBRANCH  28  29
ENDBRANCH  27  28
ENDBRANCH   1  27
TORSDOF 21
ENDMDL
