MODEL 1
REMARK VINA RESULT:     -10.3      0.000      0.000
REMARK SMILES O=C(OCCOCCOCCOC(=O)[C@@]1([NH2+]C2CC2)CC[C@H](OC2CCC2)C1)c1ccc(-c2c3nc(c(-c4c(F)c(F)c(F)c(F)c4F)c4ccc([nH]4)c(-c4c(F)c(F)c(F)c(F)c4F)c4nc(c(-c5c(F)c(F)c(F)c(F)c5F)c5ccc2[nH]5)C=C4)C=C3)cc1
REMARK SMILES IDX 7 1 6 2 5 3 4 4 3 5 2 6 1 7 29 8 30 9 91 10 31 11 90 12
REMARK SMILES IDX 32 13 33 14 34 15 84 16 35 17 89 18 83 19 85 20 36 21 88 22
REMARK SMILES IDX 82 23 81 24 37 26 69 27 49 28 68 29 50 30 53 31 67 32 86 33
REMARK SMILES IDX 51 34 52 35 66 37 87 38 54 39 38 40 39 41 47 42 40 43 41 44
REMARK SMILES IDX 45 45 48 46 42 47 43 48 46 49 44 50 70 51 71 52 79 53 72 54
REMARK SMILES IDX 73 55 77 56 80 57 74 58 75 59 78 60 76 61 55 62 56 63 64 64
REMARK SMILES IDX 57 65 58 66 62 67 65 68 59 69 60 70 63 71 61 72 8 73 9 74
REMARK SMILES IDX 10 75 11 76 12 77 13 78 14 79 15 80 20 81 28 82 21 83 22 84
REMARK SMILES IDX 16 85 17 88 18 89 19 90 23 91 24 92 25 93 27 94 26 95
REMARK H PARENT 85 25 53 36 16 86 16 87
REMARK Flexibility Score: inf
ROOT
ATOM      1  C   UNL A   1      39.800  19.687  25.833  1.00  0.00     0.188 C 
ENDROOT
BRANCH   1   2
ATOM      2  O   UNL A   1      40.768  20.186  26.763  1.00  0.00    -0.376 OA
BRANCH   2   3
ATOM      3  C   UNL A   1      42.083  19.681  26.506  1.00  0.00     0.202 C 
BRANCH   3   4
ATOM      4  C   UNL A   1      43.075  20.690  25.900  1.00  0.00     0.261 C 
BRANCH   4   5
ATOM      5  O   UNL A   1      42.473  21.843  25.288  1.00  0.00    -0.460 OA
BRANCH   5   6
ATOM      6  C   UNL A   1      42.942  23.100  25.113  1.00  0.00     0.338 C 
ATOM      7  O   UNL A   1      43.848  23.260  24.295  1.00  0.00    -0.246 OA
BRANCH   6   8
ATOM      8  C   UNL A   1      42.463  24.313  25.858  1.00  0.00     0.060 A 
ATOM      9  C   UNL A   1      42.916  25.624  25.688  1.00  0.00     0.016 A 
ATOM     10  C   UNL A   1      41.434  24.106  26.796  1.00  0.00     0.016 A 
ATOM     11  C   UNL A   1      42.424  26.687  26.453  1.00  0.00     0.010 A 
ATOM     12  C   UNL A   1      40.927  25.164  27.562  1.00  0.00     0.010 A 
ATOM     13  C   UNL A   1      41.453  26.460  27.420  1.00  0.00    -0.014 A 
BRANCH  13  14
ATOM     14  C   UNL A   1      41.188  27.473  28.468  1.00  0.00     0.031 A 
ATOM     15  C   UNL A   1      42.002  27.347  29.720  1.00  0.00     0.074 A 
ATOM     16  C   UNL A   1      40.337  28.508  28.322  1.00  0.00     0.049 A 
ATOM     17  N   UNL A   1      41.901  28.000  30.843  1.00  0.00    -0.248 NA
ATOM     18  C   UNL A   1      43.135  26.402  29.669  1.00  0.00     0.031 C 
ATOM     19  C   UNL A   1      39.723  28.949  27.076  1.00  0.00     0.029 A 
ATOM     20  N   UNL A   1      39.793  29.355  29.260  1.00  0.00    -0.354 N 
ATOM     21  C   UNL A   1      42.990  27.597  31.600  1.00  0.00     0.074 A 
ATOM     22  C   UNL A   1      43.690  26.578  30.856  1.00  0.00     0.031 C 
ATOM     23  C   UNL A   1      38.764  29.852  27.343  1.00  0.00     0.029 A 
ATOM     24  C   UNL A   1      38.706  30.063  28.780  1.00  0.00     0.049 A 
ATOM     25  H   UNL A   1      40.141  29.448  30.176  1.00  0.00     0.167 HD
ATOM     26  C   UNL A   1      43.388  28.083  32.796  1.00  0.00     0.037 A 
ATOM     27  C   UNL A   1      37.749  30.728  29.459  1.00  0.00     0.037 A 
ATOM     28  C   UNL A   1      42.632  29.061  33.526  1.00  0.00     0.049 A 
ATOM     29  C   UNL A   1      37.969  30.924  30.929  1.00  0.00     0.074 A 
ATOM     30  C   UNL A   1      42.907  29.642  34.746  1.00  0.00     0.029 A 
ATOM     31  N   UNL A   1      41.413  29.573  33.096  1.00  0.00    -0.354 N 
ATOM     32  N   UNL A   1      38.963  30.501  31.671  1.00  0.00    -0.248 NA
ATOM     33  C   UNL A   1      36.991  31.757  31.637  1.00  0.00     0.031 C 
ATOM     34  C   UNL A   1      41.812  30.440  35.096  1.00  0.00     0.029 A 
ATOM     35  C   UNL A   1      40.891  30.417  34.059  1.00  0.00     0.049 A 
ATOM     36  H   UNL A   1      40.984  29.365  32.235  1.00  0.00     0.167 HD
ATOM     37  C   UNL A   1      38.790  31.100  32.904  1.00  0.00     0.074 A 
ATOM     38  C   UNL A   1      37.541  31.837  32.840  1.00  0.00     0.031 C 
ATOM     39  C   UNL A   1      39.635  31.113  33.963  1.00  0.00     0.037 A 
BRANCH  26  40
ATOM     40  C   UNL A   1      44.645  27.510  33.377  1.00  0.00     0.064 A 
ATOM     41  C   UNL A   1      44.626  26.413  34.255  1.00  0.00     0.173 A 
ATOM     42  C   UNL A   1      45.883  28.106  33.102  1.00  0.00     0.173 A 
ATOM     43  F   UNL A   1      43.464  25.822  34.573  1.00  0.00    -0.203 F 
ATOM     44  C   UNL A   1      45.792  25.968  34.873  1.00  0.00     0.198 A 
ATOM     45  C   UNL A   1      47.051  27.640  33.697  1.00  0.00     0.198 A 
ATOM     46  F   UNL A   1      45.956  29.161  32.277  1.00  0.00    -0.203 F 
ATOM     47  F   UNL A   1      45.737  24.974  35.770  1.00  0.00    -0.200 F 
ATOM     48  C   UNL A   1      47.004  26.582  34.593  1.00  0.00     0.200 A 
ATOM     49  F   UNL A   1      48.222  28.231  33.422  1.00  0.00    -0.200 F 
ATOM     50  F   UNL A   1      48.124  26.167  35.202  1.00  0.00    -0.200 F 
ENDBRANCH  26  40
BRANCH  27  51
ATOM     51  C   UNL A   1      36.489  31.201  28.820  1.00  0.00     0.064 A 
ATOM     52  C   UNL A   1      35.434  30.349  28.479  1.00  0.00     0.173 A 
ATOM     53  C   UNL A   1      36.331  32.566  28.515  1.00  0.00     0.173 A 
ATOM     54  F   UNL A   1      35.548  29.030  28.688  1.00  0.00    -0.203 F 
ATOM     55  C   UNL A   1      34.257  30.845  27.912  1.00  0.00     0.198 A 
ATOM     56  C   UNL A   1      35.152  33.063  27.960  1.00  0.00     0.198 A 
ATOM     57  F   UNL A   1      37.329  33.424  28.769  1.00  0.00    -0.203 F 
ATOM     58  F   UNL A   1      33.263  30.003  27.597  1.00  0.00    -0.200 F 
ATOM     59  C   UNL A   1      34.108  32.203  27.671  1.00  0.00     0.200 A 
ATOM     60  F   UNL A   1      35.021  34.379  27.737  1.00  0.00    -0.200 F 
ATOM     61  F   UNL A   1      32.965  32.681  27.160  1.00  0.00    -0.200 F 
ENDBRANCH  27  51
BRANCH  39  62
ATOM     62  C   UNL A   1      39.279  32.036  35.081  1.00  0.00     0.064 A 
ATOM     63  C   UNL A   1      38.556  31.609  36.201  1.00  0.00     0.173 A 
ATOM     64  C   UNL A   1      39.705  33.371  35.028  1.00  0.00     0.173 A 
ATOM     65  F   UNL A   1      38.098  30.350  36.270  1.00  0.00    -0.203 F 
ATOM     66  C   UNL A   1      38.265  32.496  37.231  1.00  0.00     0.198 A 
ATOM     67  C   UNL A   1      39.443  34.244  36.075  1.00  0.00     0.198 A 
ATOM     68  F   UNL A   1      40.387  33.823  33.964  1.00  0.00    -0.203 F 
ATOM     69  F   UNL A   1      37.532  32.086  38.275  1.00  0.00    -0.200 F 
ATOM     70  C   UNL A   1      38.720  33.806  37.173  1.00  0.00     0.200 A 
ATOM     71  F   UNL A   1      39.891  35.506  36.021  1.00  0.00    -0.200 F 
ATOM     72  F   UNL A   1      38.452  34.653  38.177  1.00  0.00    -0.200 F 
ENDBRANCH  39  62
ENDBRANCH  13  14
ENDBRANCH   6   8
ENDBRANCH   5   6
ENDBRANCH   4   5
ENDBRANCH   3   4
ENDBRANCH   2   3
ENDBRANCH   1   2
BRANCH   1  73
ATOM     73  C   UNL A   1      38.635  20.629  25.540  1.00  0.00     0.188 C 
BRANCH  73  74
ATOM     74  O   UNL A   1      38.703  21.935  26.100  1.00  0.00    -0.376 OA
BRANCH  74  75
ATOM     75  C   UNL A   1      37.898  22.947  25.509  1.00  0.00     0.202 C 
BRANCH  75  76
ATOM     76  C   UNL A   1      36.407  22.996  25.873  1.00  0.00     0.261 C 
BRANCH  76  77
ATOM     77  O   UNL A   1      35.778  24.276  25.687  1.00  0.00    -0.459 OA
BRANCH  77  78
ATOM     78  C   UNL A   1      34.945  24.381  24.603  1.00  0.00     0.368 C 
ATOM     79  O   UNL A   1      35.160  23.845  23.525  1.00  0.00    -0.245 OA
BRANCH  78  80
ATOM     80  C   UNL A   1      33.767  25.336  24.873  1.00  0.00     0.197 C 
ATOM     81  C   UNL A   1      33.968  26.446  25.911  1.00  0.00     0.084 C 
ATOM     82  C   UNL A   1      33.675  26.239  23.613  1.00  0.00     0.113 C 
ATOM     83  C   UNL A   1      32.867  27.431  25.564  1.00  0.00     0.039 C 
ATOM     84  C   UNL A   1      32.768  27.401  24.041  1.00  0.00     0.125 C 
BRANCH  80  85
ATOM     85  N   UNL A   1      32.473  24.625  24.968  1.00  0.00    -0.330 N 
ATOM     86  H   UNL A   1      32.239  24.369  24.009  1.00  0.00     0.347 HD
ATOM     87  H   UNL A   1      31.940  25.309  25.504  1.00  0.00     0.347 HD
BRANCH  85  88
ATOM     88  C   UNL A   1      32.201  23.433  25.754  1.00  0.00     0.183 C 
ATOM     89  C   UNL A   1      31.336  23.256  26.962  1.00  0.00     0.071 C 
ATOM     90  C   UNL A   1      30.821  22.814  25.633  1.00  0.00     0.071 C 
ENDBRANCH  85  88
ENDBRANCH  80  85
BRANCH  84  91
ATOM     91  O   UNL A   1      31.438  27.092  23.639  1.00  0.00    -0.375 OA
BRANCH  91  92
ATOM     92  C   UNL A   1      30.366  28.044  23.811  1.00  0.00     0.118 C 
ATOM     93  C   UNL A   1      30.270  29.274  22.891  1.00  0.00     0.032 C 
ATOM     94  C   UNL A   1      28.942  27.651  23.421  1.00  0.00     0.032 C 
ATOM     95  C   UNL A   1      28.846  28.878  22.505  1.00  0.00     0.005 C 
ENDBRANCH  91  92
ENDBRANCH  84  91
ENDBRANCH  78  80
ENDBRANCH  77  78
ENDBRANCH  76  77
ENDBRANCH  75  76
ENDBRANCH  74  75
ENDBRANCH  73  74
ENDBRANCH   1  73
TORSDOF 21
ENDMDL
MODEL 2
REMARK VINA RESULT:     -10.1      4.846      6.941
REMARK SMILES O=C(OCCOCCOCCOC(=O)[C@@]1([NH2+]C2CC2)CC[C@H](OC2CCC2)C1)c1ccc(-c2c3nc(c(-c4c(F)c(F)c(F)c(F)c4F)c4ccc([nH]4)c(-c4c(F)c(F)c(F)c(F)c4F)c4nc(c(-c5c(F)c(F)c(F)c(F)c5F)c5ccc2[nH]5)C=C4)C=C3)cc1
REMARK SMILES IDX 7 1 6 2 5 3 4 4 3 5 2 6 1 7 29 8 30 9 91 10 31 11 90 12
REMARK SMILES IDX 32 13 33 14 34 15 84 16 35 17 89 18 83 19 85 20 36 21 88 22
REMARK SMILES IDX 82 23 81 24 37 26 69 27 49 28 68 29 50 30 53 31 67 32 86 33
REMARK SMILES IDX 51 34 52 35 66 37 87 38 54 39 38 40 39 41 47 42 40 43 41 44
REMARK SMILES IDX 45 45 48 46 42 47 43 48 46 49 44 50 70 51 71 52 79 53 72 54
REMARK SMILES IDX 73 55 77 56 80 57 74 58 75 59 78 60 76 61 55 62 56 63 64 64
REMARK SMILES IDX 57 65 58 66 62 67 65 68 59 69 60 70 63 71 61 72 8 73 9 74
REMARK SMILES IDX 10 75 11 76 12 77 13 78 14 79 15 80 20 81 28 82 21 83 22 84
REMARK SMILES IDX 16 85 17 88 18 89 19 90 23 91 24 92 25 93 27 94 26 95
REMARK H PARENT 85 25 53 36 16 86 16 87
REMARK Flexibility Score: inf
ROOT
ATOM      1  C   UNL A   1      40.694  19.849  26.481  1.00  0.00     0.188 C 
ENDROOT
BRANCH   1   2
ATOM      2  O   UNL A   1      41.639  18.995  25.825  1.00  0.00    -0.376 OA
BRANCH   2   3
ATOM      3  C   UNL A   1      42.545  18.375  26.745  1.00  0.00     0.202 C 
BRANCH   3   4
ATOM      4  C   UNL A   1      43.837  17.812  26.126  1.00  0.00     0.261 C 
BRANCH   4   5
ATOM      5  O   UNL A   1      44.159  18.321  24.820  1.00  0.00    -0.460 OA
BRANCH   5   6
ATOM      6  C   UNL A   1      45.007  19.302  24.436  1.00  0.00     0.338 C 
ATOM      7  O   UNL A   1      46.051  18.965  23.876  1.00  0.00    -0.246 OA
BRANCH   6   8
ATOM      8  C   UNL A   1      44.790  20.771  24.661  1.00  0.00     0.060 A 
ATOM      9  C   UNL A   1      44.776  21.768  23.683  1.00  0.00     0.016 A 
ATOM     10  C   UNL A   1      44.545  21.171  25.989  1.00  0.00     0.016 A 
ATOM     11  C   UNL A   1      44.592  23.119  23.998  1.00  0.00     0.010 A 
ATOM     12  C   UNL A   1      44.350  22.519  26.316  1.00  0.00     0.010 A 
ATOM     13  C   UNL A   1      44.413  23.509  25.319  1.00  0.00    -0.014 A 
BRANCH  13  14
ATOM     14  C   UNL A   1      44.580  24.927  25.711  1.00  0.00     0.031 A 
ATOM     15  C   UNL A   1      45.991  25.431  25.760  1.00  0.00     0.074 A 
ATOM     16  C   UNL A   1      43.557  25.775  25.939  1.00  0.00     0.049 A 
ATOM     17  N   UNL A   1      46.449  26.573  26.188  1.00  0.00    -0.248 NA
ATOM     18  C   UNL A   1      47.020  24.547  25.178  1.00  0.00     0.031 C 
ATOM     19  C   UNL A   1      42.154  25.535  25.625  1.00  0.00     0.029 A 
ATOM     20  N   UNL A   1      43.538  27.007  26.551  1.00  0.00    -0.354 N 
ATOM     21  C   UNL A   1      47.797  26.571  25.865  1.00  0.00     0.074 A 
ATOM     22  C   UNL A   1      48.110  25.285  25.292  1.00  0.00     0.031 C 
ATOM     23  C   UNL A   1      41.398  26.487  26.198  1.00  0.00     0.029 A 
ATOM     24  C   UNL A   1      42.266  27.412  26.908  1.00  0.00     0.049 A 
ATOM     25  H   UNL A   1      44.347  27.544  26.716  1.00  0.00     0.167 HD
ATOM     26  C   UNL A   1      48.678  27.587  25.998  1.00  0.00     0.037 A 
ATOM     27  C   UNL A   1      41.883  28.374  27.774  1.00  0.00     0.037 A 
ATOM     28  C   UNL A   1      48.335  28.833  26.622  1.00  0.00     0.049 A 
ATOM     29  C   UNL A   1      42.953  29.290  28.288  1.00  0.00     0.074 A 
ATOM     30  C   UNL A   1      49.120  29.948  26.830  1.00  0.00     0.029 A 
ATOM     31  N   UNL A   1      47.089  29.103  27.177  1.00  0.00    -0.354 N 
ATOM     32  N   UNL A   1      44.238  29.268  28.039  1.00  0.00    -0.248 NA
ATOM     33  C   UNL A   1      42.513  30.412  29.125  1.00  0.00     0.031 C 
ATOM     34  C   UNL A   1      48.375  30.860  27.588  1.00  0.00     0.029 A 
ATOM     35  C   UNL A   1      47.103  30.345  27.784  1.00  0.00     0.049 A 
ATOM     36  H   UNL A   1      46.313  28.500  27.143  1.00  0.00     0.167 HD
ATOM     37  C   UNL A   1      44.747  30.425  28.598  1.00  0.00     0.074 A 
ATOM     38  C   UNL A   1      43.648  31.076  29.285  1.00  0.00     0.031 C 
ATOM     39  C   UNL A   1      45.992  30.946  28.475  1.00  0.00     0.037 A 
BRANCH  26  40
ATOM     40  C   UNL A   1      50.074  27.342  25.512  1.00  0.00     0.064 A 
ATOM     41  C   UNL A   1      50.427  27.487  24.159  1.00  0.00     0.173 A 
ATOM     42  C   UNL A   1      51.060  26.893  26.401  1.00  0.00     0.173 A 
ATOM     43  F   UNL A   1      49.513  27.887  23.261  1.00  0.00    -0.203 F 
ATOM     44  C   UNL A   1      51.699  27.144  23.709  1.00  0.00     0.198 A 
ATOM     45  C   UNL A   1      52.340  26.581  25.953  1.00  0.00     0.198 A 
ATOM     46  F   UNL A   1      50.774  26.731  27.701  1.00  0.00    -0.203 F 
ATOM     47  F   UNL A   1      51.987  27.212  22.402  1.00  0.00    -0.200 F 
ATOM     48  C   UNL A   1      52.655  26.692  24.607  1.00  0.00     0.200 A 
ATOM     49  F   UNL A   1      53.264  26.149  26.822  1.00  0.00    -0.200 F 
ATOM     50  F   UNL A   1      53.874  26.344  24.171  1.00  0.00    -0.200 F 
ENDBRANCH  26  40
BRANCH  27  51
ATOM     51  C   UNL A   1      40.483  28.504  28.266  1.00  0.00     0.064 A 
ATOM     52  C   UNL A   1      40.060  28.024  29.510  1.00  0.00     0.173 A 
ATOM     53  C   UNL A   1      39.512  29.118  27.455  1.00  0.00     0.173 A 
ATOM     54  F   UNL A   1      40.923  27.376  30.303  1.00  0.00    -0.203 F 
ATOM     55  C   UNL A   1      38.743  28.200  29.943  1.00  0.00     0.198 A 
ATOM     56  C   UNL A   1      38.200  29.304  27.891  1.00  0.00     0.198 A 
ATOM     57  F   UNL A   1      39.845  29.550  26.229  1.00  0.00    -0.203 F 
ATOM     58  F   UNL A   1      38.367  27.732  31.141  1.00  0.00    -0.200 F 
ATOM     59  C   UNL A   1      37.819  28.858  29.143  1.00  0.00     0.200 A 
ATOM     60  F   UNL A   1      37.321  29.945  27.108  1.00  0.00    -0.200 F 
ATOM     61  F   UNL A   1      36.566  29.055  29.575  1.00  0.00    -0.200 F 
ENDBRANCH  27  51
BRANCH  39  62
ATOM     62  C   UNL A   1      46.185  32.328  29.006  1.00  0.00     0.064 A 
ATOM     63  C   UNL A   1      46.662  32.573  30.298  1.00  0.00     0.173 A 
ATOM     64  C   UNL A   1      45.909  33.424  28.175  1.00  0.00     0.173 A 
ATOM     65  F   UNL A   1      46.901  31.552  31.135  1.00  0.00    -0.203 F 
ATOM     66  C   UNL A   1      46.849  33.876  30.745  1.00  0.00     0.198 A 
ATOM     67  C   UNL A   1      46.130  34.722  28.613  1.00  0.00     0.198 A 
ATOM     68  F   UNL A   1      45.435  33.231  26.934  1.00  0.00    -0.203 F 
ATOM     69  F   UNL A   1      47.261  34.096  32.001  1.00  0.00    -0.200 F 
ATOM     70  C   UNL A   1      46.596  34.947  29.899  1.00  0.00     0.200 A 
ATOM     71  F   UNL A   1      45.894  35.753  27.791  1.00  0.00    -0.200 F 
ATOM     72  F   UNL A   1      46.794  36.201  30.328  1.00  0.00    -0.200 F 
ENDBRANCH  39  62
ENDBRANCH  13  14
ENDBRANCH   6   8
ENDBRANCH   5   6
ENDBRANCH   4   5
ENDBRANCH   3   4
ENDBRANCH   2   3
ENDBRANCH   1   2
BRANCH   1  73
ATOM     73  C   UNL A   1      40.923  21.345  26.279  1.00  0.00     0.188 C 
BRANCH  73  74
ATOM     74  O   UNL A   1      39.778  22.187  26.333  1.00  0.00    -0.376 OA
BRANCH  74  75
ATOM     75  C   UNL A   1      38.559  21.673  25.810  1.00  0.00     0.202 C 
BRANCH  75  76
ATOM     76  C   UNL A   1      37.568  22.658  25.174  1.00  0.00     0.261 C 
BRANCH  76  77
ATOM     77  O   UNL A   1      36.522  23.118  26.048  1.00  0.00    -0.459 OA
BRANCH  77  78
ATOM     78  C   UNL A   1      35.318  22.474  25.929  1.00  0.00     0.368 C 
ATOM     79  O   UNL A   1      35.179  21.264  26.026  1.00  0.00    -0.245 OA
BRANCH  78  80
ATOM     80  C   UNL A   1      34.181  23.445  25.554  1.00  0.00     0.197 C 
ATOM     81  C   UNL A   1      32.943  23.481  26.456  1.00  0.00     0.084 C 
ATOM     82  C   UNL A   1      34.726  24.860  25.885  1.00  0.00     0.113 C 
ATOM     83  C   UNL A   1      32.312  24.815  26.104  1.00  0.00     0.039 C 
ATOM     84  C   UNL A   1      33.484  25.762  25.864  1.00  0.00     0.125 C 
BRANCH  80  85
ATOM     85  N   UNL A   1      33.891  23.442  24.103  1.00  0.00    -0.330 N 
ATOM     86  H   UNL A   1      34.783  23.646  23.653  1.00  0.00     0.347 HD
ATOM     87  H   UNL A   1      33.101  24.087  24.084  1.00  0.00     0.347 HD
BRANCH  85  88
ATOM     88  C   UNL A   1      33.324  22.342  23.340  1.00  0.00     0.183 C 
ATOM     89  C   UNL A   1      32.408  21.243  23.776  1.00  0.00     0.071 C 
ATOM     90  C   UNL A   1      31.841  22.401  23.025  1.00  0.00     0.071 C 
ENDBRANCH  85  88
ENDBRANCH  80  85
BRANCH  84  91
ATOM     91  O   UNL A   1      33.388  26.350  24.571  1.00  0.00    -0.375 OA
BRANCH  91  92
ATOM     92  C   UNL A   1      32.572  27.518  24.340  1.00  0.00     0.118 C 
ATOM     93  C   UNL A   1      31.958  28.278  25.530  1.00  0.00     0.032 C 
ATOM     94  C   UNL A   1      33.229  28.812  23.862  1.00  0.00     0.032 C 
ATOM     95  C   UNL A   1      32.617  29.569  25.047  1.00  0.00     0.005 C 
ENDBRANCH  91  92
ENDBRANCH  84  91
ENDBRANCH  78  80
ENDBRANCH  77  78
ENDBRANCH  76  77
ENDBRANCH  75  76
ENDBRANCH  74  75
ENDBRANCH  73  74
ENDBRANCH   1  73
TORSDOF 21
ENDMDL
MODEL 3
REMARK VINA RESULT:     -10.1      3.025      8.897
REMARK SMILES O=C(OCCOCCOCCOC(=O)[C@@]1([NH2+]C2CC2)CC[C@H](OC2CCC2)C1)c1ccc(-c2c3nc(c(-c4c(F)c(F)c(F)c(F)c4F)c4ccc([nH]4)c(-c4c(F)c(F)c(F)c(F)c4F)c4nc(c(-c5c(F)c(F)c(F)c(F)c5F)c5ccc2[nH]5)C=C4)C=C3)cc1
REMARK SMILES IDX 7 1 6 2 5 3 4 4 3 5 2 6 1 7 29 8 30 9 91 10 31 11 90 12
REMARK SMILES IDX 32 13 33 14 34 15 84 16 35 17 89 18 83 19 85 20 36 21 88 22
REMARK SMILES IDX 82 23 81 24 37 26 69 27 49 28 68 29 50 30 53 31 67 32 86 33
REMARK SMILES IDX 51 34 52 35 66 37 87 38 54 39 38 40 39 41 47 42 40 43 41 44
REMARK SMILES IDX 45 45 48 46 42 47 43 48 46 49 44 50 70 51 71 52 79 53 72 54
REMARK SMILES IDX 73 55 77 56 80 57 74 58 75 59 78 60 76 61 55 62 56 63 64 64
REMARK SMILES IDX 57 65 58 66 62 67 65 68 59 69 60 70 63 71 61 72 8 73 9 74
REMARK SMILES IDX 10 75 11 76 12 77 13 78 14 79 15 80 20 81 28 82 21 83 22 84
REMARK SMILES IDX 16 85 17 88 18 89 19 90 23 91 24 92 25 93 27 94 26 95
REMARK H PARENT 85 25 53 36 16 86 16 87
REMARK Flexibility Score: inf
ROOT
ATOM      1  C   UNL A   1      33.889  28.973  27.247  1.00  0.00     0.188 C 
ENDROOT
BRANCH   1   2
ATOM      2  O   UNL A   1      33.599  30.372  27.354  1.00  0.00    -0.376 OA
BRANCH   2   3
ATOM      3  C   UNL A   1      32.290  30.695  26.873  1.00  0.00     0.202 C 
BRANCH   3   4
ATOM      4  C   UNL A   1      31.829  32.142  27.126  1.00  0.00     0.261 C 
BRANCH   4   5
ATOM      5  O   UNL A   1      32.887  33.109  27.231  1.00  0.00    -0.460 OA
BRANCH   5   6
ATOM      6  C   UNL A   1      33.263  33.905  28.258  1.00  0.00     0.338 C 
ATOM      7  O   UNL A   1      32.540  34.864  28.529  1.00  0.00    -0.246 OA
BRANCH   6   8
ATOM      8  C   UNL A   1      34.508  33.728  29.079  1.00  0.00     0.060 A 
ATOM      9  C   UNL A   1      35.760  34.292  28.821  1.00  0.00     0.016 A 
ATOM     10  C   UNL A   1      34.387  32.938  30.239  1.00  0.00     0.016 A 
ATOM     11  C   UNL A   1      36.871  34.043  29.634  1.00  0.00     0.010 A 
ATOM     12  C   UNL A   1      35.489  32.690  31.066  1.00  0.00     0.010 A 
ATOM     13  C   UNL A   1      36.753  33.212  30.741  1.00  0.00    -0.014 A 
BRANCH  13  14
ATOM     14  C   UNL A   1      37.962  32.652  31.390  1.00  0.00     0.031 A 
ATOM     15  C   UNL A   1      38.508  31.396  30.780  1.00  0.00     0.074 A 
ATOM     16  C   UNL A   1      38.613  33.240  32.413  1.00  0.00     0.049 A 
ATOM     17  N   UNL A   1      39.464  30.618  31.203  1.00  0.00    -0.248 NA
ATOM     18  C   UNL A   1      37.943  31.006  29.473  1.00  0.00     0.031 C 
ATOM     19  C   UNL A   1      38.404  34.597  32.900  1.00  0.00     0.029 A 
ATOM     20  N   UNL A   1      39.560  32.736  33.275  1.00  0.00    -0.354 N 
ATOM     21  C   UNL A   1      39.659  29.693  30.188  1.00  0.00     0.074 A 
ATOM     22  C   UNL A   1      38.668  29.943  29.170  1.00  0.00     0.031 C 
ATOM     23  C   UNL A   1      39.054  34.760  34.065  1.00  0.00     0.029 A 
ATOM     24  C   UNL A   1      39.736  33.521  34.399  1.00  0.00     0.049 A 
ATOM     25  H   UNL A   1      40.059  31.904  33.108  1.00  0.00     0.167 HD
ATOM     26  C   UNL A   1      40.623  28.751  30.106  1.00  0.00     0.037 A 
ATOM     27  C   UNL A   1      40.319  33.213  35.577  1.00  0.00     0.037 A 
ATOM     28  C   UNL A   1      41.557  28.504  31.167  1.00  0.00     0.049 A 
ATOM     29  C   UNL A   1      41.073  31.919  35.645  1.00  0.00     0.074 A 
ATOM     30  C   UNL A   1      42.583  27.583  31.228  1.00  0.00     0.029 A 
ATOM     31  N   UNL A   1      41.541  29.176  32.384  1.00  0.00    -0.354 N 
ATOM     32  N   UNL A   1      41.219  31.008  34.716  1.00  0.00    -0.248 NA
ATOM     33  C   UNL A   1      41.811  31.651  36.884  1.00  0.00     0.031 C 
ATOM     34  C   UNL A   1      43.132  27.640  32.514  1.00  0.00     0.029 A 
ATOM     35  C   UNL A   1      42.500  28.647  33.227  1.00  0.00     0.049 A 
ATOM     36  H   UNL A   1      40.937  29.919  32.611  1.00  0.00     0.167 HD
ATOM     37  C   UNL A   1      42.147  30.112  35.213  1.00  0.00     0.074 A 
ATOM     38  C   UNL A   1      42.453  30.536  36.567  1.00  0.00     0.031 C 
ATOM     39  C   UNL A   1      42.757  29.086  34.574  1.00  0.00     0.037 A 
BRANCH  26  40
ATOM     40  C   UNL A   1      40.649  27.914  28.864  1.00  0.00     0.064 A 
ATOM     41  C   UNL A   1      41.396  28.284  27.732  1.00  0.00     0.173 A 
ATOM     42  C   UNL A   1      39.863  26.756  28.778  1.00  0.00     0.173 A 
ATOM     43  F   UNL A   1      42.143  29.398  27.751  1.00  0.00    -0.203 F 
ATOM     44  C   UNL A   1      41.316  27.554  26.549  1.00  0.00     0.198 A 
ATOM     45  C   UNL A   1      39.810  26.011  27.604  1.00  0.00     0.198 A 
ATOM     46  F   UNL A   1      39.125  26.363  29.827  1.00  0.00    -0.203 F 
ATOM     47  F   UNL A   1      41.973  27.972  25.459  1.00  0.00    -0.200 F 
ATOM     48  C   UNL A   1      40.523  26.417  26.487  1.00  0.00     0.200 A 
ATOM     49  F   UNL A   1      39.047  24.911  27.547  1.00  0.00    -0.200 F 
ATOM     50  F   UNL A   1      40.431  25.725  25.343  1.00  0.00    -0.200 F 
ENDBRANCH  26  40
BRANCH  27  51
ATOM     51  C   UNL A   1      40.183  34.067  36.790  1.00  0.00     0.064 A 
ATOM     52  C   UNL A   1      39.184  33.881  37.751  1.00  0.00     0.173 A 
ATOM     53  C   UNL A   1      41.077  35.133  36.998  1.00  0.00     0.173 A 
ATOM     54  F   UNL A   1      38.265  32.921  37.581  1.00  0.00    -0.203 F 
ATOM     55  C   UNL A   1      39.118  34.686  38.892  1.00  0.00     0.198 A 
ATOM     56  C   UNL A   1      41.019  35.930  38.140  1.00  0.00     0.198 A 
ATOM     57  F   UNL A   1      42.023  35.395  36.084  1.00  0.00    -0.203 F 
ATOM     58  F   UNL A   1      38.151  34.483  39.796  1.00  0.00    -0.200 F 
ATOM     59  C   UNL A   1      40.047  35.697  39.096  1.00  0.00     0.200 A 
ATOM     60  F   UNL A   1      41.926  36.900  38.326  1.00  0.00    -0.200 F 
ATOM     61  F   UNL A   1      40.001  36.446  40.206  1.00  0.00    -0.200 F 
ENDBRANCH  27  51
BRANCH  39  62
ATOM     62  C   UNL A   1      43.886  28.432  35.301  1.00  0.00     0.064 A 
ATOM     63  C   UNL A   1      45.195  28.922  35.245  1.00  0.00     0.173 A 
ATOM     64  C   UNL A   1      43.626  27.303  36.093  1.00  0.00     0.173 A 
ATOM     65  F   UNL A   1      45.490  29.975  34.468  1.00  0.00    -0.203 F 
ATOM     66  C   UNL A   1      46.213  28.295  35.955  1.00  0.00     0.198 A 
ATOM     67  C   UNL A   1      44.638  26.702  36.829  1.00  0.00     0.198 A 
ATOM     68  F   UNL A   1      42.386  26.794  36.161  1.00  0.00    -0.203 F 
ATOM     69  F   UNL A   1      47.470  28.747  35.855  1.00  0.00    -0.200 F 
ATOM     70  C   UNL A   1      45.931  27.197  36.756  1.00  0.00     0.200 A 
ATOM     71  F   UNL A   1      44.361  25.648  37.607  1.00  0.00    -0.200 F 
ATOM     72  F   UNL A   1      46.911  26.606  37.452  1.00  0.00    -0.200 F 
ENDBRANCH  39  62
ENDBRANCH  13  14
ENDBRANCH   6   8
ENDBRANCH   5   6
ENDBRANCH   4   5
ENDBRANCH   3   4
ENDBRANCH   2   3
ENDBRANCH   1   2
BRANCH   1  73
ATOM     73  C   UNL A   1      32.667  28.062  27.144  1.00  0.00     0.188 C 
BRANCH  73  74
ATOM     74  O   UNL A   1      32.537  27.288  25.958  1.00  0.00    -0.376 OA
BRANCH  74  75
ATOM     75  C   UNL A   1      33.156  27.784  24.778  1.00  0.00     0.202 C 
BRANCH  75  76
ATOM     76  C   UNL A   1      32.336  27.804  23.480  1.00  0.00     0.261 C 
BRANCH  76  77
ATOM     77  O   UNL A   1      31.951  26.510  22.983  1.00  0.00    -0.459 OA
BRANCH  77  78
ATOM     78  C   UNL A   1      32.969  25.730  22.499  1.00  0.00     0.368 C 
ATOM     79  O   UNL A   1      33.695  26.055  21.571  1.00  0.00    -0.245 OA
BRANCH  78  80
ATOM     80  C   UNL A   1      33.019  24.354  23.192  1.00  0.00     0.197 C 
ATOM     81  C   UNL A   1      32.638  23.121  22.364  1.00  0.00     0.084 C 
ATOM     82  C   UNL A   1      34.528  24.037  23.364  1.00  0.00     0.113 C 
ATOM     83  C   UNL A   1      33.254  21.984  23.158  1.00  0.00     0.039 C 
ATOM     84  C   UNL A   1      34.567  22.540  23.701  1.00  0.00     0.125 C 
BRANCH  80  85
ATOM     85  N   UNL A   1      32.445  24.387  24.555  1.00  0.00    -0.330 N 
ATOM     86  H   UNL A   1      32.402  25.376  24.802  1.00  0.00     0.347 HD
ATOM     87  H   UNL A   1      33.067  23.727  25.020  1.00  0.00     0.347 HD
BRANCH  85  88
ATOM     88  C   UNL A   1      31.161  23.840  24.963  1.00  0.00     0.183 C 
ATOM     89  C   UNL A   1      30.849  22.733  25.919  1.00  0.00     0.071 C 
ATOM     90  C   UNL A   1      30.686  24.145  26.371  1.00  0.00     0.071 C 
ENDBRANCH  85  88
ENDBRANCH  80  85
BRANCH  84  91
ATOM     91  O   UNL A   1      34.611  22.408  25.118  1.00  0.00    -0.375 OA
BRANCH  91  92
ATOM     92  C   UNL A   1      35.806  21.959  25.790  1.00  0.00     0.118 C 
ATOM     93  C   UNL A   1      36.616  20.780  25.219  1.00  0.00     0.032 C 
ATOM     94  C   UNL A   1      37.062  22.829  25.754  1.00  0.00     0.032 C 
ATOM     95  C   UNL A   1      37.869  21.654  25.186  1.00  0.00     0.005 C 
ENDBRANCH  91  92
ENDBRANCH  84  91
ENDBRANCH  78  80
ENDBRANCH  77  78
ENDBRANCH  76  77
ENDBRANCH  75  76
ENDBRANCH  74  75
ENDBRANCH  73  74
ENDBRANCH   1  73
TORSDOF 21
ENDMDL
