MODEL 1
REMARK VINA RESULT:     -11.4      0.000      0.000
REMARK SMILES Cc1ccc(C#N)cc1Nc1cc(C)c(N)c(C(=O)OCCOCCOCCOC(=O)c2ccc(-c3c4nc(c(-c5c(F)c(F)c(F)c(F)c5F)c5ccc([nH]5)c(-c5c(F)c(F)c(F)c(F)c5F)c5nc(c(-c6c(F)c(F)c(F)c(F)c6F)c6ccc3[nH]6)C=C5)C=C4)cc2)c1
REMARK SMILES IDX 24 1 23 2 22 3 21 4 20 5 18 6 19 7 17 8 11 9 12 10 95 11
REMARK SMILES IDX 13 12 14 13 15 14 10 15 9 17 1 18 2 19 3 20 4 21 8 22 5 23
REMARK SMILES IDX 6 24 7 25 16 26 25 29 26 30 27 31 28 32 29 33 30 34 31 35
REMARK SMILES IDX 32 36 33 37 94 38 34 39 93 40 35 41 36 42 37 43 87 44 38 45
REMARK SMILES IDX 92 46 86 47 88 48 39 49 91 50 85 51 84 52 40 54 72 55 52 56
REMARK SMILES IDX 71 57 53 58 56 59 70 60 89 61 54 62 55 63 69 65 90 66 57 67
REMARK SMILES IDX 41 68 42 69 50 70 43 71 44 72 48 73 51 74 45 75 46 76 49 77
REMARK SMILES IDX 47 78 73 79 74 80 82 81 75 82 76 83 80 84 83 85 77 86 78 87
REMARK SMILES IDX 81 88 79 89 58 90 59 91 67 92 60 93 61 94 65 95 68 96 62 97
REMARK SMILES IDX 63 98 66 99 64 100
REMARK H PARENT 10 16 16 27 16 28 88 53 56 64
REMARK Flexibility Score: inf
ROOT
ATOM      1  C   UNL A   1      41.430  20.727  27.424  1.00  0.00     0.188 C 
ENDROOT
BRANCH   1   2
ATOM      2  O   UNL A   1      40.144  21.117  27.008  1.00  0.00    -0.376 OA
BRANCH   2   3
ATOM      3  C   UNL A   1      39.841  22.487  26.811  1.00  0.00     0.202 C 
BRANCH   3   4
ATOM      4  C   UNL A   1      38.556  23.058  26.172  1.00  0.00     0.261 C 
BRANCH   4   5
ATOM      5  O   UNL A   1      37.351  22.297  26.273  1.00  0.00    -0.460 OA
BRANCH   5   6
ATOM      6  C   UNL A   1      37.005  21.566  25.182  1.00  0.00     0.340 C 
ATOM      7  O   UNL A   1      37.637  20.637  24.705  1.00  0.00    -0.246 OA
BRANCH   6   8
ATOM      8  C   UNL A   1      35.620  21.918  24.769  1.00  0.00     0.085 A 
ATOM      9  C   UNL A   1      34.079  23.634  24.024  1.00  0.00     0.040 A 
ATOM     10  C   UNL A   1      33.101  22.654  23.856  1.00  0.00     0.031 A 
ATOM     11  C   UNL A   1      35.317  23.264  24.552  1.00  0.00     0.044 A 
ATOM     12  C   UNL A   1      33.359  21.298  24.147  1.00  0.00    -0.025 A 
ATOM     13  C   UNL A   1      32.258  20.318  23.832  1.00  0.00     0.047 C 
ATOM     14  C   UNL A   1      34.648  20.908  24.566  1.00  0.00     0.049 A 
BRANCH   9  15
ATOM     15  N   UNL A   1      33.914  24.899  23.422  1.00  0.00    -0.355 N 
ATOM     16  H   UNL A   1      34.578  25.163  22.745  1.00  0.00     0.167 HD
BRANCH  15  17
ATOM     17  C   UNL A   1      32.878  25.822  23.705  1.00  0.00     0.043 A 
ATOM     18  C   UNL A   1      32.029  25.840  21.282  1.00  0.00     0.046 C 
ATOM     19  C   UNL A   1      31.960  26.246  22.729  1.00  0.00    -0.027 A 
ATOM     20  C   UNL A   1      30.898  27.096  23.108  1.00  0.00     0.007 A 
ATOM     21  C   UNL A   1      30.730  27.516  24.430  1.00  0.00     0.020 A 
ATOM     22  C   UNL A   1      32.700  26.288  25.026  1.00  0.00     0.045 A 
ATOM     23  C   UNL A   1      31.637  27.108  25.398  1.00  0.00     0.054 A 
BRANCH  23  24
ATOM     24  C   UNL A   1      31.503  27.498  26.767  1.00  0.00     0.099 C 
ATOM     25  N   UNL A   1      31.362  27.825  27.875  1.00  0.00    -0.192 NA
ENDBRANCH  23  24
ENDBRANCH  15  17
ENDBRANCH   9  15
BRANCH  14  26
ATOM     26  N   UNL A   1      34.904  19.586  24.953  1.00  0.00    -0.398 N 
ATOM     27  H   UNL A   1      35.711  19.375  25.476  1.00  0.00     0.156 HD
ATOM     28  H   UNL A   1      34.278  18.869  24.703  1.00  0.00     0.156 HD
ENDBRANCH  14  26
ENDBRANCH   6   8
ENDBRANCH   5   6
ENDBRANCH   4   5
ENDBRANCH   3   4
ENDBRANCH   2   3
ENDBRANCH   1   2
BRANCH   1  29
ATOM     29  C   UNL A   1      42.078  19.576  26.625  1.00  0.00     0.188 C 
BRANCH  29  30
ATOM     30  O   UNL A   1      42.730  19.858  25.405  1.00  0.00    -0.376 OA
BRANCH  30  31
ATOM     31  C   UNL A   1      44.112  20.178  25.420  1.00  0.00     0.202 C 
BRANCH  31  32
ATOM     32  C   UNL A   1      44.654  21.625  25.365  1.00  0.00     0.261 C 
BRANCH  32  33
ATOM     33  O   UNL A   1      43.816  22.679  25.866  1.00  0.00    -0.460 OA
BRANCH  33  34
ATOM     34  C   UNL A   1      44.118  23.941  25.463  1.00  0.00     0.338 C 
ATOM     35  O   UNL A   1      44.654  24.276  24.421  1.00  0.00    -0.246 OA
BRANCH  34  36
ATOM     36  C   UNL A   1      43.514  24.900  26.418  1.00  0.00     0.060 A 
ATOM     37  C   UNL A   1      42.597  24.456  27.366  1.00  0.00     0.016 A 
ATOM     38  C   UNL A   1      43.860  26.260  26.354  1.00  0.00     0.016 A 
ATOM     39  C   UNL A   1      42.037  25.373  28.262  1.00  0.00     0.010 A 
ATOM     40  C   UNL A   1      43.284  27.178  27.239  1.00  0.00     0.010 A 
ATOM     41  C   UNL A   1      42.385  26.738  28.219  1.00  0.00    -0.014 A 
BRANCH  41  42
ATOM     42  C   UNL A   1      41.922  27.648  29.301  1.00  0.00     0.031 A 
ATOM     43  C   UNL A   1      40.720  28.534  29.145  1.00  0.00     0.074 A 
ATOM     44  C   UNL A   1      42.601  27.640  30.466  1.00  0.00     0.049 A 
ATOM     45  N   UNL A   1      40.146  29.300  30.040  1.00  0.00    -0.248 NA
ATOM     46  C   UNL A   1      40.079  28.572  27.822  1.00  0.00     0.031 C 
ATOM     47  C   UNL A   1      43.800  26.842  30.727  1.00  0.00     0.029 A 
ATOM     48  N   UNL A   1      42.374  28.296  31.651  1.00  0.00    -0.354 N 
ATOM     49  C   UNL A   1      39.055  29.882  29.406  1.00  0.00     0.074 A 
ATOM     50  C   UNL A   1      39.084  29.429  28.029  1.00  0.00     0.031 C 
ATOM     51  C   UNL A   1      44.173  27.014  32.004  1.00  0.00     0.029 A 
ATOM     52  C   UNL A   1      43.268  27.965  32.642  1.00  0.00     0.049 A 
ATOM     53  H   UNL A   1      41.643  28.942  31.779  1.00  0.00     0.167 HD
ATOM     54  C   UNL A   1      38.106  30.691  29.936  1.00  0.00     0.037 A 
ATOM     55  C   UNL A   1      43.349  28.375  33.923  1.00  0.00     0.037 A 
ATOM     56  C   UNL A   1      38.085  31.145  31.307  1.00  0.00     0.049 A 
ATOM     57  C   UNL A   1      42.319  29.336  34.454  1.00  0.00     0.074 A 
ATOM     58  C   UNL A   1      37.150  31.956  31.929  1.00  0.00     0.029 A 
ATOM     59  N   UNL A   1      39.039  30.835  32.264  1.00  0.00    -0.354 N 
ATOM     60  N   UNL A   1      41.255  29.819  33.863  1.00  0.00    -0.248 NA
ATOM     61  C   UNL A   1      42.500  29.806  35.836  1.00  0.00     0.031 C 
ATOM     62  C   UNL A   1      37.565  32.181  33.243  1.00  0.00     0.029 A 
ATOM     63  C   UNL A   1      38.726  31.461  33.463  1.00  0.00     0.049 A 
ATOM     64  H   UNL A   1      39.821  30.256  32.117  1.00  0.00     0.167 HD
ATOM     65  C   UNL A   1      40.623  30.617  34.808  1.00  0.00     0.074 A 
ATOM     66  C   UNL A   1      41.409  30.535  36.019  1.00  0.00     0.031 C 
ATOM     67  C   UNL A   1      39.496  31.358  34.676  1.00  0.00     0.037 A 
BRANCH  54  68
ATOM     68  C   UNL A   1      36.967  31.129  29.059  1.00  0.00     0.064 A 
ATOM     69  C   UNL A   1      35.911  30.256  28.759  1.00  0.00     0.173 A 
ATOM     70  C   UNL A   1      36.847  32.467  28.648  1.00  0.00     0.173 A 
ATOM     71  F   UNL A   1      35.975  28.968  29.131  1.00  0.00    -0.203 F 
ATOM     72  C   UNL A   1      34.778  30.704  28.083  1.00  0.00     0.198 A 
ATOM     73  C   UNL A   1      35.701  32.918  27.998  1.00  0.00     0.198 A 
ATOM     74  F   UNL A   1      37.820  33.348  28.925  1.00  0.00    -0.203 F 
ATOM     75  F   UNL A   1      33.786  29.848  27.802  1.00  0.00    -0.200 F 
ATOM     76  C   UNL A   1      34.668  32.036  27.717  1.00  0.00     0.200 A 
ATOM     77  F   UNL A   1      35.585  34.212  27.669  1.00  0.00    -0.200 F 
ATOM     78  F   UNL A   1      33.560  32.475  27.102  1.00  0.00    -0.200 F 
ENDBRANCH  54  68
BRANCH  55  79
ATOM     79  C   UNL A   1      44.430  27.861  34.808  1.00  0.00     0.064 A 
ATOM     80  C   UNL A   1      45.682  28.490  34.856  1.00  0.00     0.173 A 
ATOM     81  C   UNL A   1      44.249  26.714  35.596  1.00  0.00     0.173 A 
ATOM     82  F   UNL A   1      45.915  29.578  34.108  1.00  0.00    -0.203 F 
ATOM     83  C   UNL A   1      46.720  27.973  35.629  1.00  0.00     0.198 A 
ATOM     84  C   UNL A   1      45.274  26.222  36.399  1.00  0.00     0.198 A 
ATOM     85  F   UNL A   1      43.071  26.073  35.590  1.00  0.00    -0.203 F 
ATOM     86  F   UNL A   1      47.927  28.556  35.602  1.00  0.00    -0.200 F 
ATOM     87  C   UNL A   1      46.513  26.843  36.405  1.00  0.00     0.200 A 
ATOM     88  F   UNL A   1      45.064  25.140  37.161  1.00  0.00    -0.200 F 
ATOM     89  F   UNL A   1      47.512  26.345  37.147  1.00  0.00    -0.200 F 
ENDBRANCH  55  79
BRANCH  67  90
ATOM     90  C   UNL A   1      39.012  32.122  35.878  1.00  0.00     0.064 A 
ATOM     91  C   UNL A   1      38.233  31.512  36.873  1.00  0.00     0.173 A 
ATOM     92  C   UNL A   1      39.397  33.457  36.075  1.00  0.00     0.173 A 
ATOM     93  F   UNL A   1      37.827  30.242  36.730  1.00  0.00    -0.203 F 
ATOM     94  C   UNL A   1      37.843  32.216  38.010  1.00  0.00     0.198 A 
ATOM     95  C   UNL A   1      39.037  34.147  37.231  1.00  0.00     0.198 A 
ATOM     96  F   UNL A   1      40.149  34.088  35.160  1.00  0.00    -0.203 F 
ATOM     97  F   UNL A   1      37.063  31.625  38.925  1.00  0.00    -0.200 F 
ATOM     98  C   UNL A   1      38.256  33.528  38.194  1.00  0.00     0.200 A 
ATOM     99  F   UNL A   1      39.455  35.407  37.416  1.00  0.00    -0.200 F 
ATOM    100  F   UNL A   1      37.897  34.195  39.299  1.00  0.00    -0.200 F 
ENDBRANCH  67  90
ENDBRANCH  41  42
ENDBRANCH  34  36
ENDBRANCH  33  34
ENDBRANCH  32  33
ENDBRANCH  31  32
ENDBRANCH  30  31
ENDBRANCH  29  30
ENDBRANCH   1  29
TORSDOF 21
ENDMDL
MODEL 2
REMARK VINA RESULT:     -10.8      5.045      8.104
REMARK SMILES Cc1ccc(C#N)cc1Nc1cc(C)c(N)c(C(=O)OCCOCCOCCOC(=O)c2ccc(-c3c4nc(c(-c5c(F)c(F)c(F)c(F)c5F)c5ccc([nH]5)c(-c5c(F)c(F)c(F)c(F)c5F)c5nc(c(-c6c(F)c(F)c(F)c(F)c6F)c6ccc3[nH]6)C=C5)C=C4)cc2)c1
REMARK SMILES IDX 24 1 23 2 22 3 21 4 20 5 18 6 19 7 17 8 11 9 12 10 95 11
REMARK SMILES IDX 13 12 14 13 15 14 10 15 9 17 1 18 2 19 3 20 4 21 8 22 5 23
REMARK SMILES IDX 6 24 7 25 16 26 25 29 26 30 27 31 28 32 29 33 30 34 31 35
REMARK SMILES IDX 32 36 33 37 94 38 34 39 93 40 35 41 36 42 37 43 87 44 38 45
REMARK SMILES IDX 92 46 86 47 88 48 39 49 91 50 85 51 84 52 40 54 72 55 52 56
REMARK SMILES IDX 71 57 53 58 56 59 70 60 89 61 54 62 55 63 69 65 90 66 57 67
REMARK SMILES IDX 41 68 42 69 50 70 43 71 44 72 48 73 51 74 45 75 46 76 49 77
REMARK SMILES IDX 47 78 73 79 74 80 82 81 75 82 76 83 80 84 83 85 77 86 78 87
REMARK SMILES IDX 81 88 79 89 58 90 59 91 67 92 60 93 61 94 65 95 68 96 62 97
REMARK SMILES IDX 63 98 66 99 64 100
REMARK H PARENT 10 16 16 27 16 28 88 53 56 64
REMARK Flexibility Score: inf
ROOT
ATOM      1  C   UNL A   1      41.132  22.344  27.575  1.00  0.00     0.188 C 
ENDROOT
BRANCH   1   2
ATOM      2  O   UNL A   1      39.748  22.197  27.365  1.00  0.00    -0.376 OA
BRANCH   2   3
ATOM      3  C   UNL A   1      39.185  22.472  26.094  1.00  0.00     0.202 C 
BRANCH   3   4
ATOM      4  C   UNL A   1      37.690  22.374  25.714  1.00  0.00     0.261 C 
BRANCH   4   5
ATOM      5  O   UNL A   1      37.045  23.536  25.191  1.00  0.00    -0.460 OA
BRANCH   5   6
ATOM      6  C   UNL A   1      36.235  23.344  24.118  1.00  0.00     0.340 C 
ATOM      7  O   UNL A   1      36.593  23.126  22.972  1.00  0.00    -0.246 OA
BRANCH   6   8
ATOM      8  C   UNL A   1      34.825  23.222  24.577  1.00  0.00     0.085 A 
ATOM      9  C   UNL A   1      32.917  21.780  24.969  1.00  0.00     0.040 A 
ATOM     10  C   UNL A   1      32.243  22.861  25.537  1.00  0.00     0.031 A 
ATOM     11  C   UNL A   1      34.185  21.990  24.425  1.00  0.00     0.044 A 
ATOM     12  C   UNL A   1      32.838  24.137  25.627  1.00  0.00    -0.025 A 
ATOM     13  C   UNL A   1      32.052  25.200  26.348  1.00  0.00     0.047 C 
ATOM     14  C   UNL A   1      34.166  24.319  25.185  1.00  0.00     0.049 A 
BRANCH   9  15
ATOM     15  N   UNL A   1      32.448  20.468  25.189  1.00  0.00    -0.355 N 
ATOM     16  H   UNL A   1      31.876  20.323  25.977  1.00  0.00     0.167 HD
BRANCH  15  17
ATOM     17  C   UNL A   1      32.725  19.342  24.376  1.00  0.00     0.043 A 
ATOM     18  C   UNL A   1      31.691  20.411  22.283  1.00  0.00     0.046 C 
ATOM     19  C   UNL A   1      32.415  19.308  23.006  1.00  0.00    -0.027 A 
ATOM     20  C   UNL A   1      32.806  18.188  22.241  1.00  0.00     0.007 A 
ATOM     21  C   UNL A   1      33.501  17.117  22.810  1.00  0.00     0.020 A 
ATOM     22  C   UNL A   1      33.400  18.233  24.929  1.00  0.00     0.045 A 
ATOM     23  C   UNL A   1      33.803  17.140  24.164  1.00  0.00     0.054 A 
BRANCH  23  24
ATOM     24  C   UNL A   1      34.525  16.077  24.792  1.00  0.00     0.099 C 
ATOM     25  N   UNL A   1      35.096  15.191  25.284  1.00  0.00    -0.192 NA
ENDBRANCH  23  24
ENDBRANCH  15  17
ENDBRANCH   9  15
BRANCH  14  26
ATOM     26  N   UNL A   1      34.747  25.593  25.174  1.00  0.00    -0.398 N 
ATOM     27  H   UNL A   1      35.199  25.920  24.363  1.00  0.00     0.156 HD
ATOM     28  H   UNL A   1      34.704  26.161  25.977  1.00  0.00     0.156 HD
ENDBRANCH  14  26
ENDBRANCH   6   8
ENDBRANCH   5   6
ENDBRANCH   4   5
ENDBRANCH   3   4
ENDBRANCH   2   3
ENDBRANCH   1   2
BRANCH   1  29
ATOM     29  C   UNL A   1      41.953  21.037  27.596  1.00  0.00     0.188 C 
BRANCH  29  30
ATOM     30  O   UNL A   1      42.212  20.359  26.384  1.00  0.00    -0.376 OA
BRANCH  30  31
ATOM     31  C   UNL A   1      42.595  18.995  26.426  1.00  0.00     0.202 C 
BRANCH  31  32
ATOM     32  C   UNL A   1      43.362  18.287  25.284  1.00  0.00     0.261 C 
BRANCH  32  33
ATOM     33  O   UNL A   1      44.765  18.561  25.143  1.00  0.00    -0.460 OA
BRANCH  33  34
ATOM     34  C   UNL A   1      45.128  19.361  24.107  1.00  0.00     0.338 C 
ATOM     35  O   UNL A   1      45.295  19.035  22.945  1.00  0.00    -0.246 OA
BRANCH  34  36
ATOM     36  C   UNL A   1      45.110  20.769  24.567  1.00  0.00     0.060 A 
ATOM     37  C   UNL A   1      45.556  21.092  25.846  1.00  0.00     0.016 A 
ATOM     38  C   UNL A   1      44.628  21.776  23.714  1.00  0.00     0.016 A 
ATOM     39  C   UNL A   1      45.534  22.426  26.265  1.00  0.00     0.010 A 
ATOM     40  C   UNL A   1      44.590  23.108  24.142  1.00  0.00     0.010 A 
ATOM     41  C   UNL A   1      45.068  23.448  25.414  1.00  0.00    -0.014 A 
BRANCH  41  42
ATOM     42  C   UNL A   1      45.236  24.872  25.815  1.00  0.00     0.031 A 
ATOM     43  C   UNL A   1      44.103  25.690  26.364  1.00  0.00     0.074 A 
ATOM     44  C   UNL A   1      46.464  25.417  25.704  1.00  0.00     0.049 A 
ATOM     45  N   UNL A   1      44.131  26.908  26.848  1.00  0.00    -0.248 NA
ATOM     46  C   UNL A   1      42.768  25.073  26.372  1.00  0.00     0.031 C 
ATOM     47  C   UNL A   1      47.636  24.730  25.160  1.00  0.00     0.029 A 
ATOM     48  N   UNL A   1      46.940  26.655  26.059  1.00  0.00    -0.354 N 
ATOM     49  C   UNL A   1      42.834  27.191  27.253  1.00  0.00     0.074 A 
ATOM     50  C   UNL A   1      42.026  26.040  26.900  1.00  0.00     0.031 C 
ATOM     51  C   UNL A   1      48.704  25.534  25.265  1.00  0.00     0.029 A 
ATOM     52  C   UNL A   1      48.289  26.808  25.843  1.00  0.00     0.049 A 
ATOM     53  H   UNL A   1      46.370  27.366  26.432  1.00  0.00     0.167 HD
ATOM     54  C   UNL A   1      42.372  28.297  27.887  1.00  0.00     0.037 A 
ATOM     55  C   UNL A   1      49.104  27.852  26.088  1.00  0.00     0.037 A 
ATOM     56  C   UNL A   1      43.180  29.445  28.230  1.00  0.00     0.049 A 
ATOM     57  C   UNL A   1      48.538  29.094  26.724  1.00  0.00     0.074 A 
ATOM     58  C   UNL A   1      42.793  30.601  28.888  1.00  0.00     0.029 A 
ATOM     59  N   UNL A   1      44.529  29.585  27.943  1.00  0.00    -0.354 N 
ATOM     60  N   UNL A   1      47.325  29.318  27.166  1.00  0.00    -0.248 NA
ATOM     61  C   UNL A   1      49.457  30.229  26.898  1.00  0.00     0.031 C 
ATOM     62  C   UNL A   1      43.890  31.462  28.949  1.00  0.00     0.029 A 
ATOM     63  C   UNL A   1      44.980  30.821  28.388  1.00  0.00     0.049 A 
ATOM     64  H   UNL A   1      45.085  28.909  27.493  1.00  0.00     0.167 HD
ATOM     65  C   UNL A   1      47.346  30.599  27.702  1.00  0.00     0.074 A 
ATOM     66  C   UNL A   1      48.697  31.095  27.552  1.00  0.00     0.031 C 
ATOM     67  C   UNL A   1      46.331  31.303  28.260  1.00  0.00     0.037 A 
BRANCH  54  68
ATOM     68  C   UNL A   1      40.928  28.335  28.302  1.00  0.00     0.064 A 
ATOM     69  C   UNL A   1      40.538  27.942  29.591  1.00  0.00     0.173 A 
ATOM     70  C   UNL A   1      39.955  28.912  27.471  1.00  0.00     0.173 A 
ATOM     71  F   UNL A   1      41.431  27.388  30.426  1.00  0.00    -0.203 F 
ATOM     72  C   UNL A   1      39.230  28.126  30.032  1.00  0.00     0.198 A 
ATOM     73  C   UNL A   1      38.655  29.120  27.925  1.00  0.00     0.198 A 
ATOM     74  F   UNL A   1      40.279  29.321  26.235  1.00  0.00    -0.203 F 
ATOM     75  F   UNL A   1      38.880  27.736  31.266  1.00  0.00    -0.200 F 
ATOM     76  C   UNL A   1      38.295  28.729  29.206  1.00  0.00     0.200 A 
ATOM     77  F   UNL A   1      37.760  29.727  27.134  1.00  0.00    -0.200 F 
ATOM     78  F   UNL A   1      37.046  28.941  29.646  1.00  0.00    -0.200 F 
ENDBRANCH  54  68
BRANCH  55  79
ATOM     79  C   UNL A   1      50.553  27.767  25.756  1.00  0.00     0.064 A 
ATOM     80  C   UNL A   1      51.001  27.927  24.437  1.00  0.00     0.173 A 
ATOM     81  C   UNL A   1      51.515  27.491  26.739  1.00  0.00     0.173 A 
ATOM     82  F   UNL A   1      50.121  28.172  23.455  1.00  0.00    -0.203 F 
ATOM     83  C   UNL A   1      52.347  27.778  24.109  1.00  0.00     0.198 A 
ATOM     84  C   UNL A   1      52.865  27.384  26.417  1.00  0.00     0.198 A 
ATOM     85  F   UNL A   1      51.143  27.331  28.018  1.00  0.00    -0.203 F 
ATOM     86  F   UNL A   1      52.737  27.868  22.830  1.00  0.00    -0.200 F 
ATOM     87  C   UNL A   1      53.280  27.513  25.101  1.00  0.00     0.200 A 
ATOM     88  F   UNL A   1      53.764  27.145  27.382  1.00  0.00    -0.200 F 
ATOM     89  F   UNL A   1      54.574  27.369  24.786  1.00  0.00    -0.200 F 
ENDBRANCH  55  79
BRANCH  67  90
ATOM     90  C   UNL A   1      46.636  32.679  28.786  1.00  0.00     0.064 A 
ATOM     91  C   UNL A   1      46.487  33.822  27.987  1.00  0.00     0.173 A 
ATOM     92  C   UNL A   1      47.007  32.862  30.128  1.00  0.00     0.173 A 
ATOM     93  F   UNL A   1      46.147  33.704  26.695  1.00  0.00    -0.203 F 
ATOM     94  C   UNL A   1      46.716  35.094  28.506  1.00  0.00     0.198 A 
ATOM     95  C   UNL A   1      47.198  34.137  30.654  1.00  0.00     0.198 A 
ATOM     96  F   UNL A   1      47.155  31.804  30.940  1.00  0.00    -0.203 F 
ATOM     97  F   UNL A   1      46.610  36.168  27.711  1.00  0.00    -0.200 F 
ATOM     98  C   UNL A   1      47.058  35.251  29.841  1.00  0.00     0.200 A 
ATOM     99  F   UNL A   1      47.507  34.288  31.949  1.00  0.00    -0.200 F 
ATOM    100  F   UNL A   1      47.255  36.478  30.343  1.00  0.00    -0.200 F 
ENDBRANCH  67  90
ENDBRANCH  41  42
ENDBRANCH  34  36
ENDBRANCH  33  34
ENDBRANCH  32  33
ENDBRANCH  31  32
ENDBRANCH  30  31
ENDBRANCH  29  30
ENDBRANCH   1  29
TORSDOF 21
ENDMDL
MODEL 3
REMARK VINA RESULT:     -10.8      4.973      7.599
REMARK SMILES Cc1ccc(C#N)cc1Nc1cc(C)c(N)c(C(=O)OCCOCCOCCOC(=O)c2ccc(-c3c4nc(c(-c5c(F)c(F)c(F)c(F)c5F)c5ccc([nH]5)c(-c5c(F)c(F)c(F)c(F)c5F)c5nc(c(-c6c(F)c(F)c(F)c(F)c6F)c6ccc3[nH]6)C=C5)C=C4)cc2)c1
REMARK SMILES IDX 24 1 23 2 22 3 21 4 20 5 18 6 19 7 17 8 11 9 12 10 95 11
REMARK SMILES IDX 13 12 14 13 15 14 10 15 9 17 1 18 2 19 3 20 4 21 8 22 5 23
REMARK SMILES IDX 6 24 7 25 16 26 25 29 26 30 27 31 28 32 29 33 30 34 31 35
REMARK SMILES IDX 32 36 33 37 94 38 34 39 93 40 35 41 36 42 37 43 87 44 38 45
REMARK SMILES IDX 92 46 86 47 88 48 39 49 91 50 85 51 84 52 40 54 72 55 52 56
REMARK SMILES IDX 71 57 53 58 56 59 70 60 89 61 54 62 55 63 69 65 90 66 57 67
REMARK SMILES IDX 41 68 42 69 50 70 43 71 44 72 48 73 51 74 45 75 46 76 49 77
REMARK SMILES IDX 47 78 73 79 74 80 82 81 75 82 76 83 80 84 83 85 77 86 78 87
REMARK SMILES IDX 81 88 79 89 58 90 59 91 67 92 60 93 61 94 65 95 68 96 62 97
REMARK SMILES IDX 63 98 66 99 64 100
REMARK H PARENT 10 16 16 27 16 28 88 53 56 64
REMARK Flexibility Score: inf
ROOT
ATOM      1  C   UNL A   1      41.391  22.160  27.745  1.00  0.00     0.188 C 
ENDROOT
BRANCH   1   2
ATOM      2  O   UNL A   1      40.022  21.896  27.554  1.00  0.00    -0.376 OA
BRANCH   2   3
ATOM      3  C   UNL A   1      39.292  22.591  26.558  1.00  0.00     0.202 C 
BRANCH   3   4
ATOM      4  C   UNL A   1      38.280  21.974  25.567  1.00  0.00     0.261 C 
BRANCH   4   5
ATOM      5  O   UNL A   1      36.985  22.566  25.463  1.00  0.00    -0.460 OA
BRANCH   5   6
ATOM      6  C   UNL A   1      36.406  22.541  24.234  1.00  0.00     0.340 C 
ATOM      7  O   UNL A   1      36.987  22.581  23.161  1.00  0.00    -0.246 OA
BRANCH   6   8
ATOM      8  C   UNL A   1      34.957  22.236  24.375  1.00  0.00     0.085 A 
ATOM      9  C   UNL A   1      32.671  23.015  24.169  1.00  0.00     0.040 A 
ATOM     10  C   UNL A   1      32.227  21.728  24.476  1.00  0.00     0.031 A 
ATOM     11  C   UNL A   1      34.042  23.275  24.193  1.00  0.00     0.044 A 
ATOM     12  C   UNL A   1      33.132  20.680  24.744  1.00  0.00    -0.025 A 
ATOM     13  C   UNL A   1      32.538  19.313  24.964  1.00  0.00     0.047 C 
ATOM     14  C   UNL A   1      34.520  20.916  24.649  1.00  0.00     0.049 A 
BRANCH   9  15
ATOM     15  N   UNL A   1      31.782  23.942  23.587  1.00  0.00    -0.355 N 
ATOM     16  H   UNL A   1      31.126  23.590  22.943  1.00  0.00     0.167 HD
BRANCH  15  17
ATOM     17  C   UNL A   1      31.749  25.333  23.848  1.00  0.00     0.043 A 
ATOM     18  C   UNL A   1      31.802  25.953  21.356  1.00  0.00     0.046 C 
ATOM     19  C   UNL A   1      31.718  26.291  22.820  1.00  0.00    -0.027 A 
ATOM     20  C   UNL A   1      31.592  27.656  23.157  1.00  0.00     0.007 A 
ATOM     21  C   UNL A   1      31.487  28.078  24.485  1.00  0.00     0.020 A 
ATOM     22  C   UNL A   1      31.672  25.792  25.181  1.00  0.00     0.045 A 
ATOM     23  C   UNL A   1      31.525  27.139  25.506  1.00  0.00     0.054 A 
BRANCH  23  24
ATOM     24  C   UNL A   1      31.407  27.516  26.880  1.00  0.00     0.099 C 
ATOM     25  N   UNL A   1      31.342  27.829  27.999  1.00  0.00    -0.192 NA
ENDBRANCH  23  24
ENDBRANCH  15  17
ENDBRANCH   9  15
BRANCH  14  26
ATOM     26  N   UNL A   1      35.440  19.922  25.003  1.00  0.00    -0.398 N 
ATOM     27  H   UNL A   1      35.417  19.529  25.906  1.00  0.00     0.156 HD
ATOM     28  H   UNL A   1      36.110  19.615  24.350  1.00  0.00     0.156 HD
ENDBRANCH  14  26
ENDBRANCH   6   8
ENDBRANCH   5   6
ENDBRANCH   4   5
ENDBRANCH   3   4
ENDBRANCH   2   3
ENDBRANCH   1   2
BRANCH   1  29
ATOM     29  C   UNL A   1      42.345  20.966  27.530  1.00  0.00     0.188 C 
BRANCH  29  30
ATOM     30  O   UNL A   1      42.137  20.099  26.435  1.00  0.00    -0.376 OA
BRANCH  30  31
ATOM     31  C   UNL A   1      42.648  18.777  26.496  1.00  0.00     0.202 C 
BRANCH  31  32
ATOM     32  C   UNL A   1      43.420  18.106  25.337  1.00  0.00     0.261 C 
BRANCH  32  33
ATOM     33  O   UNL A   1      44.785  18.498  25.120  1.00  0.00    -0.460 OA
BRANCH  33  34
ATOM     34  C   UNL A   1      45.029  19.288  24.042  1.00  0.00     0.338 C 
ATOM     35  O   UNL A   1      45.094  18.947  22.874  1.00  0.00    -0.246 OA
BRANCH  34  36
ATOM     36  C   UNL A   1      45.016  20.703  24.480  1.00  0.00     0.060 A 
ATOM     37  C   UNL A   1      45.475  21.045  25.751  1.00  0.00     0.016 A 
ATOM     38  C   UNL A   1      44.528  21.698  23.616  1.00  0.00     0.016 A 
ATOM     39  C   UNL A   1      45.459  22.386  26.149  1.00  0.00     0.010 A 
ATOM     40  C   UNL A   1      44.496  23.036  24.025  1.00  0.00     0.010 A 
ATOM     41  C   UNL A   1      44.986  23.395  25.287  1.00  0.00    -0.014 A 
BRANCH  41  42
ATOM     42  C   UNL A   1      45.160  24.825  25.665  1.00  0.00     0.031 A 
ATOM     43  C   UNL A   1      44.035  25.651  26.219  1.00  0.00     0.074 A 
ATOM     44  C   UNL A   1      46.386  25.368  25.527  1.00  0.00     0.049 A 
ATOM     45  N   UNL A   1      44.071  26.876  26.684  1.00  0.00    -0.248 NA
ATOM     46  C   UNL A   1      42.701  25.034  26.255  1.00  0.00     0.031 C 
ATOM     47  C   UNL A   1      47.550  24.673  24.976  1.00  0.00     0.029 A 
ATOM     48  N   UNL A   1      46.867  26.612  25.858  1.00  0.00    -0.354 N 
ATOM     49  C   UNL A   1      42.779  27.165  27.105  1.00  0.00     0.074 A 
ATOM     50  C   UNL A   1      41.967  26.008  26.781  1.00  0.00     0.031 C 
ATOM     51  C   UNL A   1      48.620  25.478  25.053  1.00  0.00     0.029 A 
ATOM     52  C   UNL A   1      48.213  26.761  25.619  1.00  0.00     0.049 A 
ATOM     53  H   UNL A   1      46.303  27.327  26.228  1.00  0.00     0.167 HD
ATOM     54  C   UNL A   1      42.327  28.280  27.729  1.00  0.00     0.037 A 
ATOM     55  C   UNL A   1      49.031  27.809  25.836  1.00  0.00     0.037 A 
ATOM     56  C   UNL A   1      43.139  29.432  28.043  1.00  0.00     0.049 A 
ATOM     57  C   UNL A   1      48.474  29.060  26.463  1.00  0.00     0.074 A 
ATOM     58  C   UNL A   1      42.762  30.598  28.690  1.00  0.00     0.029 A 
ATOM     59  N   UNL A   1      44.484  29.568  27.735  1.00  0.00    -0.354 N 
ATOM     60  N   UNL A   1      47.268  29.290  26.920  1.00  0.00    -0.248 NA
ATOM     61  C   UNL A   1      49.396  30.197  26.607  1.00  0.00     0.031 C 
ATOM     62  C   UNL A   1      43.859  31.460  28.722  1.00  0.00     0.029 A 
ATOM     63  C   UNL A   1      44.941  30.810  28.154  1.00  0.00     0.049 A 
ATOM     64  H   UNL A   1      45.033  28.886  27.286  1.00  0.00     0.167 HD
ATOM     65  C   UNL A   1      47.297  30.579  27.437  1.00  0.00     0.074 A 
ATOM     66  C   UNL A   1      48.645  31.072  27.259  1.00  0.00     0.031 C 
ATOM     67  C   UNL A   1      46.290  31.291  27.999  1.00  0.00     0.037 A 
BRANCH  54  68
ATOM     68  C   UNL A   1      40.889  28.323  28.165  1.00  0.00     0.064 A 
ATOM     69  C   UNL A   1      40.515  27.925  29.457  1.00  0.00     0.173 A 
ATOM     70  C   UNL A   1      39.908  28.912  27.351  1.00  0.00     0.173 A 
ATOM     71  F   UNL A   1      41.416  27.361  30.276  1.00  0.00    -0.203 F 
ATOM     72  C   UNL A   1      39.215  28.115  29.918  1.00  0.00     0.198 A 
ATOM     73  C   UNL A   1      38.616  29.125  27.825  1.00  0.00     0.198 A 
ATOM     74  F   UNL A   1      40.216  29.327  26.113  1.00  0.00    -0.203 F 
ATOM     75  F   UNL A   1      38.880  27.719  31.154  1.00  0.00    -0.200 F 
ATOM     76  C   UNL A   1      38.271  28.728  29.109  1.00  0.00     0.200 A 
ATOM     77  F   UNL A   1      37.713  29.742  27.051  1.00  0.00    -0.200 F 
ATOM     78  F   UNL A   1      37.030  28.945  29.568  1.00  0.00    -0.200 F 
ENDBRANCH  54  68
BRANCH  55  79
ATOM     79  C   UNL A   1      50.475  27.719  25.484  1.00  0.00     0.064 A 
ATOM     80  C   UNL A   1      51.446  27.505  26.474  1.00  0.00     0.173 A 
ATOM     81  C   UNL A   1      50.918  27.878  24.163  1.00  0.00     0.173 A 
ATOM     82  F   UNL A   1      51.078  27.366  27.756  1.00  0.00    -0.203 F 
ATOM     83  C   UNL A   1      52.804  27.491  26.160  1.00  0.00     0.198 A 
ATOM     84  C   UNL A   1      52.273  27.823  23.845  1.00  0.00     0.198 A 
ATOM     85  F   UNL A   1      50.033  28.084  23.177  1.00  0.00    -0.203 F 
ATOM     86  F   UNL A   1      53.712  27.354  27.136  1.00  0.00    -0.200 F 
ATOM     87  C   UNL A   1      53.216  27.643  24.845  1.00  0.00     0.200 A 
ATOM     88  F   UNL A   1      52.665  27.953  22.571  1.00  0.00    -0.200 F 
ATOM     89  F   UNL A   1      54.522  27.630  24.544  1.00  0.00    -0.200 F 
ENDBRANCH  55  79
BRANCH  67  90
ATOM     90  C   UNL A   1      46.602  32.674  28.501  1.00  0.00     0.064 A 
ATOM     91  C   UNL A   1      46.446  33.805  27.686  1.00  0.00     0.173 A 
ATOM     92  C   UNL A   1      46.989  32.877  29.835  1.00  0.00     0.173 A 
ATOM     93  F   UNL A   1      46.091  33.668  26.400  1.00  0.00    -0.203 F 
ATOM     94  C   UNL A   1      46.682  35.085  28.183  1.00  0.00     0.198 A 
ATOM     95  C   UNL A   1      47.188  34.160  30.339  1.00  0.00     0.198 A 
ATOM     96  F   UNL A   1      47.146  31.831  30.662  1.00  0.00    -0.203 F 
ATOM     97  F   UNL A   1      46.567  36.146  27.373  1.00  0.00    -0.200 F 
ATOM     98  C   UNL A   1      47.040  35.262  29.512  1.00  0.00     0.200 A 
ATOM     99  F   UNL A   1      47.512  34.330  31.628  1.00  0.00    -0.200 F 
ATOM    100  F   UNL A   1      47.244  36.496  29.992  1.00  0.00    -0.200 F 
ENDBRANCH  67  90
ENDBRANCH  41  42
ENDBRANCH  34  36
ENDBRANCH  33  34
ENDBRANCH  32  33
ENDBRANCH  31  32
ENDBRANCH  30  31
ENDBRANCH  29  30
ENDBRANCH   1  29
TORSDOF 21
ENDMDL
