MODEL 1
REMARK VINA RESULT:     -11.0      0.000      0.000
REMARK SMILES COc1ccc(NC(=O)[C@@H]2CC=CC[C@H]2C(=O)OCCOCCOCCOC(=O)c2ccc(-c3c4nc(c(-c5c(F)c(F)c(F)c(F)c5F)c5ccc([nH]5)c(-c5c(F)c(F)c(F)c(F)c5F)c5nc(c(-c6c(F)c(F)c(F)c(F)c6F)c6ccc3[nH]6)C=C5)C=C4)cc2)cc1Cl
REMARK SMILES IDX 22 1 21 2 20 3 19 4 18 5 16 6 17 7 15 8 10 9 11 10 12 11
REMARK SMILES IDX 14 12 13 13 8 14 7 15 9 17 6 18 3 19 4 20 94 21 5 22 93 23
REMARK SMILES IDX 95 24 2 25 1 26 23 27 24 28 25 29 26 30 27 31 28 32 29 33
REMARK SMILES IDX 30 34 31 35 92 36 32 37 91 38 33 39 34 40 35 41 85 42 36 43
REMARK SMILES IDX 90 44 84 45 86 46 37 47 89 48 83 49 82 50 38 52 70 53 50 54
REMARK SMILES IDX 69 55 51 56 54 57 68 58 87 59 52 60 53 61 67 63 88 64 55 65
REMARK SMILES IDX 39 66 40 67 48 68 41 69 42 70 46 71 49 72 43 73 44 74 47 75
REMARK SMILES IDX 45 76 71 77 72 78 80 79 73 80 74 81 78 82 81 83 75 84 76 85
REMARK SMILES IDX 79 86 77 87 56 88 57 89 65 90 58 91 59 92 63 93 66 94 60 95
REMARK SMILES IDX 61 96 64 97 62 98
REMARK H PARENT 7 16 86 51 54 62
REMARK Flexibility Score: inf
ROOT
ATOM      1  C   UNL A   1      34.964  31.459  28.556  1.00  0.00     0.188 C 
ENDROOT
BRANCH   1   2
ATOM      2  O   UNL A   1      34.702  30.199  27.955  1.00  0.00    -0.376 OA
BRANCH   2   3
ATOM      3  C   UNL A   1      33.737  30.109  26.922  1.00  0.00     0.202 C 
BRANCH   3   4
ATOM      4  C   UNL A   1      32.633  29.057  27.076  1.00  0.00     0.261 C 
BRANCH   4   5
ATOM      5  O   UNL A   1      32.927  27.727  26.589  1.00  0.00    -0.463 OA
BRANCH   5   6
ATOM      6  C   UNL A   1      31.855  26.900  26.502  1.00  0.00     0.310 C 
ATOM      7  O   UNL A   1      30.878  26.966  27.241  1.00  0.00    -0.252 OA
BRANCH   6   8
ATOM      8  C   UNL A   1      31.993  25.766  25.496  1.00  0.00     0.116 C 
ATOM      9  C   UNL A   1      30.914  24.667  25.418  1.00  0.00     0.097 C 
ATOM     10  C   UNL A   1      30.976  23.770  24.155  1.00  0.00     0.041 C 
ATOM     11  C   UNL A   1      31.864  24.231  23.047  1.00  0.00    -0.030 C 
ATOM     12  C   UNL A   1      32.321  26.413  24.145  1.00  0.00     0.043 C 
ATOM     13  C   UNL A   1      32.470  25.422  23.037  1.00  0.00    -0.030 C 
BRANCH   9  14
ATOM     14  C   UNL A   1      30.767  23.658  26.567  1.00  0.00     0.228 C 
ATOM     15  N   UNL A   1      31.589  22.610  26.843  1.00  0.00    -0.326 N 
ATOM     16  H   UNL A   1      31.233  21.973  27.505  1.00  0.00     0.169 HD
ATOM     17  O   UNL A   1      29.774  23.745  27.306  1.00  0.00    -0.274 OA
BRANCH  15  18
ATOM     18  C   UNL A   1      32.849  22.284  26.348  1.00  0.00     0.042 A 
ATOM     19  C   UNL A   1      35.343  21.343  25.573  1.00  0.00     0.137 A 
ATOM     20  C   UNL A   1      35.237  22.564  26.245  1.00  0.00     0.050 A 
ATOM     21  C   UNL A   1      34.197  20.606  25.264  1.00  0.00     0.085 A 
ATOM     22  C   UNL A   1      33.983  23.047  26.624  1.00  0.00     0.030 A 
ATOM     23  C   UNL A   1      32.943  21.111  25.598  1.00  0.00     0.050 A 
ATOM     24  Cl  UNL A   1      34.289  19.033  24.563  1.00  0.00    -0.080 Cl
BRANCH  19  25
ATOM     25  O   UNL A   1      36.599  20.863  25.314  1.00  0.00    -0.495 OA
ATOM     26  C   UNL A   1      37.570  21.873  25.576  1.00  0.00     0.278 C 
ENDBRANCH  19  25
ENDBRANCH  15  18
ENDBRANCH   9  14
ENDBRANCH   6   8
ENDBRANCH   5   6
ENDBRANCH   4   5
ENDBRANCH   3   4
ENDBRANCH   2   3
ENDBRANCH   1   2
BRANCH   1  27
ATOM     27  C   UNL A   1      34.268  32.733  28.055  1.00  0.00     0.188 C 
BRANCH  27  28
ATOM     28  O   UNL A   1      33.931  33.631  29.098  1.00  0.00    -0.376 OA
BRANCH  28  29
ATOM     29  C   UNL A   1      34.039  35.003  28.751  1.00  0.00     0.202 C 
BRANCH  29  30
ATOM     30  C   UNL A   1      32.954  35.802  29.475  1.00  0.00     0.261 C 
BRANCH  30  31
ATOM     31  O   UNL A   1      32.421  35.129  30.634  1.00  0.00    -0.460 OA
BRANCH  31  32
ATOM     32  C   UNL A   1      32.695  35.698  31.823  1.00  0.00     0.338 C 
ATOM     33  O   UNL A   1      32.045  36.567  32.395  1.00  0.00    -0.246 OA
BRANCH  32  34
ATOM     34  C   UNL A   1      33.851  35.010  32.425  1.00  0.00     0.060 A 
ATOM     35  C   UNL A   1      35.105  35.628  32.375  1.00  0.00     0.016 A 
ATOM     36  C   UNL A   1      33.713  33.738  32.987  1.00  0.00     0.016 A 
ATOM     37  C   UNL A   1      36.231  34.970  32.880  1.00  0.00     0.010 A 
ATOM     38  C   UNL A   1      34.845  33.070  33.468  1.00  0.00     0.010 A 
ATOM     39  C   UNL A   1      36.113  33.672  33.401  1.00  0.00    -0.014 A 
BRANCH  39  40
ATOM     40  C   UNL A   1      37.331  32.883  33.722  1.00  0.00     0.031 A 
ATOM     41  C   UNL A   1      38.021  33.114  35.035  1.00  0.00     0.074 A 
ATOM     42  C   UNL A   1      37.821  31.964  32.872  1.00  0.00     0.049 A 
ATOM     43  N   UNL A   1      39.142  32.611  35.487  1.00  0.00    -0.248 NA
ATOM     44  C   UNL A   1      37.355  34.039  35.963  1.00  0.00     0.031 C 
ATOM     45  C   UNL A   1      37.227  31.608  31.589  1.00  0.00     0.029 A 
ATOM     46  N   UNL A   1      38.936  31.164  32.963  1.00  0.00    -0.354 N 
ATOM     47  C   UNL A   1      39.330  33.178  36.740  1.00  0.00     0.074 A 
ATOM     48  C   UNL A   1      38.206  34.060  36.977  1.00  0.00     0.031 C 
ATOM     49  C   UNL A   1      37.978  30.654  31.012  1.00  0.00     0.029 A 
ATOM     50  C   UNL A   1      39.133  30.368  31.860  1.00  0.00     0.049 A 
ATOM     51  H   UNL A   1      39.536  31.162  33.743  1.00  0.00     0.167 HD
ATOM     52  C   UNL A   1      40.353  32.991  37.608  1.00  0.00     0.037 A 
ATOM     53  C   UNL A   1      40.144  29.532  31.553  1.00  0.00     0.037 A 
ATOM     54  C   UNL A   1      41.479  32.126  37.370  1.00  0.00     0.049 A 
ATOM     55  C   UNL A   1      41.303  29.386  32.506  1.00  0.00     0.074 A 
ATOM     56  C   UNL A   1      42.572  31.887  38.185  1.00  0.00     0.029 A 
ATOM     57  N   UNL A   1      41.661  31.363  36.226  1.00  0.00    -0.354 N 
ATOM     58  N   UNL A   1      41.484  29.939  33.680  1.00  0.00    -0.248 NA
ATOM     59  C   UNL A   1      42.408  28.513  32.080  1.00  0.00     0.031 C 
ATOM     60  C   UNL A   1      43.439  31.018  37.513  1.00  0.00     0.029 A 
ATOM     61  C   UNL A   1      42.860  30.672  36.303  1.00  0.00     0.049 A 
ATOM     62  H   UNL A   1      41.032  31.320  35.469  1.00  0.00     0.167 HD
ATOM     63  C   UNL A   1      42.712  29.477  34.137  1.00  0.00     0.074 A 
ATOM     64  C   UNL A   1      43.224  28.577  33.123  1.00  0.00     0.031 C 
ATOM     65  C   UNL A   1      43.361  29.780  35.288  1.00  0.00     0.037 A 
BRANCH  52  66
ATOM     66  C   UNL A   1      40.325  33.798  38.871  1.00  0.00     0.064 A 
ATOM     67  C   UNL A   1      39.605  33.383  40.001  1.00  0.00     0.173 A 
ATOM     68  C   UNL A   1      41.020  35.015  38.946  1.00  0.00     0.173 A 
ATOM     69  F   UNL A   1      38.907  32.237  39.974  1.00  0.00    -0.203 F 
ATOM     70  C   UNL A   1      39.553  34.173  41.147  1.00  0.00     0.198 A 
ATOM     71  C   UNL A   1      40.990  35.789  40.101  1.00  0.00     0.198 A 
ATOM     72  F   UNL A   1      41.724  35.456  37.893  1.00  0.00    -0.203 F 
ATOM     73  F   UNL A   1      38.811  33.787  42.192  1.00  0.00    -0.200 F 
ATOM     74  C   UNL A   1      40.248  35.373  41.196  1.00  0.00     0.200 A 
ATOM     75  F   UNL A   1      41.669  36.943  40.151  1.00  0.00    -0.200 F 
ATOM     76  F   UNL A   1      40.192  36.136  42.297  1.00  0.00    -0.200 F 
ENDBRANCH  52  66
BRANCH  53  77
ATOM     77  C   UNL A   1      40.128  28.783  30.266  1.00  0.00     0.064 A 
ATOM     78  C   UNL A   1      40.733  29.310  29.117  1.00  0.00     0.173 A 
ATOM     79  C   UNL A   1      39.495  27.536  30.156  1.00  0.00     0.173 A 
ATOM     80  F   UNL A   1      41.325  30.513  29.163  1.00  0.00    -0.203 F 
ATOM     81  C   UNL A   1      40.696  28.624  27.905  1.00  0.00     0.198 A 
ATOM     82  C   UNL A   1      39.485  26.837  28.950  1.00  0.00     0.198 A 
ATOM     83  F   UNL A   1      38.892  26.992  31.223  1.00  0.00    -0.203 F 
ATOM     84  F   UNL A   1      41.246  29.171  26.812  1.00  0.00    -0.200 F 
ATOM     85  C   UNL A   1      40.080  27.384  27.824  1.00  0.00     0.200 A 
ATOM     86  F   UNL A   1      38.893  25.637  28.879  1.00  0.00    -0.200 F 
ATOM     87  F   UNL A   1      40.050  26.723  26.659  1.00  0.00    -0.200 F 
ENDBRANCH  53  77
BRANCH  65  88
ATOM     88  C   UNL A   1      44.687  29.117  35.531  1.00  0.00     0.064 A 
ATOM     89  C   UNL A   1      44.783  27.876  36.178  1.00  0.00     0.173 A 
ATOM     90  C   UNL A   1      45.873  29.708  35.068  1.00  0.00     0.173 A 
ATOM     91  F   UNL A   1      43.681  27.275  36.652  1.00  0.00    -0.203 F 
ATOM     92  C   UNL A   1      46.019  27.262  36.371  1.00  0.00     0.198 A 
ATOM     93  C   UNL A   1      47.103  29.079  35.238  1.00  0.00     0.198 A 
ATOM     94  F   UNL A   1      45.837  30.891  34.438  1.00  0.00    -0.203 F 
ATOM     95  F   UNL A   1      46.090  26.097  37.029  1.00  0.00    -0.200 F 
ATOM     96  C   UNL A   1      47.176  27.860  35.895  1.00  0.00     0.200 A 
ATOM     97  F   UNL A   1      48.219  29.652  34.766  1.00  0.00    -0.200 F 
ATOM     98  F   UNL A   1      48.363  27.263  36.074  1.00  0.00    -0.200 F 
ENDBRANCH  65  88
ENDBRANCH  39  40
ENDBRANCH  32  34
ENDBRANCH  31  32
ENDBRANCH  30  31
ENDBRANCH  29  30
ENDBRANCH  28  29
ENDBRANCH  27  28
ENDBRANCH   1  27
TORSDOF 20
ENDMDL
MODEL 2
REMARK VINA RESULT:     -10.8      1.409      2.465
REMARK SMILES COc1ccc(NC(=O)[C@@H]2CC=CC[C@H]2C(=O)OCCOCCOCCOC(=O)c2ccc(-c3c4nc(c(-c5c(F)c(F)c(F)c(F)c5F)c5ccc([nH]5)c(-c5c(F)c(F)c(F)c(F)c5F)c5nc(c(-c6c(F)c(F)c(F)c(F)c6F)c6ccc3[nH]6)C=C5)C=C4)cc2)cc1Cl
REMARK SMILES IDX 22 1 21 2 20 3 19 4 18 5 16 6 17 7 15 8 10 9 11 10 12 11
REMARK SMILES IDX 14 12 13 13 8 14 7 15 9 17 6 18 3 19 4 20 94 21 5 22 93 23
REMARK SMILES IDX 95 24 2 25 1 26 23 27 24 28 25 29 26 30 27 31 28 32 29 33
REMARK SMILES IDX 30 34 31 35 92 36 32 37 91 38 33 39 34 40 35 41 85 42 36 43
REMARK SMILES IDX 90 44 84 45 86 46 37 47 89 48 83 49 82 50 38 52 70 53 50 54
REMARK SMILES IDX 69 55 51 56 54 57 68 58 87 59 52 60 53 61 67 63 88 64 55 65
REMARK SMILES IDX 39 66 40 67 48 68 41 69 42 70 46 71 49 72 43 73 44 74 47 75
REMARK SMILES IDX 45 76 71 77 72 78 80 79 73 80 74 81 78 82 81 83 75 84 76 85
REMARK SMILES IDX 79 86 77 87 56 88 57 89 65 90 58 91 59 92 63 93 66 94 60 95
REMARK SMILES IDX 61 96 64 97 62 98
REMARK H PARENT 7 16 86 51 54 62
REMARK Flexibility Score: inf
ROOT
ATOM      1  C   UNL A   1      35.620  32.511  28.391  1.00  0.00     0.188 C 
ENDROOT
BRANCH   1   2
ATOM      2  O   UNL A   1      35.120  31.186  28.499  1.00  0.00    -0.376 OA
BRANCH   2   3
ATOM      3  C   UNL A   1      34.292  30.670  27.472  1.00  0.00     0.202 C 
BRANCH   3   4
ATOM      4  C   UNL A   1      34.419  29.178  27.145  1.00  0.00     0.261 C 
BRANCH   4   5
ATOM      5  O   UNL A   1      34.321  28.807  25.750  1.00  0.00    -0.463 OA
BRANCH   5   6
ATOM      6  C   UNL A   1      33.537  27.729  25.498  1.00  0.00     0.310 C 
ATOM      7  O   UNL A   1      33.614  26.669  26.111  1.00  0.00    -0.252 OA
BRANCH   6   8
ATOM      8  C   UNL A   1      32.623  27.861  24.289  1.00  0.00     0.116 C 
ATOM      9  C   UNL A   1      32.281  26.621  23.439  1.00  0.00     0.097 C 
ATOM     10  C   UNL A   1      31.094  26.802  22.458  1.00  0.00     0.041 C 
ATOM     11  C   UNL A   1      30.252  28.020  22.639  1.00  0.00    -0.030 C 
ATOM     12  C   UNL A   1      31.395  28.656  24.752  1.00  0.00     0.043 C 
ATOM     13  C   UNL A   1      30.382  28.858  23.671  1.00  0.00    -0.030 C 
BRANCH   9  14
ATOM     14  C   UNL A   1      33.368  25.968  22.570  1.00  0.00     0.228 C 
ATOM     15  N   UNL A   1      33.778  24.673  22.615  1.00  0.00    -0.326 N 
ATOM     16  H   UNL A   1      34.605  24.487  22.112  1.00  0.00     0.169 HD
ATOM     17  O   UNL A   1      33.995  26.684  21.775  1.00  0.00    -0.274 OA
BRANCH  15  18
ATOM     18  C   UNL A   1      33.229  23.563  23.251  1.00  0.00     0.042 A 
ATOM     19  C   UNL A   1      32.470  21.272  24.622  1.00  0.00     0.137 A 
ATOM     20  C   UNL A   1      32.285  21.349  23.239  1.00  0.00     0.050 A 
ATOM     21  C   UNL A   1      33.009  22.353  25.324  1.00  0.00     0.085 A 
ATOM     22  C   UNL A   1      32.651  22.505  22.548  1.00  0.00     0.030 A 
ATOM     23  C   UNL A   1      33.330  23.524  24.643  1.00  0.00     0.050 A 
ATOM     24  Cl  UNL A   1      33.384  22.251  27.004  1.00  0.00    -0.080 Cl
BRANCH  19  25
ATOM     25  O   UNL A   1      32.189  20.081  25.238  1.00  0.00    -0.495 OA
ATOM     26  C   UNL A   1      32.467  18.997  24.355  1.00  0.00     0.278 C 
ENDBRANCH  19  25
ENDBRANCH  15  18
ENDBRANCH   9  14
ENDBRANCH   6   8
ENDBRANCH   5   6
ENDBRANCH   4   5
ENDBRANCH   3   4
ENDBRANCH   2   3
ENDBRANCH   1   2
BRANCH   1  27
ATOM     27  C   UNL A   1      34.698  33.675  27.997  1.00  0.00     0.188 C 
BRANCH  27  28
ATOM     28  O   UNL A   1      34.508  34.613  29.042  1.00  0.00    -0.376 OA
BRANCH  28  29
ATOM     29  C   UNL A   1      33.947  35.849  28.628  1.00  0.00     0.202 C 
BRANCH  29  30
ATOM     30  C   UNL A   1      32.982  36.360  29.700  1.00  0.00     0.261 C 
BRANCH  30  31
ATOM     31  O   UNL A   1      32.581  35.344  30.642  1.00  0.00    -0.460 OA
BRANCH  31  32
ATOM     32  C   UNL A   1      32.666  35.681  31.943  1.00  0.00     0.338 C 
ATOM     33  O   UNL A   1      31.861  36.342  32.590  1.00  0.00    -0.246 OA
BRANCH  32  34
ATOM     34  C   UNL A   1      33.835  35.007  32.535  1.00  0.00     0.060 A 
ATOM     35  C   UNL A   1      35.092  35.610  32.417  1.00  0.00     0.016 A 
ATOM     36  C   UNL A   1      33.706  33.761  33.153  1.00  0.00     0.016 A 
ATOM     37  C   UNL A   1      36.230  34.962  32.912  1.00  0.00     0.010 A 
ATOM     38  C   UNL A   1      34.847  33.102  33.624  1.00  0.00     0.010 A 
ATOM     39  C   UNL A   1      36.118  33.688  33.490  1.00  0.00    -0.014 A 
BRANCH  39  40
ATOM     40  C   UNL A   1      37.339  32.901  33.802  1.00  0.00     0.031 A 
ATOM     41  C   UNL A   1      38.039  33.136  35.110  1.00  0.00     0.074 A 
ATOM     42  C   UNL A   1      37.822  31.980  32.950  1.00  0.00     0.049 A 
ATOM     43  N   UNL A   1      39.165  32.635  35.553  1.00  0.00    -0.248 NA
ATOM     44  C   UNL A   1      37.381  34.063  36.040  1.00  0.00     0.031 C 
ATOM     45  C   UNL A   1      37.219  31.620  31.673  1.00  0.00     0.029 A 
ATOM     46  N   UNL A   1      38.939  31.182  33.034  1.00  0.00    -0.354 N 
ATOM     47  C   UNL A   1      39.363  33.205  36.803  1.00  0.00     0.074 A 
ATOM     48  C   UNL A   1      38.239  34.087  37.048  1.00  0.00     0.031 C 
ATOM     49  C   UNL A   1      37.965  30.666  31.093  1.00  0.00     0.029 A 
ATOM     50  C   UNL A   1      39.128  30.383  31.932  1.00  0.00     0.049 A 
ATOM     51  H   UNL A   1      39.545  31.182  33.810  1.00  0.00     0.167 HD
ATOM     52  C   UNL A   1      40.393  33.022  37.663  1.00  0.00     0.037 A 
ATOM     53  C   UNL A   1      40.137  29.547  31.618  1.00  0.00     0.037 A 
ATOM     54  C   UNL A   1      41.517  32.157  37.418  1.00  0.00     0.049 A 
ATOM     55  C   UNL A   1      41.303  29.404  32.562  1.00  0.00     0.074 A 
ATOM     56  C   UNL A   1      42.617  31.921  38.224  1.00  0.00     0.029 A 
ATOM     57  N   UNL A   1      41.690  31.391  36.274  1.00  0.00    -0.354 N 
ATOM     58  N   UNL A   1      41.493  29.961  33.734  1.00  0.00    -0.248 NA
ATOM     59  C   UNL A   1      42.405  28.531  32.130  1.00  0.00     0.031 C 
ATOM     60  C   UNL A   1      43.479  31.051  37.548  1.00  0.00     0.029 A 
ATOM     61  C   UNL A   1      42.890  30.701  36.343  1.00  0.00     0.049 A 
ATOM     62  H   UNL A   1      41.055  31.346  35.523  1.00  0.00     0.167 HD
ATOM     63  C   UNL A   1      42.726  29.501  34.181  1.00  0.00     0.074 A 
ATOM     64  C   UNL A   1      43.230  28.599  33.166  1.00  0.00     0.031 C 
ATOM     65  C   UNL A   1      43.384  29.807  35.326  1.00  0.00     0.037 A 
BRANCH  52  66
ATOM     66  C   UNL A   1      40.374  33.832  38.924  1.00  0.00     0.064 A 
ATOM     67  C   UNL A   1      41.052  35.055  39.031  1.00  0.00     0.173 A 
ATOM     68  C   UNL A   1      39.675  33.368  40.049  1.00  0.00     0.173 A 
ATOM     69  F   UNL A   1      41.751  35.532  37.989  1.00  0.00    -0.203 F 
ATOM     70  C   UNL A   1      41.061  35.766  40.228  1.00  0.00     0.198 A 
ATOM     71  C   UNL A   1      39.663  34.094  41.236  1.00  0.00     0.198 A 
ATOM     72  F   UNL A   1      39.010  32.204  39.999  1.00  0.00    -0.203 F 
ATOM     73  F   UNL A   1      41.765  36.902  40.326  1.00  0.00    -0.200 F 
ATOM     74  C   UNL A   1      40.364  35.286  41.328  1.00  0.00     0.200 A 
ATOM     75  F   UNL A   1      38.982  33.634  42.294  1.00  0.00    -0.200 F 
ATOM     76  F   UNL A   1      40.379  35.969  42.482  1.00  0.00    -0.200 F 
ENDBRANCH  52  66
BRANCH  53  77
ATOM     77  C   UNL A   1      40.110  28.795  30.334  1.00  0.00     0.064 A 
ATOM     78  C   UNL A   1      40.685  29.329  29.173  1.00  0.00     0.173 A 
ATOM     79  C   UNL A   1      39.498  27.537  30.237  1.00  0.00     0.173 A 
ATOM     80  F   UNL A   1      41.258  30.542  29.206  1.00  0.00    -0.203 F 
ATOM     81  C   UNL A   1      40.639  28.640  27.963  1.00  0.00     0.198 A 
ATOM     82  C   UNL A   1      39.478  26.834  29.034  1.00  0.00     0.198 A 
ATOM     83  F   UNL A   1      38.923  26.985  31.317  1.00  0.00    -0.203 F 
ATOM     84  F   UNL A   1      41.160  29.193  26.859  1.00  0.00    -0.200 F 
ATOM     85  C   UNL A   1      40.043  27.389  27.896  1.00  0.00     0.200 A 
ATOM     86  F   UNL A   1      38.906  25.624  28.976  1.00  0.00    -0.200 F 
ATOM     87  F   UNL A   1      40.003  26.725  26.733  1.00  0.00    -0.200 F 
ENDBRANCH  53  77
BRANCH  65  88
ATOM     88  C   UNL A   1      44.713  29.145  35.560  1.00  0.00     0.064 A 
ATOM     89  C   UNL A   1      45.907  29.702  35.078  1.00  0.00     0.173 A 
ATOM     90  C   UNL A   1      44.797  27.966  36.316  1.00  0.00     0.173 A 
ATOM     91  F   UNL A   1      45.880  30.820  34.338  1.00  0.00    -0.203 F 
ATOM     92  C   UNL A   1      47.134  29.090  35.326  1.00  0.00     0.198 A 
ATOM     93  C   UNL A   1      46.027  27.373  36.585  1.00  0.00     0.198 A 
ATOM     94  F   UNL A   1      43.686  27.395  36.805  1.00  0.00    -0.203 F 
ATOM     95  F   UNL A   1      48.258  29.617  34.820  1.00  0.00    -0.200 F 
ATOM     96  C   UNL A   1      47.194  27.931  36.086  1.00  0.00     0.200 A 
ATOM     97  F   UNL A   1      46.084  26.260  37.331  1.00  0.00    -0.200 F 
ATOM     98  F   UNL A   1      48.376  27.349  36.331  1.00  0.00    -0.200 F 
ENDBRANCH  65  88
ENDBRANCH  39  40
ENDBRANCH  32  34
ENDBRANCH  31  32
ENDBRANCH  30  31
ENDBRANCH  29  30
ENDBRANCH  28  29
ENDBRANCH  27  28
ENDBRANCH   1  27
TORSDOF 20
ENDMDL
MODEL 3
REMARK VINA RESULT:     -10.6      0.859      1.947
REMARK SMILES COc1ccc(NC(=O)[C@@H]2CC=CC[C@H]2C(=O)OCCOCCOCCOC(=O)c2ccc(-c3c4nc(c(-c5c(F)c(F)c(F)c(F)c5F)c5ccc([nH]5)c(-c5c(F)c(F)c(F)c(F)c5F)c5nc(c(-c6c(F)c(F)c(F)c(F)c6F)c6ccc3[nH]6)C=C5)C=C4)cc2)cc1Cl
REMARK SMILES IDX 22 1 21 2 20 3 19 4 18 5 16 6 17 7 15 8 10 9 11 10 12 11
REMARK SMILES IDX 14 12 13 13 8 14 7 15 9 17 6 18 3 19 4 20 94 21 5 22 93 23
REMARK SMILES IDX 95 24 2 25 1 26 23 27 24 28 25 29 26 30 27 31 28 32 29 33
REMARK SMILES IDX 30 34 31 35 92 36 32 37 91 38 33 39 34 40 35 41 85 42 36 43
REMARK SMILES IDX 90 44 84 45 86 46 37 47 89 48 83 49 82 50 38 52 70 53 50 54
REMARK SMILES IDX 69 55 51 56 54 57 68 58 87 59 52 60 53 61 67 63 88 64 55 65
REMARK SMILES IDX 39 66 40 67 48 68 41 69 42 70 46 71 49 72 43 73 44 74 47 75
REMARK SMILES IDX 45 76 71 77 72 78 80 79 73 80 74 81 78 82 81 83 75 84 76 85
REMARK SMILES IDX 79 86 77 87 56 88 57 89 65 90 58 91 59 92 63 93 66 94 60 95
REMARK SMILES IDX 61 96 64 97 62 98
REMARK H PARENT 7 16 86 51 54 62
REMARK Flexibility Score: inf
ROOT
ATOM      1  C   UNL A   1      34.530  32.356  27.983  1.00  0.00     0.188 C 
ENDROOT
BRANCH   1   2
ATOM      2  O   UNL A   1      33.683  31.238  27.757  1.00  0.00    -0.376 OA
BRANCH   2   3
ATOM      3  C   UNL A   1      34.260  29.962  27.543  1.00  0.00     0.202 C 
BRANCH   3   4
ATOM      4  C   UNL A   1      33.390  28.900  26.862  1.00  0.00     0.261 C 
BRANCH   4   5
ATOM      5  O   UNL A   1      34.028  28.088  25.849  1.00  0.00    -0.463 OA
BRANCH   5   6
ATOM      6  C   UNL A   1      33.528  28.237  24.597  1.00  0.00     0.310 C 
ATOM      7  O   UNL A   1      33.360  29.324  24.052  1.00  0.00    -0.252 OA
BRANCH   6   8
ATOM      8  C   UNL A   1      33.044  26.955  23.936  1.00  0.00     0.116 C 
ATOM      9  C   UNL A   1      31.682  26.348  24.329  1.00  0.00     0.097 C 
ATOM     10  C   UNL A   1      31.145  25.256  23.367  1.00  0.00     0.041 C 
ATOM     11  C   UNL A   1      31.841  25.116  22.055  1.00  0.00    -0.030 C 
ATOM     12  C   UNL A   1      33.229  27.143  22.425  1.00  0.00     0.043 C 
ATOM     13  C   UNL A   1      32.778  25.964  21.624  1.00  0.00    -0.030 C 
BRANCH   9  14
ATOM     14  C   UNL A   1      31.497  25.723  25.720  1.00  0.00     0.228 C 
ATOM     15  N   UNL A   1      32.082  24.590  26.190  1.00  0.00    -0.326 N 
ATOM     16  H   UNL A   1      31.703  24.252  27.034  1.00  0.00     0.169 HD
ATOM     17  O   UNL A   1      30.693  26.253  26.502  1.00  0.00    -0.274 OA
BRANCH  15  18
ATOM     18  C   UNL A   1      33.126  23.823  25.680  1.00  0.00     0.042 A 
ATOM     19  C   UNL A   1      35.126  22.054  24.919  1.00  0.00     0.137 A 
ATOM     20  C   UNL A   1      35.464  23.325  25.395  1.00  0.00     0.050 A 
ATOM     21  C   UNL A   1      33.786  21.679  24.797  1.00  0.00     0.085 A 
ATOM     22  C   UNL A   1      34.460  24.222  25.764  1.00  0.00     0.030 A 
ATOM     23  C   UNL A   1      32.785  22.591  25.119  1.00  0.00     0.050 A 
ATOM     24  Cl  UNL A   1      33.327  20.079  24.348  1.00  0.00    -0.080 Cl
BRANCH  19  25
ATOM     25  O   UNL A   1      36.146  21.176  24.665  1.00  0.00    -0.495 OA
ATOM     26  C   UNL A   1      37.403  21.824  24.843  1.00  0.00     0.278 C 
ENDBRANCH  19  25
ENDBRANCH  15  18
ENDBRANCH   9  14
ENDBRANCH   6   8
ENDBRANCH   5   6
ENDBRANCH   4   5
ENDBRANCH   3   4
ENDBRANCH   2   3
ENDBRANCH   1   2
BRANCH   1  27
ATOM     27  C   UNL A   1      34.436  33.168  29.284  1.00  0.00     0.188 C 
BRANCH  27  28
ATOM     28  O   UNL A   1      34.276  34.559  29.063  1.00  0.00    -0.376 OA
BRANCH  28  29
ATOM     29  C   UNL A   1      32.930  35.005  29.073  1.00  0.00     0.202 C 
BRANCH  29  30
ATOM     30  C   UNL A   1      32.788  36.189  30.030  1.00  0.00     0.261 C 
BRANCH  30  31
ATOM     31  O   UNL A   1      32.029  35.881  31.217  1.00  0.00    -0.460 OA
BRANCH  31  32
ATOM     32  C   UNL A   1      32.652  36.106  32.390  1.00  0.00     0.338 C 
ATOM     33  O   UNL A   1      32.270  36.830  33.303  1.00  0.00    -0.246 OA
BRANCH  32  34
ATOM     34  C   UNL A   1      33.830  35.226  32.480  1.00  0.00     0.060 A 
ATOM     35  C   UNL A   1      33.651  33.900  32.891  1.00  0.00     0.016 A 
ATOM     36  C   UNL A   1      35.112  35.715  32.215  1.00  0.00     0.016 A 
ATOM     37  C   UNL A   1      34.759  33.059  33.048  1.00  0.00     0.010 A 
ATOM     38  C   UNL A   1      36.221  34.881  32.398  1.00  0.00     0.010 A 
ATOM     39  C   UNL A   1      36.054  33.555  32.834  1.00  0.00    -0.014 A 
BRANCH  39  40
ATOM     40  C   UNL A   1      37.237  32.743  33.221  1.00  0.00     0.031 A 
ATOM     41  C   UNL A   1      37.884  32.993  34.553  1.00  0.00     0.074 A 
ATOM     42  C   UNL A   1      37.733  31.788  32.415  1.00  0.00     0.049 A 
ATOM     43  N   UNL A   1      38.974  32.474  35.060  1.00  0.00    -0.248 NA
ATOM     44  C   UNL A   1      37.210  33.961  35.429  1.00  0.00     0.031 C 
ATOM     45  C   UNL A   1      37.178  31.412  31.121  1.00  0.00     0.029 A 
ATOM     46  N   UNL A   1      38.821  30.962  32.570  1.00  0.00    -0.354 N 
ATOM     47  C   UNL A   1      39.130  33.071  36.304  1.00  0.00     0.074 A 
ATOM     48  C   UNL A   1      38.022  33.989  36.474  1.00  0.00     0.031 C 
ATOM     49  C   UNL A   1      37.923  30.423  30.599  1.00  0.00     0.029 A 
ATOM     50  C   UNL A   1      39.038  30.131  31.498  1.00  0.00     0.049 A 
ATOM     51  H   UNL A   1      39.392  30.967  33.373  1.00  0.00     0.167 HD
ATOM     52  C   UNL A   1      40.114  32.882  37.215  1.00  0.00     0.037 A 
ATOM     53  C   UNL A   1      40.036  29.260  31.252  1.00  0.00     0.037 A 
ATOM     54  C   UNL A   1      41.224  31.981  37.043  1.00  0.00     0.049 A 
ATOM     55  C   UNL A   1      41.154  29.110  32.251  1.00  0.00     0.074 A 
ATOM     56  C   UNL A   1      42.280  31.736  37.905  1.00  0.00     0.029 A 
ATOM     57  N   UNL A   1      41.428  31.182  35.927  1.00  0.00    -0.354 N 
ATOM     58  N   UNL A   1      41.306  29.692  33.417  1.00  0.00    -0.248 NA
ATOM     59  C   UNL A   1      42.250  28.197  31.892  1.00  0.00     0.031 C 
ATOM     60  C   UNL A   1      43.147  30.826  37.290  1.00  0.00     0.029 A 
ATOM     61  C   UNL A   1      42.604  30.461  36.068  1.00  0.00     0.049 A 
ATOM     62  H   UNL A   1      40.826  31.134  35.149  1.00  0.00     0.167 HD
ATOM     63  C   UNL A   1      42.504  29.211  33.931  1.00  0.00     0.074 A 
ATOM     64  C   UNL A   1      43.028  28.269  32.963  1.00  0.00     0.031 C 
ATOM     65  C   UNL A   1      43.117  29.528  35.098  1.00  0.00     0.037 A 
BRANCH  52  66
ATOM     66  C   UNL A   1      40.061  33.724  38.453  1.00  0.00     0.064 A 
ATOM     67  C   UNL A   1      39.270  33.373  39.556  1.00  0.00     0.173 A 
ATOM     68  C   UNL A   1      40.807  34.910  38.531  1.00  0.00     0.173 A 
ATOM     69  F   UNL A   1      38.522  32.259  39.524  1.00  0.00    -0.203 F 
ATOM     70  C   UNL A   1      39.198  34.197  40.677  1.00  0.00     0.198 A 
ATOM     71  C   UNL A   1      40.755  35.718  39.663  1.00  0.00     0.198 A 
ATOM     72  F   UNL A   1      41.581  35.290  37.503  1.00  0.00    -0.203 F 
ATOM     73  F   UNL A   1      38.388  33.873  41.694  1.00  0.00    -0.200 F 
ATOM     74  C   UNL A   1      39.943  35.366  40.730  1.00  0.00     0.200 A 
ATOM     75  F   UNL A   1      41.483  36.842  39.717  1.00  0.00    -0.200 F 
ATOM     76  F   UNL A   1      39.868  36.161  41.807  1.00  0.00    -0.200 F 
ENDBRANCH  52  66
BRANCH  53  77
ATOM     77  C   UNL A   1      40.047  28.476  29.986  1.00  0.00     0.064 A 
ATOM     78  C   UNL A   1      39.428  27.222  29.909  1.00  0.00     0.173 A 
ATOM     79  C   UNL A   1      40.689  28.958  28.835  1.00  0.00     0.173 A 
ATOM     80  F   UNL A   1      38.827  26.704  30.991  1.00  0.00    -0.203 F 
ATOM     81  C   UNL A   1      39.460  26.474  28.733  1.00  0.00     0.198 A 
ATOM     82  C   UNL A   1      40.694  28.223  27.651  1.00  0.00     0.198 A 
ATOM     83  F   UNL A   1      41.306  30.149  28.859  1.00  0.00    -0.203 F 
ATOM     84  F   UNL A   1      38.895  25.258  28.701  1.00  0.00    -0.200 F 
ATOM     85  C   UNL A   1      40.085  26.978  27.603  1.00  0.00     0.200 A 
ATOM     86  F   UNL A   1      41.295  28.717  26.561  1.00  0.00    -0.200 F 
ATOM     87  F   UNL A   1      40.110  26.260  26.472  1.00  0.00    -0.200 F 
ENDBRANCH  53  77
BRANCH  65  88
ATOM     88  C   UNL A   1      44.415  28.838  35.409  1.00  0.00     0.064 A 
ATOM     89  C   UNL A   1      45.651  29.397  35.051  1.00  0.00     0.173 A 
ATOM     90  C   UNL A   1      44.424  27.625  36.115  1.00  0.00     0.173 A 
ATOM     91  F   UNL A   1      45.697  30.547  34.362  1.00  0.00    -0.203 F 
ATOM     92  C   UNL A   1      46.846  28.756  35.370  1.00  0.00     0.198 A 
ATOM     93  C   UNL A   1      45.622  27.002  36.457  1.00  0.00     0.198 A 
ATOM     94  F   UNL A   1      43.271  27.050  36.487  1.00  0.00    -0.203 F 
ATOM     95  F   UNL A   1      48.014  29.288  34.981  1.00  0.00    -0.200 F 
ATOM     96  C   UNL A   1      46.831  27.565  36.079  1.00  0.00     0.200 A 
ATOM     97  F   UNL A   1      45.605  25.857  37.154  1.00  0.00    -0.200 F 
ATOM     98  F   UNL A   1      47.983  26.955  36.393  1.00  0.00    -0.200 F 
ENDBRANCH  65  88
ENDBRANCH  39  40
ENDBRANCH  32  34
ENDBRANCH  31  32
ENDBRANCH  30  31
ENDBRANCH  29  30
ENDBRANCH  28  29
ENDBRANCH  27  28
ENDBRANCH   1  27
TORSDOF 20
ENDMDL
