MODEL 1
REMARK VINA RESULT:     -10.8      0.000      0.000
REMARK SMILES O=C(COc1ccccc1/C=N\N1CC[NH+](Cc2ccc(Cl)cc2)CC1)OCCOCCOCCOC(=O)c1ccc(-c2c3nc(c(-c4c(F)c(F)c(F)c(F)c4F)c4ccc([nH]4)c(-c4c(F)c(F)c(F)c(F)c4F)c4nc(c(-c5c(F)c(F)c(F)c(F)c5F)c5ccc2[nH]5)C=C4)C=C3)cc1
REMARK SMILES IDX 29 1 28 2 27 3 2 4 1 5 3 6 4 7 5 8 6 9 10 10 7 11 9 12 8 13
REMARK SMILES IDX 11 14 12 15 13 16 14 17 26 18 15 19 25 20 16 21 17 23 18 24
REMARK SMILES IDX 19 25 24 26 20 27 23 28 21 29 22 30 30 31 31 32 32 33 33 34
REMARK SMILES IDX 34 35 35 36 36 37 37 38 38 39 39 40 40 41 101 42 41 43
REMARK SMILES IDX 100 44 42 45 43 46 44 47 94 48 45 49 99 50 93 51 95 52 46 53
REMARK SMILES IDX 98 54 92 55 91 56 47 58 79 59 59 60 78 61 60 62 63 63 77 64
REMARK SMILES IDX 96 65 61 66 62 67 76 69 97 70 64 71 48 72 49 73 57 74 50 75
REMARK SMILES IDX 51 76 55 77 58 78 52 79 53 80 56 81 54 82 80 83 81 84 89 85
REMARK SMILES IDX 82 86 83 87 87 88 90 89 84 90 85 91 88 92 86 93 65 94 66 95
REMARK SMILES IDX 74 96 67 97 68 98 72 99 75 100 69 101 70 102 73 103 71 104
REMARK H PARENT 16 22 95 57 63 68
REMARK Flexibility Score: inf
ROOT
ATOM      1  C   UNL A   1      33.471  22.097  24.398  1.00  0.00     0.202 C 
ENDROOT
BRANCH   1   2
ATOM      2  C   UNL A   1      31.963  22.095  24.617  1.00  0.00     0.261 C 
BRANCH   2   3
ATOM      3  O   UNL A   1      31.461  22.139  25.976  1.00  0.00    -0.461 OA
BRANCH   3   4
ATOM      4  C   UNL A   1      31.096  23.155  26.783  1.00  0.00     0.344 C 
ATOM      5  O   UNL A   1      29.990  23.144  27.329  1.00  0.00    -0.248 OA
BRANCH   4   6
ATOM      6  C   UNL A   1      31.952  24.402  26.873  1.00  0.00     0.352 C 
BRANCH   6   7
ATOM      7  O   UNL A   1      31.636  25.473  26.004  1.00  0.00    -0.481 OA
BRANCH   7   8
ATOM      8  C   UNL A   1      32.365  26.581  26.331  1.00  0.00     0.129 A 
ATOM      9  C   UNL A   1      31.868  27.395  27.345  1.00  0.00     0.047 A 
ATOM     10  C   UNL A   1      33.531  26.941  25.650  1.00  0.00     0.037 A 
ATOM     11  C   UNL A   1      32.550  28.562  27.681  1.00  0.00     0.004 A 
ATOM     12  C   UNL A   1      34.172  28.137  25.941  1.00  0.00     0.013 A 
ATOM     13  C   UNL A   1      33.700  28.932  26.980  1.00  0.00     0.001 A 
BRANCH  10  14
ATOM     14  C   UNL A   1      33.962  26.215  24.470  1.00  0.00     0.145 C 
ATOM     15  N   UNL A   1      33.562  26.197  23.243  1.00  0.00    -0.185 NA
BRANCH  15  16
ATOM     16  N   UNL A   1      32.592  26.919  22.673  1.00  0.00    -0.286 NA
ATOM     17  C   UNL A   1      31.453  26.107  22.246  1.00  0.00     0.200 C 
ATOM     18  C   UNL A   1      32.188  28.316  22.844  1.00  0.00     0.200 C 
ATOM     19  C   UNL A   1      30.330  26.191  23.289  1.00  0.00     0.286 C 
ATOM     20  C   UNL A   1      30.895  28.532  23.687  1.00  0.00     0.286 C 
ATOM     21  N   UNL A   1      29.813  27.541  23.558  1.00  0.00    -0.328 N 
ATOM     22  H   UNL A   1      29.381  27.503  24.482  1.00  0.00     0.348 HD
BRANCH  21  23
ATOM     23  C   UNL A   1      28.669  27.940  22.728  1.00  0.00     0.299 C 
BRANCH  23  24
ATOM     24  C   UNL A   1      28.421  29.426  22.617  1.00  0.00     0.006 A 
ATOM     25  C   UNL A   1      27.651  30.086  23.586  1.00  0.00     0.011 A 
ATOM     26  C   UNL A   1      29.040  30.183  21.613  1.00  0.00     0.011 A 
ATOM     27  C   UNL A   1      27.607  31.479  23.626  1.00  0.00     0.021 A 
ATOM     28  C   UNL A   1      29.018  31.578  21.666  1.00  0.00     0.021 A 
ATOM     29  C   UNL A   1      28.320  32.219  22.687  1.00  0.00     0.041 A 
ATOM     30  Cl  UNL A   1      28.365  33.933  22.808  1.00  0.00    -0.084 Cl
ENDBRANCH  23  24
ENDBRANCH  21  23
ENDBRANCH  15  16
ENDBRANCH  10  14
ENDBRANCH   7   8
ENDBRANCH   6   7
ENDBRANCH   4   6
ENDBRANCH   3   4
ENDBRANCH   2   3
ENDBRANCH   1   2
BRANCH   1  31
ATOM     31  O   UNL A   1      33.929  22.693  23.208  1.00  0.00    -0.376 OA
BRANCH  31  32
ATOM     32  C   UNL A   1      35.301  23.021  23.166  1.00  0.00     0.188 C 
BRANCH  32  33
ATOM     33  C   UNL A   1      36.151  22.321  24.247  1.00  0.00     0.188 C 
BRANCH  33  34
ATOM     34  O   UNL A   1      37.388  22.886  24.657  1.00  0.00    -0.376 OA
BRANCH  34  35
ATOM     35  C   UNL A   1      38.107  22.293  25.724  1.00  0.00     0.202 C 
BRANCH  35  36
ATOM     36  C   UNL A   1      38.764  20.917  25.499  1.00  0.00     0.261 C 
BRANCH  36  37
ATOM     37  O   UNL A   1      39.558  20.399  26.588  1.00  0.00    -0.460 OA
BRANCH  37  38
ATOM     38  C   UNL A   1      40.824  20.013  26.292  1.00  0.00     0.338 C 
ATOM     39  O   UNL A   1      41.158  18.987  25.712  1.00  0.00    -0.246 OA
BRANCH  38  40
ATOM     40  C   UNL A   1      41.797  21.098  26.595  1.00  0.00     0.060 A 
ATOM     41  C   UNL A   1      42.135  21.346  27.937  1.00  0.00     0.016 A 
ATOM     42  C   UNL A   1      42.348  21.895  25.589  1.00  0.00     0.016 A 
ATOM     43  C   UNL A   1      42.959  22.423  28.283  1.00  0.00     0.010 A 
ATOM     44  C   UNL A   1      43.150  22.994  25.938  1.00  0.00     0.010 A 
ATOM     45  C   UNL A   1      43.413  23.298  27.289  1.00  0.00    -0.014 A 
BRANCH  45  46
ATOM     46  C   UNL A   1      43.881  24.662  27.670  1.00  0.00     0.031 A 
ATOM     47  C   UNL A   1      42.833  25.685  28.034  1.00  0.00     0.074 A 
ATOM     48  C   UNL A   1      45.180  25.006  27.728  1.00  0.00     0.049 A 
ATOM     49  N   UNL A   1      42.962  26.951  28.342  1.00  0.00    -0.248 NA
ATOM     50  C   UNL A   1      41.441  25.204  28.044  1.00  0.00     0.031 C 
ATOM     51  C   UNL A   1      46.307  24.117  27.468  1.00  0.00     0.029 A 
ATOM     52  N   UNL A   1      45.766  26.216  28.024  1.00  0.00    -0.354 N 
ATOM     53  C   UNL A   1      41.671  27.419  28.558  1.00  0.00     0.074 A 
ATOM     54  C   UNL A   1      40.772  26.313  28.310  1.00  0.00     0.031 C 
ATOM     55  C   UNL A   1      47.451  24.813  27.605  1.00  0.00     0.029 A 
ATOM     56  C   UNL A   1      47.137  26.206  27.931  1.00  0.00     0.049 A 
ATOM     57  H   UNL A   1      45.251  27.016  28.278  1.00  0.00     0.167 HD
ATOM     58  C   UNL A   1      41.264  28.656  28.936  1.00  0.00     0.037 A 
ATOM     59  C   UNL A   1      48.030  27.207  28.077  1.00  0.00     0.037 A 
ATOM     60  C   UNL A   1      42.149  29.762  29.185  1.00  0.00     0.049 A 
ATOM     61  C   UNL A   1      47.551  28.600  28.417  1.00  0.00     0.074 A 
ATOM     62  C   UNL A   1      41.832  31.046  29.591  1.00  0.00     0.029 A 
ATOM     63  N   UNL A   1      43.528  29.718  29.041  1.00  0.00    -0.354 N 
ATOM     64  N   UNL A   1      46.333  29.031  28.637  1.00  0.00    -0.248 NA
ATOM     65  C   UNL A   1      48.581  29.644  28.534  1.00  0.00     0.031 C 
ATOM     66  C   UNL A   1      43.012  31.798  29.625  1.00  0.00     0.029 A 
ATOM     67  C   UNL A   1      44.073  30.962  29.318  1.00  0.00     0.049 A 
ATOM     68  H   UNL A   1      44.044  28.920  28.779  1.00  0.00     0.167 HD
ATOM     69  C   UNL A   1      46.453  30.378  28.962  1.00  0.00     0.074 A 
ATOM     70  C   UNL A   1      47.865  30.693  28.912  1.00  0.00     0.031 C 
ATOM     71  C   UNL A   1      45.481  31.269  29.282  1.00  0.00     0.037 A 
BRANCH  58  72
ATOM     72  C   UNL A   1      39.781  28.883  29.053  1.00  0.00     0.064 A 
ATOM     73  C   UNL A   1      38.999  29.286  27.960  1.00  0.00     0.173 A 
ATOM     74  C   UNL A   1      39.135  28.702  30.286  1.00  0.00     0.173 A 
ATOM     75  F   UNL A   1      39.567  29.488  26.761  1.00  0.00    -0.203 F 
ATOM     76  C   UNL A   1      37.638  29.546  28.107  1.00  0.00     0.198 A 
ATOM     77  C   UNL A   1      37.768  28.923  30.421  1.00  0.00     0.198 A 
ATOM     78  F   UNL A   1      39.832  28.311  31.364  1.00  0.00    -0.203 F 
ATOM     79  F   UNL A   1      36.928  30.001  27.066  1.00  0.00    -0.200 F 
ATOM     80  C   UNL A   1      37.024  29.359  29.336  1.00  0.00     0.200 A 
ATOM     81  F   UNL A   1      37.173  28.725  31.605  1.00  0.00    -0.200 F 
ATOM     82  F   UNL A   1      35.715  29.610  29.478  1.00  0.00    -0.200 F 
ENDBRANCH  58  72
BRANCH  59  83
ATOM     83  C   UNL A   1      49.484  26.937  27.909  1.00  0.00     0.064 A 
ATOM     84  C   UNL A   1      50.294  26.635  29.014  1.00  0.00     0.173 A 
ATOM     85  C   UNL A   1      50.099  26.997  26.650  1.00  0.00     0.173 A 
ATOM     86  F   UNL A   1      49.762  26.597  30.243  1.00  0.00    -0.203 F 
ATOM     87  C   UNL A   1      51.663  26.414  28.866  1.00  0.00     0.198 A 
ATOM     88  C   UNL A   1      51.462  26.747  26.500  1.00  0.00     0.198 A 
ATOM     89  F   UNL A   1      49.373  27.291  25.561  1.00  0.00    -0.203 F 
ATOM     90  F   UNL A   1      52.421  26.172  29.945  1.00  0.00    -0.200 F 
ATOM     91  C   UNL A   1      52.244  26.463  27.608  1.00  0.00     0.200 A 
ATOM     92  F   UNL A   1      52.018  26.783  25.281  1.00  0.00    -0.200 F 
ATOM     93  F   UNL A   1      53.558  26.241  27.466  1.00  0.00    -0.200 F 
ENDBRANCH  59  83
BRANCH  71  94
ATOM     94  C   UNL A   1      45.904  32.660  29.673  1.00  0.00     0.064 A 
ATOM     95  C   UNL A   1      46.051  33.691  28.731  1.00  0.00     0.173 A 
ATOM     96  C   UNL A   1      46.130  32.974  31.023  1.00  0.00     0.173 A 
ATOM     97  F   UNL A   1      45.857  33.447  27.426  1.00  0.00    -0.203 F 
ATOM     98  C   UNL A   1      46.440  34.970  29.124  1.00  0.00     0.198 A 
ATOM     99  C   UNL A   1      46.482  34.263  31.414  1.00  0.00     0.198 A 
ATOM    100  F   UNL A   1      45.995  32.032  31.969  1.00  0.00    -0.203 F 
ATOM    101  F   UNL A   1      46.630  35.923  28.199  1.00  0.00    -0.200 F 
ATOM    102  C   UNL A   1      46.648  35.258  30.464  1.00  0.00     0.200 A 
ATOM    103  F   UNL A   1      46.663  34.542  32.714  1.00  0.00    -0.200 F 
ATOM    104  F   UNL A   1      47.015  36.491  30.839  1.00  0.00    -0.200 F 
ENDBRANCH  71  94
ENDBRANCH  45  46
ENDBRANCH  38  40
ENDBRANCH  37  38
ENDBRANCH  36  37
ENDBRANCH  35  36
ENDBRANCH  34  35
ENDBRANCH  33  34
ENDBRANCH  32  33
ENDBRANCH  31  32
ENDBRANCH   1  31
TORSDOF 23
ENDMDL
MODEL 2
REMARK VINA RESULT:     -10.6      0.877      6.842
REMARK SMILES O=C(COc1ccccc1/C=N\N1CC[NH+](Cc2ccc(Cl)cc2)CC1)OCCOCCOCCOC(=O)c1ccc(-c2c3nc(c(-c4c(F)c(F)c(F)c(F)c4F)c4ccc([nH]4)c(-c4c(F)c(F)c(F)c(F)c4F)c4nc(c(-c5c(F)c(F)c(F)c(F)c5F)c5ccc2[nH]5)C=C4)C=C3)cc1
REMARK SMILES IDX 29 1 28 2 27 3 2 4 1 5 3 6 4 7 5 8 6 9 10 10 7 11 9 12 8 13
REMARK SMILES IDX 11 14 12 15 13 16 14 17 26 18 15 19 25 20 16 21 17 23 18 24
REMARK SMILES IDX 19 25 24 26 20 27 23 28 21 29 22 30 30 31 31 32 32 33 33 34
REMARK SMILES IDX 34 35 35 36 36 37 37 38 38 39 39 40 40 41 101 42 41 43
REMARK SMILES IDX 100 44 42 45 43 46 44 47 94 48 45 49 99 50 93 51 95 52 46 53
REMARK SMILES IDX 98 54 92 55 91 56 47 58 79 59 59 60 78 61 60 62 63 63 77 64
REMARK SMILES IDX 96 65 61 66 62 67 76 69 97 70 64 71 48 72 49 73 57 74 50 75
REMARK SMILES IDX 51 76 55 77 58 78 52 79 53 80 56 81 54 82 80 83 81 84 89 85
REMARK SMILES IDX 82 86 83 87 87 88 90 89 84 90 85 91 88 92 86 93 65 94 66 95
REMARK SMILES IDX 74 96 67 97 68 98 72 99 75 100 69 101 70 102 73 103 71 104
REMARK H PARENT 16 22 95 57 63 68
REMARK Flexibility Score: inf
ROOT
ATOM      1  C   UNL A   1      33.768  22.054  24.756  1.00  0.00     0.202 C 
ENDROOT
BRANCH   1   2
ATOM      2  C   UNL A   1      32.245  22.022  24.814  1.00  0.00     0.261 C 
BRANCH   2   3
ATOM      3  O   UNL A   1      31.599  22.128  26.107  1.00  0.00    -0.461 OA
BRANCH   3   4
ATOM      4  C   UNL A   1      31.154  23.180  26.822  1.00  0.00     0.344 C 
ATOM      5  O   UNL A   1      30.009  23.175  27.281  1.00  0.00    -0.248 OA
BRANCH   4   6
ATOM      6  C   UNL A   1      31.978  24.449  26.906  1.00  0.00     0.352 C 
BRANCH   6   7
ATOM      7  O   UNL A   1      31.409  25.630  26.374  1.00  0.00    -0.481 OA
BRANCH   7   8
ATOM      8  C   UNL A   1      32.250  26.690  26.567  1.00  0.00     0.129 A 
ATOM      9  C   UNL A   1      31.834  27.681  27.451  1.00  0.00     0.047 A 
ATOM     10  C   UNL A   1      33.453  26.830  25.870  1.00  0.00     0.037 A 
ATOM     11  C   UNL A   1      32.634  28.806  27.643  1.00  0.00     0.004 A 
ATOM     12  C   UNL A   1      34.215  27.981  26.012  1.00  0.00     0.013 A 
ATOM     13  C   UNL A   1      33.822  28.954  26.924  1.00  0.00     0.001 A 
BRANCH  10  14
ATOM     14  C   UNL A   1      33.814  25.910  24.807  1.00  0.00     0.145 C 
ATOM     15  N   UNL A   1      33.413  25.758  23.590  1.00  0.00    -0.185 NA
BRANCH  15  16
ATOM     16  N   UNL A   1      32.514  26.480  22.913  1.00  0.00    -0.286 NA
ATOM     17  C   UNL A   1      31.296  25.731  22.607  1.00  0.00     0.200 C 
ATOM     18  C   UNL A   1      32.252  27.920  22.871  1.00  0.00     0.200 C 
ATOM     19  C   UNL A   1      30.196  26.082  23.619  1.00  0.00     0.286 C 
ATOM     20  C   UNL A   1      30.996  28.387  23.665  1.00  0.00     0.286 C 
ATOM     21  N   UNL A   1      29.819  27.501  23.681  1.00  0.00    -0.328 N 
ATOM     22  H   UNL A   1      29.395  27.645  24.598  1.00  0.00     0.348 HD
BRANCH  21  23
ATOM     23  C   UNL A   1      28.712  27.884  22.795  1.00  0.00     0.299 C 
BRANCH  23  24
ATOM     24  C   UNL A   1      28.455  29.367  22.663  1.00  0.00     0.006 A 
ATOM     25  C   UNL A   1      27.634  30.024  23.592  1.00  0.00     0.011 A 
ATOM     26  C   UNL A   1      29.111  30.125  21.684  1.00  0.00     0.011 A 
ATOM     27  C   UNL A   1      27.574  31.417  23.621  1.00  0.00     0.021 A 
ATOM     28  C   UNL A   1      29.072  31.519  21.728  1.00  0.00     0.021 A 
ATOM     29  C   UNL A   1      28.322  32.158  22.712  1.00  0.00     0.041 A 
ATOM     30  Cl  UNL A   1      28.344  33.874  22.824  1.00  0.00    -0.084 Cl
ENDBRANCH  23  24
ENDBRANCH  21  23
ENDBRANCH  15  16
ENDBRANCH  10  14
ENDBRANCH   7   8
ENDBRANCH   6   7
ENDBRANCH   4   6
ENDBRANCH   3   4
ENDBRANCH   2   3
ENDBRANCH   1   2
BRANCH   1  31
ATOM     31  O   UNL A   1      34.340  22.377  23.511  1.00  0.00    -0.376 OA
BRANCH  31  32
ATOM     32  C   UNL A   1      35.684  22.807  23.538  1.00  0.00     0.188 C 
BRANCH  32  33
ATOM     33  C   UNL A   1      36.627  21.881  24.334  1.00  0.00     0.188 C 
BRANCH  33  34
ATOM     34  O   UNL A   1      37.831  22.395  24.885  1.00  0.00    -0.376 OA
BRANCH  34  35
ATOM     35  C   UNL A   1      38.528  21.642  25.862  1.00  0.00     0.202 C 
BRANCH  35  36
ATOM     36  C   UNL A   1      39.302  20.387  25.417  1.00  0.00     0.261 C 
BRANCH  36  37
ATOM     37  O   UNL A   1      40.069  19.710  26.436  1.00  0.00    -0.460 OA
BRANCH  37  38
ATOM     38  C   UNL A   1      41.392  19.537  26.192  1.00  0.00     0.338 C 
ATOM     39  O   UNL A   1      41.919  18.556  25.682  1.00  0.00    -0.246 OA
BRANCH  38  40
ATOM     40  C   UNL A   1      42.150  20.792  26.451  1.00  0.00     0.060 A 
ATOM     41  C   UNL A   1      42.336  21.205  27.783  1.00  0.00     0.016 A 
ATOM     42  C   UNL A   1      42.643  21.582  25.411  1.00  0.00     0.016 A 
ATOM     43  C   UNL A   1      42.945  22.431  28.076  1.00  0.00     0.010 A 
ATOM     44  C   UNL A   1      43.227  22.826  25.703  1.00  0.00     0.010 A 
ATOM     45  C   UNL A   1      43.330  23.282  27.034  1.00  0.00    -0.014 A 
BRANCH  45  46
ATOM     46  C   UNL A   1      43.540  24.733  27.311  1.00  0.00     0.031 A 
ATOM     47  C   UNL A   1      44.905  25.309  27.025  1.00  0.00     0.074 A 
ATOM     48  C   UNL A   1      42.570  25.544  27.771  1.00  0.00     0.049 A 
ATOM     49  N   UNL A   1      45.371  26.516  27.231  1.00  0.00    -0.248 NA
ATOM     50  C   UNL A   1      45.882  24.384  26.429  1.00  0.00     0.031 C 
ATOM     51  C   UNL A   1      41.189  25.152  28.033  1.00  0.00     0.029 A 
ATOM     52  N   UNL A   1      42.612  26.878  28.105  1.00  0.00    -0.354 N 
ATOM     53  C   UNL A   1      46.695  26.485  26.811  1.00  0.00     0.074 A 
ATOM     54  C   UNL A   1      46.970  25.133  26.375  1.00  0.00     0.031 C 
ATOM     55  C   UNL A   1      40.516  26.220  28.499  1.00  0.00     0.029 A 
ATOM     56  C   UNL A   1      41.425  27.364  28.598  1.00  0.00     0.049 A 
ATOM     57  H   UNL A   1      43.418  27.434  28.001  1.00  0.00     0.167 HD
ATOM     58  C   UNL A   1      47.605  27.490  26.781  1.00  0.00     0.037 A 
ATOM     59  C   UNL A   1      41.116  28.583  29.086  1.00  0.00     0.037 A 
ATOM     60  C   UNL A   1      47.342  28.837  27.211  1.00  0.00     0.049 A 
ATOM     61  C   UNL A   1      42.167  29.669  29.123  1.00  0.00     0.074 A 
ATOM     62  C   UNL A   1      48.192  29.928  27.200  1.00  0.00     0.029 A 
ATOM     63  N   UNL A   1      46.136  29.276  27.741  1.00  0.00    -0.354 N 
ATOM     64  N   UNL A   1      43.410  29.638  28.709  1.00  0.00    -0.248 NA
ATOM     65  C   UNL A   1      41.762  30.963  29.693  1.00  0.00     0.031 C 
ATOM     66  C   UNL A   1      47.526  31.009  27.788  1.00  0.00     0.029 A 
ATOM     67  C   UNL A   1      46.233  30.613  28.092  1.00  0.00     0.049 A 
ATOM     68  H   UNL A   1      45.332  28.719  27.852  1.00  0.00     0.167 HD
ATOM     69  C   UNL A   1      43.920  30.914  28.924  1.00  0.00     0.074 A 
ATOM     70  C   UNL A   1      42.850  31.697  29.504  1.00  0.00     0.031 C 
ATOM     71  C   UNL A   1      45.160  31.394  28.656  1.00  0.00     0.037 A 
BRANCH  58  72
ATOM     72  C   UNL A   1      48.991  27.146  26.308  1.00  0.00     0.064 A 
ATOM     73  C   UNL A   1      49.362  27.234  24.957  1.00  0.00     0.173 A 
ATOM     74  C   UNL A   1      49.962  26.713  27.225  1.00  0.00     0.173 A 
ATOM     75  F   UNL A   1      48.469  27.628  24.036  1.00  0.00    -0.203 F 
ATOM     76  C   UNL A   1      50.634  26.855  24.536  1.00  0.00     0.198 A 
ATOM     77  C   UNL A   1      51.245  26.375  26.806  1.00  0.00     0.198 A 
ATOM     78  F   UNL A   1      49.665  26.617  28.529  1.00  0.00    -0.203 F 
ATOM     79  F   UNL A   1      50.940  26.876  23.232  1.00  0.00    -0.200 F 
ATOM     80  C   UNL A   1      51.576  26.431  25.461  1.00  0.00     0.200 A 
ATOM     81  F   UNL A   1      52.158  25.982  27.704  1.00  0.00    -0.200 F 
ATOM     82  F   UNL A   1      52.799  26.066  25.055  1.00  0.00    -0.200 F 
ENDBRANCH  58  72
BRANCH  59  83
ATOM     83  C   UNL A   1      39.739  28.859  29.581  1.00  0.00     0.064 A 
ATOM     84  C   UNL A   1      39.371  28.552  30.900  1.00  0.00     0.173 A 
ATOM     85  C   UNL A   1      38.758  29.412  28.745  1.00  0.00     0.173 A 
ATOM     86  F   UNL A   1      40.262  27.992  31.730  1.00  0.00    -0.203 F 
ATOM     87  C   UNL A   1      38.074  28.777  31.358  1.00  0.00     0.198 A 
ATOM     88  C   UNL A   1      37.470  29.664  29.214  1.00  0.00     0.198 A 
ATOM     89  F   UNL A   1      39.053  29.716  27.473  1.00  0.00    -0.203 F 
ATOM     90  F   UNL A   1      37.738  28.433  32.609  1.00  0.00    -0.200 F 
ATOM     91  C   UNL A   1      37.127  29.341  30.517  1.00  0.00     0.200 A 
ATOM     92  F   UNL A   1      36.560  30.219  28.401  1.00  0.00    -0.200 F 
ATOM     93  F   UNL A   1      35.882  29.565  30.961  1.00  0.00    -0.200 F 
ENDBRANCH  59  83
BRANCH  71  94
ATOM     94  C   UNL A   1      45.421  32.854  28.919  1.00  0.00     0.064 A 
ATOM     95  C   UNL A   1      45.961  33.311  30.131  1.00  0.00     0.173 A 
ATOM     96  C   UNL A   1      45.159  33.807  27.922  1.00  0.00     0.173 A 
ATOM     97  F   UNL A   1      46.223  32.448  31.123  1.00  0.00    -0.203 F 
ATOM     98  C   UNL A   1      46.196  34.669  30.344  1.00  0.00     0.198 A 
ATOM     99  C   UNL A   1      45.430  35.158  28.126  1.00  0.00     0.198 A 
ATOM    100  F   UNL A   1      44.652  33.427  26.739  1.00  0.00    -0.203 F 
ATOM    101  F   UNL A   1      46.657  35.088  31.532  1.00  0.00    -0.200 F 
ATOM    102  C   UNL A   1      45.938  35.589  29.341  1.00  0.00     0.200 A 
ATOM    103  F   UNL A   1      45.198  36.042  27.145  1.00  0.00    -0.200 F 
ATOM    104  F   UNL A   1      46.171  36.893  29.546  1.00  0.00    -0.200 F 
ENDBRANCH  71  94
ENDBRANCH  45  46
ENDBRANCH  38  40
ENDBRANCH  37  38
ENDBRANCH  36  37
ENDBRANCH  35  36
ENDBRANCH  34  35
ENDBRANCH  33  34
ENDBRANCH  32  33
ENDBRANCH  31  32
ENDBRANCH   1  31
TORSDOF 23
ENDMDL
MODEL 3
REMARK VINA RESULT:      -9.4      3.121      5.657
REMARK SMILES O=C(COc1ccccc1/C=N\N1CC[NH+](Cc2ccc(Cl)cc2)CC1)OCCOCCOCCOC(=O)c1ccc(-c2c3nc(c(-c4c(F)c(F)c(F)c(F)c4F)c4ccc([nH]4)c(-c4c(F)c(F)c(F)c(F)c4F)c4nc(c(-c5c(F)c(F)c(F)c(F)c5F)c5ccc2[nH]5)C=C4)C=C3)cc1
REMARK SMILES IDX 29 1 28 2 27 3 2 4 1 5 3 6 4 7 5 8 6 9 10 10 7 11 9 12 8 13
REMARK SMILES IDX 11 14 12 15 13 16 14 17 26 18 15 19 25 20 16 21 17 23 18 24
REMARK SMILES IDX 19 25 24 26 20 27 23 28 21 29 22 30 30 31 31 32 32 33 33 34
REMARK SMILES IDX 34 35 35 36 36 37 37 38 38 39 39 40 40 41 101 42 41 43
REMARK SMILES IDX 100 44 42 45 43 46 44 47 94 48 45 49 99 50 93 51 95 52 46 53
REMARK SMILES IDX 98 54 92 55 91 56 47 58 79 59 59 60 78 61 60 62 63 63 77 64
REMARK SMILES IDX 96 65 61 66 62 67 76 69 97 70 64 71 48 72 49 73 57 74 50 75
REMARK SMILES IDX 51 76 55 77 58 78 52 79 53 80 56 81 54 82 80 83 81 84 89 85
REMARK SMILES IDX 82 86 83 87 87 88 90 89 84 90 85 91 88 92 86 93 65 94 66 95
REMARK SMILES IDX 74 96 67 97 68 98 72 99 75 100 69 101 70 102 73 103 71 104
REMARK H PARENT 16 22 95 57 63 68
REMARK Flexibility Score: inf
ROOT
ATOM      1  C   UNL A   1      39.316  25.224  27.700  1.00  0.00     0.202 C 
ENDROOT
BRANCH   1   2
ATOM      2  C   UNL A   1      38.685  24.456  26.545  1.00  0.00     0.261 C 
BRANCH   2   3
ATOM      3  O   UNL A   1      38.973  23.042  26.415  1.00  0.00    -0.461 OA
BRANCH   3   4
ATOM      4  C   UNL A   1      38.330  22.032  25.796  1.00  0.00     0.344 C 
ATOM      5  O   UNL A   1      38.931  20.989  25.528  1.00  0.00    -0.248 OA
BRANCH   4   6
ATOM      6  C   UNL A   1      36.929  22.237  25.256  1.00  0.00     0.352 C 
BRANCH   6   7
ATOM      7  O   UNL A   1      35.868  22.255  26.192  1.00  0.00    -0.481 OA
BRANCH   7   8
ATOM      8  C   UNL A   1      34.946  21.296  25.881  1.00  0.00     0.129 A 
ATOM      9  C   UNL A   1      35.325  20.321  24.962  1.00  0.00     0.047 A 
ATOM     10  C   UNL A   1      33.647  21.305  26.398  1.00  0.00     0.037 A 
ATOM     11  C   UNL A   1      34.403  19.351  24.575  1.00  0.00     0.004 A 
ATOM     12  C   UNL A   1      32.712  20.379  25.961  1.00  0.00     0.013 A 
ATOM     13  C   UNL A   1      33.099  19.381  25.074  1.00  0.00     0.001 A 
BRANCH  10  14
ATOM     14  C   UNL A   1      33.172  22.414  27.205  1.00  0.00     0.145 C 
ATOM     15  N   UNL A   1      32.326  23.366  26.994  1.00  0.00    -0.185 NA
BRANCH  15  16
ATOM     16  N   UNL A   1      31.576  23.590  25.911  1.00  0.00    -0.286 NA
ATOM     17  C   UNL A   1      30.270  24.166  26.232  1.00  0.00     0.200 C 
ATOM     18  C   UNL A   1      31.932  23.877  24.521  1.00  0.00     0.200 C 
ATOM     19  C   UNL A   1      30.299  25.685  26.013  1.00  0.00     0.286 C 
ATOM     20  C   UNL A   1      31.764  25.364  24.087  1.00  0.00     0.286 C 
ATOM     21  N   UNL A   1      30.635  26.124  24.651  1.00  0.00    -0.328 N 
ATOM     22  H   UNL A   1      30.979  27.081  24.736  1.00  0.00     0.348 HD
BRANCH  21  23
ATOM     23  C   UNL A   1      29.481  26.318  23.763  1.00  0.00     0.299 C 
BRANCH  23  24
ATOM     24  C   UNL A   1      29.147  27.750  23.417  1.00  0.00     0.006 A 
ATOM     25  C   UNL A   1      27.825  28.112  23.121  1.00  0.00     0.011 A 
ATOM     26  C   UNL A   1      30.125  28.751  23.488  1.00  0.00     0.011 A 
ATOM     27  C   UNL A   1      27.465  29.456  23.028  1.00  0.00     0.021 A 
ATOM     28  C   UNL A   1      29.761  30.097  23.421  1.00  0.00     0.021 A 
ATOM     29  C   UNL A   1      28.428  30.443  23.214  1.00  0.00     0.041 A 
ATOM     30  Cl  UNL A   1      27.963  32.098  23.221  1.00  0.00    -0.084 Cl
ENDBRANCH  23  24
ENDBRANCH  21  23
ENDBRANCH  15  16
ENDBRANCH  10  14
ENDBRANCH   7   8
ENDBRANCH   6   7
ENDBRANCH   4   6
ENDBRANCH   3   4
ENDBRANCH   2   3
ENDBRANCH   1   2
BRANCH   1  31
ATOM     31  O   UNL A   1      40.373  24.584  28.374  1.00  0.00    -0.376 OA
BRANCH  31  32
ATOM     32  C   UNL A   1      41.669  25.080  28.112  1.00  0.00     0.188 C 
BRANCH  32  33
ATOM     33  C   UNL A   1      42.559  24.122  27.294  1.00  0.00     0.188 C 
BRANCH  33  34
ATOM     34  O   UNL A   1      42.024  23.442  26.167  1.00  0.00    -0.376 OA
BRANCH  34  35
ATOM     35  C   UNL A   1      42.809  22.467  25.503  1.00  0.00     0.202 C 
BRANCH  35  36
ATOM     36  C   UNL A   1      43.998  22.934  24.641  1.00  0.00     0.261 C 
BRANCH  36  37
ATOM     37  O   UNL A   1      45.255  23.117  25.327  1.00  0.00    -0.460 OA
BRANCH  37  38
ATOM     38  C   UNL A   1      45.960  24.236  25.022  1.00  0.00     0.338 C 
ATOM     39  O   UNL A   1      46.778  24.361  24.119  1.00  0.00    -0.246 OA
BRANCH  38  40
ATOM     40  C   UNL A   1      45.483  25.400  25.818  1.00  0.00     0.060 A 
ATOM     41  C   UNL A   1      44.720  26.390  25.174  1.00  0.00     0.016 A 
ATOM     42  C   UNL A   1      45.804  25.549  27.169  1.00  0.00     0.016 A 
ATOM     43  C   UNL A   1      44.340  27.555  25.850  1.00  0.00     0.010 A 
ATOM     44  C   UNL A   1      45.449  26.732  27.838  1.00  0.00     0.010 A 
ATOM     45  C   UNL A   1      44.765  27.766  27.166  1.00  0.00    -0.014 A 
BRANCH  45  46
ATOM     46  C   UNL A   1      44.771  29.150  27.724  1.00  0.00     0.031 A 
ATOM     47  C   UNL A   1      43.553  29.599  28.494  1.00  0.00     0.074 A 
ATOM     48  C   UNL A   1      45.812  29.991  27.596  1.00  0.00     0.049 A 
ATOM     49  N   UNL A   1      43.274  30.761  29.027  1.00  0.00    -0.248 NA
ATOM     50  C   UNL A   1      42.498  28.588  28.676  1.00  0.00     0.031 C 
ATOM     51  C   UNL A   1      47.078  29.683  26.940  1.00  0.00     0.029 A 
ATOM     52  N   UNL A   1      45.958  31.294  28.017  1.00  0.00    -0.354 N 
ATOM     53  C   UNL A   1      42.009  30.626  29.586  1.00  0.00     0.074 A 
ATOM     54  C   UNL A   1      41.559  29.283  29.295  1.00  0.00     0.031 C 
ATOM     55  C   UNL A   1      47.870  30.770  26.991  1.00  0.00     0.029 A 
ATOM     56  C   UNL A   1      47.156  31.862  27.656  1.00  0.00     0.049 A 
ATOM     57  H   UNL A   1      45.268  31.774  28.530  1.00  0.00     0.167 HD
ATOM     58  C   UNL A   1      41.284  31.532  30.287  1.00  0.00     0.037 A 
ATOM     59  C   UNL A   1      47.613  33.120  27.829  1.00  0.00     0.037 A 
ATOM     60  C   UNL A   1      41.723  32.870  30.583  1.00  0.00     0.049 A 
ATOM     61  C   UNL A   1      46.757  34.142  28.540  1.00  0.00     0.074 A 
ATOM     62  C   UNL A   1      41.068  33.853  31.303  1.00  0.00     0.029 A 
ATOM     63  N   UNL A   1      42.927  33.417  30.164  1.00  0.00    -0.354 N 
ATOM     64  N   UNL A   1      45.570  34.003  29.081  1.00  0.00    -0.248 NA
ATOM     65  C   UNL A   1      47.312  35.498  28.668  1.00  0.00     0.031 C 
ATOM     66  C   UNL A   1      41.844  35.017  31.260  1.00  0.00     0.029 A 
ATOM     67  C   UNL A   1      43.019  34.735  30.582  1.00  0.00     0.049 A 
ATOM     68  H   UNL A   1      43.615  32.939  29.645  1.00  0.00     0.167 HD
ATOM     69  C   UNL A   1      45.259  35.233  29.650  1.00  0.00     0.074 A 
ATOM     70  C   UNL A   1      46.383  36.107  29.391  1.00  0.00     0.031 C 
ATOM     71  C   UNL A   1      44.146  35.600  30.334  1.00  0.00     0.037 A 
BRANCH  58  72
ATOM     72  C   UNL A   1      39.912  31.111  30.739  1.00  0.00     0.064 A 
ATOM     73  C   UNL A   1      39.711  30.332  31.889  1.00  0.00     0.173 A 
ATOM     74  C   UNL A   1      38.780  31.490  30.001  1.00  0.00     0.173 A 
ATOM     75  F   UNL A   1      40.760  29.930  32.624  1.00  0.00    -0.203 F 
ATOM     76  C   UNL A   1      38.436  29.906  32.254  1.00  0.00     0.198 A 
ATOM     77  C   UNL A   1      37.503  31.097  30.391  1.00  0.00     0.198 A 
ATOM     78  F   UNL A   1      38.911  32.240  28.897  1.00  0.00    -0.203 F 
ATOM     79  F   UNL A   1      38.278  29.101  33.313  1.00  0.00    -0.200 F 
ATOM     80  C   UNL A   1      37.333  30.294  31.508  1.00  0.00     0.200 A 
ATOM     81  F   UNL A   1      36.438  31.487  29.679  1.00  0.00    -0.200 F 
ATOM     82  F   UNL A   1      36.107  29.884  31.860  1.00  0.00    -0.200 F 
ENDBRANCH  58  72
BRANCH  59  83
ATOM     83  C   UNL A   1      48.963  33.496  27.326  1.00  0.00     0.064 A 
ATOM     84  C   UNL A   1      49.121  34.101  26.070  1.00  0.00     0.173 A 
ATOM     85  C   UNL A   1      50.120  33.241  28.075  1.00  0.00     0.173 A 
ATOM     86  F   UNL A   1      48.049  34.336  25.300  1.00  0.00    -0.203 F 
ATOM     87  C   UNL A   1      50.386  34.424  25.580  1.00  0.00     0.198 A 
ATOM     88  C   UNL A   1      51.381  33.593  27.596  1.00  0.00     0.198 A 
ATOM     89  F   UNL A   1      50.027  32.658  29.279  1.00  0.00    -0.203 F 
ATOM     90  F   UNL A   1      50.511  34.959  24.357  1.00  0.00    -0.200 F 
ATOM     91  C   UNL A   1      51.514  34.177  26.347  1.00  0.00     0.200 A 
ATOM     92  F   UNL A   1      52.468  33.363  28.346  1.00  0.00    -0.200 F 
ATOM     93  F   UNL A   1      52.728  34.498  25.878  1.00  0.00    -0.200 F 
ENDBRANCH  59  83
BRANCH  71  94
ATOM     94  C   UNL A   1      44.105  36.988  30.917  1.00  0.00     0.064 A 
ATOM     95  C   UNL A   1      43.714  38.105  30.162  1.00  0.00     0.173 A 
ATOM     96  C   UNL A   1      44.427  37.195  32.268  1.00  0.00     0.173 A 
ATOM     97  F   UNL A   1      43.405  37.969  28.864  1.00  0.00    -0.203 F 
ATOM     98  C   UNL A   1      43.682  39.378  30.730  1.00  0.00     0.198 A 
ATOM     99  C   UNL A   1      44.357  38.462  32.840  1.00  0.00     0.198 A 
ATOM    100  F   UNL A   1      44.797  36.162  33.041  1.00  0.00    -0.203 F 
ATOM    101  F   UNL A   1      43.362  40.438  29.973  1.00  0.00    -0.200 F 
ATOM    102  C   UNL A   1      43.995  39.554  32.068  1.00  0.00     0.200 A 
ATOM    103  F   UNL A   1      44.641  38.625  34.141  1.00  0.00    -0.200 F 
ATOM    104  F   UNL A   1      43.956  40.778  32.614  1.00  0.00    -0.200 F 
ENDBRANCH  71  94
ENDBRANCH  45  46
ENDBRANCH  38  40
ENDBRANCH  37  38
ENDBRANCH  36  37
ENDBRANCH  35  36
ENDBRANCH  34  35
ENDBRANCH  33  34
ENDBRANCH  32  33
ENDBRANCH  31  32
ENDBRANCH   1  31
TORSDOF 23
ENDMDL
