MODEL 1
REMARK VINA RESULT:      -9.5      0.000      0.000
REMARK SMILES COc1ncccc1CS[C@@H](C)C(=O)OCCOCCOCCOC(=O)c1ccc(-c2c3nc(c(-c4c(F)c(F)c(F)c(F)c4F)c4ccc([nH]4)c(-c4c(F)c(F)c(F)c(F)c4F)c4nc(c(-c5c(F)c(F)c(F)c(F)c5F)c5ccc2[nH]5)C=C4)C=C3)cc1
REMARK SMILES IDX 19 1 18 2 17 3 16 4 15 5 13 6 14 7 11 8 12 9 10 10 9 11 8 12
REMARK SMILES IDX 3 13 4 14 5 15 7 16 6 17 2 18 1 19 20 20 21 21 22 22 23 23
REMARK SMILES IDX 24 24 25 25 26 26 27 27 28 28 89 29 29 30 88 31 30 32 31 33
REMARK SMILES IDX 32 34 82 35 33 36 87 37 81 38 83 39 34 40 86 41 80 42 79 43
REMARK SMILES IDX 35 45 67 46 47 47 66 48 48 49 51 50 65 51 84 52 49 53 50 54
REMARK SMILES IDX 64 56 85 57 52 58 36 59 37 60 45 61 38 62 39 63 43 64 46 65
REMARK SMILES IDX 40 66 41 67 44 68 42 69 68 70 69 71 77 72 70 73 71 74 75 75
REMARK SMILES IDX 78 76 72 77 73 78 76 79 74 80 53 81 54 82 62 83 55 84 56 85
REMARK SMILES IDX 60 86 63 87 57 88 58 89 61 90 59 91
REMARK H PARENT 83 44 51 55
REMARK Flexibility Score: inf
ROOT
ATOM      1  C   UNL A   1      32.281  29.455  25.939  1.00  0.00     0.188 C 
ENDROOT
BRANCH   1   2
ATOM      2  O   UNL A   1      33.449  29.148  25.186  1.00  0.00    -0.376 OA
BRANCH   2   3
ATOM      3  C   UNL A   1      33.294  28.690  23.848  1.00  0.00     0.202 C 
BRANCH   3   4
ATOM      4  C   UNL A   1      33.610  27.214  23.601  1.00  0.00     0.261 C 
BRANCH   4   5
ATOM      5  O   UNL A   1      32.512  26.330  23.912  1.00  0.00    -0.462 OA
BRANCH   5   6
ATOM      6  C   UNL A   1      32.510  25.759  25.140  1.00  0.00     0.318 C 
ATOM      7  O   UNL A   1      33.469  25.789  25.906  1.00  0.00    -0.251 OA
BRANCH   6   8
ATOM      8  C   UNL A   1      31.253  24.967  25.478  1.00  0.00     0.153 C 
ATOM      9  C   UNL A   1      30.071  25.882  25.736  1.00  0.00     0.032 C 
BRANCH   8  10
ATOM     10  S   UNL A   1      31.434  23.554  26.628  1.00  0.00    -0.142 SA
BRANCH  10  11
ATOM     11  C   UNL A   1      31.466  22.048  25.583  1.00  0.00     0.111 C 
BRANCH  11  12
ATOM     12  C   UNL A   1      32.839  21.474  25.372  1.00  0.00     0.024 A 
ATOM     13  C   UNL A   1      33.076  20.134  25.043  1.00  0.00     0.217 A 
ATOM     14  N   UNL A   1      34.309  19.611  24.845  1.00  0.00    -0.222 NA
ATOM     15  C   UNL A   1      35.357  20.454  24.952  1.00  0.00     0.115 A 
ATOM     16  C   UNL A   1      33.966  22.288  25.545  1.00  0.00     0.012 A 
ATOM     17  C   UNL A   1      35.241  21.780  25.323  1.00  0.00     0.021 A 
BRANCH  13  18
ATOM     18  O   UNL A   1      32.078  19.199  25.142  1.00  0.00    -0.481 OA
ATOM     19  C   UNL A   1      32.542  17.874  24.908  1.00  0.00     0.280 C 
ENDBRANCH  13  18
ENDBRANCH  11  12
ENDBRANCH  10  11
ENDBRANCH   8  10
ENDBRANCH   6   8
ENDBRANCH   5   6
ENDBRANCH   4   5
ENDBRANCH   3   4
ENDBRANCH   2   3
ENDBRANCH   1   2
BRANCH   1  20
ATOM     20  C   UNL A   1      31.273  30.430  25.330  1.00  0.00     0.188 C 
BRANCH  20  21
ATOM     21  O   UNL A   1      31.045  31.657  25.997  1.00  0.00    -0.376 OA
BRANCH  21  22
ATOM     22  C   UNL A   1      31.821  31.966  27.140  1.00  0.00     0.202 C 
BRANCH  22  23
ATOM     23  C   UNL A   1      32.217  33.437  27.194  1.00  0.00     0.261 C 
BRANCH  23  24
ATOM     24  O   UNL A   1      33.636  33.533  27.008  1.00  0.00    -0.460 OA
BRANCH  24  25
ATOM     25  C   UNL A   1      34.333  34.140  27.996  1.00  0.00     0.338 C 
ATOM     26  O   UNL A   1      34.089  35.180  28.565  1.00  0.00    -0.246 OA
BRANCH  25  27
ATOM     27  C   UNL A   1      35.384  33.199  28.424  1.00  0.00     0.060 A 
ATOM     28  C   UNL A   1      35.031  31.865  28.675  1.00  0.00     0.016 A 
ATOM     29  C   UNL A   1      36.702  33.635  28.572  1.00  0.00     0.016 A 
ATOM     30  C   UNL A   1      35.995  30.969  29.131  1.00  0.00     0.010 A 
ATOM     31  C   UNL A   1      37.661  32.742  29.029  1.00  0.00     0.010 A 
ATOM     32  C   UNL A   1      37.300  31.424  29.352  1.00  0.00    -0.014 A 
BRANCH  32  33
ATOM     33  C   UNL A   1      38.265  30.623  30.129  1.00  0.00     0.031 A 
ATOM     34  C   UNL A   1      38.437  30.973  31.580  1.00  0.00     0.074 A 
ATOM     35  C   UNL A   1      39.020  29.684  29.539  1.00  0.00     0.049 A 
ATOM     36  N   UNL A   1      39.372  30.614  32.417  1.00  0.00    -0.248 NA
ATOM     37  C   UNL A   1      37.425  31.878  32.154  1.00  0.00     0.031 C 
ATOM     38  C   UNL A   1      38.900  29.252  28.147  1.00  0.00     0.029 A 
ATOM     39  N   UNL A   1      40.070  28.955  30.033  1.00  0.00    -0.354 N 
ATOM     40  C   UNL A   1      39.074  31.265  33.608  1.00  0.00     0.074 A 
ATOM     41  C   UNL A   1      37.894  32.066  33.378  1.00  0.00     0.031 C 
ATOM     42  C   UNL A   1      39.867  28.354  27.888  1.00  0.00     0.029 A 
ATOM     43  C   UNL A   1      40.698  28.192  29.079  1.00  0.00     0.049 A 
ATOM     44  H   UNL A   1      40.348  28.976  30.977  1.00  0.00     0.167 HD
ATOM     45  C   UNL A   1      39.732  31.191  34.787  1.00  0.00     0.037 A 
ATOM     46  C   UNL A   1      41.842  27.487  29.161  1.00  0.00     0.037 A 
ATOM     47  C   UNL A   1      40.906  30.388  34.990  1.00  0.00     0.049 A 
ATOM     48  C   UNL A   1      42.594  27.474  30.470  1.00  0.00     0.074 A 
ATOM     49  C   UNL A   1      41.659  30.232  36.138  1.00  0.00     0.029 A 
ATOM     50  N   UNL A   1      41.497  29.603  34.009  1.00  0.00    -0.354 N 
ATOM     51  N   UNL A   1      42.310  28.081  31.597  1.00  0.00    -0.248 NA
ATOM     52  C   UNL A   1      43.827  26.676  30.518  1.00  0.00     0.031 C 
ATOM     53  C   UNL A   1      42.732  29.388  35.841  1.00  0.00     0.029 A 
ATOM     54  C   UNL A   1      42.610  28.965  34.526  1.00  0.00     0.049 A 
ATOM     55  H   UNL A   1      41.172  29.514  33.084  1.00  0.00     0.167 HD
ATOM     56  C   UNL A   1      43.294  27.698  32.500  1.00  0.00     0.074 A 
ATOM     57  C   UNL A   1      44.184  26.805  31.788  1.00  0.00     0.031 C 
ATOM     58  C   UNL A   1      43.450  28.047  33.801  1.00  0.00     0.037 A 
BRANCH  45  59
ATOM     59  C   UNL A   1      39.208  32.000  35.936  1.00  0.00     0.064 A 
ATOM     60  C   UNL A   1      38.306  31.461  36.865  1.00  0.00     0.173 A 
ATOM     61  C   UNL A   1      39.652  33.316  36.142  1.00  0.00     0.173 A 
ATOM     62  F   UNL A   1      37.836  30.214  36.703  1.00  0.00    -0.203 F 
ATOM     63  C   UNL A   1      37.857  32.211  37.948  1.00  0.00     0.198 A 
ATOM     64  C   UNL A   1      39.225  34.052  37.244  1.00  0.00     0.198 A 
ATOM     65  F   UNL A   1      40.512  33.882  35.283  1.00  0.00    -0.203 F 
ATOM     66  F   UNL A   1      36.965  31.686  38.800  1.00  0.00    -0.200 F 
ATOM     67  C   UNL A   1      38.325  33.501  38.144  1.00  0.00     0.200 A 
ATOM     68  F   UNL A   1      39.689  35.294  37.439  1.00  0.00    -0.200 F 
ATOM     69  F   UNL A   1      37.907  34.215  39.197  1.00  0.00    -0.200 F 
ENDBRANCH  45  59
BRANCH  46  70
ATOM     70  C   UNL A   1      42.363  26.752  27.977  1.00  0.00     0.064 A 
ATOM     71  C   UNL A   1      43.189  27.389  27.040  1.00  0.00     0.173 A 
ATOM     72  C   UNL A   1      42.013  25.415  27.732  1.00  0.00     0.173 A 
ATOM     73  F   UNL A   1      43.536  28.672  27.218  1.00  0.00    -0.203 F 
ATOM     74  C   UNL A   1      43.610  26.733  25.885  1.00  0.00     0.198 A 
ATOM     75  C   UNL A   1      42.465  24.749  26.593  1.00  0.00     0.198 A 
ATOM     76  F   UNL A   1      41.229  24.755  28.596  1.00  0.00    -0.203 F 
ATOM     77  F   UNL A   1      44.339  27.391  24.973  1.00  0.00    -0.200 F 
ATOM     78  C   UNL A   1      43.250  25.412  25.663  1.00  0.00     0.200 A 
ATOM     79  F   UNL A   1      42.127  23.468  26.391  1.00  0.00    -0.200 F 
ATOM     80  F   UNL A   1      43.648  24.785  24.548  1.00  0.00    -0.200 F 
ENDBRANCH  46  70
BRANCH  58  81
ATOM     81  C   UNL A   1      44.565  27.396  34.565  1.00  0.00     0.064 A 
ATOM     82  C   UNL A   1      45.814  28.011  34.729  1.00  0.00     0.173 A 
ATOM     83  C   UNL A   1      44.347  26.163  35.202  1.00  0.00     0.173 A 
ATOM     84  F   UNL A   1      46.074  29.182  34.131  1.00  0.00    -0.203 F 
ATOM     85  C   UNL A   1      46.812  27.403  35.486  1.00  0.00     0.198 A 
ATOM     86  C   UNL A   1      45.336  25.578  35.985  1.00  0.00     0.198 A 
ATOM     87  F   UNL A   1      43.164  25.540  35.084  1.00  0.00    -0.203 F 
ATOM     88  F   UNL A   1      48.014  27.985  35.594  1.00  0.00    -0.200 F 
ATOM     89  C   UNL A   1      46.569  26.194  36.121  1.00  0.00     0.200 A 
ATOM     90  F   UNL A   1      45.090  24.420  36.615  1.00  0.00    -0.200 F 
ATOM     91  F   UNL A   1      47.527  25.621  36.862  1.00  0.00    -0.200 F 
ENDBRANCH  58  81
ENDBRANCH  32  33
ENDBRANCH  25  27
ENDBRANCH  24  25
ENDBRANCH  23  24
ENDBRANCH  22  23
ENDBRANCH  21  22
ENDBRANCH  20  21
ENDBRANCH   1  20
TORSDOF 21
ENDMDL
MODEL 2
REMARK VINA RESULT:      -9.5      1.742      2.813
REMARK SMILES COc1ncccc1CS[C@@H](C)C(=O)OCCOCCOCCOC(=O)c1ccc(-c2c3nc(c(-c4c(F)c(F)c(F)c(F)c4F)c4ccc([nH]4)c(-c4c(F)c(F)c(F)c(F)c4F)c4nc(c(-c5c(F)c(F)c(F)c(F)c5F)c5ccc2[nH]5)C=C4)C=C3)cc1
REMARK SMILES IDX 19 1 18 2 17 3 16 4 15 5 13 6 14 7 11 8 12 9 10 10 9 11 8 12
REMARK SMILES IDX 3 13 4 14 5 15 7 16 6 17 2 18 1 19 20 20 21 21 22 22 23 23
REMARK SMILES IDX 24 24 25 25 26 26 27 27 28 28 89 29 29 30 88 31 30 32 31 33
REMARK SMILES IDX 32 34 82 35 33 36 87 37 81 38 83 39 34 40 86 41 80 42 79 43
REMARK SMILES IDX 35 45 67 46 47 47 66 48 48 49 51 50 65 51 84 52 49 53 50 54
REMARK SMILES IDX 64 56 85 57 52 58 36 59 37 60 45 61 38 62 39 63 43 64 46 65
REMARK SMILES IDX 40 66 41 67 44 68 42 69 68 70 69 71 77 72 70 73 71 74 75 75
REMARK SMILES IDX 78 76 72 77 73 78 76 79 74 80 53 81 54 82 62 83 55 84 56 85
REMARK SMILES IDX 60 86 63 87 57 88 58 89 61 90 59 91
REMARK H PARENT 83 44 51 55
REMARK Flexibility Score: inf
ROOT
ATOM      1  C   UNL A   1      32.215  29.794  25.153  1.00  0.00     0.188 C 
ENDROOT
BRANCH   1   2
ATOM      2  O   UNL A   1      31.079  28.953  24.993  1.00  0.00    -0.376 OA
BRANCH   2   3
ATOM      3  C   UNL A   1      31.257  27.675  24.393  1.00  0.00     0.202 C 
BRANCH   3   4
ATOM      4  C   UNL A   1      31.906  27.665  23.009  1.00  0.00     0.261 C 
BRANCH   4   5
ATOM      5  O   UNL A   1      33.269  27.187  23.015  1.00  0.00    -0.462 OA
BRANCH   5   6
ATOM      6  C   UNL A   1      33.529  26.059  22.312  1.00  0.00     0.318 C 
ATOM      7  O   UNL A   1      33.337  25.951  21.104  1.00  0.00    -0.251 OA
BRANCH   6   8
ATOM      8  C   UNL A   1      33.982  24.870  23.150  1.00  0.00     0.153 C 
ATOM      9  C   UNL A   1      33.336  23.581  22.681  1.00  0.00     0.032 C 
BRANCH   8  10
ATOM     10  S   UNL A   1      34.072  25.103  24.963  1.00  0.00    -0.142 SA
BRANCH  10  11
ATOM     11  C   UNL A   1      34.005  23.424  25.696  1.00  0.00     0.111 C 
BRANCH  11  12
ATOM     12  C   UNL A   1      35.253  22.612  25.493  1.00  0.00     0.024 A 
ATOM     13  C   UNL A   1      35.253  21.225  25.311  1.00  0.00     0.217 A 
ATOM     14  N   UNL A   1      36.372  20.487  25.120  1.00  0.00    -0.222 NA
ATOM     15  C   UNL A   1      37.545  21.152  25.082  1.00  0.00     0.115 A 
ATOM     16  C   UNL A   1      36.504  23.243  25.520  1.00  0.00     0.012 A 
ATOM     17  C   UNL A   1      37.666  22.511  25.302  1.00  0.00     0.021 A 
BRANCH  13  18
ATOM     18  O   UNL A   1      34.128  20.483  25.562  1.00  0.00    -0.481 OA
ATOM     19  C   UNL A   1      33.359  20.235  24.391  1.00  0.00     0.280 C 
ENDBRANCH  13  18
ENDBRANCH  11  12
ENDBRANCH  10  11
ENDBRANCH   8  10
ENDBRANCH   6   8
ENDBRANCH   5   6
ENDBRANCH   4   5
ENDBRANCH   3   4
ENDBRANCH   2   3
ENDBRANCH   1   2
BRANCH   1  20
ATOM     20  C   UNL A   1      32.989  29.708  26.469  1.00  0.00     0.188 C 
BRANCH  20  21
ATOM     21  O   UNL A   1      32.759  30.705  27.445  1.00  0.00    -0.376 OA
BRANCH  21  22
ATOM     22  C   UNL A   1      33.324  31.989  27.255  1.00  0.00     0.202 C 
BRANCH  22  23
ATOM     23  C   UNL A   1      32.361  33.110  27.630  1.00  0.00     0.261 C 
BRANCH  23  24
ATOM     24  O   UNL A   1      33.051  34.361  27.510  1.00  0.00    -0.460 OA
BRANCH  24  25
ATOM     25  C   UNL A   1      33.161  35.098  28.640  1.00  0.00     0.338 C 
ATOM     26  O   UNL A   1      32.430  35.971  29.048  1.00  0.00    -0.246 OA
BRANCH  25  27
ATOM     27  C   UNL A   1      34.262  34.515  29.430  1.00  0.00     0.060 A 
ATOM     28  C   UNL A   1      35.565  34.577  28.916  1.00  0.00     0.016 A 
ATOM     29  C   UNL A   1      34.002  33.916  30.663  1.00  0.00     0.016 A 
ATOM     30  C   UNL A   1      36.613  33.986  29.617  1.00  0.00     0.010 A 
ATOM     31  C   UNL A   1      35.046  33.325  31.360  1.00  0.00     0.010 A 
ATOM     32  C   UNL A   1      36.342  33.320  30.817  1.00  0.00    -0.014 A 
BRANCH  32  33
ATOM     33  C   UNL A   1      37.333  32.413  31.427  1.00  0.00     0.031 A 
ATOM     34  C   UNL A   1      37.854  32.778  32.787  1.00  0.00     0.074 A 
ATOM     35  C   UNL A   1      37.813  31.357  30.751  1.00  0.00     0.049 A 
ATOM     36  N   UNL A   1      38.888  32.313  33.435  1.00  0.00    -0.248 NA
ATOM     37  C   UNL A   1      37.117  33.836  33.502  1.00  0.00     0.031 C 
ATOM     38  C   UNL A   1      37.344  30.905  29.442  1.00  0.00     0.029 A 
ATOM     39  N   UNL A   1      38.836  30.500  31.062  1.00  0.00    -0.354 N 
ATOM     40  C   UNL A   1      38.939  33.036  34.621  1.00  0.00     0.074 A 
ATOM     41  C   UNL A   1      37.855  33.991  34.591  1.00  0.00     0.031 C 
ATOM     42  C   UNL A   1      38.105  29.870  29.044  1.00  0.00     0.029 A 
ATOM     43  C   UNL A   1      39.139  29.626  30.046  1.00  0.00     0.049 A 
ATOM     44  H   UNL A   1      39.307  30.509  31.926  1.00  0.00     0.167 HD
ATOM     45  C   UNL A   1      39.814  32.903  35.642  1.00  0.00     0.037 A 
ATOM     46  C   UNL A   1      40.169  28.766  29.934  1.00  0.00     0.037 A 
ATOM     47  C   UNL A   1      40.887  31.946  35.647  1.00  0.00     0.049 A 
ATOM     48  C   UNL A   1      41.173  28.685  31.059  1.00  0.00     0.074 A 
ATOM     49  C   UNL A   1      41.837  31.718  36.624  1.00  0.00     0.029 A 
ATOM     50  N   UNL A   1      41.145  31.055  34.615  1.00  0.00    -0.354 N 
ATOM     51  N   UNL A   1      41.217  29.360  32.183  1.00  0.00    -0.248 NA
ATOM     52  C   UNL A   1      42.269  27.720  30.901  1.00  0.00     0.031 C 
ATOM     53  C   UNL A   1      42.699  30.720  36.164  1.00  0.00     0.029 A 
ATOM     54  C   UNL A   1      42.246  30.279  34.930  1.00  0.00     0.049 A 
ATOM     55  H   UNL A   1      40.623  30.986  33.783  1.00  0.00     0.167 HD
ATOM     56  C   UNL A   1      42.309  28.866  32.885  1.00  0.00     0.074 A 
ATOM     57  C   UNL A   1      42.900  27.834  32.061  1.00  0.00     0.031 C 
ATOM     58  C   UNL A   1      42.782  29.229  34.104  1.00  0.00     0.037 A 
BRANCH  45  59
ATOM     59  C   UNL A   1      39.659  33.814  36.824  1.00  0.00     0.064 A 
ATOM     60  C   UNL A   1      38.893  33.446  37.940  1.00  0.00     0.173 A 
ATOM     61  C   UNL A   1      40.325  35.049  36.864  1.00  0.00     0.173 A 
ATOM     62  F   UNL A   1      38.221  32.284  37.945  1.00  0.00    -0.203 F 
ATOM     63  C   UNL A   1      38.789  34.284  39.047  1.00  0.00     0.198 A 
ATOM     64  C   UNL A   1      40.243  35.871  37.986  1.00  0.00     0.198 A 
ATOM     65  F   UNL A   1      41.068  35.451  35.823  1.00  0.00    -0.203 F 
ATOM     66  F   UNL A   1      38.020  33.928  40.084  1.00  0.00    -0.200 F 
ATOM     67  C   UNL A   1      39.473  35.491  39.073  1.00  0.00     0.200 A 
ATOM     68  F   UNL A   1      40.915  37.030  38.015  1.00  0.00    -0.200 F 
ATOM     69  F   UNL A   1      39.386  36.288  40.146  1.00  0.00    -0.200 F 
ENDBRANCH  45  59
BRANCH  46  70
ATOM     70  C   UNL A   1      40.325  27.929  28.714  1.00  0.00     0.064 A 
ATOM     71  C   UNL A   1      39.741  26.656  28.636  1.00  0.00     0.173 A 
ATOM     72  C   UNL A   1      41.094  28.358  27.622  1.00  0.00     0.173 A 
ATOM     73  F   UNL A   1      39.013  26.190  29.661  1.00  0.00    -0.203 F 
ATOM     74  C   UNL A   1      39.953  25.831  27.533  1.00  0.00     0.198 A 
ATOM     75  C   UNL A   1      41.276  27.546  26.504  1.00  0.00     0.198 A 
ATOM     76  F   UNL A   1      41.672  29.568  27.641  1.00  0.00    -0.203 F 
ATOM     77  F   UNL A   1      39.441  24.592  27.519  1.00  0.00    -0.200 F 
ATOM     78  C   UNL A   1      40.718  26.277  26.466  1.00  0.00     0.200 A 
ATOM     79  F   UNL A   1      42.004  27.988  25.469  1.00  0.00    -0.200 F 
ATOM     80  F   UNL A   1      40.930  25.480  25.410  1.00  0.00    -0.200 F 
ENDBRANCH  46  70
BRANCH  58  81
ATOM     81  C   UNL A   1      43.936  28.447  34.660  1.00  0.00     0.064 A 
ATOM     82  C   UNL A   1      43.752  27.271  35.399  1.00  0.00     0.173 A 
ATOM     83  C   UNL A   1      45.252  28.854  34.384  1.00  0.00     0.173 A 
ATOM     84  F   UNL A   1      42.516  26.848  35.699  1.00  0.00    -0.203 F 
ATOM     85  C   UNL A   1      44.845  26.541  35.860  1.00  0.00     0.198 A 
ATOM     86  C   UNL A   1      46.340  28.103  34.816  1.00  0.00     0.198 A 
ATOM     87  F   UNL A   1      45.480  29.968  33.671  1.00  0.00    -0.203 F 
ATOM     88  F   UNL A   1      44.648  25.444  36.603  1.00  0.00    -0.200 F 
ATOM     89  C   UNL A   1      46.135  26.952  35.560  1.00  0.00     0.200 A 
ATOM     90  F   UNL A   1      47.585  28.491  34.506  1.00  0.00    -0.200 F 
ATOM     91  F   UNL A   1      47.185  26.238  35.991  1.00  0.00    -0.200 F 
ENDBRANCH  58  81
ENDBRANCH  32  33
ENDBRANCH  25  27
ENDBRANCH  24  25
ENDBRANCH  23  24
ENDBRANCH  22  23
ENDBRANCH  21  22
ENDBRANCH  20  21
ENDBRANCH   1  20
TORSDOF 21
ENDMDL
MODEL 3
REMARK VINA RESULT:      -9.4      1.351      2.525
REMARK SMILES COc1ncccc1CS[C@@H](C)C(=O)OCCOCCOCCOC(=O)c1ccc(-c2c3nc(c(-c4c(F)c(F)c(F)c(F)c4F)c4ccc([nH]4)c(-c4c(F)c(F)c(F)c(F)c4F)c4nc(c(-c5c(F)c(F)c(F)c(F)c5F)c5ccc2[nH]5)C=C4)C=C3)cc1
REMARK SMILES IDX 19 1 18 2 17 3 16 4 15 5 13 6 14 7 11 8 12 9 10 10 9 11 8 12
REMARK SMILES IDX 3 13 4 14 5 15 7 16 6 17 2 18 1 19 20 20 21 21 22 22 23 23
REMARK SMILES IDX 24 24 25 25 26 26 27 27 28 28 89 29 29 30 88 31 30 32 31 33
REMARK SMILES IDX 32 34 82 35 33 36 87 37 81 38 83 39 34 40 86 41 80 42 79 43
REMARK SMILES IDX 35 45 67 46 47 47 66 48 48 49 51 50 65 51 84 52 49 53 50 54
REMARK SMILES IDX 64 56 85 57 52 58 36 59 37 60 45 61 38 62 39 63 43 64 46 65
REMARK SMILES IDX 40 66 41 67 44 68 42 69 68 70 69 71 77 72 70 73 71 74 75 75
REMARK SMILES IDX 78 76 72 77 73 78 76 79 74 80 53 81 54 82 62 83 55 84 56 85
REMARK SMILES IDX 60 86 63 87 57 88 58 89 61 90 59 91
REMARK H PARENT 83 44 51 55
REMARK Flexibility Score: inf
ROOT
ATOM      1  C   UNL A   1      31.333  28.533  24.679  1.00  0.00     0.188 C 
ENDROOT
BRANCH   1   2
ATOM      2  O   UNL A   1      32.730  28.458  24.417  1.00  0.00    -0.376 OA
BRANCH   2   3
ATOM      3  C   UNL A   1      33.206  28.876  23.143  1.00  0.00     0.202 C 
BRANCH   3   4
ATOM      4  C   UNL A   1      33.832  27.789  22.268  1.00  0.00     0.261 C 
BRANCH   4   5
ATOM      5  O   UNL A   1      33.640  26.453  22.784  1.00  0.00    -0.462 OA
BRANCH   5   6
ATOM      6  C   UNL A   1      33.096  25.541  21.944  1.00  0.00     0.318 C 
ATOM      7  O   UNL A   1      33.274  25.544  20.729  1.00  0.00    -0.251 OA
BRANCH   6   8
ATOM      8  C   UNL A   1      32.141  24.552  22.600  1.00  0.00     0.153 C 
ATOM      9  C   UNL A   1      31.715  25.021  23.978  1.00  0.00     0.032 C 
BRANCH   8  10
ATOM     10  S   UNL A   1      32.541  22.772  22.453  1.00  0.00    -0.142 SA
BRANCH  10  11
ATOM     11  C   UNL A   1      33.101  22.236  24.115  1.00  0.00     0.111 C 
BRANCH  11  12
ATOM     12  C   UNL A   1      34.486  22.693  24.476  1.00  0.00     0.024 A 
ATOM     13  C   UNL A   1      34.903  22.942  25.788  1.00  0.00     0.217 A 
ATOM     14  N   UNL A   1      36.150  23.347  26.122  1.00  0.00    -0.222 NA
ATOM     15  C   UNL A   1      37.038  23.489  25.116  1.00  0.00     0.115 A 
ATOM     16  C   UNL A   1      35.425  22.929  23.462  1.00  0.00     0.012 A 
ATOM     17  C   UNL A   1      36.721  23.321  23.781  1.00  0.00     0.021 A 
BRANCH  13  18
ATOM     18  O   UNL A   1      33.992  23.030  26.809  1.00  0.00    -0.481 OA
ATOM     19  C   UNL A   1      33.967  21.866  27.626  1.00  0.00     0.280 C 
ENDBRANCH  13  18
ENDBRANCH  11  12
ENDBRANCH  10  11
ENDBRANCH   8  10
ENDBRANCH   6   8
ENDBRANCH   5   6
ENDBRANCH   4   5
ENDBRANCH   3   4
ENDBRANCH   2   3
ENDBRANCH   1   2
BRANCH   1  20
ATOM     20  C   UNL A   1      30.592  29.800  24.251  1.00  0.00     0.188 C 
BRANCH  20  21
ATOM     21  O   UNL A   1      30.738  30.960  25.047  1.00  0.00    -0.376 OA
BRANCH  21  22
ATOM     22  C   UNL A   1      31.433  30.860  26.276  1.00  0.00     0.202 C 
BRANCH  22  23
ATOM     23  C   UNL A   1      31.753  32.225  26.876  1.00  0.00     0.261 C 
BRANCH  23  24
ATOM     24  O   UNL A   1      33.171  32.431  26.805  1.00  0.00    -0.460 OA
BRANCH  24  25
ATOM     25  C   UNL A   1      33.735  33.091  27.843  1.00  0.00     0.338 C 
ATOM     26  O   UNL A   1      33.312  34.047  28.452  1.00  0.00    -0.246 OA
BRANCH  25  27
ATOM     27  C   UNL A   1      34.915  32.311  28.260  1.00  0.00     0.060 A 
ATOM     28  C   UNL A   1      34.813  30.913  28.313  1.00  0.00     0.016 A 
ATOM     29  C   UNL A   1      36.106  32.959  28.592  1.00  0.00     0.016 A 
ATOM     30  C   UNL A   1      35.896  30.157  28.754  1.00  0.00     0.010 A 
ATOM     31  C   UNL A   1      37.184  32.205  29.035  1.00  0.00     0.010 A 
ATOM     32  C   UNL A   1      37.065  30.811  29.159  1.00  0.00    -0.014 A 
BRANCH  32  33
ATOM     33  C   UNL A   1      38.107  30.104  29.930  1.00  0.00     0.031 A 
ATOM     34  C   UNL A   1      38.342  30.557  31.343  1.00  0.00     0.074 A 
ATOM     35  C   UNL A   1      38.870  29.159  29.358  1.00  0.00     0.049 A 
ATOM     36  N   UNL A   1      39.337  30.293  32.146  1.00  0.00    -0.248 NA
ATOM     37  C   UNL A   1      37.324  31.457  31.915  1.00  0.00     0.031 C 
ATOM     38  C   UNL A   1      38.692  28.631  28.007  1.00  0.00     0.029 A 
ATOM     39  N   UNL A   1      39.977  28.509  29.837  1.00  0.00    -0.354 N 
ATOM     40  C   UNL A   1      39.076  31.010  33.308  1.00  0.00     0.074 A 
ATOM     41  C   UNL A   1      37.850  31.744  33.096  1.00  0.00     0.031 C 
ATOM     42  C   UNL A   1      39.683  27.758  27.751  1.00  0.00     0.029 A 
ATOM     43  C   UNL A   1      40.584  27.710  28.900  1.00  0.00     0.049 A 
ATOM     44  H   UNL A   1      40.304  28.604  30.761  1.00  0.00     0.167 HD
ATOM     45  C   UNL A   1      39.800  31.041  34.449  1.00  0.00     0.037 A 
ATOM     46  C   UNL A   1      41.761  27.059  28.961  1.00  0.00     0.037 A 
ATOM     47  C   UNL A   1      41.018  30.303  34.635  1.00  0.00     0.049 A 
ATOM     48  C   UNL A   1      42.584  27.165  30.222  1.00  0.00     0.074 A 
ATOM     49  C   UNL A   1      41.839  30.254  35.746  1.00  0.00     0.029 A 
ATOM     50  N   UNL A   1      41.588  29.478  33.674  1.00  0.00    -0.354 N 
ATOM     51  N   UNL A   1      42.335  27.834  31.323  1.00  0.00    -0.248 NA
ATOM     52  C   UNL A   1      43.852  26.423  30.251  1.00  0.00     0.031 C 
ATOM     53  C   UNL A   1      42.931  29.437  35.442  1.00  0.00     0.029 A 
ATOM     54  C   UNL A   1      42.755  28.922  34.167  1.00  0.00     0.049 A 
ATOM     55  H   UNL A   1      41.217  29.314  32.777  1.00  0.00     0.167 HD
ATOM     56  C   UNL A   1      43.383  27.552  32.190  1.00  0.00     0.074 A 
ATOM     57  C   UNL A   1      44.272  26.651  31.487  1.00  0.00     0.031 C 
ATOM     58  C   UNL A   1      43.594  27.993  33.455  1.00  0.00     0.037 A 
BRANCH  45  59
ATOM     59  C   UNL A   1      39.304  31.903  35.572  1.00  0.00     0.064 A 
ATOM     60  C   UNL A   1      39.629  33.265  35.652  1.00  0.00     0.173 A 
ATOM     61  C   UNL A   1      38.449  31.374  36.552  1.00  0.00     0.173 A 
ATOM     62  F   UNL A   1      40.457  33.816  34.751  1.00  0.00    -0.203 F 
ATOM     63  C   UNL A   1      39.131  34.063  36.679  1.00  0.00     0.198 A 
ATOM     64  C   UNL A   1      37.927  32.182  37.559  1.00  0.00     0.198 A 
ATOM     65  F   UNL A   1      38.108  30.078  36.524  1.00  0.00    -0.203 F 
ATOM     66  F   UNL A   1      39.487  35.352  36.757  1.00  0.00    -0.200 F 
ATOM     67  C   UNL A   1      38.271  33.524  37.625  1.00  0.00     0.200 A 
ATOM     68  F   UNL A   1      37.087  31.663  38.464  1.00  0.00    -0.200 F 
ATOM     69  F   UNL A   1      37.778  34.297  38.601  1.00  0.00    -0.200 F 
ENDBRANCH  45  59
BRANCH  46  70
ATOM     70  C   UNL A   1      42.249  26.269  27.799  1.00  0.00     0.064 A 
ATOM     71  C   UNL A   1      41.806  24.956  27.584  1.00  0.00     0.173 A 
ATOM     72  C   UNL A   1      43.199  26.788  26.905  1.00  0.00     0.173 A 
ATOM     73  F   UNL A   1      40.913  24.406  28.421  1.00  0.00    -0.203 F 
ATOM     74  C   UNL A   1      42.322  24.179  26.549  1.00  0.00     0.198 A 
ATOM     75  C   UNL A   1      43.688  26.022  25.848  1.00  0.00     0.198 A 
ATOM     76  F   UNL A   1      43.655  28.039  27.060  1.00  0.00    -0.203 F 
ATOM     77  F   UNL A   1      41.932  22.905  26.412  1.00  0.00    -0.200 F 
ATOM     78  C   UNL A   1      43.262  24.714  25.679  1.00  0.00     0.200 A 
ATOM     79  F   UNL A   1      44.585  26.548  25.002  1.00  0.00    -0.200 F 
ATOM     80  F   UNL A   1      43.765  23.964  24.689  1.00  0.00    -0.200 F 
ENDBRANCH  46  70
BRANCH  58  81
ATOM     81  C   UNL A   1      44.778  27.441  34.194  1.00  0.00     0.064 A 
ATOM     82  C   UNL A   1      44.709  26.249  34.926  1.00  0.00     0.173 A 
ATOM     83  C   UNL A   1      46.021  28.089  34.103  1.00  0.00     0.173 A 
ATOM     84  F   UNL A   1      43.542  25.599  35.052  1.00  0.00    -0.203 F 
ATOM     85  C   UNL A   1      45.838  25.736  35.561  1.00  0.00     0.198 A 
ATOM     86  C   UNL A   1      47.153  27.555  34.709  1.00  0.00     0.198 A 
ATOM     87  F   UNL A   1      46.140  29.229  33.404  1.00  0.00    -0.203 F 
ATOM     88  F   UNL A   1      45.741  24.619  36.293  1.00  0.00    -0.200 F 
ATOM     89  C   UNL A   1      47.059  26.383  35.443  1.00  0.00     0.200 A 
ATOM     90  F   UNL A   1      48.336  28.171  34.576  1.00  0.00    -0.200 F 
ATOM     91  F   UNL A   1      48.147  25.878  36.040  1.00  0.00    -0.200 F 
ENDBRANCH  58  81
ENDBRANCH  32  33
ENDBRANCH  25  27
ENDBRANCH  24  25
ENDBRANCH  23  24
ENDBRANCH  22  23
ENDBRANCH  21  22
ENDBRANCH  20  21
ENDBRANCH   1  20
TORSDOF 21
ENDMDL
