MODEL 1
REMARK VINA RESULT:      -9.8      0.000      0.000
REMARK SMILES CCC[NH2+][C@]1(C(=O)OCCOCCOCCOC(=O)c2ccc(-c3c4nc(c(-c5c(F)c(F)c(F)c(F)c5F)c5ccc([nH]5)c(-c5c(F)c(F)c(F)c(F)c5F)c5nc(c(-c6c(F)c(F)c(F)c(F)c6F)c6ccc3[nH]6)C=C5)C=C4)cc2)CCC[C@H](OC(C)(C)C)C1
REMARK SMILES IDX 12 1 11 2 10 3 9 4 8 5 6 6 7 7 5 8 83 9 92 10 84 11 86 12
REMARK SMILES IDX 85 13 4 14 3 17 2 18 1 19 87 20 88 21 89 22 90 23 91 24
REMARK SMILES IDX 13 25 14 26 15 27 16 28 17 29 18 30 19 31 20 32 21 33 82 34
REMARK SMILES IDX 22 35 81 36 23 37 24 38 25 39 75 40 26 41 80 42 74 43 76 44
REMARK SMILES IDX 27 45 79 46 73 47 72 48 28 50 60 51 40 52 59 53 41 54 44 55
REMARK SMILES IDX 58 56 77 57 42 58 43 59 57 61 78 62 45 63 29 64 30 65 38 66
REMARK SMILES IDX 31 67 32 68 36 69 39 70 33 71 34 72 37 73 35 74 61 75 62 76
REMARK SMILES IDX 70 77 63 78 64 79 68 80 71 81 65 82 66 83 69 84 67 85 46 86
REMARK SMILES IDX 47 87 55 88 48 89 49 90 53 91 56 92 50 93 51 94 54 95 52 96
REMARK H PARENT 4 15 4 16 76 49 44 60
REMARK Flexibility Score: inf
ROOT
ATOM      1  C   UNL A   1      40.896  22.177  26.724  1.00  0.00     0.188 C 
ENDROOT
BRANCH   1   2
ATOM      2  O   UNL A   1      39.478  22.078  26.789  1.00  0.00    -0.376 OA
BRANCH   2   3
ATOM      3  C   UNL A   1      38.656  23.156  26.359  1.00  0.00     0.202 C 
BRANCH   3   4
ATOM      4  C   UNL A   1      37.529  22.849  25.356  1.00  0.00     0.261 C 
BRANCH   4   5
ATOM      5  O   UNL A   1      36.419  23.773  25.266  1.00  0.00    -0.459 OA
BRANCH   5   6
ATOM      6  C   UNL A   1      35.222  23.311  25.725  1.00  0.00     0.368 C 
ATOM      7  O   UNL A   1      35.135  22.495  26.644  1.00  0.00    -0.245 OA
BRANCH   6   8
ATOM      8  C   UNL A   1      33.939  23.844  24.986  1.00  0.00     0.196 C 
ATOM      9  C   UNL A   1      33.774  22.749  23.877  1.00  0.00     0.081 C 
ATOM     10  C   UNL A   1      32.722  23.795  25.970  1.00  0.00     0.113 C 
ATOM     11  C   UNL A   1      32.365  22.527  23.342  1.00  0.00     0.010 C 
ATOM     12  C   UNL A   1      31.335  23.705  25.284  1.00  0.00     0.125 C 
ATOM     13  C   UNL A   1      31.348  22.417  24.472  1.00  0.00     0.032 C 
BRANCH   8  14
ATOM     14  N   UNL A   1      34.102  25.188  24.320  1.00  0.00    -0.332 N 
ATOM     15  H   UNL A   1      33.359  25.797  24.663  1.00  0.00     0.347 HD
ATOM     16  H   UNL A   1      35.045  25.496  24.559  1.00  0.00     0.347 HD
BRANCH  14  17
ATOM     17  C   UNL A   1      34.048  25.202  22.845  1.00  0.00     0.261 C 
BRANCH  17  18
ATOM     18  C   UNL A   1      33.169  26.296  22.229  1.00  0.00     0.058 C 
ATOM     19  C   UNL A   1      32.191  25.802  21.182  1.00  0.00     0.010 C 
ENDBRANCH  17  18
ENDBRANCH  14  17
ENDBRANCH   8  14
BRANCH  12  20
ATOM     20  O   UNL A   1      31.084  24.867  24.482  1.00  0.00    -0.372 OA
BRANCH  20  21
ATOM     21  C   UNL A   1      30.285  25.961  24.981  1.00  0.00     0.060 C 
ATOM     22  C   UNL A   1      29.463  26.650  23.878  1.00  0.00     0.042 C 
ATOM     23  C   UNL A   1      29.400  25.581  26.169  1.00  0.00     0.042 C 
ATOM     24  C   UNL A   1      31.291  27.022  25.462  1.00  0.00     0.042 C 
ENDBRANCH  20  21
ENDBRANCH  12  20
ENDBRANCH   6   8
ENDBRANCH   5   6
ENDBRANCH   4   5
ENDBRANCH   3   4
ENDBRANCH   2   3
ENDBRANCH   1   2
BRANCH   1  25
ATOM     25  C   UNL A   1      41.750  20.915  26.656  1.00  0.00     0.188 C 
BRANCH  25  26
ATOM     26  O   UNL A   1      42.516  20.796  25.477  1.00  0.00    -0.376 OA
BRANCH  26  27
ATOM     27  C   UNL A   1      43.793  21.403  25.468  1.00  0.00     0.202 C 
BRANCH  27  28
ATOM     28  C   UNL A   1      43.940  22.473  24.379  1.00  0.00     0.261 C 
BRANCH  28  29
ATOM     29  O   UNL A   1      43.388  23.763  24.715  1.00  0.00    -0.460 OA
BRANCH  29  30
ATOM     30  C   UNL A   1      44.257  24.715  25.130  1.00  0.00     0.338 C 
ATOM     31  O   UNL A   1      45.340  24.984  24.635  1.00  0.00    -0.246 OA
BRANCH  30  32
ATOM     32  C   UNL A   1      43.564  25.561  26.132  1.00  0.00     0.060 A 
ATOM     33  C   UNL A   1      43.826  26.940  26.156  1.00  0.00     0.016 A 
ATOM     34  C   UNL A   1      42.640  25.009  27.020  1.00  0.00     0.016 A 
ATOM     35  C   UNL A   1      43.183  27.763  27.085  1.00  0.00     0.010 A 
ATOM     36  C   UNL A   1      42.014  25.830  27.965  1.00  0.00     0.010 A 
ATOM     37  C   UNL A   1      42.301  27.208  28.020  1.00  0.00    -0.014 A 
BRANCH  37  38
ATOM     38  C   UNL A   1      41.810  28.018  29.167  1.00  0.00     0.031 A 
ATOM     39  C   UNL A   1      42.522  27.896  30.487  1.00  0.00     0.074 A 
ATOM     40  C   UNL A   1      40.756  28.845  29.052  1.00  0.00     0.049 A 
ATOM     41  N   UNL A   1      42.221  28.416  31.650  1.00  0.00    -0.248 NA
ATOM     42  C   UNL A   1      43.742  27.072  30.495  1.00  0.00     0.031 C 
ATOM     43  C   UNL A   1      40.006  29.096  27.824  1.00  0.00     0.029 A 
ATOM     44  N   UNL A   1      40.122  29.618  29.997  1.00  0.00    -0.354 N 
ATOM     45  C   UNL A   1      43.201  27.970  32.528  1.00  0.00     0.074 A 
ATOM     46  C   UNL A   1      44.096  27.122  31.771  1.00  0.00     0.031 C 
ATOM     47  C   UNL A   1      39.000  29.947  28.094  1.00  0.00     0.029 A 
ATOM     48  C   UNL A   1      39.008  30.268  29.522  1.00  0.00     0.049 A 
ATOM     49  H   UNL A   1      40.437  29.697  30.927  1.00  0.00     0.167 HD
ATOM     50  C   UNL A   1      43.345  28.246  33.846  1.00  0.00     0.037 A 
ATOM     51  C   UNL A   1      38.085  31.004  30.172  1.00  0.00     0.037 A 
ATOM     52  C   UNL A   1      42.461  29.094  34.601  1.00  0.00     0.049 A 
ATOM     53  C   UNL A   1      38.224  31.228  31.660  1.00  0.00     0.074 A 
ATOM     54  C   UNL A   1      42.539  29.449  35.936  1.00  0.00     0.029 A 
ATOM     55  N   UNL A   1      41.329  29.712  34.090  1.00  0.00    -0.354 N 
ATOM     56  N   UNL A   1      39.164  30.824  32.479  1.00  0.00    -0.248 NA
ATOM     57  C   UNL A   1      37.166  32.015  32.315  1.00  0.00     0.031 C 
ATOM     58  C   UNL A   1      41.422  30.229  36.249  1.00  0.00     0.029 A 
ATOM     59  C   UNL A   1      40.686  30.421  35.092  1.00  0.00     0.049 A 
ATOM     60  H   UNL A   1      41.029  29.657  33.154  1.00  0.00     0.167 HD
ATOM     61  C   UNL A   1      38.831  31.333  33.729  1.00  0.00     0.074 A 
ATOM     62  C   UNL A   1      37.611  32.091  33.561  1.00  0.00     0.031 C 
ATOM     63  C   UNL A   1      39.479  31.187  34.912  1.00  0.00     0.037 A 
BRANCH  50  64
ATOM     64  C   UNL A   1      44.487  27.600  34.575  1.00  0.00     0.064 A 
ATOM     65  C   UNL A   1      45.731  28.235  34.714  1.00  0.00     0.173 A 
ATOM     66  C   UNL A   1      44.314  26.352  35.194  1.00  0.00     0.173 A 
ATOM     67  F   UNL A   1      45.953  29.421  34.130  1.00  0.00    -0.203 F 
ATOM     68  C   UNL A   1      46.763  27.635  35.431  1.00  0.00     0.198 A 
ATOM     69  C   UNL A   1      45.337  25.772  35.936  1.00  0.00     0.198 A 
ATOM     70  F   UNL A   1      43.143  25.705  35.094  1.00  0.00    -0.203 F 
ATOM     71  F   UNL A   1      47.955  28.240  35.518  1.00  0.00    -0.200 F 
ATOM     72  C   UNL A   1      46.562  26.410  36.050  1.00  0.00     0.200 A 
ATOM     73  F   UNL A   1      45.136  24.595  36.546  1.00  0.00    -0.200 F 
ATOM     74  F   UNL A   1      47.552  25.843  36.754  1.00  0.00    -0.200 F 
ENDBRANCH  50  64
BRANCH  51  75
ATOM     75  C   UNL A   1      36.915  31.564  29.439  1.00  0.00     0.064 A 
ATOM     76  C   UNL A   1      36.802  32.941  29.192  1.00  0.00     0.173 A 
ATOM     77  C   UNL A   1      35.856  30.742  29.026  1.00  0.00     0.173 A 
ATOM     78  F   UNL A   1      37.772  33.775  29.596  1.00  0.00    -0.203 F 
ATOM     79  C   UNL A   1      35.665  33.474  28.590  1.00  0.00     0.198 A 
ATOM     80  C   UNL A   1      34.734  31.273  28.391  1.00  0.00     0.198 A 
ATOM     81  F   UNL A   1      35.906  29.420  29.246  1.00  0.00    -0.203 F 
ATOM     82  F   UNL A   1      35.553  34.800  28.430  1.00  0.00    -0.200 F 
ATOM     83  C   UNL A   1      34.634  32.640  28.185  1.00  0.00     0.200 A 
ATOM     84  F   UNL A   1      33.745  30.461  27.994  1.00  0.00    -0.200 F 
ATOM     85  F   UNL A   1      33.536  33.155  27.612  1.00  0.00    -0.200 F 
ENDBRANCH  51  75
BRANCH  63  86
ATOM     86  C   UNL A   1      38.917  31.899  36.110  1.00  0.00     0.064 A 
ATOM     87  C   UNL A   1      39.178  33.256  36.359  1.00  0.00     0.173 A 
ATOM     88  C   UNL A   1      38.066  31.224  37.001  1.00  0.00     0.173 A 
ATOM     89  F   UNL A   1      39.991  33.946  35.546  1.00  0.00    -0.203 F 
ATOM     90  C   UNL A   1      38.633  33.899  37.468  1.00  0.00     0.198 A 
ATOM     91  C   UNL A   1      37.495  31.880  38.089  1.00  0.00     0.198 A 
ATOM     92  F   UNL A   1      37.774  29.929  36.808  1.00  0.00    -0.203 F 
ATOM     93  F   UNL A   1      38.939  35.181  37.714  1.00  0.00    -0.200 F 
ATOM     94  C   UNL A   1      37.786  33.214  38.326  1.00  0.00     0.200 A 
ATOM     95  F   UNL A   1      36.663  31.220  38.905  1.00  0.00    -0.200 F 
ATOM     96  F   UNL A   1      37.256  33.838  39.387  1.00  0.00    -0.200 F 
ENDBRANCH  63  86
ENDBRANCH  37  38
ENDBRANCH  30  32
ENDBRANCH  29  30
ENDBRANCH  28  29
ENDBRANCH  27  28
ENDBRANCH  26  27
ENDBRANCH  25  26
ENDBRANCH   1  25
TORSDOF 22
ENDMDL
MODEL 2
REMARK VINA RESULT:      -9.5      1.174      2.193
REMARK SMILES CCC[NH2+][C@]1(C(=O)OCCOCCOCCOC(=O)c2ccc(-c3c4nc(c(-c5c(F)c(F)c(F)c(F)c5F)c5ccc([nH]5)c(-c5c(F)c(F)c(F)c(F)c5F)c5nc(c(-c6c(F)c(F)c(F)c(F)c6F)c6ccc3[nH]6)C=C5)C=C4)cc2)CCC[C@H](OC(C)(C)C)C1
REMARK SMILES IDX 12 1 11 2 10 3 9 4 8 5 6 6 7 7 5 8 83 9 92 10 84 11 86 12
REMARK SMILES IDX 85 13 4 14 3 17 2 18 1 19 87 20 88 21 89 22 90 23 91 24
REMARK SMILES IDX 13 25 14 26 15 27 16 28 17 29 18 30 19 31 20 32 21 33 82 34
REMARK SMILES IDX 22 35 81 36 23 37 24 38 25 39 75 40 26 41 80 42 74 43 76 44
REMARK SMILES IDX 27 45 79 46 73 47 72 48 28 50 60 51 40 52 59 53 41 54 44 55
REMARK SMILES IDX 58 56 77 57 42 58 43 59 57 61 78 62 45 63 29 64 30 65 38 66
REMARK SMILES IDX 31 67 32 68 36 69 39 70 33 71 34 72 37 73 35 74 61 75 62 76
REMARK SMILES IDX 70 77 63 78 64 79 68 80 71 81 65 82 66 83 69 84 67 85 46 86
REMARK SMILES IDX 47 87 55 88 48 89 49 90 53 91 56 92 50 93 51 94 54 95 52 96
REMARK H PARENT 4 15 4 16 76 49 44 60
REMARK Flexibility Score: inf
ROOT
ATOM      1  C   UNL A   1      40.741  22.031  26.595  1.00  0.00     0.188 C 
ENDROOT
BRANCH   1   2
ATOM      2  O   UNL A   1      39.625  21.177  26.375  1.00  0.00    -0.376 OA
BRANCH   2   3
ATOM      3  C   UNL A   1      38.653  21.496  25.388  1.00  0.00     0.202 C 
BRANCH   3   4
ATOM      4  C   UNL A   1      37.424  22.316  25.824  1.00  0.00     0.261 C 
BRANCH   4   5
ATOM      5  O   UNL A   1      36.182  22.127  25.106  1.00  0.00    -0.459 OA
BRANCH   5   6
ATOM      6  C   UNL A   1      35.043  22.360  25.815  1.00  0.00     0.368 C 
ATOM      7  O   UNL A   1      34.807  21.804  26.890  1.00  0.00    -0.245 OA
BRANCH   6   8
ATOM      8  C   UNL A   1      34.008  23.353  25.169  1.00  0.00     0.196 C 
ATOM      9  C   UNL A   1      33.421  24.029  26.456  1.00  0.00     0.081 C 
ATOM     10  C   UNL A   1      34.779  24.414  24.314  1.00  0.00     0.113 C 
ATOM     11  C   UNL A   1      32.859  25.435  26.292  1.00  0.00     0.010 C 
ATOM     12  C   UNL A   1      34.030  25.756  24.114  1.00  0.00     0.125 C 
ATOM     13  C   UNL A   1      33.811  26.330  25.507  1.00  0.00     0.032 C 
BRANCH   8  14
ATOM     14  N   UNL A   1      32.883  22.694  24.411  1.00  0.00    -0.332 N 
ATOM     15  H   UNL A   1      32.223  22.323  25.094  1.00  0.00     0.347 HD
ATOM     16  H   UNL A   1      32.501  23.422  23.806  1.00  0.00     0.347 HD
BRANCH  14  17
ATOM     17  C   UNL A   1      33.258  21.590  23.505  1.00  0.00     0.261 C 
BRANCH  17  18
ATOM     18  C   UNL A   1      32.439  20.304  23.661  1.00  0.00     0.058 C 
ATOM     19  C   UNL A   1      32.485  19.692  25.047  1.00  0.00     0.010 C 
ENDBRANCH  17  18
ENDBRANCH  14  17
ENDBRANCH   8  14
BRANCH  12  20
ATOM     20  O   UNL A   1      32.805  25.557  23.394  1.00  0.00    -0.372 OA
BRANCH  20  21
ATOM     21  C   UNL A   1      32.464  26.378  22.257  1.00  0.00     0.060 C 
ATOM     22  C   UNL A   1      32.617  25.636  20.919  1.00  0.00     0.042 C 
ATOM     23  C   UNL A   1      31.087  27.035  22.367  1.00  0.00     0.042 C 
ATOM     24  C   UNL A   1      33.520  27.498  22.225  1.00  0.00     0.042 C 
ENDBRANCH  20  21
ENDBRANCH  12  20
ENDBRANCH   6   8
ENDBRANCH   5   6
ENDBRANCH   4   5
ENDBRANCH   3   4
ENDBRANCH   2   3
ENDBRANCH   1   2
BRANCH   1  25
ATOM     25  C   UNL A   1      42.100  21.687  25.993  1.00  0.00     0.188 C 
BRANCH  25  26
ATOM     26  O   UNL A   1      42.562  22.616  25.037  1.00  0.00    -0.376 OA
BRANCH  26  27
ATOM     27  C   UNL A   1      43.826  22.372  24.452  1.00  0.00     0.202 C 
BRANCH  27  28
ATOM     28  C   UNL A   1      44.890  21.958  25.475  1.00  0.00     0.261 C 
BRANCH  28  29
ATOM     29  O   UNL A   1      45.337  23.015  26.350  1.00  0.00    -0.460 OA
BRANCH  29  30
ATOM     30  C   UNL A   1      45.390  24.263  25.829  1.00  0.00     0.338 C 
ATOM     31  O   UNL A   1      45.805  24.580  24.725  1.00  0.00    -0.246 OA
BRANCH  30  32
ATOM     32  C   UNL A   1      44.619  25.164  26.719  1.00  0.00     0.060 A 
ATOM     33  C   UNL A   1      44.862  26.546  26.667  1.00  0.00     0.016 A 
ATOM     34  C   UNL A   1      43.641  24.658  27.577  1.00  0.00     0.016 A 
ATOM     35  C   UNL A   1      44.146  27.419  27.490  1.00  0.00     0.010 A 
ATOM     36  C   UNL A   1      42.940  25.531  28.416  1.00  0.00     0.010 A 
ATOM     37  C   UNL A   1      43.206  26.914  28.397  1.00  0.00    -0.014 A 
BRANCH  37  38
ATOM     38  C   UNL A   1      42.626  27.792  29.448  1.00  0.00     0.031 A 
ATOM     39  C   UNL A   1      43.307  27.851  30.789  1.00  0.00     0.074 A 
ATOM     40  C   UNL A   1      41.518  28.523  29.230  1.00  0.00     0.049 A 
ATOM     41  N   UNL A   1      42.937  28.457  31.888  1.00  0.00    -0.248 NA
ATOM     42  C   UNL A   1      44.583  27.125  30.903  1.00  0.00     0.031 C 
ATOM     43  C   UNL A   1      40.786  28.597  27.968  1.00  0.00     0.029 A 
ATOM     44  N   UNL A   1      40.804  29.333  30.081  1.00  0.00    -0.354 N 
ATOM     45  C   UNL A   1      43.921  28.173  32.826  1.00  0.00     0.074 A 
ATOM     46  C   UNL A   1      44.896  27.325  32.175  1.00  0.00     0.031 C 
ATOM     47  C   UNL A   1      39.714  29.393  28.132  1.00  0.00     0.029 A 
ATOM     48  C   UNL A   1      39.659  29.849  29.521  1.00  0.00     0.049 A 
ATOM     49  H   UNL A   1      41.086  29.525  31.005  1.00  0.00     0.167 HD
ATOM     50  C   UNL A   1      44.008  28.585  34.113  1.00  0.00     0.037 A 
ATOM     51  C   UNL A   1      38.667  30.574  30.076  1.00  0.00     0.037 A 
ATOM     52  C   UNL A   1      43.043  29.433  34.762  1.00  0.00     0.049 A 
ATOM     53  C   UNL A   1      38.747  30.950  31.538  1.00  0.00     0.074 A 
ATOM     54  C   UNL A   1      43.058  29.920  36.057  1.00  0.00     0.029 A 
ATOM     55  N   UNL A   1      41.885  29.912  34.169  1.00  0.00    -0.354 N 
ATOM     56  N   UNL A   1      39.691  30.698  32.412  1.00  0.00    -0.248 NA
ATOM     57  C   UNL A   1      37.617  31.715  32.090  1.00  0.00     0.031 C 
ATOM     58  C   UNL A   1      41.880  30.641  36.269  1.00  0.00     0.029 A 
ATOM     59  C   UNL A   1      41.164  30.664  35.084  1.00  0.00     0.049 A 
ATOM     60  H   UNL A   1      41.616  29.745  33.237  1.00  0.00     0.167 HD
ATOM     61  C   UNL A   1      39.287  31.300  33.599  1.00  0.00     0.074 A 
ATOM     62  C   UNL A   1      38.021  31.944  33.331  1.00  0.00     0.031 C 
ATOM     63  C   UNL A   1      39.910  31.317  34.803  1.00  0.00     0.037 A 
BRANCH  50  64
ATOM     64  C   UNL A   1      45.173  28.100  34.925  1.00  0.00     0.064 A 
ATOM     65  C   UNL A   1      46.375  28.819  34.999  1.00  0.00     0.173 A 
ATOM     66  C   UNL A   1      45.061  26.927  35.689  1.00  0.00     0.173 A 
ATOM     67  F   UNL A   1      46.538  29.937  34.279  1.00  0.00    -0.203 F 
ATOM     68  C   UNL A   1      47.429  28.372  35.793  1.00  0.00     0.198 A 
ATOM     69  C   UNL A   1      46.104  26.501  36.506  1.00  0.00     0.198 A 
ATOM     70  F   UNL A   1      43.932  26.204  35.656  1.00  0.00    -0.203 F 
ATOM     71  F   UNL A   1      48.582  29.052  35.818  1.00  0.00    -0.200 F 
ATOM     72  C   UNL A   1      47.288  27.219  36.554  1.00  0.00     0.200 A 
ATOM     73  F   UNL A   1      45.960  25.397  37.252  1.00  0.00    -0.200 F 
ATOM     74  F   UNL A   1      48.297  26.801  37.331  1.00  0.00    -0.200 F 
ENDBRANCH  50  64
BRANCH  51  75
ATOM     75  C   UNL A   1      37.481  30.971  29.268  1.00  0.00     0.064 A 
ATOM     76  C   UNL A   1      37.301  32.296  28.842  1.00  0.00     0.173 A 
ATOM     77  C   UNL A   1      36.471  30.048  28.957  1.00  0.00     0.173 A 
ATOM     78  F   UNL A   1      38.220  33.226  29.141  1.00  0.00    -0.203 F 
ATOM     79  C   UNL A   1      36.146  32.686  28.167  1.00  0.00     0.198 A 
ATOM     80  C   UNL A   1      35.333  30.432  28.250  1.00  0.00     0.198 A 
ATOM     81  F   UNL A   1      36.586  28.770  29.348  1.00  0.00    -0.203 F 
ATOM     82  F   UNL A   1      35.969  33.972  27.835  1.00  0.00    -0.200 F 
ATOM     83  C   UNL A   1      35.166  31.753  27.867  1.00  0.00     0.200 A 
ATOM     84  F   UNL A   1      34.392  29.524  27.955  1.00  0.00    -0.200 F 
ATOM     85  F   UNL A   1      34.051  32.130  27.223  1.00  0.00    -0.200 F 
ENDBRANCH  51  75
BRANCH  63  86
ATOM     86  C   UNL A   1      39.265  32.098  35.914  1.00  0.00     0.064 A 
ATOM     87  C   UNL A   1      38.348  31.511  36.801  1.00  0.00     0.173 A 
ATOM     88  C   UNL A   1      39.603  33.445  36.123  1.00  0.00     0.173 A 
ATOM     89  F   UNL A   1      37.982  30.231  36.641  1.00  0.00    -0.203 F 
ATOM     90  C   UNL A   1      37.775  32.250  37.832  1.00  0.00     0.198 A 
ATOM     91  C   UNL A   1      39.055  34.171  37.177  1.00  0.00     0.198 A 
ATOM     92  F   UNL A   1      40.482  34.055  35.312  1.00  0.00    -0.203 F 
ATOM     93  F   UNL A   1      36.862  31.683  38.634  1.00  0.00    -0.200 F 
ATOM     94  C   UNL A   1      38.134  33.576  38.025  1.00  0.00     0.200 A 
ATOM     95  F   UNL A   1      39.419  35.445  37.371  1.00  0.00    -0.200 F 
ATOM     96  F   UNL A   1      37.588  34.283  39.024  1.00  0.00    -0.200 F 
ENDBRANCH  63  86
ENDBRANCH  37  38
ENDBRANCH  30  32
ENDBRANCH  29  30
ENDBRANCH  28  29
ENDBRANCH  27  28
ENDBRANCH  26  27
ENDBRANCH  25  26
ENDBRANCH   1  25
TORSDOF 22
ENDMDL
MODEL 3
REMARK VINA RESULT:      -9.2      1.052      7.340
REMARK SMILES CCC[NH2+][C@]1(C(=O)OCCOCCOCCOC(=O)c2ccc(-c3c4nc(c(-c5c(F)c(F)c(F)c(F)c5F)c5ccc([nH]5)c(-c5c(F)c(F)c(F)c(F)c5F)c5nc(c(-c6c(F)c(F)c(F)c(F)c6F)c6ccc3[nH]6)C=C5)C=C4)cc2)CCC[C@H](OC(C)(C)C)C1
REMARK SMILES IDX 12 1 11 2 10 3 9 4 8 5 6 6 7 7 5 8 83 9 92 10 84 11 86 12
REMARK SMILES IDX 85 13 4 14 3 17 2 18 1 19 87 20 88 21 89 22 90 23 91 24
REMARK SMILES IDX 13 25 14 26 15 27 16 28 17 29 18 30 19 31 20 32 21 33 82 34
REMARK SMILES IDX 22 35 81 36 23 37 24 38 25 39 75 40 26 41 80 42 74 43 76 44
REMARK SMILES IDX 27 45 79 46 73 47 72 48 28 50 60 51 40 52 59 53 41 54 44 55
REMARK SMILES IDX 58 56 77 57 42 58 43 59 57 61 78 62 45 63 29 64 30 65 38 66
REMARK SMILES IDX 31 67 32 68 36 69 39 70 33 71 34 72 37 73 35 74 61 75 62 76
REMARK SMILES IDX 70 77 63 78 64 79 68 80 71 81 65 82 66 83 69 84 67 85 46 86
REMARK SMILES IDX 47 87 55 88 48 89 49 90 53 91 56 92 50 93 51 94 54 95 52 96
REMARK H PARENT 4 15 4 16 76 49 44 60
REMARK Flexibility Score: inf
ROOT
ATOM      1  C   UNL A   1      40.739  22.777  26.707  1.00  0.00     0.188 C 
ENDROOT
BRANCH   1   2
ATOM      2  O   UNL A   1      39.363  22.850  26.354  1.00  0.00    -0.376 OA
BRANCH   2   3
ATOM      3  C   UNL A   1      38.642  21.675  26.007  1.00  0.00     0.202 C 
BRANCH   3   4
ATOM      4  C   UNL A   1      37.620  21.768  24.859  1.00  0.00     0.261 C 
BRANCH   4   5
ATOM      5  O   UNL A   1      36.611  22.802  24.919  1.00  0.00    -0.459 OA
BRANCH   5   6
ATOM      6  C   UNL A   1      36.048  23.155  23.730  1.00  0.00     0.368 C 
ATOM      7  O   UNL A   1      36.683  23.166  22.674  1.00  0.00    -0.245 OA
BRANCH   6   8
ATOM      8  C   UNL A   1      34.538  23.595  23.775  1.00  0.00     0.196 C 
ATOM      9  C   UNL A   1      34.052  23.087  22.373  1.00  0.00     0.081 C 
ATOM     10  C   UNL A   1      33.806  22.806  24.911  1.00  0.00     0.113 C 
ATOM     11  C   UNL A   1      32.572  22.755  22.245  1.00  0.00     0.010 C 
ATOM     12  C   UNL A   1      32.276  22.658  24.718  1.00  0.00     0.125 C 
ATOM     13  C   UNL A   1      32.085  21.902  23.410  1.00  0.00     0.032 C 
BRANCH   8  14
ATOM     14  N   UNL A   1      34.313  25.085  23.856  1.00  0.00    -0.332 N 
ATOM     15  H   UNL A   1      33.708  25.265  24.657  1.00  0.00     0.347 HD
ATOM     16  H   UNL A   1      35.244  25.495  23.928  1.00  0.00     0.347 HD
BRANCH  14  17
ATOM     17  C   UNL A   1      33.695  25.721  22.676  1.00  0.00     0.261 C 
BRANCH  17  18
ATOM     18  C   UNL A   1      33.390  27.216  22.819  1.00  0.00     0.058 C 
ATOM     19  C   UNL A   1      32.032  27.527  23.416  1.00  0.00     0.010 C 
ENDBRANCH  17  18
ENDBRANCH  14  17
ENDBRANCH   8  14
BRANCH  12  20
ATOM     20  O   UNL A   1      31.633  23.941  24.720  1.00  0.00    -0.372 OA
BRANCH  20  21
ATOM     21  C   UNL A   1      30.975  24.446  25.902  1.00  0.00     0.060 C 
ATOM     22  C   UNL A   1      29.841  25.431  25.576  1.00  0.00     0.042 C 
ATOM     23  C   UNL A   1      30.493  23.346  26.851  1.00  0.00     0.042 C 
ATOM     24  C   UNL A   1      32.038  25.277  26.643  1.00  0.00     0.042 C 
ENDBRANCH  20  21
ENDBRANCH  12  20
ENDBRANCH   6   8
ENDBRANCH   5   6
ENDBRANCH   4   5
ENDBRANCH   3   4
ENDBRANCH   2   3
ENDBRANCH   1   2
BRANCH   1  25
ATOM     25  C   UNL A   1      41.541  21.514  26.411  1.00  0.00     0.188 C 
BRANCH  25  26
ATOM     26  O   UNL A   1      42.545  21.680  25.434  1.00  0.00    -0.376 OA
BRANCH  26  27
ATOM     27  C   UNL A   1      42.798  22.995  24.979  1.00  0.00     0.202 C 
BRANCH  27  28
ATOM     28  C   UNL A   1      44.285  23.265  24.722  1.00  0.00     0.261 C 
BRANCH  28  29
ATOM     29  O   UNL A   1      44.964  23.986  25.772  1.00  0.00    -0.460 OA
BRANCH  29  30
ATOM     30  C   UNL A   1      45.106  25.322  25.608  1.00  0.00     0.338 C 
ATOM     31  O   UNL A   1      45.591  25.896  24.646  1.00  0.00    -0.246 OA
BRANCH  30  32
ATOM     32  C   UNL A   1      44.336  25.998  26.680  1.00  0.00     0.060 A 
ATOM     33  C   UNL A   1      44.505  27.378  26.874  1.00  0.00     0.016 A 
ATOM     34  C   UNL A   1      43.430  25.288  27.469  1.00  0.00     0.016 A 
ATOM     35  C   UNL A   1      43.789  28.043  27.873  1.00  0.00     0.010 A 
ATOM     36  C   UNL A   1      42.730  25.951  28.484  1.00  0.00     0.010 A 
ATOM     37  C   UNL A   1      42.924  27.327  28.709  1.00  0.00    -0.014 A 
BRANCH  37  38
ATOM     38  C   UNL A   1      42.354  27.963  29.926  1.00  0.00     0.031 A 
ATOM     39  C   UNL A   1      41.064  28.727  29.798  1.00  0.00     0.074 A 
ATOM     40  C   UNL A   1      42.960  27.873  31.124  1.00  0.00     0.049 A 
ATOM     41  N   UNL A   1      40.429  29.450  30.686  1.00  0.00    -0.248 NA
ATOM     42  C   UNL A   1      40.400  28.668  28.486  1.00  0.00     0.031 C 
ATOM     43  C   UNL A   1      44.184  27.126  31.401  1.00  0.00     0.029 A 
ATOM     44  N   UNL A   1      42.628  28.435  32.334  1.00  0.00    -0.354 N 
ATOM     45  C   UNL A   1      39.304  29.942  30.037  1.00  0.00     0.074 A 
ATOM     46  C   UNL A   1      39.352  29.455  28.676  1.00  0.00     0.031 C 
ATOM     47  C   UNL A   1      44.514  27.292  32.694  1.00  0.00     0.029 A 
ATOM     48  C   UNL A   1      43.548  28.192  33.327  1.00  0.00     0.049 A 
ATOM     49  H   UNL A   1      41.809  28.963  32.477  1.00  0.00     0.167 HD
ATOM     50  C   UNL A   1      38.318  30.728  30.532  1.00  0.00     0.037 A 
ATOM     51  C   UNL A   1      43.620  28.670  34.585  1.00  0.00     0.037 A 
ATOM     52  C   UNL A   1      38.265  31.210  31.887  1.00  0.00     0.049 A 
ATOM     53  C   UNL A   1      42.550  29.613  35.087  1.00  0.00     0.074 A 
ATOM     54  C   UNL A   1      37.294  31.994  32.484  1.00  0.00     0.029 A 
ATOM     55  N   UNL A   1      39.229  30.964  32.852  1.00  0.00    -0.354 N 
ATOM     56  N   UNL A   1      41.478  30.056  34.476  1.00  0.00    -0.248 NA
ATOM     57  C   UNL A   1      42.704  30.122  36.459  1.00  0.00     0.031 C 
ATOM     58  C   UNL A   1      37.700  32.276  33.792  1.00  0.00     0.029 A 
ATOM     59  C   UNL A   1      38.889  31.607  34.032  1.00  0.00     0.049 A 
ATOM     60  H   UNL A   1      40.034  30.413  32.720  1.00  0.00     0.167 HD
ATOM     61  C   UNL A   1      40.817  30.862  35.396  1.00  0.00     0.074 A 
ATOM     62  C   UNL A   1      41.598  30.836  36.612  1.00  0.00     0.031 C 
ATOM     63  C   UNL A   1      39.665  31.562  35.246  1.00  0.00     0.037 A 
BRANCH  50  64
ATOM     64  C   UNL A   1      37.223  31.147  29.595  1.00  0.00     0.064 A 
ATOM     65  C   UNL A   1      36.205  30.265  29.203  1.00  0.00     0.173 A 
ATOM     66  C   UNL A   1      37.159  32.471  29.132  1.00  0.00     0.173 A 
ATOM     67  F   UNL A   1      36.227  28.987  29.607  1.00  0.00    -0.203 F 
ATOM     68  C   UNL A   1      35.174  30.688  28.367  1.00  0.00     0.198 A 
ATOM     69  C   UNL A   1      36.110  32.898  28.324  1.00  0.00     0.198 A 
ATOM     70  F   UNL A   1      38.105  33.355  29.480  1.00  0.00    -0.203 F 
ATOM     71  F   UNL A   1      34.235  29.818  27.973  1.00  0.00    -0.200 F 
ATOM     72  C   UNL A   1      35.122  32.006  27.937  1.00  0.00     0.200 A 
ATOM     73  F   UNL A   1      36.053  34.175  27.922  1.00  0.00    -0.200 F 
ATOM     74  F   UNL A   1      34.119  32.415  27.147  1.00  0.00    -0.200 F 
ENDBRANCH  50  64
BRANCH  51  75
ATOM     75  C   UNL A   1      44.764  28.304  35.466  1.00  0.00     0.064 A 
ATOM     76  C   UNL A   1      45.956  29.044  35.455  1.00  0.00     0.173 A 
ATOM     77  C   UNL A   1      44.712  27.170  36.291  1.00  0.00     0.173 A 
ATOM     78  F   UNL A   1      46.070  30.118  34.660  1.00  0.00    -0.203 F 
ATOM     79  C   UNL A   1      47.058  28.647  36.210  1.00  0.00     0.198 A 
ATOM     80  C   UNL A   1      45.803  26.795  37.073  1.00  0.00     0.198 A 
ATOM     81  F   UNL A   1      43.601  26.420  36.333  1.00  0.00    -0.203 F 
ATOM     82  F   UNL A   1      48.207  29.332  36.126  1.00  0.00    -0.200 F 
ATOM     83  C   UNL A   1      46.979  27.526  37.022  1.00  0.00     0.200 A 
ATOM     84  F   UNL A   1      45.719  25.715  37.863  1.00  0.00    -0.200 F 
ATOM     85  F   UNL A   1      48.043  27.140  37.742  1.00  0.00    -0.200 F 
ENDBRANCH  51  75
BRANCH  63  86
ATOM     86  C   UNL A   1      39.145  32.317  36.437  1.00  0.00     0.064 A 
ATOM     87  C   UNL A   1      38.215  31.755  37.325  1.00  0.00     0.173 A 
ATOM     88  C   UNL A   1      39.619  33.609  36.720  1.00  0.00     0.173 A 
ATOM     89  F   UNL A   1      37.721  30.529  37.098  1.00  0.00    -0.203 F 
ATOM     90  C   UNL A   1      37.758  32.467  38.432  1.00  0.00     0.198 A 
ATOM     91  C   UNL A   1      39.187  34.304  37.846  1.00  0.00     0.198 A 
ATOM     92  F   UNL A   1      40.516  34.192  35.911  1.00  0.00    -0.203 F 
ATOM     93  F   UNL A   1      36.831  31.930  39.237  1.00  0.00    -0.200 F 
ATOM     94  C   UNL A   1      38.251  33.737  38.696  1.00  0.00     0.200 A 
ATOM     95  F   UNL A   1      39.680  35.522  38.108  1.00  0.00    -0.200 F 
ATOM     96  F   UNL A   1      37.817  34.417  39.766  1.00  0.00    -0.200 F 
ENDBRANCH  63  86
ENDBRANCH  37  38
ENDBRANCH  30  32
ENDBRANCH  29  30
ENDBRANCH  28  29
ENDBRANCH  27  28
ENDBRANCH  26  27
ENDBRANCH  25  26
ENDBRANCH   1  25
TORSDOF 22
ENDMDL
