MODEL 1
REMARK VINA RESULT:     -11.2      0.000      0.000
REMARK SMILES CC1(C)C[C@@H]([C@H](CCNC(=O)c2ccccc2C(=O)OCCOCCOCCOC(=O)c2ccc(-c3c4nc(c(-c5c(F)c(F)c(F)c(F)c5F)c5ccc([nH]5)c(-c5c(F)c(F)c(F)c(F)c5F)c5nc(c(-c6c(F)c(F)c(F)c(F)c6F)c6ccc3[nH]6)C=C5)C=C4)cc2)c2ccccc2)CCO1
REMARK SMILES IDX 23 1 22 2 21 3 20 4 18 5 19 6 17 7 12 8 13 9 14 10 16 11
REMARK SMILES IDX 15 12 10 13 9 14 11 16 8 17 7 18 6 19 5 20 1 21 2 22 3 23
REMARK SMILES IDX 4 24 103 25 102 26 101 27 95 28 96 29 100 30 97 31 99 32
REMARK SMILES IDX 98 33 24 34 25 35 26 36 27 37 28 38 29 39 30 40 31 41 32 42
REMARK SMILES IDX 33 43 94 44 34 45 93 46 35 47 36 48 37 49 87 50 38 51 92 52
REMARK SMILES IDX 86 53 88 54 39 55 91 56 85 57 84 58 40 60 72 61 52 62 71 63
REMARK SMILES IDX 53 64 56 65 70 66 89 67 54 68 55 69 69 71 90 72 57 73 41 74
REMARK SMILES IDX 42 75 50 76 43 77 44 78 48 79 51 80 45 81 46 82 49 83 47 84
REMARK SMILES IDX 73 85 74 86 82 87 75 88 76 89 80 90 83 91 77 92 78 93 81 94
REMARK SMILES IDX 79 95 58 96 59 97 67 98 60 99 61 100 65 101 68 102 62 103
REMARK SMILES IDX 63 104 66 105 64 106
REMARK H PARENT 9 15 88 59 56 70
REMARK Flexibility Score: inf
ROOT
ATOM      1  O   UNL A   1      34.743  31.779  27.819  1.00  0.00    -0.376 OA
ENDROOT
BRANCH   1   2
ATOM      2  C   UNL A   1      33.677  30.874  27.569  1.00  0.00     0.202 C 
BRANCH   2   3
ATOM      3  C   UNL A   1      33.942  29.731  26.592  1.00  0.00     0.261 C 
BRANCH   3   4
ATOM      4  O   UNL A   1      32.777  29.201  25.945  1.00  0.00    -0.460 OA
BRANCH   4   5
ATOM      5  C   UNL A   1      32.929  28.096  25.191  1.00  0.00     0.339 C 
ATOM      6  O   UNL A   1      33.975  27.673  24.721  1.00  0.00    -0.246 OA
BRANCH   5   7
ATOM      7  C   UNL A   1      31.648  27.375  25.042  1.00  0.00     0.072 A 
ATOM      8  C   UNL A   1      30.974  27.159  23.830  1.00  0.00     0.054 A 
ATOM      9  C   UNL A   1      29.741  26.476  23.848  1.00  0.00     0.015 A 
ATOM     10  C   UNL A   1      29.189  26.017  25.046  1.00  0.00     0.001 A 
ATOM     11  C   UNL A   1      31.079  26.913  26.243  1.00  0.00     0.016 A 
ATOM     12  C   UNL A   1      29.854  26.247  26.246  1.00  0.00     0.001 A 
BRANCH   8  13
ATOM     13  C   UNL A   1      31.352  27.767  22.536  1.00  0.00     0.252 C 
ATOM     14  N   UNL A   1      32.093  27.112  21.596  1.00  0.00    -0.352 N 
ATOM     15  H   UNL A   1      32.435  27.695  20.880  1.00  0.00     0.163 HD
ATOM     16  O   UNL A   1      31.000  28.925  22.312  1.00  0.00    -0.269 OA
BRANCH  14  17
ATOM     17  C   UNL A   1      32.468  25.728  21.455  1.00  0.00     0.117 C 
BRANCH  17  18
ATOM     18  C   UNL A   1      33.735  25.361  22.212  1.00  0.00     0.030 C 
BRANCH  18  19
ATOM     19  C   UNL A   1      33.653  24.308  23.369  1.00  0.00     0.024 C 
BRANCH  19  20
ATOM     20  C   UNL A   1      32.366  23.389  23.234  1.00  0.00     0.002 C 
ATOM     21  C   UNL A   1      32.287  23.616  26.697  1.00  0.00     0.042 C 
ATOM     22  C   UNL A   1      31.633  22.728  25.625  1.00  0.00     0.063 C 
ATOM     23  C   UNL A   1      30.339  22.160  26.216  1.00  0.00     0.042 C 
ATOM     24  C   UNL A   1      31.335  23.556  24.365  1.00  0.00     0.039 C 
ATOM     25  O   UNL A   1      32.530  21.643  25.379  1.00  0.00    -0.376 OA
ATOM     26  C   UNL A   1      32.428  20.965  24.135  1.00  0.00     0.161 C 
ATOM     27  C   UNL A   1      32.430  21.891  22.923  1.00  0.00     0.033 C 
ENDBRANCH  19  20
BRANCH  19  28
ATOM     28  C   UNL A   1      35.015  23.852  23.903  1.00  0.00    -0.045 A 
ATOM     29  C   UNL A   1      35.889  22.984  23.243  1.00  0.00     0.004 A 
ATOM     30  C   UNL A   1      35.414  24.274  25.192  1.00  0.00     0.004 A 
ATOM     31  C   UNL A   1      37.018  22.440  23.877  1.00  0.00     0.000 A 
ATOM     32  C   UNL A   1      36.574  23.782  25.809  1.00  0.00     0.000 A 
ATOM     33  C   UNL A   1      37.358  22.833  25.165  1.00  0.00     0.000 A 
ENDBRANCH  19  28
ENDBRANCH  18  19
ENDBRANCH  17  18
ENDBRANCH  14  17
ENDBRANCH   8  13
ENDBRANCH   5   7
ENDBRANCH   4   5
ENDBRANCH   3   4
ENDBRANCH   2   3
ENDBRANCH   1   2
BRANCH   1  34
ATOM     34  C   UNL A   1      34.663  32.587  28.990  1.00  0.00     0.188 C 
BRANCH  34  35
ATOM     35  C   UNL A   1      35.421  33.939  29.048  1.00  0.00     0.188 C 
BRANCH  35  36
ATOM     36  O   UNL A   1      34.613  35.052  28.717  1.00  0.00    -0.376 OA
BRANCH  36  37
ATOM     37  C   UNL A   1      33.276  35.021  29.190  1.00  0.00     0.202 C 
BRANCH  37  38
ATOM     38  C   UNL A   1      32.708  36.300  29.837  1.00  0.00     0.261 C 
BRANCH  38  39
ATOM     39  O   UNL A   1      33.092  36.560  31.200  1.00  0.00    -0.460 OA
BRANCH  39  40
ATOM     40  C   UNL A   1      32.731  35.667  32.151  1.00  0.00     0.338 C 
ATOM     41  O   UNL A   1      31.598  35.361  32.474  1.00  0.00    -0.246 OA
BRANCH  40  42
ATOM     42  C   UNL A   1      33.954  34.924  32.563  1.00  0.00     0.060 A 
ATOM     43  C   UNL A   1      35.201  35.548  32.397  1.00  0.00     0.016 A 
ATOM     44  C   UNL A   1      33.877  33.686  33.210  1.00  0.00     0.016 A 
ATOM     45  C   UNL A   1      36.367  34.930  32.858  1.00  0.00     0.010 A 
ATOM     46  C   UNL A   1      35.051  33.054  33.645  1.00  0.00     0.010 A 
ATOM     47  C   UNL A   1      36.306  33.658  33.445  1.00  0.00    -0.014 A 
BRANCH  47  48
ATOM     48  C   UNL A   1      37.562  32.881  33.619  1.00  0.00     0.031 A 
ATOM     49  C   UNL A   1      38.369  33.127  34.867  1.00  0.00     0.074 A 
ATOM     50  C   UNL A   1      37.960  31.942  32.740  1.00  0.00     0.049 A 
ATOM     51  N   UNL A   1      39.477  32.560  35.274  1.00  0.00    -0.248 NA
ATOM     52  C   UNL A   1      37.848  34.153  35.784  1.00  0.00     0.031 C 
ATOM     53  C   UNL A   1      37.263  31.576  31.510  1.00  0.00     0.029 A 
ATOM     54  N   UNL A   1      39.062  31.117  32.758  1.00  0.00    -0.354 N 
ATOM     55  C   UNL A   1      39.774  33.153  36.495  1.00  0.00     0.074 A 
ATOM     56  C   UNL A   1      38.757  34.150  36.745  1.00  0.00     0.031 C 
ATOM     57  C   UNL A   1      37.955  30.605  30.887  1.00  0.00     0.029 A 
ATOM     58  C   UNL A   1      39.156  30.292  31.662  1.00  0.00     0.049 A 
ATOM     59  H   UNL A   1      39.722  31.118  33.488  1.00  0.00     0.167 HD
ATOM     60  C   UNL A   1      40.792  32.880  37.344  1.00  0.00     0.037 A 
ATOM     61  C   UNL A   1      40.110  29.401  31.324  1.00  0.00     0.037 A 
ATOM     62  C   UNL A   1      41.817  31.902  37.098  1.00  0.00     0.049 A 
ATOM     63  C   UNL A   1      41.285  29.178  32.250  1.00  0.00     0.074 A 
ATOM     64  C   UNL A   1      42.892  31.557  37.899  1.00  0.00     0.029 A 
ATOM     65  N   UNL A   1      41.901  31.120  35.956  1.00  0.00    -0.354 N 
ATOM     66  N   UNL A   1      41.535  29.714  33.421  1.00  0.00    -0.248 NA
ATOM     67  C   UNL A   1      42.305  28.216  31.807  1.00  0.00     0.031 C 
ATOM     68  C   UNL A   1      43.655  30.602  37.218  1.00  0.00     0.029 A 
ATOM     69  C   UNL A   1      43.022  30.308  36.022  1.00  0.00     0.049 A 
ATOM     70  H   UNL A   1      41.258  31.138  35.210  1.00  0.00     0.167 HD
ATOM     71  C   UNL A   1      42.717  29.131  33.864  1.00  0.00     0.074 A 
ATOM     72  C   UNL A   1      43.121  28.182  32.849  1.00  0.00     0.031 C 
ATOM     73  C   UNL A   1      43.409  29.361  35.008  1.00  0.00     0.037 A 
BRANCH  60  74
ATOM     74  C   UNL A   1      40.857  33.668  38.620  1.00  0.00     0.064 A 
ATOM     75  C   UNL A   1      40.078  33.324  39.735  1.00  0.00     0.173 A 
ATOM     76  C   UNL A   1      41.735  34.755  38.742  1.00  0.00     0.173 A 
ATOM     77  F   UNL A   1      39.208  32.305  39.665  1.00  0.00    -0.203 F 
ATOM     78  C   UNL A   1      40.164  34.052  40.920  1.00  0.00     0.198 A 
ATOM     79  C   UNL A   1      41.840  35.461  39.938  1.00  0.00     0.198 A 
ATOM     80  F   UNL A   1      42.502  35.125  37.704  1.00  0.00    -0.203 F 
ATOM     81  F   UNL A   1      39.380  33.731  41.959  1.00  0.00    -0.200 F 
ATOM     82  C   UNL A   1      41.052  35.112  41.022  1.00  0.00     0.200 A 
ATOM     83  F   UNL A   1      42.707  36.478  40.039  1.00  0.00    -0.200 F 
ATOM     84  F   UNL A   1      41.142  35.802  42.168  1.00  0.00    -0.200 F 
ENDBRANCH  60  74
BRANCH  61  85
ATOM     85  C   UNL A   1      40.021  28.644  30.042  1.00  0.00     0.064 A 
ATOM     86  C   UNL A   1      39.424  27.376  29.987  1.00  0.00     0.173 A 
ATOM     87  C   UNL A   1      40.597  29.141  28.864  1.00  0.00     0.173 A 
ATOM     88  F   UNL A   1      38.889  26.839  31.093  1.00  0.00    -0.203 F 
ATOM     89  C   UNL A   1      39.435  26.623  28.814  1.00  0.00     0.198 A 
ATOM     90  C   UNL A   1      40.577  28.402  27.683  1.00  0.00     0.198 A 
ATOM     91  F   UNL A   1      41.191  30.343  28.862  1.00  0.00    -0.203 F 
ATOM     92  F   UNL A   1      38.920  25.385  28.809  1.00  0.00    -0.200 F 
ATOM     93  C   UNL A   1      40.009  27.139  27.661  1.00  0.00     0.200 A 
ATOM     94  F   UNL A   1      41.128  28.907  26.570  1.00  0.00    -0.200 F 
ATOM     95  F   UNL A   1      40.027  26.410  26.535  1.00  0.00    -0.200 F 
ENDBRANCH  61  85
BRANCH  73  96
ATOM     96  C   UNL A   1      44.650  28.544  35.244  1.00  0.00     0.064 A 
ATOM     97  C   UNL A   1      45.910  28.961  34.787  1.00  0.00     0.173 A 
ATOM     98  C   UNL A   1      44.581  27.334  35.953  1.00  0.00     0.173 A 
ATOM     99  F   UNL A   1      46.032  30.104  34.096  1.00  0.00    -0.203 F 
ATOM    100  C   UNL A   1      47.043  28.178  34.993  1.00  0.00     0.198 A 
ATOM    101  C   UNL A   1      45.721  26.571  36.189  1.00  0.00     0.198 A 
ATOM    102  F   UNL A   1      43.404  26.892  36.424  1.00  0.00    -0.203 F 
ATOM    103  F   UNL A   1      48.223  28.566  34.489  1.00  0.00    -0.200 F 
ATOM    104  C   UNL A   1      46.949  26.987  35.697  1.00  0.00     0.200 A 
ATOM    105  F   UNL A   1      45.631  25.430  36.885  1.00  0.00    -0.200 F 
ATOM    106  F   UNL A   1      48.041  26.235  35.894  1.00  0.00    -0.200 F 
ENDBRANCH  73  96
ENDBRANCH  47  48
ENDBRANCH  40  42
ENDBRANCH  39  40
ENDBRANCH  38  39
ENDBRANCH  37  38
ENDBRANCH  36  37
ENDBRANCH  35  36
ENDBRANCH  34  35
ENDBRANCH   1  34
TORSDOF 23
ENDMDL
MODEL 2
REMARK VINA RESULT:     -11.0      6.241     11.770
REMARK SMILES CC1(C)C[C@@H]([C@H](CCNC(=O)c2ccccc2C(=O)OCCOCCOCCOC(=O)c2ccc(-c3c4nc(c(-c5c(F)c(F)c(F)c(F)c5F)c5ccc([nH]5)c(-c5c(F)c(F)c(F)c(F)c5F)c5nc(c(-c6c(F)c(F)c(F)c(F)c6F)c6ccc3[nH]6)C=C5)C=C4)cc2)c2ccccc2)CCO1
REMARK SMILES IDX 23 1 22 2 21 3 20 4 18 5 19 6 17 7 12 8 13 9 14 10 16 11
REMARK SMILES IDX 15 12 10 13 9 14 11 16 8 17 7 18 6 19 5 20 1 21 2 22 3 23
REMARK SMILES IDX 4 24 103 25 102 26 101 27 95 28 96 29 100 30 97 31 99 32
REMARK SMILES IDX 98 33 24 34 25 35 26 36 27 37 28 38 29 39 30 40 31 41 32 42
REMARK SMILES IDX 33 43 94 44 34 45 93 46 35 47 36 48 37 49 87 50 38 51 92 52
REMARK SMILES IDX 86 53 88 54 39 55 91 56 85 57 84 58 40 60 72 61 52 62 71 63
REMARK SMILES IDX 53 64 56 65 70 66 89 67 54 68 55 69 69 71 90 72 57 73 41 74
REMARK SMILES IDX 42 75 50 76 43 77 44 78 48 79 51 80 45 81 46 82 49 83 47 84
REMARK SMILES IDX 73 85 74 86 82 87 75 88 76 89 80 90 83 91 77 92 78 93 81 94
REMARK SMILES IDX 79 95 58 96 59 97 67 98 60 99 61 100 65 101 68 102 62 103
REMARK SMILES IDX 63 104 66 105 64 106
REMARK H PARENT 9 15 88 59 56 70
REMARK Flexibility Score: inf
ROOT
ATOM      1  O   UNL A   1      39.068  22.143  26.135  1.00  0.00    -0.376 OA
ENDROOT
BRANCH   1   2
ATOM      2  C   UNL A   1      38.284  23.300  26.390  1.00  0.00     0.202 C 
BRANCH   2   3
ATOM      3  C   UNL A   1      37.274  23.714  25.323  1.00  0.00     0.261 C 
BRANCH   3   4
ATOM      4  O   UNL A   1      35.899  23.625  25.719  1.00  0.00    -0.460 OA
BRANCH   4   5
ATOM      5  C   UNL A   1      35.281  22.438  25.566  1.00  0.00     0.339 C 
ATOM      6  O   UNL A   1      35.383  21.463  26.296  1.00  0.00    -0.246 OA
BRANCH   5   7
ATOM      7  C   UNL A   1      34.367  22.464  24.404  1.00  0.00     0.072 A 
ATOM      8  C   UNL A   1      33.032  22.031  24.412  1.00  0.00     0.054 A 
ATOM      9  C   UNL A   1      32.289  22.089  23.216  1.00  0.00     0.015 A 
ATOM     10  C   UNL A   1      32.861  22.570  22.036  1.00  0.00     0.001 A 
ATOM     11  C   UNL A   1      34.934  22.940  23.208  1.00  0.00     0.016 A 
ATOM     12  C   UNL A   1      34.189  22.984  22.030  1.00  0.00     0.001 A 
BRANCH   8  13
ATOM     13  C   UNL A   1      32.384  21.321  25.537  1.00  0.00     0.252 C 
ATOM     14  N   UNL A   1      32.145  21.907  26.745  1.00  0.00    -0.352 N 
ATOM     15  H   UNL A   1      31.895  21.272  27.455  1.00  0.00     0.163 HD
ATOM     16  O   UNL A   1      32.069  20.142  25.376  1.00  0.00    -0.269 OA
BRANCH  14  17
ATOM     17  C   UNL A   1      32.190  23.280  27.178  1.00  0.00     0.117 C 
BRANCH  17  18
ATOM     18  C   UNL A   1      31.095  24.145  26.575  1.00  0.00     0.030 C 
BRANCH  18  19
ATOM     19  C   UNL A   1      31.489  25.307  25.602  1.00  0.00     0.024 C 
BRANCH  19  20
ATOM     20  C   UNL A   1      30.554  25.340  24.320  1.00  0.00     0.002 C 
ATOM     21  C   UNL A   1      33.452  26.322  22.680  1.00  0.00     0.042 C 
ATOM     22  C   UNL A   1      31.944  26.324  22.373  1.00  0.00     0.063 C 
ATOM     23  C   UNL A   1      31.778  26.328  20.850  1.00  0.00     0.042 C 
ATOM     24  C   UNL A   1      31.280  25.082  22.987  1.00  0.00     0.039 C 
ATOM     25  O   UNL A   1      31.416  27.549  22.886  1.00  0.00    -0.376 OA
ATOM     26  C   UNL A   1      30.028  27.602  23.181  1.00  0.00     0.161 C 
ATOM     27  C   UNL A   1      29.535  26.449  24.050  1.00  0.00     0.033 C 
ENDBRANCH  19  20
BRANCH  19  28
ATOM     28  C   UNL A   1      32.083  26.537  26.297  1.00  0.00    -0.045 A 
ATOM     29  C   UNL A   1      31.363  27.444  27.079  1.00  0.00     0.004 A 
ATOM     30  C   UNL A   1      33.449  26.839  26.093  1.00  0.00     0.004 A 
ATOM     31  C   UNL A   1      31.919  28.661  27.509  1.00  0.00     0.000 A 
ATOM     32  C   UNL A   1      34.028  28.024  26.573  1.00  0.00     0.000 A 
ATOM     33  C   UNL A   1      33.251  28.955  27.250  1.00  0.00     0.000 A 
ENDBRANCH  19  28
ENDBRANCH  18  19
ENDBRANCH  17  18
ENDBRANCH  14  17
ENDBRANCH   8  13
ENDBRANCH   5   7
ENDBRANCH   4   5
ENDBRANCH   3   4
ENDBRANCH   2   3
ENDBRANCH   1   2
BRANCH   1  34
ATOM     34  C   UNL A   1      40.247  21.958  26.911  1.00  0.00     0.188 C 
BRANCH  34  35
ATOM     35  C   UNL A   1      41.549  21.456  26.233  1.00  0.00     0.188 C 
BRANCH  35  36
ATOM     36  O   UNL A   1      42.081  20.289  26.832  1.00  0.00    -0.376 OA
BRANCH  36  37
ATOM     37  C   UNL A   1      42.029  19.104  26.056  1.00  0.00     0.202 C 
BRANCH  37  38
ATOM     38  C   UNL A   1      43.355  18.534  25.515  1.00  0.00     0.261 C 
BRANCH  38  39
ATOM     39  O   UNL A   1      43.812  19.047  24.250  1.00  0.00    -0.460 OA
BRANCH  39  40
ATOM     40  C   UNL A   1      45.054  19.580  24.183  1.00  0.00     0.338 C 
ATOM     41  O   UNL A   1      46.008  19.136  23.570  1.00  0.00    -0.246 OA
BRANCH  40  42
ATOM     42  C   UNL A   1      44.995  20.945  24.776  1.00  0.00     0.060 A 
ATOM     43  C   UNL A   1      44.527  22.000  23.976  1.00  0.00     0.016 A 
ATOM     44  C   UNL A   1      45.281  21.170  26.126  1.00  0.00     0.016 A 
ATOM     45  C   UNL A   1      44.363  23.278  24.518  1.00  0.00     0.010 A 
ATOM     46  C   UNL A   1      45.144  22.460  26.661  1.00  0.00     0.010 A 
ATOM     47  C   UNL A   1      44.713  23.527  25.853  1.00  0.00    -0.014 A 
BRANCH  47  48
ATOM     48  C   UNL A   1      44.852  24.935  26.313  1.00  0.00     0.031 A 
ATOM     49  C   UNL A   1      46.213  25.573  26.207  1.00  0.00     0.074 A 
ATOM     50  C   UNL A   1      43.808  25.659  26.757  1.00  0.00     0.049 A 
ATOM     51  N   UNL A   1      46.594  26.790  26.504  1.00  0.00    -0.248 NA
ATOM     52  C   UNL A   1      47.292  24.717  25.687  1.00  0.00     0.031 C 
ATOM     53  C   UNL A   1      42.433  25.182  26.882  1.00  0.00     0.029 A 
ATOM     54  N   UNL A   1      43.750  26.965  27.188  1.00  0.00    -0.354 N 
ATOM     55  C   UNL A   1      47.948  26.845  26.197  1.00  0.00     0.074 A 
ATOM     56  C   UNL A   1      48.333  25.532  25.730  1.00  0.00     0.031 C 
ATOM     57  C   UNL A   1      41.667  26.179  27.362  1.00  0.00     0.029 A 
ATOM     58  C   UNL A   1      42.499  27.359  27.599  1.00  0.00     0.049 A 
ATOM     59  H   UNL A   1      44.532  27.562  27.199  1.00  0.00     0.167 HD
ATOM     60  C   UNL A   1      48.793  27.898  26.277  1.00  0.00     0.037 A 
ATOM     61  C   UNL A   1      42.083  28.533  28.118  1.00  0.00     0.037 A 
ATOM     62  C   UNL A   1      48.424  29.203  26.755  1.00  0.00     0.049 A 
ATOM     63  C   UNL A   1      43.070  29.668  28.279  1.00  0.00     0.074 A 
ATOM     64  C   UNL A   1      49.213  30.334  26.876  1.00  0.00     0.029 A 
ATOM     65  N   UNL A   1      47.158  29.549  27.203  1.00  0.00    -0.354 N 
ATOM     66  N   UNL A   1      44.338  29.723  27.947  1.00  0.00    -0.248 NA
ATOM     67  C   UNL A   1      42.559  30.910  28.879  1.00  0.00     0.031 C 
ATOM     68  C   UNL A   1      48.437  31.349  27.446  1.00  0.00     0.029 A 
ATOM     69  C   UNL A   1      47.151  30.869  27.622  1.00  0.00     0.049 A 
ATOM     70  H   UNL A   1      46.380  28.945  27.221  1.00  0.00     0.167 HD
ATOM     71  C   UNL A   1      44.763  31.007  28.267  1.00  0.00     0.074 A 
ATOM     72  C   UNL A   1      43.612  31.708  28.795  1.00  0.00     0.031 C 
ATOM     73  C   UNL A   1      45.995  31.559  28.138  1.00  0.00     0.037 A 
BRANCH  60  74
ATOM     74  C   UNL A   1      50.216  27.676  25.851  1.00  0.00     0.064 A 
ATOM     75  C   UNL A   1      51.235  27.448  26.787  1.00  0.00     0.173 A 
ATOM     76  C   UNL A   1      50.555  27.654  24.490  1.00  0.00     0.173 A 
ATOM     77  F   UNL A   1      50.965  27.479  28.101  1.00  0.00    -0.203 F 
ATOM     78  C   UNL A   1      52.547  27.223  26.377  1.00  0.00     0.198 A 
ATOM     79  C   UNL A   1      51.863  27.398  24.083  1.00  0.00     0.198 A 
ATOM     80  F   UNL A   1      49.618  27.867  23.555  1.00  0.00    -0.203 F 
ATOM     81  F   UNL A   1      53.512  27.049  27.290  1.00  0.00    -0.200 F 
ATOM     82  C   UNL A   1      52.856  27.189  25.025  1.00  0.00     0.200 A 
ATOM     83  F   UNL A   1      52.158  27.353  22.776  1.00  0.00    -0.200 F 
ATOM     84  F   UNL A   1      54.117  26.958  24.632  1.00  0.00    -0.200 F 
ENDBRANCH  60  74
BRANCH  61  85
ATOM     85  C   UNL A   1      40.666  28.716  28.542  1.00  0.00     0.064 A 
ATOM     86  C   UNL A   1      40.248  28.390  29.841  1.00  0.00     0.173 A 
ATOM     87  C   UNL A   1      39.687  29.150  27.636  1.00  0.00     0.173 A 
ATOM     88  F   UNL A   1      41.137  27.937  30.737  1.00  0.00    -0.203 F 
ATOM     89  C   UNL A   1      38.904  28.460  30.206  1.00  0.00     0.198 A 
ATOM     90  C   UNL A   1      38.349  29.253  28.013  1.00  0.00     0.198 A 
ATOM     91  F   UNL A   1      40.028  29.465  26.378  1.00  0.00    -0.203 F 
ATOM     92  F   UNL A   1      38.524  28.074  31.433  1.00  0.00    -0.200 F 
ATOM     93  C   UNL A   1      37.956  28.895  29.292  1.00  0.00     0.200 A 
ATOM     94  F   UNL A   1      37.437  29.679  27.128  1.00  0.00    -0.200 F 
ATOM     95  F   UNL A   1      36.663  28.954  29.642  1.00  0.00    -0.200 F 
ENDBRANCH  61  85
BRANCH  73  96
ATOM     96  C   UNL A   1      46.155  33.001  28.535  1.00  0.00     0.064 A 
ATOM     97  C   UNL A   1      45.955  34.047  27.621  1.00  0.00     0.173 A 
ATOM     98  C   UNL A   1      46.495  33.342  29.854  1.00  0.00     0.173 A 
ATOM     99  F   UNL A   1      45.639  33.778  26.346  1.00  0.00    -0.203 F 
ATOM    100  C   UNL A   1      46.133  35.375  28.001  1.00  0.00     0.198 A 
ATOM    101  C   UNL A   1      46.635  34.672  30.240  1.00  0.00     0.198 A 
ATOM    102  F   UNL A   1      46.685  32.383  30.773  1.00  0.00    -0.203 F 
ATOM    103  F   UNL A   1      46.001  36.353  27.094  1.00  0.00    -0.200 F 
ATOM    104  C   UNL A   1      46.467  35.687  29.311  1.00  0.00     0.200 A 
ATOM    105  F   UNL A   1      46.940  34.971  31.510  1.00  0.00    -0.200 F 
ATOM    106  F   UNL A   1      46.637  36.966  29.675  1.00  0.00    -0.200 F 
ENDBRANCH  73  96
ENDBRANCH  47  48
ENDBRANCH  40  42
ENDBRANCH  39  40
ENDBRANCH  38  39
ENDBRANCH  37  38
ENDBRANCH  36  37
ENDBRANCH  35  36
ENDBRANCH  34  35
ENDBRANCH   1  34
TORSDOF 23
ENDMDL
MODEL 3
REMARK VINA RESULT:     -10.9      6.181     11.947
REMARK SMILES CC1(C)C[C@@H]([C@H](CCNC(=O)c2ccccc2C(=O)OCCOCCOCCOC(=O)c2ccc(-c3c4nc(c(-c5c(F)c(F)c(F)c(F)c5F)c5ccc([nH]5)c(-c5c(F)c(F)c(F)c(F)c5F)c5nc(c(-c6c(F)c(F)c(F)c(F)c6F)c6ccc3[nH]6)C=C5)C=C4)cc2)c2ccccc2)CCO1
REMARK SMILES IDX 23 1 22 2 21 3 20 4 18 5 19 6 17 7 12 8 13 9 14 10 16 11
REMARK SMILES IDX 15 12 10 13 9 14 11 16 8 17 7 18 6 19 5 20 1 21 2 22 3 23
REMARK SMILES IDX 4 24 103 25 102 26 101 27 95 28 96 29 100 30 97 31 99 32
REMARK SMILES IDX 98 33 24 34 25 35 26 36 27 37 28 38 29 39 30 40 31 41 32 42
REMARK SMILES IDX 33 43 94 44 34 45 93 46 35 47 36 48 37 49 87 50 38 51 92 52
REMARK SMILES IDX 86 53 88 54 39 55 91 56 85 57 84 58 40 60 72 61 52 62 71 63
REMARK SMILES IDX 53 64 56 65 70 66 89 67 54 68 55 69 69 71 90 72 57 73 41 74
REMARK SMILES IDX 42 75 50 76 43 77 44 78 48 79 51 80 45 81 46 82 49 83 47 84
REMARK SMILES IDX 73 85 74 86 82 87 75 88 76 89 80 90 83 91 77 92 78 93 81 94
REMARK SMILES IDX 79 95 58 96 59 97 67 98 60 99 61 100 65 101 68 102 62 103
REMARK SMILES IDX 63 104 66 105 64 106
REMARK H PARENT 9 15 88 59 56 70
REMARK Flexibility Score: inf
ROOT
ATOM      1  O   UNL A   1      39.352  23.606  26.366  1.00  0.00    -0.376 OA
ENDROOT
BRANCH   1   2
ATOM      2  C   UNL A   1      37.946  23.563  26.176  1.00  0.00     0.202 C 
BRANCH   2   3
ATOM      3  C   UNL A   1      37.360  22.305  25.540  1.00  0.00     0.261 C 
BRANCH   3   4
ATOM      4  O   UNL A   1      36.024  22.441  25.039  1.00  0.00    -0.460 OA
BRANCH   4   5
ATOM      5  C   UNL A   1      35.022  21.946  25.789  1.00  0.00     0.339 C 
ATOM      6  O   UNL A   1      34.639  22.373  26.868  1.00  0.00    -0.246 OA
BRANCH   5   7
ATOM      7  C   UNL A   1      34.355  20.818  25.104  1.00  0.00     0.072 A 
ATOM      8  C   UNL A   1      33.040  20.829  24.614  1.00  0.00     0.054 A 
ATOM      9  C   UNL A   1      32.528  19.665  24.007  1.00  0.00     0.015 A 
ATOM     10  C   UNL A   1      33.310  18.514  23.886  1.00  0.00     0.001 A 
ATOM     11  C   UNL A   1      35.130  19.651  24.982  1.00  0.00     0.016 A 
ATOM     12  C   UNL A   1      34.608  18.503  24.386  1.00  0.00     0.001 A 
BRANCH   8  13
ATOM     13  C   UNL A   1      32.058  21.908  24.862  1.00  0.00     0.252 C 
ATOM     14  N   UNL A   1      32.031  23.066  24.140  1.00  0.00    -0.352 N 
ATOM     15  H   UNL A   1      31.466  23.769  24.535  1.00  0.00     0.163 HD
ATOM     16  O   UNL A   1      31.247  21.759  25.775  1.00  0.00    -0.269 OA
BRANCH  14  17
ATOM     17  C   UNL A   1      32.674  23.453  22.910  1.00  0.00     0.117 C 
BRANCH  17  18
ATOM     18  C   UNL A   1      32.392  24.890  22.502  1.00  0.00     0.030 C 
BRANCH  18  19
ATOM     19  C   UNL A   1      32.174  25.970  23.616  1.00  0.00     0.024 C 
BRANCH  19  20
ATOM     20  C   UNL A   1      33.538  26.675  24.022  1.00  0.00     0.002 C 
ATOM     21  C   UNL A   1      31.789  27.599  26.875  1.00  0.00     0.042 C 
ATOM     22  C   UNL A   1      33.098  28.022  26.186  1.00  0.00     0.063 C 
ATOM     23  C   UNL A   1      34.009  28.636  27.254  1.00  0.00     0.042 C 
ATOM     24  C   UNL A   1      33.770  26.801  25.538  1.00  0.00     0.039 C 
ATOM     25  O   UNL A   1      32.762  29.039  25.241  1.00  0.00    -0.376 OA
ATOM     26  C   UNL A   1      33.650  29.256  24.155  1.00  0.00     0.161 C 
ATOM     27  C   UNL A   1      34.026  27.985  23.399  1.00  0.00     0.033 C 
ENDBRANCH  19  20
BRANCH  19  28
ATOM     28  C   UNL A   1      30.803  26.653  23.573  1.00  0.00    -0.045 A 
ATOM     29  C   UNL A   1      29.631  26.139  24.134  1.00  0.00     0.004 A 
ATOM     30  C   UNL A   1      30.671  27.866  22.858  1.00  0.00     0.004 A 
ATOM     31  C   UNL A   1      28.372  26.706  23.876  1.00  0.00     0.000 A 
ATOM     32  C   UNL A   1      29.423  28.472  22.649  1.00  0.00     0.000 A 
ATOM     33  C   UNL A   1      28.265  27.871  23.127  1.00  0.00     0.000 A 
ENDBRANCH  19  28
ENDBRANCH  18  19
ENDBRANCH  17  18
ENDBRANCH  14  17
ENDBRANCH   8  13
ENDBRANCH   5   7
ENDBRANCH   4   5
ENDBRANCH   3   4
ENDBRANCH   2   3
ENDBRANCH   1   2
BRANCH   1  34
ATOM     34  C   UNL A   1      39.985  22.443  26.888  1.00  0.00     0.188 C 
BRANCH  34  35
ATOM     35  C   UNL A   1      41.154  21.783  26.110  1.00  0.00     0.188 C 
BRANCH  35  36
ATOM     36  O   UNL A   1      41.945  20.923  26.907  1.00  0.00    -0.376 OA
BRANCH  36  37
ATOM     37  C   UNL A   1      41.736  19.531  26.731  1.00  0.00     0.202 C 
BRANCH  37  38
ATOM     38  C   UNL A   1      42.825  18.722  25.999  1.00  0.00     0.261 C 
BRANCH  38  39
ATOM     39  O   UNL A   1      43.190  19.173  24.681  1.00  0.00    -0.460 OA
BRANCH  39  40
ATOM     40  C   UNL A   1      44.494  19.441  24.433  1.00  0.00     0.338 C 
ATOM     41  O   UNL A   1      45.282  18.737  23.828  1.00  0.00    -0.246 OA
BRANCH  40  42
ATOM     42  C   UNL A   1      44.743  20.863  24.798  1.00  0.00     0.060 A 
ATOM     43  C   UNL A   1      45.315  21.139  26.051  1.00  0.00     0.016 A 
ATOM     44  C   UNL A   1      44.529  21.902  23.887  1.00  0.00     0.016 A 
ATOM     45  C   UNL A   1      45.655  22.450  26.398  1.00  0.00     0.010 A 
ATOM     46  C   UNL A   1      44.844  23.221  24.248  1.00  0.00     0.010 A 
ATOM     47  C   UNL A   1      45.381  23.506  25.517  1.00  0.00    -0.014 A 
BRANCH  47  48
ATOM     48  C   UNL A   1      45.434  24.904  26.025  1.00  0.00     0.031 A 
ATOM     49  C   UNL A   1      46.762  25.613  25.981  1.00  0.00     0.074 A 
ATOM     50  C   UNL A   1      44.341  25.558  26.460  1.00  0.00     0.049 A 
ATOM     51  N   UNL A   1      47.070  26.838  26.328  1.00  0.00    -0.248 NA
ATOM     52  C   UNL A   1      47.899  24.831  25.468  1.00  0.00     0.031 C 
ATOM     53  C   UNL A   1      42.990  25.008  26.527  1.00  0.00     0.029 A 
ATOM     54  N   UNL A   1      44.202  26.845  26.929  1.00  0.00    -0.354 N 
ATOM     55  C   UNL A   1      48.428  26.971  26.064  1.00  0.00     0.074 A 
ATOM     56  C   UNL A   1      48.895  25.696  25.568  1.00  0.00     0.031 C 
ATOM     57  C   UNL A   1      42.159  25.947  27.014  1.00  0.00     0.029 A 
ATOM     58  C   UNL A   1      42.921  27.161  27.313  1.00  0.00     0.049 A 
ATOM     59  H   UNL A   1      44.952  27.480  26.983  1.00  0.00     0.167 HD
ATOM     60  C   UNL A   1      49.215  28.064  26.203  1.00  0.00     0.037 A 
ATOM     61  C   UNL A   1      42.430  28.294  27.855  1.00  0.00     0.037 A 
ATOM     62  C   UNL A   1      48.764  29.332  26.710  1.00  0.00     0.049 A 
ATOM     63  C   UNL A   1      43.351  29.471  28.082  1.00  0.00     0.074 A 
ATOM     64  C   UNL A   1      49.489  30.496  26.891  1.00  0.00     0.029 A 
ATOM     65  N   UNL A   1      47.469  29.597  27.130  1.00  0.00    -0.354 N 
ATOM     66  N   UNL A   1      44.623  29.602  27.792  1.00  0.00    -0.248 NA
ATOM     67  C   UNL A   1      42.759  30.665  28.705  1.00  0.00     0.031 C 
ATOM     68  C   UNL A   1      48.646  31.451  27.469  1.00  0.00     0.029 A 
ATOM     69  C   UNL A   1      47.381  30.901  27.590  1.00  0.00     0.049 A 
ATOM     70  H   UNL A   1      46.724  28.954  27.104  1.00  0.00     0.167 HD
ATOM     71  C   UNL A   1      44.971  30.895  28.165  1.00  0.00     0.074 A 
ATOM     72  C   UNL A   1      43.771  31.518  28.679  1.00  0.00     0.031 C 
ATOM     73  C   UNL A   1      46.177  31.513  28.091  1.00  0.00     0.037 A 
BRANCH  60  74
ATOM     74  C   UNL A   1      50.658  27.929  25.815  1.00  0.00     0.064 A 
ATOM     75  C   UNL A   1      51.657  27.689  26.771  1.00  0.00     0.173 A 
ATOM     76  C   UNL A   1      51.042  28.002  24.467  1.00  0.00     0.173 A 
ATOM     77  F   UNL A   1      51.344  27.630  28.074  1.00  0.00    -0.203 F 
ATOM     78  C   UNL A   1      52.990  27.546  26.393  1.00  0.00     0.198 A 
ATOM     79  C   UNL A   1      52.372  27.827  24.091  1.00  0.00     0.198 A 
ATOM     80  F   UNL A   1      50.126  28.230  23.514  1.00  0.00    -0.203 F 
ATOM     81  F   UNL A   1      53.932  27.358  27.328  1.00  0.00    -0.200 F 
ATOM     82  C   UNL A   1      53.343  27.605  25.053  1.00  0.00     0.200 A 
ATOM     83  F   UNL A   1      52.711  27.873  22.795  1.00  0.00    -0.200 F 
ATOM     84  F   UNL A   1      54.625  27.452  24.692  1.00  0.00    -0.200 F 
ENDBRANCH  60  74
BRANCH  61  85
ATOM     85  C   UNL A   1      40.993  28.390  28.241  1.00  0.00     0.064 A 
ATOM     86  C   UNL A   1      40.040  28.933  27.367  1.00  0.00     0.173 A 
ATOM     87  C   UNL A   1      40.558  28.009  29.519  1.00  0.00     0.173 A 
ATOM     88  F   UNL A   1      40.410  29.346  26.146  1.00  0.00    -0.203 F 
ATOM     89  C   UNL A   1      38.718  29.121  27.766  1.00  0.00     0.198 A 
ATOM     90  C   UNL A   1      39.227  28.165  29.905  1.00  0.00     0.198 A 
ATOM     91  F   UNL A   1      41.427  27.493  30.399  1.00  0.00    -0.203 F 
ATOM     92  F   UNL A   1      37.845  29.708  26.934  1.00  0.00    -0.200 F 
ATOM     93  C   UNL A   1      38.311  28.733  29.034  1.00  0.00     0.200 A 
ATOM     94  F   UNL A   1      38.838  27.784  31.129  1.00  0.00    -0.200 F 
ATOM     95  F   UNL A   1      37.041  28.923  29.421  1.00  0.00    -0.200 F 
ENDBRANCH  61  85
BRANCH  73  96
ATOM     96  C   UNL A   1      46.249  32.947  28.538  1.00  0.00     0.064 A 
ATOM     97  C   UNL A   1      46.012  34.012  27.654  1.00  0.00     0.173 A 
ATOM     98  C   UNL A   1      46.544  33.262  29.874  1.00  0.00     0.173 A 
ATOM     99  F   UNL A   1      45.737  33.769  26.364  1.00  0.00    -0.203 F 
ATOM    100  C   UNL A   1      46.109  35.334  28.081  1.00  0.00     0.198 A 
ATOM    101  C   UNL A   1      46.603  34.584  30.306  1.00  0.00     0.198 A 
ATOM    102  F   UNL A   1      46.767  32.285  30.766  1.00  0.00    -0.203 F 
ATOM    103  F   UNL A   1      45.943  36.333  27.203  1.00  0.00    -0.200 F 
ATOM    104  C   UNL A   1      46.399  35.619  29.406  1.00  0.00     0.200 A 
ATOM    105  F   UNL A   1      46.866  34.857  31.592  1.00  0.00    -0.200 F 
ATOM    106  F   UNL A   1      46.492  36.893  29.815  1.00  0.00    -0.200 F 
ENDBRANCH  73  96
ENDBRANCH  47  48
ENDBRANCH  40  42
ENDBRANCH  39  40
ENDBRANCH  38  39
ENDBRANCH  37  38
ENDBRANCH  36  37
ENDBRANCH  35  36
ENDBRANCH  34  35
ENDBRANCH   1  34
TORSDOF 23
ENDMDL
