MODEL 1
REMARK VINA RESULT:     -12.9      0.000      0.000
REMARK SMILES Cc1c(C(=O)OCCOCCOCCOC(=O)c2ccc(-c3c4nc(c(-c5c(F)c(F)c(F)c(F)c5F)c5ccc([nH]5)c(-c5c(F)c(F)c(F)c(F)c5F)c5nc(c(-c6c(F)c(F)c(F)c(F)c6F)c6ccc3[nH]6)C=C5)C=C4)cc2)oc2c1/C(=N/NC(=O)C(c1ccccc1)c1ccccc1)CCC2
REMARK SMILES IDX 10 1 9 2 8 3 7 4 6 5 4 6 5 7 3 8 1 9 2 10 83 11 81 12 82 13
REMARK SMILES IDX 84 14 104 15 85 16 102 17 103 18 86 19 87 20 88 22 89 23
REMARK SMILES IDX 90 24 91 25 95 26 92 27 94 28 93 29 96 30 97 31 101 32 98 33
REMARK SMILES IDX 100 34 99 35 11 36 12 37 13 38 14 39 15 40 16 41 17 42 18 43
REMARK SMILES IDX 19 44 80 45 20 46 79 47 21 48 22 49 23 50 73 51 24 52 78 53
REMARK SMILES IDX 72 54 74 55 25 56 77 57 71 58 70 59 26 61 58 62 38 63 57 64
REMARK SMILES IDX 39 65 42 66 56 67 75 68 40 69 41 70 55 72 76 73 43 74 27 75
REMARK SMILES IDX 28 76 36 77 29 78 30 79 34 80 37 81 31 82 32 83 35 84 33 85
REMARK SMILES IDX 59 86 60 87 68 88 61 89 62 90 66 91 69 92 63 93 64 94 67 95
REMARK SMILES IDX 65 96 44 97 45 98 53 99 46 100 47 101 51 102 54 103 48 104
REMARK SMILES IDX 49 105 52 106 50 107
REMARK H PARENT 86 21 74 60 42 71
REMARK Flexibility Score: inf
ROOT
ATOM      1  C   UNL A   1      38.256  22.204  25.845  1.00  0.00     0.188 C 
ENDROOT
BRANCH   1   2
ATOM      2  O   UNL A   1      37.501  21.178  25.207  1.00  0.00    -0.376 OA
BRANCH   2   3
ATOM      3  C   UNL A   1      36.223  21.456  24.647  1.00  0.00     0.202 C 
BRANCH   3   4
ATOM      4  C   UNL A   1      34.948  20.897  25.299  1.00  0.00     0.261 C 
BRANCH   4   5
ATOM      5  O   UNL A   1      34.119  20.124  24.439  1.00  0.00    -0.457 OA
BRANCH   5   6
ATOM      6  C   UNL A   1      32.789  20.051  24.734  1.00  0.00     0.374 C 
ATOM      7  O   UNL A   1      32.184  19.032  25.048  1.00  0.00    -0.242 OA
BRANCH   6   8
ATOM      8  C   UNL A   1      32.274  21.399  24.771  1.00  0.00     0.215 A 
ATOM      9  C   UNL A   1      32.641  22.355  22.411  1.00  0.00     0.049 C 
ATOM     10  C   UNL A   1      32.177  22.421  23.820  1.00  0.00     0.012 A 
ATOM     11  C   UNL A   1      31.503  23.493  24.483  1.00  0.00     0.043 A 
ATOM     12  O   UNL A   1      31.617  21.757  25.913  1.00  0.00    -0.453 OA
ATOM     13  C   UNL A   1      31.109  22.972  25.702  1.00  0.00     0.114 A 
ATOM     14  C   UNL A   1      31.177  24.891  24.190  1.00  0.00     0.072 C 
ATOM     15  C   UNL A   1      30.277  23.559  26.776  1.00  0.00     0.076 C 
ATOM     16  N   UNL A   1      31.381  25.335  22.990  1.00  0.00    -0.177 NA
ATOM     17  C   UNL A   1      30.717  25.597  25.432  1.00  0.00     0.059 C 
ATOM     18  C   UNL A   1      29.669  24.849  26.245  1.00  0.00     0.014 C 
BRANCH  16  19
ATOM     19  N   UNL A   1      31.281  26.568  22.395  1.00  0.00    -0.246 N 
ATOM     20  C   UNL A   1      31.046  27.899  22.660  1.00  0.00     0.252 C 
ATOM     21  H   UNL A   1      31.432  26.462  21.428  1.00  0.00     0.193 HD
ATOM     22  O   UNL A   1      31.191  28.661  21.686  1.00  0.00    -0.272 OA
BRANCH  20  23
ATOM     23  C   UNL A   1      30.606  28.529  24.013  1.00  0.00     0.140 C 
BRANCH  23  24
ATOM     24  C   UNL A   1      31.894  28.726  24.894  1.00  0.00    -0.031 A 
ATOM     25  C   UNL A   1      33.202  28.481  24.448  1.00  0.00     0.005 A 
ATOM     26  C   UNL A   1      31.763  29.060  26.268  1.00  0.00     0.005 A 
ATOM     27  C   UNL A   1      34.263  28.338  25.361  1.00  0.00     0.000 A 
ATOM     28  C   UNL A   1      32.817  28.929  27.174  1.00  0.00     0.000 A 
ATOM     29  C   UNL A   1      34.062  28.523  26.725  1.00  0.00     0.000 A 
ENDBRANCH  23  24
BRANCH  23  30
ATOM     30  C   UNL A   1      29.559  29.653  23.708  1.00  0.00    -0.031 A 
ATOM     31  C   UNL A   1      28.398  29.319  22.963  1.00  0.00     0.005 A 
ATOM     32  C   UNL A   1      29.682  31.004  24.062  1.00  0.00     0.005 A 
ATOM     33  C   UNL A   1      27.567  30.288  22.395  1.00  0.00     0.000 A 
ATOM     34  C   UNL A   1      28.839  31.984  23.503  1.00  0.00     0.000 A 
ATOM     35  C   UNL A   1      27.816  31.629  22.630  1.00  0.00     0.000 A 
ENDBRANCH  23  30
ENDBRANCH  20  23
ENDBRANCH  16  19
ENDBRANCH   6   8
ENDBRANCH   5   6
ENDBRANCH   4   5
ENDBRANCH   3   4
ENDBRANCH   2   3
ENDBRANCH   1   2
BRANCH   1  36
ATOM     36  C   UNL A   1      39.777  22.065  26.096  1.00  0.00     0.188 C 
BRANCH  36  37
ATOM     37  O   UNL A   1      40.096  21.345  27.268  1.00  0.00    -0.376 OA
BRANCH  37  38
ATOM     38  C   UNL A   1      41.436  20.935  27.481  1.00  0.00     0.202 C 
BRANCH  38  39
ATOM     39  C   UNL A   1      42.093  19.910  26.553  1.00  0.00     0.261 C 
BRANCH  39  40
ATOM     40  O   UNL A   1      42.626  20.433  25.349  1.00  0.00    -0.460 OA
BRANCH  40  41
ATOM     41  C   UNL A   1      43.968  20.535  25.296  1.00  0.00     0.338 C 
ATOM     42  O   UNL A   1      44.776  19.622  25.324  1.00  0.00    -0.246 OA
BRANCH  41  43
ATOM     43  C   UNL A   1      44.323  21.961  25.248  1.00  0.00     0.060 A 
ATOM     44  C   UNL A   1      45.439  22.359  25.985  1.00  0.00     0.016 A 
ATOM     45  C   UNL A   1      43.420  22.889  24.703  1.00  0.00     0.016 A 
ATOM     46  C   UNL A   1      45.487  23.660  26.429  1.00  0.00     0.010 A 
ATOM     47  C   UNL A   1      43.461  24.186  25.152  1.00  0.00     0.010 A 
ATOM     48  C   UNL A   1      44.418  24.503  26.111  1.00  0.00    -0.014 A 
BRANCH  48  49
ATOM     49  C   UNL A   1      44.200  25.629  26.992  1.00  0.00     0.031 A 
ATOM     50  C   UNL A   1      45.233  26.678  26.977  1.00  0.00     0.074 A 
ATOM     51  C   UNL A   1      43.067  25.698  27.717  1.00  0.00     0.049 A 
ATOM     52  N   UNL A   1      45.961  27.097  27.959  1.00  0.00    -0.248 NA
ATOM     53  C   UNL A   1      45.542  27.289  25.678  1.00  0.00     0.031 C 
ATOM     54  C   UNL A   1      41.851  24.886  27.579  1.00  0.00     0.029 A 
ATOM     55  N   UNL A   1      42.726  26.602  28.672  1.00  0.00    -0.354 N 
ATOM     56  C   UNL A   1      46.716  28.139  27.438  1.00  0.00     0.074 A 
ATOM     57  C   UNL A   1      46.517  28.132  26.011  1.00  0.00     0.031 C 
ATOM     58  C   UNL A   1      40.843  25.480  28.255  1.00  0.00     0.029 A 
ATOM     59  C   UNL A   1      41.374  26.631  28.966  1.00  0.00     0.049 A 
ATOM     60  H   UNL A   1      43.383  27.185  29.116  1.00  0.00     0.167 HD
ATOM     61  C   UNL A   1      47.289  29.079  28.235  1.00  0.00     0.037 A 
ATOM     62  C   UNL A   1      40.735  27.607  29.653  1.00  0.00     0.037 A 
ATOM     63  C   UNL A   1      47.427  28.635  29.592  1.00  0.00     0.049 A 
ATOM     64  C   UNL A   1      41.760  28.370  30.410  1.00  0.00     0.074 A 
ATOM     65  C   UNL A   1      48.108  27.599  30.203  1.00  0.00     0.029 A 
ATOM     66  N   UNL A   1      46.538  29.095  30.530  1.00  0.00    -0.354 N 
ATOM     67  N   UNL A   1      42.438  27.897  31.420  1.00  0.00    -0.248 NA
ATOM     68  C   UNL A   1      42.338  29.544  29.769  1.00  0.00     0.031 C 
ATOM     69  C   UNL A   1      47.277  27.191  31.286  1.00  0.00     0.029 A 
ATOM     70  C   UNL A   1      46.150  28.013  31.278  1.00  0.00     0.049 A 
ATOM     71  H   UNL A   1      46.236  30.025  30.644  1.00  0.00     0.167 HD
ATOM     72  C   UNL A   1      43.703  28.454  31.294  1.00  0.00     0.074 A 
ATOM     73  C   UNL A   1      43.553  29.530  30.322  1.00  0.00     0.031 C 
ATOM     74  C   UNL A   1      44.809  27.816  31.776  1.00  0.00     0.037 A 
BRANCH  61  75
ATOM     75  C   UNL A   1      47.430  30.514  27.822  1.00  0.00     0.064 A 
ATOM     76  C   UNL A   1      46.291  31.261  27.479  1.00  0.00     0.173 A 
ATOM     77  C   UNL A   1      48.675  31.099  27.495  1.00  0.00     0.173 A 
ATOM     78  F   UNL A   1      45.062  30.771  27.703  1.00  0.00    -0.203 F 
ATOM     79  C   UNL A   1      46.392  32.493  26.829  1.00  0.00     0.198 A 
ATOM     80  C   UNL A   1      48.773  32.353  26.902  1.00  0.00     0.198 A 
ATOM     81  F   UNL A   1      49.828  30.433  27.640  1.00  0.00    -0.203 F 
ATOM     82  F   UNL A   1      45.282  33.123  26.424  1.00  0.00    -0.200 F 
ATOM     83  C   UNL A   1      47.631  33.040  26.545  1.00  0.00     0.200 A 
ATOM     84  F   UNL A   1      49.983  32.854  26.614  1.00  0.00    -0.200 F 
ATOM     85  F   UNL A   1      47.729  34.199  25.882  1.00  0.00    -0.200 F 
ENDBRANCH  61  75
BRANCH  62  86
ATOM     86  C   UNL A   1      39.372  28.125  29.394  1.00  0.00     0.064 A 
ATOM     87  C   UNL A   1      38.448  28.284  30.437  1.00  0.00     0.173 A 
ATOM     88  C   UNL A   1      39.031  28.713  28.158  1.00  0.00     0.173 A 
ATOM     89  F   UNL A   1      38.721  27.801  31.657  1.00  0.00    -0.203 F 
ATOM     90  C   UNL A   1      37.259  28.998  30.257  1.00  0.00     0.198 A 
ATOM     91  C   UNL A   1      37.840  29.412  27.976  1.00  0.00     0.198 A 
ATOM     92  F   UNL A   1      39.890  28.700  27.127  1.00  0.00    -0.203 F 
ATOM     93  F   UNL A   1      36.426  29.180  31.290  1.00  0.00    -0.200 F 
ATOM     94  C   UNL A   1      36.959  29.566  29.028  1.00  0.00     0.200 A 
ATOM     95  F   UNL A   1      37.581  29.986  26.792  1.00  0.00    -0.200 F 
ATOM     96  F   UNL A   1      35.845  30.293  28.870  1.00  0.00    -0.200 F 
ENDBRANCH  62  86
BRANCH  74  97
ATOM     97  C   UNL A   1      44.593  26.629  32.672  1.00  0.00     0.064 A 
ATOM     98  C   UNL A   1      44.451  25.317  32.189  1.00  0.00     0.173 A 
ATOM     99  C   UNL A   1      44.701  26.802  34.057  1.00  0.00     0.173 A 
ATOM    100  F   UNL A   1      44.449  25.066  30.874  1.00  0.00    -0.203 F 
ATOM    101  C   UNL A   1      44.378  24.232  33.060  1.00  0.00     0.198 A 
ATOM    102  C   UNL A   1      44.663  25.712  34.923  1.00  0.00     0.198 A 
ATOM    103  F   UNL A   1      44.901  28.027  34.569  1.00  0.00    -0.203 F 
ATOM    104  F   UNL A   1      44.240  22.989  32.575  1.00  0.00    -0.200 F 
ATOM    105  C   UNL A   1      44.492  24.430  34.425  1.00  0.00     0.200 A 
ATOM    106  F   UNL A   1      44.825  25.902  36.241  1.00  0.00    -0.200 F 
ATOM    107  F   UNL A   1      44.470  23.382  35.261  1.00  0.00    -0.200 F 
ENDBRANCH  74  97
ENDBRANCH  48  49
ENDBRANCH  41  43
ENDBRANCH  40  41
ENDBRANCH  39  40
ENDBRANCH  38  39
ENDBRANCH  37  38
ENDBRANCH  36  37
ENDBRANCH   1  36
TORSDOF 21
ENDMDL
MODEL 2
REMARK VINA RESULT:     -12.6      2.884      4.749
REMARK SMILES Cc1c(C(=O)OCCOCCOCCOC(=O)c2ccc(-c3c4nc(c(-c5c(F)c(F)c(F)c(F)c5F)c5ccc([nH]5)c(-c5c(F)c(F)c(F)c(F)c5F)c5nc(c(-c6c(F)c(F)c(F)c(F)c6F)c6ccc3[nH]6)C=C5)C=C4)cc2)oc2c1/C(=N/NC(=O)C(c1ccccc1)c1ccccc1)CCC2
REMARK SMILES IDX 10 1 9 2 8 3 7 4 6 5 4 6 5 7 3 8 1 9 2 10 83 11 81 12 82 13
REMARK SMILES IDX 84 14 104 15 85 16 102 17 103 18 86 19 87 20 88 22 89 23
REMARK SMILES IDX 90 24 91 25 95 26 92 27 94 28 93 29 96 30 97 31 101 32 98 33
REMARK SMILES IDX 100 34 99 35 11 36 12 37 13 38 14 39 15 40 16 41 17 42 18 43
REMARK SMILES IDX 19 44 80 45 20 46 79 47 21 48 22 49 23 50 73 51 24 52 78 53
REMARK SMILES IDX 72 54 74 55 25 56 77 57 71 58 70 59 26 61 58 62 38 63 57 64
REMARK SMILES IDX 39 65 42 66 56 67 75 68 40 69 41 70 55 72 76 73 43 74 27 75
REMARK SMILES IDX 28 76 36 77 29 78 30 79 34 80 37 81 31 82 32 83 35 84 33 85
REMARK SMILES IDX 59 86 60 87 68 88 61 89 62 90 66 91 69 92 63 93 64 94 67 95
REMARK SMILES IDX 65 96 44 97 45 98 53 99 46 100 47 101 51 102 54 103 48 104
REMARK SMILES IDX 49 105 52 106 50 107
REMARK H PARENT 86 21 74 60 42 71
REMARK Flexibility Score: inf
ROOT
ATOM      1  C   UNL A   1      36.362  19.455  25.000  1.00  0.00     0.188 C 
ENDROOT
BRANCH   1   2
ATOM      2  O   UNL A   1      35.894  18.170  24.596  1.00  0.00    -0.376 OA
BRANCH   2   3
ATOM      3  C   UNL A   1      34.510  17.939  24.368  1.00  0.00     0.202 C 
BRANCH   3   4
ATOM      4  C   UNL A   1      33.456  18.499  25.337  1.00  0.00     0.261 C 
BRANCH   4   5
ATOM      5  O   UNL A   1      32.268  18.984  24.723  1.00  0.00    -0.457 OA
BRANCH   5   6
ATOM      6  C   UNL A   1      32.398  19.819  23.653  1.00  0.00     0.374 C 
ATOM      7  O   UNL A   1      32.113  19.542  22.493  1.00  0.00    -0.242 OA
BRANCH   6   8
ATOM      8  C   UNL A   1      32.768  21.121  24.156  1.00  0.00     0.215 A 
ATOM      9  C   UNL A   1      30.790  21.899  25.605  1.00  0.00     0.049 C 
ATOM     10  C   UNL A   1      32.134  22.048  24.991  1.00  0.00     0.012 A 
ATOM     11  C   UNL A   1      33.070  23.115  25.152  1.00  0.00     0.043 A 
ATOM     12  O   UNL A   1      34.048  21.521  23.897  1.00  0.00    -0.453 OA
ATOM     13  C   UNL A   1      34.232  22.670  24.549  1.00  0.00     0.114 A 
ATOM     14  C   UNL A   1      33.069  24.454  25.749  1.00  0.00     0.072 C 
ATOM     15  C   UNL A   1      35.579  23.279  24.489  1.00  0.00     0.076 C 
ATOM     16  N   UNL A   1      32.052  24.809  26.468  1.00  0.00    -0.177 NA
ATOM     17  C   UNL A   1      34.283  25.223  25.319  1.00  0.00     0.059 C 
ATOM     18  C   UNL A   1      35.599  24.467  25.439  1.00  0.00     0.014 C 
BRANCH  16  19
ATOM     19  N   UNL A   1      31.677  25.975  27.087  1.00  0.00    -0.246 N 
ATOM     20  C   UNL A   1      31.622  27.341  26.915  1.00  0.00     0.252 C 
ATOM     21  H   UNL A   1      31.319  25.756  27.977  1.00  0.00     0.193 HD
ATOM     22  O   UNL A   1      31.043  27.961  27.827  1.00  0.00    -0.272 OA
BRANCH  20  23
ATOM     23  C   UNL A   1      32.213  28.169  25.738  1.00  0.00     0.140 C 
BRANCH  23  24
ATOM     24  C   UNL A   1      31.050  28.454  24.718  1.00  0.00    -0.031 A 
ATOM     25  C   UNL A   1      30.380  27.462  23.984  1.00  0.00     0.005 A 
ATOM     26  C   UNL A   1      30.700  29.795  24.405  1.00  0.00     0.005 A 
ATOM     27  C   UNL A   1      29.610  27.794  22.855  1.00  0.00     0.000 A 
ATOM     28  C   UNL A   1      29.926  30.126  23.291  1.00  0.00     0.000 A 
ATOM     29  C   UNL A   1      29.416  29.121  22.486  1.00  0.00     0.000 A 
ENDBRANCH  23  24
BRANCH  23  30
ATOM     30  C   UNL A   1      33.154  29.266  26.340  1.00  0.00    -0.031 A 
ATOM     31  C   UNL A   1      34.532  28.968  26.502  1.00  0.00     0.005 A 
ATOM     32  C   UNL A   1      32.751  30.530  26.797  1.00  0.00     0.005 A 
ATOM     33  C   UNL A   1      35.381  29.752  27.287  1.00  0.00     0.000 A 
ATOM     34  C   UNL A   1      33.607  31.330  27.577  1.00  0.00     0.000 A 
ATOM     35  C   UNL A   1      34.903  30.916  27.864  1.00  0.00     0.000 A 
ENDBRANCH  23  30
ENDBRANCH  20  23
ENDBRANCH  16  19
ENDBRANCH   6   8
ENDBRANCH   5   6
ENDBRANCH   4   5
ENDBRANCH   3   4
ENDBRANCH   2   3
ENDBRANCH   1   2
BRANCH   1  36
ATOM     36  C   UNL A   1      37.771  19.970  24.618  1.00  0.00     0.188 C 
BRANCH  36  37
ATOM     37  O   UNL A   1      38.820  19.301  25.286  1.00  0.00    -0.376 OA
BRANCH  37  38
ATOM     38  C   UNL A   1      39.798  20.064  25.973  1.00  0.00     0.202 C 
BRANCH  38  39
ATOM     39  C   UNL A   1      39.513  21.515  26.370  1.00  0.00     0.261 C 
BRANCH  39  40
ATOM     40  O   UNL A   1      40.576  22.426  26.151  1.00  0.00    -0.460 OA
BRANCH  40  41
ATOM     41  C   UNL A   1      40.981  23.126  27.228  1.00  0.00     0.338 C 
ATOM     42  O   UNL A   1      41.697  22.732  28.134  1.00  0.00    -0.246 OA
BRANCH  41  43
ATOM     43  C   UNL A   1      40.370  24.462  27.169  1.00  0.00     0.060 A 
ATOM     44  C   UNL A   1      40.955  25.384  26.300  1.00  0.00     0.016 A 
ATOM     45  C   UNL A   1      39.427  24.844  28.137  1.00  0.00     0.016 A 
ATOM     46  C   UNL A   1      40.821  26.721  26.595  1.00  0.00     0.010 A 
ATOM     47  C   UNL A   1      39.298  26.178  28.438  1.00  0.00     0.010 A 
ATOM     48  C   UNL A   1      40.106  27.073  27.743  1.00  0.00    -0.014 A 
BRANCH  48  49
ATOM     49  C   UNL A   1      40.422  28.355  28.332  1.00  0.00     0.031 A 
ATOM     50  C   UNL A   1      41.664  28.996  27.871  1.00  0.00     0.074 A 
ATOM     51  C   UNL A   1      39.562  28.919  29.203  1.00  0.00     0.049 A 
ATOM     52  N   UNL A   1      42.695  29.339  28.570  1.00  0.00    -0.248 NA
ATOM     53  C   UNL A   1      41.801  29.218  26.425  1.00  0.00     0.031 C 
ATOM     54  C   UNL A   1      38.176  28.528  29.490  1.00  0.00     0.029 A 
ATOM     55  N   UNL A   1      39.722  30.048  29.940  1.00  0.00    -0.354 N 
ATOM     56  C   UNL A   1      43.554  29.966  27.677  1.00  0.00     0.074 A 
ATOM     57  C   UNL A   1      43.018  29.752  26.357  1.00  0.00     0.031 C 
ATOM     58  C   UNL A   1      37.563  29.530  30.159  1.00  0.00     0.029 A 
ATOM     59  C   UNL A   1      38.542  30.563  30.449  1.00  0.00     0.049 A 
ATOM     60  H   UNL A   1      40.600  30.463  30.099  1.00  0.00     0.167 HD
ATOM     61  C   UNL A   1      44.536  30.806  28.096  1.00  0.00     0.037 A 
ATOM     62  C   UNL A   1      38.379  31.803  30.967  1.00  0.00     0.037 A 
ATOM     63  C   UNL A   1      44.875  30.607  29.476  1.00  0.00     0.049 A 
ATOM     64  C   UNL A   1      39.725  32.328  31.313  1.00  0.00     0.074 A 
ATOM     65  C   UNL A   1      45.378  29.544  30.202  1.00  0.00     0.029 A 
ATOM     66  N   UNL A   1      44.400  31.496  30.406  1.00  0.00    -0.354 N 
ATOM     67  N   UNL A   1      40.475  31.863  32.275  1.00  0.00    -0.248 NA
ATOM     68  C   UNL A   1      40.425  33.112  30.303  1.00  0.00     0.031 C 
ATOM     69  C   UNL A   1      44.757  29.635  31.481  1.00  0.00     0.029 A 
ATOM     70  C   UNL A   1      43.928  30.757  31.461  1.00  0.00     0.049 A 
ATOM     71  H   UNL A   1      44.399  32.478  30.331  1.00  0.00     0.167 HD
ATOM     72  C   UNL A   1      41.773  31.952  31.792  1.00  0.00     0.074 A 
ATOM     73  C   UNL A   1      41.688  32.815  30.620  1.00  0.00     0.031 C 
ATOM     74  C   UNL A   1      42.747  31.098  32.219  1.00  0.00     0.037 A 
BRANCH  61  75
ATOM     75  C   UNL A   1      44.955  32.015  27.313  1.00  0.00     0.064 A 
ATOM     76  C   UNL A   1      46.272  32.119  26.836  1.00  0.00     0.173 A 
ATOM     77  C   UNL A   1      44.178  33.193  27.246  1.00  0.00     0.173 A 
ATOM     78  F   UNL A   1      47.106  31.070  26.902  1.00  0.00    -0.203 F 
ATOM     79  C   UNL A   1      46.782  33.328  26.355  1.00  0.00     0.198 A 
ATOM     80  C   UNL A   1      44.670  34.378  26.710  1.00  0.00     0.198 A 
ATOM     81  F   UNL A   1      42.958  33.266  27.793  1.00  0.00    -0.203 F 
ATOM     82  F   UNL A   1      48.074  33.413  26.010  1.00  0.00    -0.200 F 
ATOM     83  C   UNL A   1      45.981  34.453  26.288  1.00  0.00     0.200 A 
ATOM     84  F   UNL A   1      43.884  35.464  26.677  1.00  0.00    -0.200 F 
ATOM     85  F   UNL A   1      46.481  35.622  25.869  1.00  0.00    -0.200 F 
ENDBRANCH  61  75
BRANCH  62  86
ATOM     86  C   UNL A   1      37.188  32.671  30.827  1.00  0.00     0.064 A 
ATOM     87  C   UNL A   1      36.893  33.305  29.612  1.00  0.00     0.173 A 
ATOM     88  C   UNL A   1      36.176  32.696  31.809  1.00  0.00     0.173 A 
ATOM     89  F   UNL A   1      37.781  33.281  28.608  1.00  0.00    -0.203 F 
ATOM     90  C   UNL A   1      35.655  33.917  29.388  1.00  0.00     0.198 A 
ATOM     91  C   UNL A   1      34.949  33.318  31.591  1.00  0.00     0.198 A 
ATOM     92  F   UNL A   1      36.323  32.036  32.969  1.00  0.00    -0.203 F 
ATOM     93  F   UNL A   1      35.386  34.463  28.194  1.00  0.00    -0.200 F 
ATOM     94  C   UNL A   1      34.683  33.918  30.376  1.00  0.00     0.200 A 
ATOM     95  F   UNL A   1      34.005  33.279  32.543  1.00  0.00    -0.200 F 
ATOM     96  F   UNL A   1      33.479  34.459  30.144  1.00  0.00    -0.200 F 
ENDBRANCH  62  86
BRANCH  74  97
ATOM     97  C   UNL A   1      42.444  30.235  33.411  1.00  0.00     0.064 A 
ATOM     98  C   UNL A   1      42.574  30.682  34.737  1.00  0.00     0.173 A 
ATOM     99  C   UNL A   1      41.848  28.985  33.205  1.00  0.00     0.173 A 
ATOM    100  F   UNL A   1      43.035  31.910  35.006  1.00  0.00    -0.203 F 
ATOM    101  C   UNL A   1      42.162  29.892  35.809  1.00  0.00     0.198 A 
ATOM    102  C   UNL A   1      41.406  28.212  34.275  1.00  0.00     0.198 A 
ATOM    103  F   UNL A   1      41.642  28.536  31.956  1.00  0.00    -0.203 F 
ATOM    104  F   UNL A   1      42.299  30.339  37.066  1.00  0.00    -0.200 F 
ATOM    105  C   UNL A   1      41.572  28.661  35.576  1.00  0.00     0.200 A 
ATOM    106  F   UNL A   1      40.788  27.044  34.045  1.00  0.00    -0.200 F 
ATOM    107  F   UNL A   1      41.132  27.921  36.604  1.00  0.00    -0.200 F 
ENDBRANCH  74  97
ENDBRANCH  48  49
ENDBRANCH  41  43
ENDBRANCH  40  41
ENDBRANCH  39  40
ENDBRANCH  38  39
ENDBRANCH  37  38
ENDBRANCH  36  37
ENDBRANCH   1  36
TORSDOF 21
ENDMDL
MODEL 3
REMARK VINA RESULT:     -12.6      2.786      3.790
REMARK SMILES Cc1c(C(=O)OCCOCCOCCOC(=O)c2ccc(-c3c4nc(c(-c5c(F)c(F)c(F)c(F)c5F)c5ccc([nH]5)c(-c5c(F)c(F)c(F)c(F)c5F)c5nc(c(-c6c(F)c(F)c(F)c(F)c6F)c6ccc3[nH]6)C=C5)C=C4)cc2)oc2c1/C(=N/NC(=O)C(c1ccccc1)c1ccccc1)CCC2
REMARK SMILES IDX 10 1 9 2 8 3 7 4 6 5 4 6 5 7 3 8 1 9 2 10 83 11 81 12 82 13
REMARK SMILES IDX 84 14 104 15 85 16 102 17 103 18 86 19 87 20 88 22 89 23
REMARK SMILES IDX 90 24 91 25 95 26 92 27 94 28 93 29 96 30 97 31 101 32 98 33
REMARK SMILES IDX 100 34 99 35 11 36 12 37 13 38 14 39 15 40 16 41 17 42 18 43
REMARK SMILES IDX 19 44 80 45 20 46 79 47 21 48 22 49 23 50 73 51 24 52 78 53
REMARK SMILES IDX 72 54 74 55 25 56 77 57 71 58 70 59 26 61 58 62 38 63 57 64
REMARK SMILES IDX 39 65 42 66 56 67 75 68 40 69 41 70 55 72 76 73 43 74 27 75
REMARK SMILES IDX 28 76 36 77 29 78 30 79 34 80 37 81 31 82 32 83 35 84 33 85
REMARK SMILES IDX 59 86 60 87 68 88 61 89 62 90 66 91 69 92 63 93 64 94 67 95
REMARK SMILES IDX 65 96 44 97 45 98 53 99 46 100 47 101 51 102 54 103 48 104
REMARK SMILES IDX 49 105 52 106 50 107
REMARK H PARENT 86 21 74 60 42 71
REMARK Flexibility Score: inf
ROOT
ATOM      1  C   UNL A   1      36.513  19.606  24.991  1.00  0.00     0.188 C 
ENDROOT
BRANCH   1   2
ATOM      2  O   UNL A   1      36.167  18.225  25.044  1.00  0.00    -0.376 OA
BRANCH   2   3
ATOM      3  C   UNL A   1      35.156  17.695  24.196  1.00  0.00     0.202 C 
BRANCH   3   4
ATOM      4  C   UNL A   1      33.941  16.967  24.793  1.00  0.00     0.261 C 
BRANCH   4   5
ATOM      5  O   UNL A   1      32.764  17.759  24.918  1.00  0.00    -0.457 OA
BRANCH   5   6
ATOM      6  C   UNL A   1      32.497  18.663  23.932  1.00  0.00     0.374 C 
ATOM      7  O   UNL A   1      31.920  18.419  22.879  1.00  0.00    -0.242 OA
BRANCH   6   8
ATOM      8  C   UNL A   1      32.863  19.970  24.426  1.00  0.00     0.215 A 
ATOM      9  C   UNL A   1      32.438  21.598  22.481  1.00  0.00     0.049 C 
ATOM     10  C   UNL A   1      32.854  21.251  23.863  1.00  0.00     0.012 A 
ATOM     11  C   UNL A   1      33.278  22.127  24.910  1.00  0.00     0.043 A 
ATOM     12  O   UNL A   1      33.164  20.043  25.756  1.00  0.00    -0.453 OA
ATOM     13  C   UNL A   1      33.341  21.334  26.041  1.00  0.00     0.114 A 
ATOM     14  C   UNL A   1      33.636  23.542  25.036  1.00  0.00     0.072 C 
ATOM     15  C   UNL A   1      33.607  21.690  27.452  1.00  0.00     0.076 C 
ATOM     16  N   UNL A   1      33.410  24.329  24.031  1.00  0.00    -0.177 NA
ATOM     17  C   UNL A   1      34.304  23.802  26.353  1.00  0.00     0.059 C 
ATOM     18  C   UNL A   1      33.594  23.208  27.563  1.00  0.00     0.014 C 
BRANCH  16  19
ATOM     19  N   UNL A   1      33.687  25.646  23.765  1.00  0.00    -0.246 N 
ATOM     20  C   UNL A   1      33.481  26.927  24.229  1.00  0.00     0.252 C 
ATOM     21  H   UNL A   1      34.229  25.693  22.945  1.00  0.00     0.193 HD
ATOM     22  O   UNL A   1      34.099  27.814  23.611  1.00  0.00    -0.272 OA
BRANCH  20  23
ATOM     23  C   UNL A   1      32.560  27.369  25.403  1.00  0.00     0.140 C 
BRANCH  23  24
ATOM     24  C   UNL A   1      33.189  28.659  26.047  1.00  0.00    -0.031 A 
ATOM     25  C   UNL A   1      34.354  28.665  26.830  1.00  0.00     0.005 A 
ATOM     26  C   UNL A   1      32.503  29.899  25.952  1.00  0.00     0.005 A 
ATOM     27  C   UNL A   1      34.667  29.763  27.652  1.00  0.00     0.000 A 
ATOM     28  C   UNL A   1      32.820  30.994  26.759  1.00  0.00     0.000 A 
ATOM     29  C   UNL A   1      33.879  30.909  27.646  1.00  0.00     0.000 A 
ENDBRANCH  23  24
BRANCH  23  30
ATOM     30  C   UNL A   1      31.074  27.249  24.926  1.00  0.00    -0.031 A 
ATOM     31  C   UNL A   1      30.240  26.275  25.534  1.00  0.00     0.005 A 
ATOM     32  C   UNL A   1      30.482  27.993  23.895  1.00  0.00     0.005 A 
ATOM     33  C   UNL A   1      29.012  25.894  24.987  1.00  0.00     0.000 A 
ATOM     34  C   UNL A   1      29.238  27.622  23.349  1.00  0.00     0.000 A 
ATOM     35  C   UNL A   1      28.530  26.541  23.863  1.00  0.00     0.000 A 
ENDBRANCH  23  30
ENDBRANCH  20  23
ENDBRANCH  16  19
ENDBRANCH   6   8
ENDBRANCH   5   6
ENDBRANCH   4   5
ENDBRANCH   3   4
ENDBRANCH   2   3
ENDBRANCH   1   2
BRANCH   1  36
ATOM     36  C   UNL A   1      37.966  20.076  24.733  1.00  0.00     0.188 C 
BRANCH  36  37
ATOM     37  O   UNL A   1      38.944  19.258  25.338  1.00  0.00    -0.376 OA
BRANCH  37  38
ATOM     38  C   UNL A   1      39.977  19.864  26.096  1.00  0.00     0.202 C 
BRANCH  38  39
ATOM     39  C   UNL A   1      40.269  21.360  25.955  1.00  0.00     0.261 C 
BRANCH  39  40
ATOM     40  O   UNL A   1      39.955  22.150  27.088  1.00  0.00    -0.460 OA
BRANCH  40  41
ATOM     41  C   UNL A   1      39.334  23.319  26.836  1.00  0.00     0.338 C 
ATOM     42  O   UNL A   1      38.168  23.478  26.517  1.00  0.00    -0.246 OA
BRANCH  41  43
ATOM     43  C   UNL A   1      40.319  24.404  26.960  1.00  0.00     0.060 A 
ATOM     44  C   UNL A   1      41.066  24.445  28.137  1.00  0.00     0.016 A 
ATOM     45  C   UNL A   1      40.298  25.476  26.052  1.00  0.00     0.016 A 
ATOM     46  C   UNL A   1      41.550  25.665  28.550  1.00  0.00     0.010 A 
ATOM     47  C   UNL A   1      40.774  26.695  26.466  1.00  0.00     0.010 A 
ATOM     48  C   UNL A   1      41.268  26.785  27.763  1.00  0.00    -0.014 A 
BRANCH  48  49
ATOM     49  C   UNL A   1      41.282  28.065  28.435  1.00  0.00     0.031 A 
ATOM     50  C   UNL A   1      42.441  28.931  28.164  1.00  0.00     0.074 A 
ATOM     51  C   UNL A   1      40.236  28.426  29.204  1.00  0.00     0.049 A 
ATOM     52  N   UNL A   1      43.302  29.401  29.005  1.00  0.00    -0.248 NA
ATOM     53  C   UNL A   1      42.715  29.256  26.758  1.00  0.00     0.031 C 
ATOM     54  C   UNL A   1      38.914  27.792  29.292  1.00  0.00     0.029 A 
ATOM     55  N   UNL A   1      40.105  29.521  29.996  1.00  0.00    -0.354 N 
ATOM     56  C   UNL A   1      44.142  30.214  28.256  1.00  0.00     0.074 A 
ATOM     57  C   UNL A   1      43.820  29.990  26.870  1.00  0.00     0.031 C 
ATOM     58  C   UNL A   1      38.059  28.636  29.909  1.00  0.00     0.029 A 
ATOM     59  C   UNL A   1      38.800  29.800  30.363  1.00  0.00     0.049 A 
ATOM     60  H   UNL A   1      40.871  30.068  30.284  1.00  0.00     0.167 HD
ATOM     61  C   UNL A   1      44.904  31.182  28.830  1.00  0.00     0.037 A 
ATOM     62  C   UNL A   1      38.361  30.964  30.898  1.00  0.00     0.037 A 
ATOM     63  C   UNL A   1      45.100  30.963  30.235  1.00  0.00     0.049 A 
ATOM     64  C   UNL A   1      39.542  31.686  31.437  1.00  0.00     0.074 A 
ATOM     65  C   UNL A   1      45.686  29.959  30.982  1.00  0.00     0.029 A 
ATOM     66  N   UNL A   1      44.366  31.705  31.125  1.00  0.00    -0.354 N 
ATOM     67  N   UNL A   1      40.236  31.299  32.472  1.00  0.00    -0.248 NA
ATOM     68  C   UNL A   1      40.214  32.633  30.557  1.00  0.00     0.031 C 
ATOM     69  C   UNL A   1      44.905  29.871  32.170  1.00  0.00     0.029 A 
ATOM     70  C   UNL A   1      43.903  30.838  32.082  1.00  0.00     0.049 A 
ATOM     71  H   UNL A   1      44.203  32.675  31.086  1.00  0.00     0.167 HD
ATOM     72  C   UNL A   1      41.548  31.632  32.168  1.00  0.00     0.074 A 
ATOM     73  C   UNL A   1      41.460  32.535  31.027  1.00  0.00     0.031 C 
ATOM     74  C   UNL A   1      42.596  30.930  32.690  1.00  0.00     0.037 A 
BRANCH  61  75
ATOM     75  C   UNL A   1      45.201  32.487  28.153  1.00  0.00     0.064 A 
ATOM     76  C   UNL A   1      44.171  33.420  27.947  1.00  0.00     0.173 A 
ATOM     77  C   UNL A   1      46.409  32.736  27.462  1.00  0.00     0.173 A 
ATOM     78  F   UNL A   1      42.970  33.247  28.518  1.00  0.00    -0.203 F 
ATOM     79  C   UNL A   1      44.332  34.509  27.086  1.00  0.00     0.198 A 
ATOM     80  C   UNL A   1      46.585  33.853  26.654  1.00  0.00     0.198 A 
ATOM     81  F   UNL A   1      47.416  31.853  27.462  1.00  0.00    -0.203 F 
ATOM     82  F   UNL A   1      43.293  35.315  26.834  1.00  0.00    -0.200 F 
ATOM     83  C   UNL A   1      45.538  34.727  26.444  1.00  0.00     0.200 A 
ATOM     84  F   UNL A   1      47.754  34.033  26.022  1.00  0.00    -0.200 F 
ATOM     85  F   UNL A   1      45.679  35.744  25.585  1.00  0.00    -0.200 F 
ENDBRANCH  61  75
BRANCH  62  86
ATOM     86  C   UNL A   1      37.063  31.626  30.634  1.00  0.00     0.064 A 
ATOM     87  C   UNL A   1      36.092  31.742  31.638  1.00  0.00     0.173 A 
ATOM     88  C   UNL A   1      36.848  32.382  29.462  1.00  0.00     0.173 A 
ATOM     89  F   UNL A   1      36.249  31.097  32.803  1.00  0.00    -0.203 F 
ATOM     90  C   UNL A   1      34.977  32.573  31.485  1.00  0.00     0.198 A 
ATOM     91  C   UNL A   1      35.731  33.199  29.305  1.00  0.00     0.198 A 
ATOM     92  F   UNL A   1      37.765  32.416  28.484  1.00  0.00    -0.203 F 
ATOM     93  F   UNL A   1      34.099  32.704  32.488  1.00  0.00    -0.200 F 
ATOM     94  C   UNL A   1      34.801  33.305  30.321  1.00  0.00     0.200 A 
ATOM     95  F   UNL A   1      35.592  33.928  28.188  1.00  0.00    -0.200 F 
ATOM     96  F   UNL A   1      33.761  34.140  30.195  1.00  0.00    -0.200 F 
ENDBRANCH  62  86
BRANCH  74  97
ATOM     97  C   UNL A   1      42.302  29.961  33.799  1.00  0.00     0.064 A 
ATOM     98  C   UNL A   1      41.940  28.623  33.575  1.00  0.00     0.173 A 
ATOM     99  C   UNL A   1      42.556  30.351  35.120  1.00  0.00     0.173 A 
ATOM    100  F   UNL A   1      41.785  28.152  32.331  1.00  0.00    -0.203 F 
ATOM    101  C   UNL A   1      41.798  27.726  34.632  1.00  0.00     0.198 A 
ATOM    102  C   UNL A   1      42.447  29.445  36.172  1.00  0.00     0.198 A 
ATOM    103  F   UNL A   1      42.967  31.601  35.385  1.00  0.00    -0.203 F 
ATOM    104  F   UNL A   1      41.448  26.454  34.394  1.00  0.00    -0.200 F 
ATOM    105  C   UNL A   1      42.060  28.136  35.929  1.00  0.00     0.200 A 
ATOM    106  F   UNL A   1      42.752  29.831  37.419  1.00  0.00    -0.200 F 
ATOM    107  F   UNL A   1      41.970  27.263  36.942  1.00  0.00    -0.200 F 
ENDBRANCH  74  97
ENDBRANCH  48  49
ENDBRANCH  41  43
ENDBRANCH  40  41
ENDBRANCH  39  40
ENDBRANCH  38  39
ENDBRANCH  37  38
ENDBRANCH  36  37
ENDBRANCH   1  36
TORSDOF 21
ENDMDL
