MODEL 1
REMARK VINA RESULT:     -10.1      0.000      0.000
REMARK SMILES CCCCCNC(=O)Oc1cccc(-c2ccc([C@@H](C)C(=O)OCCOCCOCCOC(=O)c3ccc(-c4c5nc(c(-c6c(F)c(F)c(F)c(F)c6F)c6ccc([nH]6)c(-c6c(F)c(F)c(F)c(F)c6F)c6nc(c(-c7c(F)c(F)c(F)c(F)c7F)c7ccc4[nH]7)C=C6)C=C5)cc3)cc2F)c1
REMARK SMILES IDX 24 1 23 2 21 3 22 4 19 5 20 6 18 7 15 8 16 9 99 10 17 11
REMARK SMILES IDX 98 12 100 13 14 14 10 15 11 16 101 17 12 18 13 19 9 20 7 21
REMARK SMILES IDX 6 22 8 24 5 25 4 26 3 27 2 28 1 29 25 30 26 31 27 32 28 33
REMARK SMILES IDX 29 34 30 35 31 36 32 37 33 38 34 39 35 40 36 41 97 42 37 43
REMARK SMILES IDX 96 44 38 45 39 46 40 47 90 48 41 49 95 50 89 51 91 52 42 53
REMARK SMILES IDX 94 54 88 55 87 56 43 58 75 59 55 60 74 61 56 62 59 63 73 64
REMARK SMILES IDX 92 65 57 66 58 67 72 69 93 70 60 71 44 72 45 73 53 74 46 75
REMARK SMILES IDX 47 76 51 77 54 78 48 79 49 80 52 81 50 82 76 83 77 84 85 85
REMARK SMILES IDX 78 86 79 87 83 88 86 89 80 90 81 91 84 92 82 93 61 94 62 95
REMARK SMILES IDX 70 96 63 97 64 98 68 99 71 100 65 101 66 102 69 103 67 104
REMARK H PARENT 6 23 91 57 59 68
REMARK Flexibility Score: inf
ROOT
ATOM      1  C   UNL A   1      32.549  29.099  26.484  1.00  0.00     0.261 C 
ENDROOT
BRANCH   1   2
ATOM      2  O   UNL A   1      32.529  27.765  27.048  1.00  0.00    -0.463 OA
BRANCH   2   3
ATOM      3  C   UNL A   1      31.698  26.870  26.456  1.00  0.00     0.313 C 
ATOM      4  O   UNL A   1      30.599  26.565  26.916  1.00  0.00    -0.252 OA
BRANCH   3   5
ATOM      5  C   UNL A   1      32.186  26.249  25.142  1.00  0.00     0.126 C 
ATOM      6  C   UNL A   1      30.972  25.840  24.311  1.00  0.00     0.025 C 
BRANCH   5   7
ATOM      7  C   UNL A   1      33.245  25.150  25.119  1.00  0.00    -0.031 A 
ATOM      8  C   UNL A   1      35.202  23.045  25.203  1.00  0.00     0.018 A 
ATOM      9  C   UNL A   1      35.044  23.866  24.071  1.00  0.00     0.012 A 
ATOM     10  C   UNL A   1      34.362  23.310  26.290  1.00  0.00     0.131 A 
ATOM     11  C   UNL A   1      34.091  24.905  24.029  1.00  0.00     0.005 A 
ATOM     12  C   UNL A   1      33.414  24.340  26.260  1.00  0.00     0.044 A 
ATOM     13  F   UNL A   1      34.457  22.581  27.414  1.00  0.00    -0.206 F 
BRANCH   8  14
ATOM     14  C   UNL A   1      36.239  21.993  25.258  1.00  0.00    -0.012 A 
ATOM     15  C   UNL A   1      38.538  21.256  25.584  1.00  0.00     0.133 A 
ATOM     16  C   UNL A   1      38.200  19.948  25.244  1.00  0.00     0.047 A 
ATOM     17  C   UNL A   1      37.579  22.276  25.588  1.00  0.00     0.056 A 
ATOM     18  C   UNL A   1      36.881  19.649  24.924  1.00  0.00     0.004 A 
ATOM     19  C   UNL A   1      35.913  20.661  24.928  1.00  0.00     0.009 A 
BRANCH  15  20
ATOM     20  O   UNL A   1      39.908  21.524  25.766  1.00  0.00    -0.410 OA
BRANCH  20  21
ATOM     21  C   UNL A   1      40.541  21.024  26.892  1.00  0.00     0.412 C 
ATOM     22  N   UNL A   1      40.953  22.000  27.761  1.00  0.00    -0.321 N 
ATOM     23  H   UNL A   1      41.324  21.696  28.621  1.00  0.00     0.167 HD
ATOM     24  O   UNL A   1      40.760  19.839  27.129  1.00  0.00    -0.224 OA
BRANCH  22  25
ATOM     25  C   UNL A   1      40.902  23.435  27.549  1.00  0.00     0.119 C 
BRANCH  25  26
ATOM     26  C   UNL A   1      42.090  24.169  28.171  1.00  0.00     0.021 C 
BRANCH  26  27
ATOM     27  C   UNL A   1      42.927  25.009  27.198  1.00  0.00     0.002 C 
BRANCH  27  28
ATOM     28  C   UNL A   1      43.981  25.918  27.836  1.00  0.00    -0.003 C 
ATOM     29  C   UNL A   1      43.474  26.684  29.048  1.00  0.00     0.004 C 
ENDBRANCH  27  28
ENDBRANCH  26  27
ENDBRANCH  25  26
ENDBRANCH  22  25
ENDBRANCH  20  21
ENDBRANCH  15  20
ENDBRANCH   8  14
ENDBRANCH   5   7
ENDBRANCH   3   5
ENDBRANCH   2   3
ENDBRANCH   1   2
BRANCH   1  30
ATOM     30  C   UNL A   1      33.765  29.963  26.853  1.00  0.00     0.202 C 
BRANCH  30  31
ATOM     31  O   UNL A   1      33.534  31.290  27.314  1.00  0.00    -0.376 OA
BRANCH  31  32
ATOM     32  C   UNL A   1      34.318  31.804  28.383  1.00  0.00     0.188 C 
BRANCH  32  33
ATOM     33  C   UNL A   1      34.854  33.241  28.311  1.00  0.00     0.188 C 
BRANCH  33  34
ATOM     34  O   UNL A   1      33.883  34.209  27.981  1.00  0.00    -0.376 OA
BRANCH  34  35
ATOM     35  C   UNL A   1      34.084  35.511  28.494  1.00  0.00     0.202 C 
BRANCH  35  36
ATOM     36  C   UNL A   1      32.902  36.072  29.298  1.00  0.00     0.261 C 
BRANCH  36  37
ATOM     37  O   UNL A   1      32.425  35.243  30.375  1.00  0.00    -0.460 OA
BRANCH  37  38
ATOM     38  C   UNL A   1      32.602  35.702  31.633  1.00  0.00     0.338 C 
ATOM     39  O   UNL A   1      31.852  36.432  32.265  1.00  0.00    -0.246 OA
BRANCH  38  40
ATOM     40  C   UNL A   1      33.757  34.998  32.227  1.00  0.00     0.060 A 
ATOM     41  C   UNL A   1      35.021  35.608  32.192  1.00  0.00     0.016 A 
ATOM     42  C   UNL A   1      33.598  33.742  32.813  1.00  0.00     0.016 A 
ATOM     43  C   UNL A   1      36.133  34.949  32.720  1.00  0.00     0.010 A 
ATOM     44  C   UNL A   1      34.717  33.074  33.321  1.00  0.00     0.010 A 
ATOM     45  C   UNL A   1      35.993  33.660  33.252  1.00  0.00    -0.014 A 
BRANCH  45  46
ATOM     46  C   UNL A   1      37.193  32.842  33.566  1.00  0.00     0.031 A 
ATOM     47  C   UNL A   1      37.917  33.103  34.859  1.00  0.00     0.074 A 
ATOM     48  C   UNL A   1      37.643  31.895  32.724  1.00  0.00     0.049 A 
ATOM     49  N   UNL A   1      39.038  32.596  35.307  1.00  0.00    -0.248 NA
ATOM     50  C   UNL A   1      37.292  34.078  35.768  1.00  0.00     0.031 C 
ATOM     51  C   UNL A   1      37.009  31.512  31.465  1.00  0.00     0.029 A 
ATOM     52  N   UNL A   1      38.756  31.093  32.801  1.00  0.00    -0.354 N 
ATOM     53  C   UNL A   1      39.260  33.202  36.536  1.00  0.00     0.074 A 
ATOM     54  C   UNL A   1      38.173  34.131  36.755  1.00  0.00     0.031 C 
ATOM     55  C   UNL A   1      37.754  30.560  30.876  1.00  0.00     0.029 A 
ATOM     56  C   UNL A   1      38.936  30.295  31.697  1.00  0.00     0.049 A 
ATOM     57  H   UNL A   1      39.366  31.090  33.572  1.00  0.00     0.167 HD
ATOM     58  C   UNL A   1      40.278  32.999  37.407  1.00  0.00     0.037 A 
ATOM     59  C   UNL A   1      39.954  29.472  31.375  1.00  0.00     0.037 A 
ATOM     60  C   UNL A   1      41.357  32.070  37.189  1.00  0.00     0.049 A 
ATOM     61  C   UNL A   1      41.117  29.324  32.327  1.00  0.00     0.074 A 
ATOM     62  C   UNL A   1      42.418  31.770  38.026  1.00  0.00     0.029 A 
ATOM     63  N   UNL A   1      41.517  31.300  36.048  1.00  0.00    -0.354 N 
ATOM     64  N   UNL A   1      41.307  29.874  33.501  1.00  0.00    -0.248 NA
ATOM     65  C   UNL A   1      42.211  28.436  31.902  1.00  0.00     0.031 C 
ATOM     66  C   UNL A   1      43.256  30.869  37.364  1.00  0.00     0.029 A 
ATOM     67  C   UNL A   1      42.680  30.551  36.144  1.00  0.00     0.049 A 
ATOM     68  H   UNL A   1      40.898  31.287  35.283  1.00  0.00     0.167 HD
ATOM     69  C   UNL A   1      42.515  29.371  33.972  1.00  0.00     0.074 A 
ATOM     70  C   UNL A   1      43.010  28.462  32.960  1.00  0.00     0.031 C 
ATOM     71  C   UNL A   1      43.156  29.637  35.137  1.00  0.00     0.037 A 
BRANCH  58  72
ATOM     72  C   UNL A   1      40.297  33.824  38.662  1.00  0.00     0.064 A 
ATOM     73  C   UNL A   1      39.600  33.435  39.816  1.00  0.00     0.173 A 
ATOM     74  C   UNL A   1      41.057  35.002  38.719  1.00  0.00     0.173 A 
ATOM     75  F   UNL A   1      38.848  32.325  39.810  1.00  0.00    -0.203 F 
ATOM     76  C   UNL A   1      39.643  34.210  40.972  1.00  0.00     0.198 A 
ATOM     77  C   UNL A   1      41.124  35.756  39.888  1.00  0.00     0.198 A 
ATOM     78  F   UNL A   1      41.744  35.418  37.645  1.00  0.00    -0.203 F 
ATOM     79  F   UNL A   1      38.930  33.847  42.048  1.00  0.00    -0.200 F 
ATOM     80  C   UNL A   1      40.411  35.365  41.010  1.00  0.00     0.200 A 
ATOM     81  F   UNL A   1      41.879  36.863  39.926  1.00  0.00    -0.200 F 
ATOM     82  F   UNL A   1      40.459  36.104  42.127  1.00  0.00    -0.200 F 
ENDBRANCH  58  72
BRANCH  59  83
ATOM     83  C   UNL A   1      39.942  28.732  30.084  1.00  0.00     0.064 A 
ATOM     84  C   UNL A   1      39.330  27.474  29.978  1.00  0.00     0.173 A 
ATOM     85  C   UNL A   1      40.582  29.241  28.943  1.00  0.00     0.173 A 
ATOM     86  F   UNL A   1      38.733  26.929  31.048  1.00  0.00    -0.203 F 
ATOM     87  C   UNL A   1      39.381  26.744  28.791  1.00  0.00     0.198 A 
ATOM     88  C   UNL A   1      40.603  28.525  27.749  1.00  0.00     0.198 A 
ATOM     89  F   UNL A   1      41.190  30.435  28.992  1.00  0.00    -0.203 F 
ATOM     90  F   UNL A   1      38.844  25.518  28.739  1.00  0.00    -0.200 F 
ATOM     91  C   UNL A   1      40.013  27.273  27.676  1.00  0.00     0.200 A 
ATOM     92  F   UNL A   1      41.206  29.043  26.670  1.00  0.00    -0.200 F 
ATOM     93  F   UNL A   1      40.065  26.568  26.537  1.00  0.00    -0.200 F 
ENDBRANCH  59  83
BRANCH  71  94
ATOM     94  C   UNL A   1      44.435  28.897  35.414  1.00  0.00     0.064 A 
ATOM     95  C   UNL A   1      44.449  27.644  36.045  1.00  0.00     0.173 A 
ATOM     96  C   UNL A   1      45.666  29.433  35.000  1.00  0.00     0.173 A 
ATOM     97  F   UNL A   1      43.303  27.091  36.472  1.00  0.00    -0.203 F 
ATOM     98  C   UNL A   1      45.646  26.971  36.277  1.00  0.00     0.198 A 
ATOM     99  C   UNL A   1      46.857  28.740  35.201  1.00  0.00     0.198 A 
ATOM    100  F   UNL A   1      45.712  30.623  34.383  1.00  0.00    -0.203 F 
ATOM    101  F   UNL A   1      45.638  25.799  36.930  1.00  0.00    -0.200 F 
ATOM    102  C   UNL A   1      46.847  27.515  35.848  1.00  0.00     0.200 A 
ATOM    103  F   UNL A   1      48.014  29.260  34.767  1.00  0.00    -0.200 F 
ATOM    104  F   UNL A   1      47.996  26.860  36.063  1.00  0.00    -0.200 F 
ENDBRANCH  71  94
ENDBRANCH  45  46
ENDBRANCH  38  40
ENDBRANCH  37  38
ENDBRANCH  36  37
ENDBRANCH  35  36
ENDBRANCH  34  35
ENDBRANCH  33  34
ENDBRANCH  32  33
ENDBRANCH  31  32
ENDBRANCH  30  31
ENDBRANCH   1  30
TORSDOF 25
ENDMDL
MODEL 2
REMARK VINA RESULT:      -9.9      1.669      2.552
REMARK SMILES CCCCCNC(=O)Oc1cccc(-c2ccc([C@@H](C)C(=O)OCCOCCOCCOC(=O)c3ccc(-c4c5nc(c(-c6c(F)c(F)c(F)c(F)c6F)c6ccc([nH]6)c(-c6c(F)c(F)c(F)c(F)c6F)c6nc(c(-c7c(F)c(F)c(F)c(F)c7F)c7ccc4[nH]7)C=C6)C=C5)cc3)cc2F)c1
REMARK SMILES IDX 24 1 23 2 21 3 22 4 19 5 20 6 18 7 15 8 16 9 99 10 17 11
REMARK SMILES IDX 98 12 100 13 14 14 10 15 11 16 101 17 12 18 13 19 9 20 7 21
REMARK SMILES IDX 6 22 8 24 5 25 4 26 3 27 2 28 1 29 25 30 26 31 27 32 28 33
REMARK SMILES IDX 29 34 30 35 31 36 32 37 33 38 34 39 35 40 36 41 97 42 37 43
REMARK SMILES IDX 96 44 38 45 39 46 40 47 90 48 41 49 95 50 89 51 91 52 42 53
REMARK SMILES IDX 94 54 88 55 87 56 43 58 75 59 55 60 74 61 56 62 59 63 73 64
REMARK SMILES IDX 92 65 57 66 58 67 72 69 93 70 60 71 44 72 45 73 53 74 46 75
REMARK SMILES IDX 47 76 51 77 54 78 48 79 49 80 52 81 50 82 76 83 77 84 85 85
REMARK SMILES IDX 78 86 79 87 83 88 86 89 80 90 81 91 84 92 82 93 61 94 62 95
REMARK SMILES IDX 70 96 63 97 64 98 68 99 71 100 65 101 66 102 69 103 67 104
REMARK H PARENT 6 23 91 57 59 68
REMARK Flexibility Score: inf
ROOT
ATOM      1  C   UNL A   1      33.569  26.878  25.873  1.00  0.00     0.261 C 
ENDROOT
BRANCH   1   2
ATOM      2  O   UNL A   1      32.426  26.395  25.128  1.00  0.00    -0.463 OA
BRANCH   2   3
ATOM      3  C   UNL A   1      31.752  25.346  25.666  1.00  0.00     0.313 C 
ATOM      4  O   UNL A   1      30.943  25.464  26.584  1.00  0.00    -0.252 OA
BRANCH   3   5
ATOM      5  C   UNL A   1      32.031  23.968  25.053  1.00  0.00     0.126 C 
ATOM      6  C   UNL A   1      30.894  23.023  25.432  1.00  0.00     0.025 C 
BRANCH   5   7
ATOM      7  C   UNL A   1      33.381  23.275  25.218  1.00  0.00    -0.031 A 
ATOM      8  C   UNL A   1      35.951  21.999  25.398  1.00  0.00     0.018 A 
ATOM      9  C   UNL A   1      35.074  22.059  26.498  1.00  0.00     0.012 A 
ATOM     10  C   UNL A   1      35.505  22.587  24.209  1.00  0.00     0.131 A 
ATOM     11  C   UNL A   1      33.809  22.677  26.411  1.00  0.00     0.005 A 
ATOM     12  C   UNL A   1      34.251  23.200  24.111  1.00  0.00     0.044 A 
ATOM     13  F   UNL A   1      36.275  22.562  23.109  1.00  0.00    -0.206 F 
BRANCH   8  14
ATOM     14  C   UNL A   1      37.253  21.304  25.482  1.00  0.00    -0.012 A 
ATOM     15  C   UNL A   1      39.651  21.276  25.912  1.00  0.00     0.133 A 
ATOM     16  C   UNL A   1      39.737  19.941  25.523  1.00  0.00     0.047 A 
ATOM     17  C   UNL A   1      38.430  21.962  25.890  1.00  0.00     0.056 A 
ATOM     18  C   UNL A   1      38.584  19.274  25.125  1.00  0.00     0.004 A 
ATOM     19  C   UNL A   1      37.358  19.949  25.103  1.00  0.00     0.009 A 
BRANCH  15  20
ATOM     20  O   UNL A   1      40.868  21.934  26.173  1.00  0.00    -0.410 OA
BRANCH  20  21
ATOM     21  C   UNL A   1      41.999  21.172  26.417  1.00  0.00     0.412 C 
ATOM     22  N   UNL A   1      42.611  21.474  27.604  1.00  0.00    -0.321 N 
ATOM     23  H   UNL A   1      43.364  20.898  27.870  1.00  0.00     0.167 HD
ATOM     24  O   UNL A   1      42.465  20.317  25.668  1.00  0.00    -0.224 OA
BRANCH  22  25
ATOM     25  C   UNL A   1      42.269  22.552  28.513  1.00  0.00     0.119 C 
BRANCH  25  26
ATOM     26  C   UNL A   1      43.155  23.785  28.331  1.00  0.00     0.021 C 
BRANCH  26  27
ATOM     27  C   UNL A   1      44.102  24.092  29.498  1.00  0.00     0.002 C 
BRANCH  27  28
ATOM     28  C   UNL A   1      43.778  23.397  30.823  1.00  0.00    -0.003 C 
ATOM     29  C   UNL A   1      44.474  24.019  32.025  1.00  0.00     0.004 C 
ENDBRANCH  27  28
ENDBRANCH  26  27
ENDBRANCH  25  26
ENDBRANCH  22  25
ENDBRANCH  20  21
ENDBRANCH  15  20
ENDBRANCH   8  14
ENDBRANCH   5   7
ENDBRANCH   3   5
ENDBRANCH   2   3
ENDBRANCH   1   2
BRANCH   1  30
ATOM     30  C   UNL A   1      33.338  28.151  26.703  1.00  0.00     0.202 C 
BRANCH  30  31
ATOM     31  O   UNL A   1      33.983  29.350  26.290  1.00  0.00    -0.376 OA
BRANCH  31  32
ATOM     32  C   UNL A   1      34.553  30.209  27.270  1.00  0.00     0.188 C 
BRANCH  32  33
ATOM     33  C   UNL A   1      33.841  31.517  27.644  1.00  0.00     0.188 C 
BRANCH  33  34
ATOM     34  O   UNL A   1      32.511  31.607  27.183  1.00  0.00    -0.376 OA
BRANCH  34  35
ATOM     35  C   UNL A   1      31.912  32.888  27.222  1.00  0.00     0.202 C 
BRANCH  35  36
ATOM     36  C   UNL A   1      32.873  34.034  27.568  1.00  0.00     0.261 C 
BRANCH  36  37
ATOM     37  O   UNL A   1      32.399  34.978  28.549  1.00  0.00    -0.460 OA
BRANCH  37  38
ATOM     38  C   UNL A   1      33.327  35.583  29.321  1.00  0.00     0.338 C 
ATOM     39  O   UNL A   1      33.268  36.705  29.805  1.00  0.00    -0.246 OA
BRANCH  38  40
ATOM     40  C   UNL A   1      34.353  34.585  29.685  1.00  0.00     0.060 A 
ATOM     41  C   UNL A   1      34.077  33.664  30.708  1.00  0.00     0.016 A 
ATOM     42  C   UNL A   1      35.582  34.556  29.025  1.00  0.00     0.016 A 
ATOM     43  C   UNL A   1      35.043  32.730  31.091  1.00  0.00     0.010 A 
ATOM     44  C   UNL A   1      36.555  33.635  29.424  1.00  0.00     0.010 A 
ATOM     45  C   UNL A   1      36.303  32.737  30.477  1.00  0.00    -0.014 A 
BRANCH  45  46
ATOM     46  C   UNL A   1      37.422  31.944  31.048  1.00  0.00     0.031 A 
ATOM     47  C   UNL A   1      37.869  32.247  32.452  1.00  0.00     0.074 A 
ATOM     48  C   UNL A   1      38.040  30.983  30.339  1.00  0.00     0.049 A 
ATOM     49  N   UNL A   1      38.881  31.766  33.129  1.00  0.00    -0.248 NA
ATOM     50  C   UNL A   1      37.065  33.235  33.190  1.00  0.00     0.031 C 
ATOM     51  C   UNL A   1      37.676  30.560  28.988  1.00  0.00     0.029 A 
ATOM     52  N   UNL A   1      39.122  30.199  30.659  1.00  0.00    -0.354 N 
ATOM     53  C   UNL A   1      38.847  32.406  34.361  1.00  0.00     0.074 A 
ATOM     54  C   UNL A   1      37.730  33.325  34.332  1.00  0.00     0.031 C 
ATOM     55  C   UNL A   1      38.532  29.605  28.587  1.00  0.00     0.029 A 
ATOM     56  C   UNL A   1      39.527  29.376  29.635  1.00  0.00     0.049 A 
ATOM     57  H   UNL A   1      39.564  30.223  31.537  1.00  0.00     0.167 HD
ATOM     58  C   UNL A   1      39.671  32.238  35.424  1.00  0.00     0.037 A 
ATOM     59  C   UNL A   1      40.596  28.560  29.546  1.00  0.00     0.037 A 
ATOM     60  C   UNL A   1      40.779  31.319  35.452  1.00  0.00     0.049 A 
ATOM     61  C   UNL A   1      41.545  28.451  30.716  1.00  0.00     0.074 A 
ATOM     62  C   UNL A   1      41.652  31.055  36.493  1.00  0.00     0.029 A 
ATOM     63  N   UNL A   1      41.172  30.523  34.387  1.00  0.00    -0.354 N 
ATOM     64  N   UNL A   1      41.490  29.032  31.890  1.00  0.00    -0.248 NA
ATOM     65  C   UNL A   1      42.710  27.568  30.544  1.00  0.00     0.031 C 
ATOM     66  C   UNL A   1      42.614  30.149  36.036  1.00  0.00     0.029 A 
ATOM     67  C   UNL A   1      42.298  29.793  34.735  1.00  0.00     0.049 A 
ATOM     68  H   UNL A   1      40.720  30.483  33.514  1.00  0.00     0.167 HD
ATOM     69  C   UNL A   1      42.584  28.558  32.607  1.00  0.00     0.074 A 
ATOM     70  C   UNL A   1      43.280  27.631  31.739  1.00  0.00     0.031 C 
ATOM     71  C   UNL A   1      42.974  28.861  33.869  1.00  0.00     0.037 A 
BRANCH  58  72
ATOM     72  C   UNL A   1      39.429  33.094  36.634  1.00  0.00     0.064 A 
ATOM     73  C   UNL A   1      38.582  32.686  37.675  1.00  0.00     0.173 A 
ATOM     74  C   UNL A   1      40.089  34.325  36.769  1.00  0.00     0.173 A 
ATOM     75  F   UNL A   1      37.916  31.524  37.589  1.00  0.00    -0.203 F 
ATOM     76  C   UNL A   1      38.384  33.491  38.794  1.00  0.00     0.198 A 
ATOM     77  C   UNL A   1      39.915  35.111  37.905  1.00  0.00     0.198 A 
ATOM     78  F   UNL A   1      40.913  34.761  35.805  1.00  0.00    -0.203 F 
ATOM     79  F   UNL A   1      37.531  33.105  39.753  1.00  0.00    -0.200 F 
ATOM     80  C   UNL A   1      39.057  34.698  38.911  1.00  0.00     0.200 A 
ATOM     81  F   UNL A   1      40.578  36.270  38.023  1.00  0.00    -0.200 F 
ATOM     82  F   UNL A   1      38.873  35.467  39.995  1.00  0.00    -0.200 F 
ENDBRANCH  58  72
BRANCH  59  83
ATOM     83  C   UNL A   1      40.850  27.787  28.300  1.00  0.00     0.064 A 
ATOM     84  C   UNL A   1      40.240  26.543  28.084  1.00  0.00     0.173 A 
ATOM     85  C   UNL A   1      41.743  28.252  27.322  1.00  0.00     0.173 A 
ATOM     86  F   UNL A   1      39.403  26.040  29.003  1.00  0.00    -0.203 F 
ATOM     87  C   UNL A   1      40.533  25.782  26.952  1.00  0.00     0.198 A 
ATOM     88  C   UNL A   1      42.009  27.506  26.176  1.00  0.00     0.198 A 
ATOM     89  F   UNL A   1      42.361  29.431  27.482  1.00  0.00    -0.203 F 
ATOM     90  F   UNL A   1      39.984  24.570  26.804  1.00  0.00    -0.200 F 
ATOM     91  C   UNL A   1      41.413  26.267  25.997  1.00  0.00     0.200 A 
ATOM     92  F   UNL A   1      42.853  27.982  25.250  1.00  0.00    -0.200 F 
ATOM     93  F   UNL A   1      41.697  25.533  24.912  1.00  0.00    -0.200 F 
ENDBRANCH  59  83
BRANCH  71  94
ATOM     94  C   UNL A   1      44.178  28.146  34.417  1.00  0.00     0.064 A 
ATOM     95  C   UNL A   1      45.461  28.711  34.377  1.00  0.00     0.173 A 
ATOM     96  C   UNL A   1      44.037  26.891  35.033  1.00  0.00     0.173 A 
ATOM     97  F   UNL A   1      45.657  29.902  33.790  1.00  0.00    -0.203 F 
ATOM     98  C   UNL A   1      46.559  28.036  34.905  1.00  0.00     0.198 A 
ATOM     99  C   UNL A   1      45.130  26.237  35.592  1.00  0.00     0.198 A 
ATOM    100  F   UNL A   1      42.831  26.307  35.108  1.00  0.00    -0.203 F 
ATOM    101  F   UNL A   1      47.784  28.574  34.807  1.00  0.00    -0.200 F 
ATOM    102  C   UNL A   1      46.392  26.804  35.519  1.00  0.00     0.200 A 
ATOM    103  F   UNL A   1      44.962  25.054  36.202  1.00  0.00    -0.200 F 
ATOM    104  F   UNL A   1      47.448  26.162  36.036  1.00  0.00    -0.200 F 
ENDBRANCH  71  94
ENDBRANCH  45  46
ENDBRANCH  38  40
ENDBRANCH  37  38
ENDBRANCH  36  37
ENDBRANCH  35  36
ENDBRANCH  34  35
ENDBRANCH  33  34
ENDBRANCH  32  33
ENDBRANCH  31  32
ENDBRANCH  30  31
ENDBRANCH   1  30
TORSDOF 25
ENDMDL
MODEL 3
REMARK VINA RESULT:      -9.8      1.745      7.274
REMARK SMILES CCCCCNC(=O)Oc1cccc(-c2ccc([C@@H](C)C(=O)OCCOCCOCCOC(=O)c3ccc(-c4c5nc(c(-c6c(F)c(F)c(F)c(F)c6F)c6ccc([nH]6)c(-c6c(F)c(F)c(F)c(F)c6F)c6nc(c(-c7c(F)c(F)c(F)c(F)c7F)c7ccc4[nH]7)C=C6)C=C5)cc3)cc2F)c1
REMARK SMILES IDX 24 1 23 2 21 3 22 4 19 5 20 6 18 7 15 8 16 9 99 10 17 11
REMARK SMILES IDX 98 12 100 13 14 14 10 15 11 16 101 17 12 18 13 19 9 20 7 21
REMARK SMILES IDX 6 22 8 24 5 25 4 26 3 27 2 28 1 29 25 30 26 31 27 32 28 33
REMARK SMILES IDX 29 34 30 35 31 36 32 37 33 38 34 39 35 40 36 41 97 42 37 43
REMARK SMILES IDX 96 44 38 45 39 46 40 47 90 48 41 49 95 50 89 51 91 52 42 53
REMARK SMILES IDX 94 54 88 55 87 56 43 58 75 59 55 60 74 61 56 62 59 63 73 64
REMARK SMILES IDX 92 65 57 66 58 67 72 69 93 70 60 71 44 72 45 73 53 74 46 75
REMARK SMILES IDX 47 76 51 77 54 78 48 79 49 80 52 81 50 82 76 83 77 84 85 85
REMARK SMILES IDX 78 86 79 87 83 88 86 89 80 90 81 91 84 92 82 93 61 94 62 95
REMARK SMILES IDX 70 96 63 97 64 98 68 99 71 100 65 101 66 102 69 103 67 104
REMARK H PARENT 6 23 91 57 59 68
REMARK Flexibility Score: inf
ROOT
ATOM      1  C   UNL A   1      33.200  26.375  25.655  1.00  0.00     0.261 C 
ENDROOT
BRANCH   1   2
ATOM      2  O   UNL A   1      32.517  25.738  24.548  1.00  0.00    -0.463 OA
BRANCH   2   3
ATOM      3  C   UNL A   1      32.393  24.387  24.610  1.00  0.00     0.313 C 
ATOM      4  O   UNL A   1      31.592  23.818  25.349  1.00  0.00    -0.252 OA
BRANCH   3   5
ATOM      5  C   UNL A   1      33.300  23.574  23.680  1.00  0.00     0.126 C 
ATOM      6  C   UNL A   1      32.443  22.577  22.905  1.00  0.00     0.025 C 
BRANCH   5   7
ATOM      7  C   UNL A   1      34.574  22.903  24.188  1.00  0.00    -0.031 A 
ATOM      8  C   UNL A   1      37.037  21.761  25.135  1.00  0.00     0.018 A 
ATOM      9  C   UNL A   1      35.870  20.988  24.986  1.00  0.00     0.012 A 
ATOM     10  C   UNL A   1      36.940  23.114  24.792  1.00  0.00     0.131 A 
ATOM     11  C   UNL A   1      34.662  21.543  24.514  1.00  0.00     0.005 A 
ATOM     12  C   UNL A   1      35.747  23.674  24.320  1.00  0.00     0.044 A 
ATOM     13  F   UNL A   1      38.011  23.918  24.892  1.00  0.00    -0.206 F 
BRANCH   8  14
ATOM     14  C   UNL A   1      38.312  21.160  25.580  1.00  0.00    -0.012 A 
ATOM     15  C   UNL A   1      40.546  21.324  26.539  1.00  0.00     0.133 A 
ATOM     16  C   UNL A   1      40.775  19.968  26.316  1.00  0.00     0.047 A 
ATOM     17  C   UNL A   1      39.335  21.925  26.173  1.00  0.00     0.056 A 
ATOM     18  C   UNL A   1      39.773  19.196  25.739  1.00  0.00     0.004 A 
ATOM     19  C   UNL A   1      38.558  19.787  25.373  1.00  0.00     0.009 A 
BRANCH  15  20
ATOM     20  O   UNL A   1      41.642  22.078  26.999  1.00  0.00    -0.410 OA
BRANCH  20  21
ATOM     21  C   UNL A   1      42.690  22.330  26.129  1.00  0.00     0.412 C 
ATOM     22  N   UNL A   1      43.806  22.821  26.754  1.00  0.00    -0.321 N 
ATOM     23  H   UNL A   1      44.611  22.929  26.196  1.00  0.00     0.167 HD
ATOM     24  O   UNL A   1      42.669  22.172  24.912  1.00  0.00    -0.224 OA
BRANCH  22  25
ATOM     25  C   UNL A   1      43.930  23.201  28.148  1.00  0.00     0.119 C 
BRANCH  25  26
ATOM     26  C   UNL A   1      45.240  23.929  28.451  1.00  0.00     0.021 C 
BRANCH  26  27
ATOM     27  C   UNL A   1      45.701  24.926  27.380  1.00  0.00     0.002 C 
BRANCH  27  28
ATOM     28  C   UNL A   1      46.952  24.529  26.591  1.00  0.00    -0.003 C 
ATOM     29  C   UNL A   1      46.777  24.621  25.083  1.00  0.00     0.004 C 
ENDBRANCH  27  28
ENDBRANCH  26  27
ENDBRANCH  25  26
ENDBRANCH  22  25
ENDBRANCH  20  21
ENDBRANCH  15  20
ENDBRANCH   8  14
ENDBRANCH   5   7
ENDBRANCH   3   5
ENDBRANCH   2   3
ENDBRANCH   1   2
BRANCH   1  30
ATOM     30  C   UNL A   1      32.745  27.805  25.988  1.00  0.00     0.202 C 
BRANCH  30  31
ATOM     31  O   UNL A   1      33.719  28.843  25.969  1.00  0.00    -0.376 OA
BRANCH  31  32
ATOM     32  C   UNL A   1      34.024  29.536  27.172  1.00  0.00     0.188 C 
BRANCH  32  33
ATOM     33  C   UNL A   1      33.404  30.915  27.435  1.00  0.00     0.188 C 
BRANCH  33  34
ATOM     34  O   UNL A   1      32.257  31.194  26.664  1.00  0.00    -0.376 OA
BRANCH  34  35
ATOM     35  C   UNL A   1      31.642  32.451  26.872  1.00  0.00     0.202 C 
BRANCH  35  36
ATOM     36  C   UNL A   1      32.611  33.585  27.237  1.00  0.00     0.261 C 
BRANCH  36  37
ATOM     37  O   UNL A   1      32.194  34.445  28.315  1.00  0.00    -0.460 OA
BRANCH  37  38
ATOM     38  C   UNL A   1      33.121  35.279  28.833  1.00  0.00     0.338 C 
ATOM     39  O   UNL A   1      33.009  36.482  29.025  1.00  0.00    -0.246 OA
BRANCH  38  40
ATOM     40  C   UNL A   1      34.242  34.467  29.349  1.00  0.00     0.060 A 
ATOM     41  C   UNL A   1      34.024  33.623  30.449  1.00  0.00     0.016 A 
ATOM     42  C   UNL A   1      35.502  34.536  28.755  1.00  0.00     0.016 A 
ATOM     43  C   UNL A   1      35.075  32.868  30.975  1.00  0.00     0.010 A 
ATOM     44  C   UNL A   1      36.559  33.796  29.295  1.00  0.00     0.010 A 
ATOM     45  C   UNL A   1      36.358  32.981  30.424  1.00  0.00    -0.014 A 
BRANCH  45  46
ATOM     46  C   UNL A   1      37.532  32.403  31.128  1.00  0.00     0.031 A 
ATOM     47  C   UNL A   1      38.255  31.252  30.483  1.00  0.00     0.074 A 
ATOM     48  C   UNL A   1      37.946  32.876  32.316  1.00  0.00     0.049 A 
ATOM     49  N   UNL A   1      39.236  30.517  30.945  1.00  0.00    -0.248 NA
ATOM     50  C   UNL A   1      37.803  30.874  29.135  1.00  0.00     0.031 C 
ATOM     51  C   UNL A   1      37.363  34.012  33.025  1.00  0.00     0.029 A 
ATOM     52  N   UNL A   1      38.951  32.439  33.146  1.00  0.00    -0.354 N 
ATOM     53  C   UNL A   1      39.504  29.582  29.954  1.00  0.00     0.074 A 
ATOM     54  C   UNL A   1      38.569  29.825  28.877  1.00  0.00     0.031 C 
ATOM     55  C   UNL A   1      38.009  34.174  34.193  1.00  0.00     0.029 A 
ATOM     56  C   UNL A   1      39.024  33.128  34.332  1.00  0.00     0.049 A 
ATOM     57  H   UNL A   1      39.561  31.703  32.913  1.00  0.00     0.167 HD
ATOM     58  C   UNL A   1      40.448  28.610  29.942  1.00  0.00     0.037 A 
ATOM     59  C   UNL A   1      39.798  32.917  35.415  1.00  0.00     0.037 A 
ATOM     60  C   UNL A   1      41.380  28.373  31.013  1.00  0.00     0.049 A 
ATOM     61  C   UNL A   1      40.788  31.776  35.408  1.00  0.00     0.074 A 
ATOM     62  C   UNL A   1      42.393  27.433  31.081  1.00  0.00     0.029 A 
ATOM     63  N   UNL A   1      41.405  29.075  32.209  1.00  0.00    -0.354 N 
ATOM     64  N   UNL A   1      41.059  30.916  34.458  1.00  0.00    -0.248 NA
ATOM     65  C   UNL A   1      41.579  31.579  36.632  1.00  0.00     0.031 C 
ATOM     66  C   UNL A   1      42.987  27.522  32.343  1.00  0.00     0.029 A 
ATOM     67  C   UNL A   1      42.394  28.565  33.036  1.00  0.00     0.049 A 
ATOM     68  H   UNL A   1      40.808  29.825  32.437  1.00  0.00     0.167 HD
ATOM     69  C   UNL A   1      42.075  30.104  34.950  1.00  0.00     0.074 A 
ATOM     70  C   UNL A   1      42.380  30.582  36.282  1.00  0.00     0.031 C 
ATOM     71  C   UNL A   1      42.700  29.059  34.354  1.00  0.00     0.037 A 
BRANCH  58  72
ATOM     72  C   UNL A   1      40.496  27.701  28.747  1.00  0.00     0.064 A 
ATOM     73  C   UNL A   1      41.306  27.980  27.636  1.00  0.00     0.173 A 
ATOM     74  C   UNL A   1      39.750  26.513  28.734  1.00  0.00     0.173 A 
ATOM     75  F   UNL A   1      42.029  29.109  27.591  1.00  0.00    -0.203 F 
ATOM     76  C   UNL A   1      41.344  27.115  26.544  1.00  0.00     0.198 A 
ATOM     77  C   UNL A   1      39.818  25.635  27.656  1.00  0.00     0.198 A 
ATOM     78  F   UNL A   1      38.962  26.197  29.773  1.00  0.00    -0.203 F 
ATOM     79  F   UNL A   1      42.086  27.426  25.471  1.00  0.00    -0.200 F 
ATOM     80  C   UNL A   1      40.607  25.940  26.560  1.00  0.00     0.200 A 
ATOM     81  F   UNL A   1      39.116  24.493  27.680  1.00  0.00    -0.200 F 
ATOM     82  F   UNL A   1      40.655  25.104  25.512  1.00  0.00    -0.200 F 
ENDBRANCH  58  72
BRANCH  59  83
ATOM     83  C   UNL A   1      39.666  33.787  36.615  1.00  0.00     0.064 A 
ATOM     84  C   UNL A   1      38.819  33.433  37.676  1.00  0.00     0.173 A 
ATOM     85  C   UNL A   1      40.345  35.013  36.707  1.00  0.00     0.173 A 
ATOM     86  F   UNL A   1      38.124  32.288  37.622  1.00  0.00    -0.203 F 
ATOM     87  C   UNL A   1      38.636  34.281  38.767  1.00  0.00     0.198 A 
ATOM     88  C   UNL A   1      40.186  35.843  37.814  1.00  0.00     0.198 A 
ATOM     89  F   UNL A   1      41.160  35.404  35.717  1.00  0.00    -0.203 F 
ATOM     90  F   UNL A   1      37.772  33.946  39.734  1.00  0.00    -0.200 F 
ATOM     91  C   UNL A   1      39.324  35.482  38.838  1.00  0.00     0.200 A 
ATOM     92  F   UNL A   1      40.861  37.000  37.884  1.00  0.00    -0.200 F 
ATOM     93  F   UNL A   1      39.144  36.299  39.886  1.00  0.00    -0.200 F 
ENDBRANCH  59  83
BRANCH  71  94
ATOM     94  C   UNL A   1      43.816  28.391  35.108  1.00  0.00     0.064 A 
ATOM     95  C   UNL A   1      43.594  27.283  35.939  1.00  0.00     0.173 A 
ATOM     96  C   UNL A   1      45.139  28.842  34.960  1.00  0.00     0.173 A 
ATOM     97  F   UNL A   1      42.350  26.819  36.126  1.00  0.00    -0.203 F 
ATOM     98  C   UNL A   1      44.647  26.671  36.615  1.00  0.00     0.198 A 
ATOM     99  C   UNL A   1      46.193  28.205  35.608  1.00  0.00     0.198 A 
ATOM    100  F   UNL A   1      45.411  29.891  34.169  1.00  0.00    -0.203 F 
ATOM    101  F   UNL A   1      44.403  25.647  37.446  1.00  0.00    -0.200 F 
ATOM    102  C   UNL A   1      45.946  27.127  36.443  1.00  0.00     0.200 A 
ATOM    103  F   UNL A   1      47.449  28.636  35.424  1.00  0.00    -0.200 F 
ATOM    104  F   UNL A   1      46.958  26.530  37.087  1.00  0.00    -0.200 F 
ENDBRANCH  71  94
ENDBRANCH  45  46
ENDBRANCH  38  40
ENDBRANCH  37  38
ENDBRANCH  36  37
ENDBRANCH  35  36
ENDBRANCH  34  35
ENDBRANCH  33  34
ENDBRANCH  32  33
ENDBRANCH  31  32
ENDBRANCH  30  31
ENDBRANCH   1  30
TORSDOF 25
ENDMDL
