MODEL 1
REMARK VINA RESULT:     -11.1      0.000      0.000
REMARK SMILES Cc1cscc1C(=O)Nc1cc(Br)ccc1C(=O)OCCOCCOCCOC(=O)c1ccc(-c2c3nc(c(-c4c(F)c(F)c(F)c(F)c4F)c4ccc([nH]4)c(-c4c(F)c(F)c(F)c(F)c4F)c4nc(c(-c5c(F)c(F)c(F)c(F)c5F)c5ccc2[nH]5)C=C4)C=C3)cc1
REMARK SMILES IDX 23 1 22 2 21 3 20 4 19 5 17 6 18 7 16 8 10 9 11 10 12 11
REMARK SMILES IDX 15 12 13 13 14 14 9 15 7 16 8 17 6 19 1 20 2 21 3 22 4 23
REMARK SMILES IDX 5 24 24 25 25 26 26 27 27 28 28 29 29 30 30 31 31 32 32 33
REMARK SMILES IDX 93 34 33 35 92 36 34 37 35 38 36 39 86 40 37 41 91 42 85 43
REMARK SMILES IDX 87 44 38 45 90 46 84 47 83 48 39 50 71 51 51 52 70 53 52 54
REMARK SMILES IDX 55 55 69 56 88 57 53 58 54 59 68 61 89 62 56 63 40 64 41 65
REMARK SMILES IDX 49 66 42 67 43 68 47 69 50 70 44 71 45 72 48 73 46 74 72 75
REMARK SMILES IDX 73 76 81 77 74 78 75 79 79 80 82 81 76 82 77 83 80 84 78 85
REMARK SMILES IDX 57 86 58 87 66 88 59 89 60 90 64 91 67 92 61 93 62 94 65 95
REMARK SMILES IDX 63 96
REMARK H PARENT 9 18 87 49 55 60
REMARK Flexibility Score: inf
ROOT
ATOM      1  C   UNL A   1      33.331  33.967  28.309  1.00  0.00     0.188 C 
ENDROOT
BRANCH   1   2
ATOM      2  O   UNL A   1      33.457  32.862  27.425  1.00  0.00    -0.376 OA
BRANCH   2   3
ATOM      3  C   UNL A   1      33.490  31.535  27.928  1.00  0.00     0.202 C 
BRANCH   3   4
ATOM      4  C   UNL A   1      32.829  30.439  27.087  1.00  0.00     0.261 C 
BRANCH   4   5
ATOM      5  O   UNL A   1      33.311  29.105  27.343  1.00  0.00    -0.460 OA
BRANCH   5   6
ATOM      6  C   UNL A   1      32.396  28.121  27.163  1.00  0.00     0.340 C 
ATOM      7  O   UNL A   1      31.515  27.824  27.957  1.00  0.00    -0.246 OA
BRANCH   6   8
ATOM      8  C   UNL A   1      32.510  27.432  25.838  1.00  0.00     0.083 A 
ATOM      9  C   UNL A   1      31.852  26.243  25.439  1.00  0.00     0.057 A 
ATOM     10  C   UNL A   1      31.910  25.870  24.089  1.00  0.00     0.042 A 
ATOM     11  C   UNL A   1      32.745  26.547  23.196  1.00  0.00     0.020 A 
ATOM     12  C   UNL A   1      33.372  28.077  24.929  1.00  0.00     0.019 A 
ATOM     13  Br  UNL A   1      32.864  25.970  21.400  1.00  0.00    -0.051 Br
ATOM     14  C   UNL A   1      33.513  27.621  23.622  1.00  0.00     0.017 A 
BRANCH   9  15
ATOM     15  N   UNL A   1      31.163  25.458  26.380  1.00  0.00    -0.321 N 
ATOM     16  C   UNL A   1      31.043  24.107  26.620  1.00  0.00     0.256 C 
ATOM     17  O   UNL A   1      30.141  23.781  27.397  1.00  0.00    -0.269 OA
ATOM     18  H   UNL A   1      30.644  26.001  27.016  1.00  0.00     0.170 HD
BRANCH  16  19
ATOM     19  C   UNL A   1      31.924  23.068  26.053  1.00  0.00     0.053 A 
ATOM     20  C   UNL A   1      33.766  22.542  27.899  1.00  0.00     0.046 C 
ATOM     21  C   UNL A   1      33.097  22.374  26.575  1.00  0.00    -0.028 A 
ATOM     22  C   UNL A   1      33.570  21.434  25.671  1.00  0.00     0.069 A 
ATOM     23  S   UNL A   1      32.609  21.291  24.278  1.00  0.00    -0.151 S 
ATOM     24  C   UNL A   1      31.553  22.499  24.839  1.00  0.00     0.079 A 
ENDBRANCH  16  19
ENDBRANCH   9  15
ENDBRANCH   6   8
ENDBRANCH   5   6
ENDBRANCH   4   5
ENDBRANCH   3   4
ENDBRANCH   2   3
ENDBRANCH   1   2
BRANCH   1  25
ATOM     25  C   UNL A   1      34.179  34.081  29.589  1.00  0.00     0.188 C 
BRANCH  25  26
ATOM     26  O   UNL A   1      33.458  34.424  30.757  1.00  0.00    -0.376 OA
BRANCH  26  27
ATOM     27  C   UNL A   1      34.233  34.619  31.931  1.00  0.00     0.202 C 
BRANCH  27  28
ATOM     28  C   UNL A   1      34.271  33.391  32.848  1.00  0.00     0.261 C 
BRANCH  28  29
ATOM     29  O   UNL A   1      35.211  32.374  32.459  1.00  0.00    -0.460 OA
BRANCH  29  30
ATOM     30  C   UNL A   1      36.311  32.229  33.230  1.00  0.00     0.338 C 
ATOM     31  O   UNL A   1      36.414  32.455  34.420  1.00  0.00    -0.246 OA
BRANCH  30  32
ATOM     32  C   UNL A   1      37.349  31.559  32.418  1.00  0.00     0.060 A 
ATOM     33  C   UNL A   1      38.377  30.867  33.070  1.00  0.00     0.016 A 
ATOM     34  C   UNL A   1      37.306  31.611  31.022  1.00  0.00     0.016 A 
ATOM     35  C   UNL A   1      39.381  30.244  32.324  1.00  0.00     0.010 A 
ATOM     36  C   UNL A   1      38.319  31.000  30.278  1.00  0.00     0.010 A 
ATOM     37  C   UNL A   1      39.374  30.334  30.925  1.00  0.00    -0.014 A 
BRANCH  37  38
ATOM     38  C   UNL A   1      40.546  29.869  30.142  1.00  0.00     0.031 A 
ATOM     39  C   UNL A   1      41.659  30.839  29.859  1.00  0.00     0.074 A 
ATOM     40  C   UNL A   1      40.620  28.609  29.677  1.00  0.00     0.049 A 
ATOM     41  N   UNL A   1      42.758  30.667  29.171  1.00  0.00    -0.248 NA
ATOM     42  C   UNL A   1      41.507  32.187  30.429  1.00  0.00     0.031 C 
ATOM     43  C   UNL A   1      39.617  27.569  29.890  1.00  0.00     0.029 A 
ATOM     44  N   UNL A   1      41.584  27.999  28.912  1.00  0.00    -0.354 N 
ATOM     45  C   UNL A   1      43.428  31.882  29.223  1.00  0.00     0.074 A 
ATOM     46  C   UNL A   1      42.599  32.791  29.986  1.00  0.00     0.031 C 
ATOM     47  C   UNL A   1      40.010  26.451  29.255  1.00  0.00     0.029 A 
ATOM     48  C   UNL A   1      41.279  26.704  28.573  1.00  0.00     0.049 A 
ATOM     49  H   UNL A   1      42.416  28.447  28.635  1.00  0.00     0.167 HD
ATOM     50  C   UNL A   1      44.628  32.211  28.690  1.00  0.00     0.037 A 
ATOM     51  C   UNL A   1      41.938  25.833  27.784  1.00  0.00     0.037 A 
ATOM     52  C   UNL A   1      45.451  31.314  27.922  1.00  0.00     0.049 A 
ATOM     53  C   UNL A   1      43.245  26.240  27.151  1.00  0.00     0.074 A 
ATOM     54  C   UNL A   1      46.701  31.546  27.374  1.00  0.00     0.029 A 
ATOM     55  N   UNL A   1      45.100  30.016  27.584  1.00  0.00    -0.354 N 
ATOM     56  N   UNL A   1      43.897  27.373  27.250  1.00  0.00    -0.248 NA
ATOM     57  C   UNL A   1      43.909  25.242  26.299  1.00  0.00     0.031 C 
ATOM     58  C   UNL A   1      47.083  30.405  26.660  1.00  0.00     0.029 A 
ATOM     59  C   UNL A   1      46.095  29.445  26.807  1.00  0.00     0.049 A 
ATOM     60  H   UNL A   1      44.267  29.568  27.856  1.00  0.00     0.167 HD
ATOM     61  C   UNL A   1      45.054  27.217  26.496  1.00  0.00     0.074 A 
ATOM     62  C   UNL A   1      45.022  25.875  25.954  1.00  0.00     0.031 C 
ATOM     63  C   UNL A   1      46.054  28.106  26.275  1.00  0.00     0.037 A 
BRANCH  50  64
ATOM     64  C   UNL A   1      45.111  33.616  28.897  1.00  0.00     0.064 A 
ATOM     65  C   UNL A   1      44.781  34.646  28.004  1.00  0.00     0.173 A 
ATOM     66  C   UNL A   1      45.893  33.939  30.015  1.00  0.00     0.173 A 
ATOM     67  F   UNL A   1      44.048  34.383  26.912  1.00  0.00    -0.203 F 
ATOM     68  C   UNL A   1      45.242  35.944  28.208  1.00  0.00     0.198 A 
ATOM     69  C   UNL A   1      46.330  35.243  30.230  1.00  0.00     0.198 A 
ATOM     70  F   UNL A   1      46.233  32.990  30.900  1.00  0.00    -0.203 F 
ATOM     71  F   UNL A   1      44.955  36.902  27.316  1.00  0.00    -0.200 F 
ATOM     72  C   UNL A   1      46.011  36.243  29.323  1.00  0.00     0.200 A 
ATOM     73  F   UNL A   1      47.066  35.532  31.312  1.00  0.00    -0.200 F 
ATOM     74  F   UNL A   1      46.451  37.493  29.519  1.00  0.00    -0.200 F 
ENDBRANCH  50  64
BRANCH  51  75
ATOM     75  C   UNL A   1      41.369  24.484  27.535  1.00  0.00     0.064 A 
ATOM     76  C   UNL A   1      40.243  24.312  26.718  1.00  0.00     0.173 A 
ATOM     77  C   UNL A   1      41.932  23.341  28.120  1.00  0.00     0.173 A 
ATOM     78  F   UNL A   1      39.652  25.379  26.160  1.00  0.00    -0.203 F 
ATOM     79  C   UNL A   1      39.695  23.049  26.506  1.00  0.00     0.198 A 
ATOM     80  C   UNL A   1      41.399  22.075  27.887  1.00  0.00     0.198 A 
ATOM     81  F   UNL A   1      43.007  23.454  28.915  1.00  0.00    -0.203 F 
ATOM     82  F   UNL A   1      38.593  22.917  25.755  1.00  0.00    -0.200 F 
ATOM     83  C   UNL A   1      40.276  21.931  27.086  1.00  0.00     0.200 A 
ATOM     84  F   UNL A   1      41.967  20.998  28.444  1.00  0.00    -0.200 F 
ATOM     85  F   UNL A   1      39.750  20.716  26.879  1.00  0.00    -0.200 F 
ENDBRANCH  51  75
BRANCH  63  86
ATOM     86  C   UNL A   1      47.212  27.654  25.434  1.00  0.00     0.064 A 
ATOM     87  C   UNL A   1      48.289  26.944  25.985  1.00  0.00     0.173 A 
ATOM     88  C   UNL A   1      47.220  27.889  24.050  1.00  0.00     0.173 A 
ATOM     89  F   UNL A   1      48.335  26.705  27.304  1.00  0.00    -0.203 F 
ATOM     90  C   UNL A   1      49.341  26.506  25.185  1.00  0.00     0.198 A 
ATOM     91  C   UNL A   1      48.260  27.426  23.249  1.00  0.00     0.198 A 
ATOM     92  F   UNL A   1      46.209  28.557  23.472  1.00  0.00    -0.203 F 
ATOM     93  F   UNL A   1      50.380  25.866  25.739  1.00  0.00    -0.200 F 
ATOM     94  C   UNL A   1      49.323  26.740  23.817  1.00  0.00     0.200 A 
ATOM     95  F   UNL A   1      48.233  27.642  21.927  1.00  0.00    -0.200 F 
ATOM     96  F   UNL A   1      50.332  26.310  23.048  1.00  0.00    -0.200 F 
ENDBRANCH  63  86
ENDBRANCH  37  38
ENDBRANCH  30  32
ENDBRANCH  29  30
ENDBRANCH  28  29
ENDBRANCH  27  28
ENDBRANCH  26  27
ENDBRANCH  25  26
ENDBRANCH   1  25
TORSDOF 19
ENDMDL
MODEL 2
REMARK VINA RESULT:     -11.0      1.698      2.571
REMARK SMILES Cc1cscc1C(=O)Nc1cc(Br)ccc1C(=O)OCCOCCOCCOC(=O)c1ccc(-c2c3nc(c(-c4c(F)c(F)c(F)c(F)c4F)c4ccc([nH]4)c(-c4c(F)c(F)c(F)c(F)c4F)c4nc(c(-c5c(F)c(F)c(F)c(F)c5F)c5ccc2[nH]5)C=C4)C=C3)cc1
REMARK SMILES IDX 23 1 22 2 21 3 20 4 19 5 17 6 18 7 16 8 10 9 11 10 12 11
REMARK SMILES IDX 15 12 13 13 14 14 9 15 7 16 8 17 6 19 1 20 2 21 3 22 4 23
REMARK SMILES IDX 5 24 24 25 25 26 26 27 27 28 28 29 29 30 30 31 31 32 32 33
REMARK SMILES IDX 93 34 33 35 92 36 34 37 35 38 36 39 86 40 37 41 91 42 85 43
REMARK SMILES IDX 87 44 38 45 90 46 84 47 83 48 39 50 71 51 51 52 70 53 52 54
REMARK SMILES IDX 55 55 69 56 88 57 53 58 54 59 68 61 89 62 56 63 40 64 41 65
REMARK SMILES IDX 49 66 42 67 43 68 47 69 50 70 44 71 45 72 48 73 46 74 72 75
REMARK SMILES IDX 73 76 81 77 74 78 75 79 79 80 82 81 76 82 77 83 80 84 78 85
REMARK SMILES IDX 57 86 58 87 66 88 59 89 60 90 64 91 67 92 61 93 62 94 65 95
REMARK SMILES IDX 63 96
REMARK H PARENT 9 18 87 49 55 60
REMARK Flexibility Score: inf
ROOT
ATOM      1  C   UNL A   1      34.699  32.952  27.996  1.00  0.00     0.188 C 
ENDROOT
BRANCH   1   2
ATOM      2  O   UNL A   1      34.391  31.603  28.321  1.00  0.00    -0.376 OA
BRANCH   2   3
ATOM      3  C   UNL A   1      33.506  30.849  27.507  1.00  0.00     0.202 C 
BRANCH   3   4
ATOM      4  C   UNL A   1      34.111  29.748  26.632  1.00  0.00     0.261 C 
BRANCH   4   5
ATOM      5  O   UNL A   1      33.151  28.860  26.025  1.00  0.00    -0.460 OA
BRANCH   5   6
ATOM      6  C   UNL A   1      33.268  28.721  24.681  1.00  0.00     0.340 C 
ATOM      7  O   UNL A   1      34.292  28.407  24.091  1.00  0.00    -0.246 OA
BRANCH   6   8
ATOM      8  C   UNL A   1      31.982  28.933  23.943  1.00  0.00     0.083 A 
ATOM      9  C   UNL A   1      31.528  28.223  22.805  1.00  0.00     0.057 A 
ATOM     10  C   UNL A   1      30.204  28.410  22.386  1.00  0.00     0.042 A 
ATOM     11  C   UNL A   1      29.409  29.406  22.959  1.00  0.00     0.020 A 
ATOM     12  C   UNL A   1      31.174  29.955  24.481  1.00  0.00     0.019 A 
ATOM     13  Br  UNL A   1      27.653  29.690  22.317  1.00  0.00    -0.051 Br
ATOM     14  C   UNL A   1      29.905  30.211  23.973  1.00  0.00     0.017 A 
BRANCH   9  15
ATOM     15  N   UNL A   1      32.392  27.355  22.115  1.00  0.00    -0.321 N 
ATOM     16  C   UNL A   1      32.969  26.134  22.389  1.00  0.00     0.256 C 
ATOM     17  O   UNL A   1      33.879  25.790  21.628  1.00  0.00    -0.269 OA
ATOM     18  H   UNL A   1      32.645  27.699  21.229  1.00  0.00     0.170 HD
BRANCH  16  19
ATOM     19  C   UNL A   1      32.551  25.228  23.476  1.00  0.00     0.053 A 
ATOM     20  C   UNL A   1      34.615  25.041  25.146  1.00  0.00     0.046 C 
ATOM     21  C   UNL A   1      33.230  24.741  24.673  1.00  0.00    -0.028 A 
ATOM     22  C   UNL A   1      32.400  23.924  25.426  1.00  0.00     0.069 A 
ATOM     23  S   UNL A   1      30.824  23.802  24.803  1.00  0.00    -0.151 S 
ATOM     24  C   UNL A   1      31.222  24.818  23.500  1.00  0.00     0.079 A 
ENDBRANCH  16  19
ENDBRANCH   9  15
ENDBRANCH   6   8
ENDBRANCH   5   6
ENDBRANCH   4   5
ENDBRANCH   3   4
ENDBRANCH   2   3
ENDBRANCH   1   2
BRANCH   1  25
ATOM     25  C   UNL A   1      33.782  34.116  28.414  1.00  0.00     0.188 C 
BRANCH  25  26
ATOM     26  O   UNL A   1      33.327  34.070  29.752  1.00  0.00    -0.376 OA
BRANCH  26  27
ATOM     27  C   UNL A   1      33.960  34.965  30.656  1.00  0.00     0.202 C 
BRANCH  27  28
ATOM     28  C   UNL A   1      34.610  34.262  31.854  1.00  0.00     0.261 C 
BRANCH  28  29
ATOM     29  O   UNL A   1      35.223  32.996  31.553  1.00  0.00    -0.460 OA
BRANCH  29  30
ATOM     30  C   UNL A   1      36.037  32.471  32.496  1.00  0.00     0.338 C 
ATOM     31  O   UNL A   1      35.754  32.197  33.646  1.00  0.00    -0.246 OA
BRANCH  30  32
ATOM     32  C   UNL A   1      37.309  32.099  31.840  1.00  0.00     0.060 A 
ATOM     33  C   UNL A   1      37.428  32.264  30.454  1.00  0.00     0.016 A 
ATOM     34  C   UNL A   1      38.377  31.595  32.587  1.00  0.00     0.016 A 
ATOM     35  C   UNL A   1      38.614  31.900  29.809  1.00  0.00     0.010 A 
ATOM     36  C   UNL A   1      39.555  31.219  31.938  1.00  0.00     0.010 A 
ATOM     37  C   UNL A   1      39.671  31.346  30.543  1.00  0.00    -0.014 A 
BRANCH  37  38
ATOM     38  C   UNL A   1      40.839  30.757  29.841  1.00  0.00     0.031 A 
ATOM     39  C   UNL A   1      42.022  31.635  29.544  1.00  0.00     0.074 A 
ATOM     40  C   UNL A   1      40.849  29.467  29.462  1.00  0.00     0.049 A 
ATOM     41  N   UNL A   1      43.134  31.350  28.916  1.00  0.00    -0.248 NA
ATOM     42  C   UNL A   1      41.937  33.025  30.019  1.00  0.00     0.031 C 
ATOM     43  C   UNL A   1      39.773  28.508  29.699  1.00  0.00     0.029 A 
ATOM     44  N   UNL A   1      41.800  28.748  28.780  1.00  0.00    -0.354 N 
ATOM     45  C   UNL A   1      43.878  32.522  28.917  1.00  0.00     0.074 A 
ATOM     46  C   UNL A   1      43.082  33.529  29.585  1.00  0.00     0.031 C 
ATOM     47  C   UNL A   1      40.117  27.327  29.155  1.00  0.00     0.029 A 
ATOM     48  C   UNL A   1      41.425  27.455  28.512  1.00  0.00     0.049 A 
ATOM     49  H   UNL A   1      42.669  29.124  28.510  1.00  0.00     0.167 HD
ATOM     50  C   UNL A   1      45.117  32.738  28.416  1.00  0.00     0.037 A 
ATOM     51  C   UNL A   1      42.056  26.494  27.809  1.00  0.00     0.037 A 
ATOM     52  C   UNL A   1      45.909  31.743  27.743  1.00  0.00     0.049 A 
ATOM     53  C   UNL A   1      43.410  26.776  27.208  1.00  0.00     0.074 A 
ATOM     54  C   UNL A   1      47.191  31.860  27.234  1.00  0.00     0.029 A 
ATOM     55  N   UNL A   1      45.487  30.450  27.474  1.00  0.00    -0.354 N 
ATOM     56  N   UNL A   1      44.129  27.870  27.261  1.00  0.00    -0.248 NA
ATOM     57  C   UNL A   1      44.040  25.683  26.450  1.00  0.00     0.031 C 
ATOM     58  C   UNL A   1      47.525  30.652  26.612  1.00  0.00     0.029 A 
ATOM     59  C   UNL A   1      46.472  29.767  26.779  1.00  0.00     0.049 A 
ATOM     60  H   UNL A   1      44.617  30.073  27.739  1.00  0.00     0.167 HD
ATOM     61  C   UNL A   1      45.301  27.592  26.568  1.00  0.00     0.074 A 
ATOM     62  C   UNL A   1      45.204  26.222  26.112  1.00  0.00     0.031 C 
ATOM     63  C   UNL A   1      46.365  28.401  26.333  1.00  0.00     0.037 A 
BRANCH  50  64
ATOM     64  C   UNL A   1      45.681  34.122  28.552  1.00  0.00     0.064 A 
ATOM     65  C   UNL A   1      45.500  35.091  27.555  1.00  0.00     0.173 A 
ATOM     66  C   UNL A   1      46.392  34.487  29.705  1.00  0.00     0.173 A 
ATOM     67  F   UNL A   1      44.841  34.785  26.428  1.00  0.00    -0.203 F 
ATOM     68  C   UNL A   1      46.036  36.369  27.695  1.00  0.00     0.198 A 
ATOM     69  C   UNL A   1      46.903  35.773  29.853  1.00  0.00     0.198 A 
ATOM     70  F   UNL A   1      46.590  33.596  30.688  1.00  0.00    -0.203 F 
ATOM     71  F   UNL A   1      45.892  37.265  26.709  1.00  0.00    -0.200 F 
ATOM     72  C   UNL A   1      46.731  36.711  28.845  1.00  0.00     0.200 A 
ATOM     73  F   UNL A   1      47.567  36.104  30.969  1.00  0.00    -0.200 F 
ATOM     74  F   UNL A   1      47.243  37.942  28.979  1.00  0.00    -0.200 F 
ENDBRANCH  50  64
BRANCH  51  75
ATOM     75  C   UNL A   1      41.410  25.169  27.624  1.00  0.00     0.064 A 
ATOM     76  C   UNL A   1      41.871  24.037  28.310  1.00  0.00     0.173 A 
ATOM     77  C   UNL A   1      40.328  25.007  26.747  1.00  0.00     0.173 A 
ATOM     78  F   UNL A   1      42.922  24.137  29.137  1.00  0.00    -0.203 F 
ATOM     79  C   UNL A   1      41.280  22.790  28.116  1.00  0.00     0.198 A 
ATOM     80  C   UNL A   1      39.722  23.764  26.573  1.00  0.00     0.198 A 
ATOM     81  F   UNL A   1      39.855  26.059  26.063  1.00  0.00    -0.203 F 
ATOM     82  F   UNL A   1      41.766  21.715  28.753  1.00  0.00    -0.200 F 
ATOM     83  C   UNL A   1      40.203  22.655  27.252  1.00  0.00     0.200 A 
ATOM     84  F   UNL A   1      38.678  23.640  25.743  1.00  0.00    -0.200 F 
ATOM     85  F   UNL A   1      39.634  21.456  27.070  1.00  0.00    -0.200 F 
ENDBRANCH  51  75
BRANCH  63  86
ATOM     86  C   UNL A   1      47.522  27.822  25.572  1.00  0.00     0.064 A 
ATOM     87  C   UNL A   1      47.543  27.795  24.170  1.00  0.00     0.173 A 
ATOM     88  C   UNL A   1      48.648  27.334  26.255  1.00  0.00     0.173 A 
ATOM     89  F   UNL A   1      46.486  28.236  23.472  1.00  0.00    -0.203 F 
ATOM     90  C   UNL A   1      48.639  27.281  23.480  1.00  0.00     0.198 A 
ATOM     91  C   UNL A   1      49.752  26.846  25.562  1.00  0.00     0.198 A 
ATOM     92  F   UNL A   1      48.682  27.345  27.597  1.00  0.00    -0.203 F 
ATOM     93  F   UNL A   1      48.619  27.227  22.141  1.00  0.00    -0.200 F 
ATOM     94  C   UNL A   1      49.745  26.815  24.176  1.00  0.00     0.200 A 
ATOM     95  F   UNL A   1      50.825  26.409  26.235  1.00  0.00    -0.200 F 
ATOM     96  F   UNL A   1      50.801  26.329  23.509  1.00  0.00    -0.200 F 
ENDBRANCH  63  86
ENDBRANCH  37  38
ENDBRANCH  30  32
ENDBRANCH  29  30
ENDBRANCH  28  29
ENDBRANCH  27  28
ENDBRANCH  26  27
ENDBRANCH  25  26
ENDBRANCH   1  25
TORSDOF 19
ENDMDL
MODEL 3
REMARK VINA RESULT:     -11.0      5.031      7.642
REMARK SMILES Cc1cscc1C(=O)Nc1cc(Br)ccc1C(=O)OCCOCCOCCOC(=O)c1ccc(-c2c3nc(c(-c4c(F)c(F)c(F)c(F)c4F)c4ccc([nH]4)c(-c4c(F)c(F)c(F)c(F)c4F)c4nc(c(-c5c(F)c(F)c(F)c(F)c5F)c5ccc2[nH]5)C=C4)C=C3)cc1
REMARK SMILES IDX 23 1 22 2 21 3 20 4 19 5 17 6 18 7 16 8 10 9 11 10 12 11
REMARK SMILES IDX 15 12 13 13 14 14 9 15 7 16 8 17 6 19 1 20 2 21 3 22 4 23
REMARK SMILES IDX 5 24 24 25 25 26 26 27 27 28 28 29 29 30 30 31 31 32 32 33
REMARK SMILES IDX 93 34 33 35 92 36 34 37 35 38 36 39 86 40 37 41 91 42 85 43
REMARK SMILES IDX 87 44 38 45 90 46 84 47 83 48 39 50 71 51 51 52 70 53 52 54
REMARK SMILES IDX 55 55 69 56 88 57 53 58 54 59 68 61 89 62 56 63 40 64 41 65
REMARK SMILES IDX 49 66 42 67 43 68 47 69 50 70 44 71 45 72 48 73 46 74 72 75
REMARK SMILES IDX 73 76 81 77 74 78 75 79 79 80 82 81 76 82 77 83 80 84 78 85
REMARK SMILES IDX 57 86 58 87 66 88 59 89 60 90 64 91 67 92 61 93 62 94 65 95
REMARK SMILES IDX 63 96
REMARK H PARENT 9 18 87 49 55 60
REMARK Flexibility Score: inf
ROOT
ATOM      1  C   UNL A   1      33.796  32.729  28.014  1.00  0.00     0.188 C 
ENDROOT
BRANCH   1   2
ATOM      2  O   UNL A   1      34.127  31.349  27.925  1.00  0.00    -0.376 OA
BRANCH   2   3
ATOM      3  C   UNL A   1      33.312  30.459  27.179  1.00  0.00     0.202 C 
BRANCH   3   4
ATOM      4  C   UNL A   1      33.644  28.965  27.248  1.00  0.00     0.261 C 
BRANCH   4   5
ATOM      5  O   UNL A   1      34.308  28.439  26.081  1.00  0.00    -0.460 OA
BRANCH   5   6
ATOM      6  C   UNL A   1      33.806  27.268  25.617  1.00  0.00     0.340 C 
ATOM      7  O   UNL A   1      34.345  26.176  25.729  1.00  0.00    -0.246 OA
BRANCH   6   8
ATOM      8  C   UNL A   1      32.458  27.405  24.979  1.00  0.00     0.083 A 
ATOM      9  C   UNL A   1      31.249  26.804  25.408  1.00  0.00     0.057 A 
ATOM     10  C   UNL A   1      30.050  27.224  24.817  1.00  0.00     0.042 A 
ATOM     11  C   UNL A   1      30.059  28.074  23.708  1.00  0.00     0.020 A 
ATOM     12  C   UNL A   1      32.445  28.232  23.838  1.00  0.00     0.019 A 
ATOM     13  Br  UNL A   1      28.429  28.558  22.882  1.00  0.00    -0.051 Br
ATOM     14  C   UNL A   1      31.256  28.542  23.186  1.00  0.00     0.017 A 
BRANCH   9  15
ATOM     15  N   UNL A   1      31.260  25.809  26.401  1.00  0.00    -0.321 N 
ATOM     16  C   UNL A   1      31.446  24.444  26.409  1.00  0.00     0.256 C 
ATOM     17  O   UNL A   1      31.137  23.869  27.457  1.00  0.00    -0.269 OA
ATOM     18  H   UNL A   1      31.097  26.172  27.300  1.00  0.00     0.170 HD
BRANCH  16  19
ATOM     19  C   UNL A   1      32.008  23.662  25.291  1.00  0.00     0.053 A 
ATOM     20  C   UNL A   1      30.470  24.146  23.174  1.00  0.00     0.046 C 
ATOM     21  C   UNL A   1      31.617  23.514  23.892  1.00  0.00    -0.028 A 
ATOM     22  C   UNL A   1      32.494  22.685  23.209  1.00  0.00     0.069 A 
ATOM     23  S   UNL A   1      33.807  22.164  24.152  1.00  0.00    -0.151 S 
ATOM     24  C   UNL A   1      33.221  23.014  25.502  1.00  0.00     0.079 A 
ENDBRANCH  16  19
ENDBRANCH   9  15
ENDBRANCH   6   8
ENDBRANCH   5   6
ENDBRANCH   4   5
ENDBRANCH   3   4
ENDBRANCH   2   3
ENDBRANCH   1   2
BRANCH   1  25
ATOM     25  C   UNL A   1      34.881  33.819  28.088  1.00  0.00     0.188 C 
BRANCH  25  26
ATOM     26  O   UNL A   1      34.453  35.056  28.624  1.00  0.00    -0.376 OA
BRANCH  26  27
ATOM     27  C   UNL A   1      33.131  35.083  29.145  1.00  0.00     0.202 C 
BRANCH  27  28
ATOM     28  C   UNL A   1      32.773  36.408  29.828  1.00  0.00     0.261 C 
BRANCH  28  29
ATOM     29  O   UNL A   1      33.294  36.563  31.160  1.00  0.00    -0.460 OA
BRANCH  29  30
ATOM     30  C   UNL A   1      32.886  35.667  32.086  1.00  0.00     0.338 C 
ATOM     31  O   UNL A   1      31.742  35.368  32.370  1.00  0.00    -0.246 OA
BRANCH  30  32
ATOM     32  C   UNL A   1      34.081  34.955  32.586  1.00  0.00     0.060 A 
ATOM     33  C   UNL A   1      35.334  35.570  32.466  1.00  0.00     0.016 A 
ATOM     34  C   UNL A   1      33.967  33.691  33.171  1.00  0.00     0.016 A 
ATOM     35  C   UNL A   1      36.481  34.908  32.913  1.00  0.00     0.010 A 
ATOM     36  C   UNL A   1      35.117  33.025  33.603  1.00  0.00     0.010 A 
ATOM     37  C   UNL A   1      36.382  33.619  33.453  1.00  0.00    -0.014 A 
BRANCH  37  38
ATOM     38  C   UNL A   1      37.607  32.826  33.723  1.00  0.00     0.031 A 
ATOM     39  C   UNL A   1      38.381  33.097  34.983  1.00  0.00     0.074 A 
ATOM     40  C   UNL A   1      38.036  31.888  32.861  1.00  0.00     0.049 A 
ATOM     41  N   UNL A   1      39.492  32.555  35.410  1.00  0.00    -0.248 NA
ATOM     42  C   UNL A   1      37.824  34.121  35.881  1.00  0.00     0.031 C 
ATOM     43  C   UNL A   1      37.374  31.520  31.613  1.00  0.00     0.029 A 
ATOM     44  N   UNL A   1      39.148  31.082  32.905  1.00  0.00    -0.354 N 
ATOM     45  C   UNL A   1      39.770  33.173  36.623  1.00  0.00     0.074 A 
ATOM     46  C   UNL A   1      38.725  34.148  36.851  1.00  0.00     0.031 C 
ATOM     47  C   UNL A   1      38.102  30.571  30.998  1.00  0.00     0.029 A 
ATOM     48  C   UNL A   1      39.292  30.283  31.798  1.00  0.00     0.049 A 
ATOM     49  H   UNL A   1      39.781  31.078  33.660  1.00  0.00     0.167 HD
ATOM     50  C   UNL A   1      40.797  32.943  37.474  1.00  0.00     0.037 A 
ATOM     51  C   UNL A   1      40.283  29.434  31.461  1.00  0.00     0.037 A 
ATOM     52  C   UNL A   1      41.843  31.981  37.248  1.00  0.00     0.049 A 
ATOM     53  C   UNL A   1      41.448  29.237  32.397  1.00  0.00     0.074 A 
ATOM     54  C   UNL A   1      42.905  31.651  38.071  1.00  0.00     0.029 A 
ATOM     55  N   UNL A   1      41.965  31.203  36.106  1.00  0.00    -0.354 N 
ATOM     56  N   UNL A   1      41.674  29.785  33.566  1.00  0.00    -0.248 NA
ATOM     57  C   UNL A   1      42.496  28.299  31.965  1.00  0.00     0.031 C 
ATOM     58  C   UNL A   1      43.698  30.710  37.406  1.00  0.00     0.029 A 
ATOM     59  C   UNL A   1      43.102  30.416  36.190  1.00  0.00     0.049 A 
ATOM     60  H   UNL A   1      41.336  31.209  35.349  1.00  0.00     0.167 HD
ATOM     61  C   UNL A   1      42.871  29.242  34.019  1.00  0.00     0.074 A 
ATOM     62  C   UNL A   1      43.320  28.313  33.004  1.00  0.00     0.031 C 
ATOM     63  C   UNL A   1      43.538  29.491  35.174  1.00  0.00     0.037 A 
BRANCH  50  64
ATOM     64  C   UNL A   1      40.853  33.772  38.723  1.00  0.00     0.064 A 
ATOM     65  C   UNL A   1      40.148  33.408  39.879  1.00  0.00     0.173 A 
ATOM     66  C   UNL A   1      41.640  34.932  38.769  1.00  0.00     0.173 A 
ATOM     67  F   UNL A   1      39.369  32.316  39.879  1.00  0.00    -0.203 F 
ATOM     68  C   UNL A   1      40.205  34.192  41.028  1.00  0.00     0.198 A 
ATOM     69  C   UNL A   1      41.717  35.698  39.928  1.00  0.00     0.198 A 
ATOM     70  F   UNL A   1      42.336  35.321  37.690  1.00  0.00    -0.203 F 
ATOM     71  F   UNL A   1      39.485  33.852  42.106  1.00  0.00    -0.200 F 
ATOM     72  C   UNL A   1      40.994  35.333  41.054  1.00  0.00     0.200 A 
ATOM     73  F   UNL A   1      42.486  36.796  39.955  1.00  0.00    -0.200 F 
ATOM     74  F   UNL A   1      41.051  36.084  42.162  1.00  0.00    -0.200 F 
ENDBRANCH  50  64
BRANCH  51  75
ATOM     75  C   UNL A   1      40.224  28.706  30.167  1.00  0.00     0.064 A 
ATOM     76  C   UNL A   1      40.777  29.256  29.002  1.00  0.00     0.173 A 
ATOM     77  C   UNL A   1      39.604  27.453  30.069  1.00  0.00     0.173 A 
ATOM     78  F   UNL A   1      41.354  30.465  29.041  1.00  0.00    -0.203 F 
ATOM     79  C   UNL A   1      40.699  28.583  27.784  1.00  0.00     0.198 A 
ATOM     80  C   UNL A   1      39.549  26.770  28.855  1.00  0.00     0.198 A 
ATOM     81  F   UNL A   1      39.055  26.888  31.154  1.00  0.00    -0.203 F 
ATOM     82  F   UNL A   1      41.198  29.149  26.676  1.00  0.00    -0.200 F 
ATOM     83  C   UNL A   1      40.090  27.339  27.712  1.00  0.00     0.200 A 
ATOM     84  F   UNL A   1      38.966  25.566  28.792  1.00  0.00    -0.200 F 
ATOM     85  F   UNL A   1      40.019  26.692  26.541  1.00  0.00    -0.200 F 
ENDBRANCH  51  75
BRANCH  63  86
ATOM     86  C   UNL A   1      44.808  28.731  35.420  1.00  0.00     0.064 A 
ATOM     87  C   UNL A   1      46.059  29.247  35.051  1.00  0.00     0.173 A 
ATOM     88  C   UNL A   1      44.779  27.493  36.081  1.00  0.00     0.173 A 
ATOM     89  F   UNL A   1      46.140  30.420  34.405  1.00  0.00    -0.203 F 
ATOM     90  C   UNL A   1      47.230  28.542  35.314  1.00  0.00     0.198 A 
ATOM     91  C   UNL A   1      45.953  26.803  36.366  1.00  0.00     0.198 A 
ATOM     92  F   UNL A   1      43.608  26.958  36.462  1.00  0.00    -0.203 F 
ATOM     93  F   UNL A   1      48.411  29.035  34.915  1.00  0.00    -0.200 F 
ATOM     94  C   UNL A   1      47.178  27.324  35.978  1.00  0.00     0.200 A 
ATOM     95  F   UNL A   1      45.901  25.634  37.020  1.00  0.00    -0.200 F 
ATOM     96  F   UNL A   1      48.307  26.652  36.237  1.00  0.00    -0.200 F 
ENDBRANCH  63  86
ENDBRANCH  37  38
ENDBRANCH  30  32
ENDBRANCH  29  30
ENDBRANCH  28  29
ENDBRANCH  27  28
ENDBRANCH  26  27
ENDBRANCH  25  26
ENDBRANCH   1  25
TORSDOF 19
ENDMDL
