MODEL 1
REMARK VINA RESULT:     -12.1      0.000      0.000
REMARK SMILES O=C(CN1C(=O)N[C@@](CCC(=O)OCCOCCOCCOC(=O)c2ccc(-c3c4nc(c(-c5c(F)c(F)c(F)c(F)c5F)c5ccc([nH]5)c(-c5c(F)c(F)c(F)c(F)c5F)c5nc(c(-c6c(F)c(F)c(F)c(F)c6F)c6ccc3[nH]6)C=C5)C=C4)cc2)(c2ccccc2)C1=O)Nc1cccc(F)c1
REMARK SMILES IDX 16 1 15 2 14 3 13 4 11 5 12 6 10 7 9 8 8 9 4 10 5 11 94 12
REMARK SMILES IDX 6 13 7 14 95 15 3 17 2 18 1 19 96 20 97 22 98 23 103 24
REMARK SMILES IDX 99 25 101 26 100 27 102 28 88 29 89 30 93 31 90 32 92 33
REMARK SMILES IDX 91 34 17 35 18 36 19 37 20 38 21 39 22 40 23 41 24 42 25 43
REMARK SMILES IDX 26 44 87 45 27 46 86 47 28 48 29 49 30 50 80 51 31 52 85 53
REMARK SMILES IDX 79 54 81 55 32 56 84 57 78 58 77 59 33 61 65 62 45 63 64 64
REMARK SMILES IDX 46 65 49 66 63 67 82 68 47 69 48 70 62 72 83 73 50 74 34 75
REMARK SMILES IDX 35 76 43 77 36 78 37 79 41 80 44 81 38 82 39 83 42 84 40 85
REMARK SMILES IDX 66 86 67 87 75 88 68 89 69 90 73 91 76 92 70 93 71 94 74 95
REMARK SMILES IDX 72 96 51 97 52 98 60 99 53 100 54 101 58 102 61 103 55 104
REMARK SMILES IDX 56 105 59 106 57 107
REMARK H PARENT 7 16 96 21 81 60 49 71
REMARK Flexibility Score: inf
ROOT
ATOM      1  O   UNL A   1      31.410  27.667  26.048  1.00  0.00    -0.376 OA
ENDROOT
BRANCH   1   2
ATOM      2  C   UNL A   1      31.096  26.437  25.406  1.00  0.00     0.202 C 
BRANCH   2   3
ATOM      3  C   UNL A   1      32.290  25.510  25.101  1.00  0.00     0.261 C 
BRANCH   3   4
ATOM      4  O   UNL A   1      32.542  24.502  26.107  1.00  0.00    -0.463 OA
BRANCH   4   5
ATOM      5  C   UNL A   1      31.509  23.699  26.457  1.00  0.00     0.305 C 
ATOM      6  O   UNL A   1      30.940  23.733  27.542  1.00  0.00    -0.252 OA
BRANCH   5   7
ATOM      7  C   UNL A   1      31.149  22.688  25.382  1.00  0.00     0.126 C 
BRANCH   7   8
ATOM      8  C   UNL A   1      31.776  21.286  25.421  1.00  0.00     0.055 C 
BRANCH   8   9
ATOM      9  C   UNL A   1      33.119  21.035  24.669  1.00  0.00     0.147 C 
ATOM     10  N   UNL A   1      35.186  22.197  24.885  1.00  0.00    -0.252 N 
ATOM     11  C   UNL A   1      34.602  22.600  23.724  1.00  0.00     0.325 C 
ATOM     12  C   UNL A   1      34.266  21.501  25.615  1.00  0.00     0.261 C 
ATOM     13  O   UNL A   1      35.045  23.373  22.894  1.00  0.00    -0.248 OA
ATOM     14  N   UNL A   1      33.361  22.006  23.623  1.00  0.00    -0.319 N 
ATOM     15  O   UNL A   1      34.361  21.246  26.811  1.00  0.00    -0.271 OA
ATOM     16  H   UNL A   1      32.711  22.219  22.915  1.00  0.00     0.166 HD
BRANCH  10  17
ATOM     17  C   UNL A   1      36.458  22.700  25.372  1.00  0.00     0.230 C 
BRANCH  17  18
ATOM     18  C   UNL A   1      37.618  21.690  25.319  1.00  0.00     0.244 C 
ATOM     19  O   UNL A   1      37.632  20.777  24.497  1.00  0.00    -0.273 OA
ATOM     20  N   UNL A   1      38.626  21.967  26.226  1.00  0.00    -0.324 N 
ATOM     21  H   UNL A   1      38.398  22.603  26.942  1.00  0.00     0.170 HD
BRANCH  20  22
ATOM     22  C   UNL A   1      39.936  21.455  26.252  1.00  0.00     0.044 A 
ATOM     23  C   UNL A   1      40.986  22.386  26.254  1.00  0.00     0.026 A 
ATOM     24  C   UNL A   1      40.233  20.094  26.217  1.00  0.00     0.065 A 
ATOM     25  C   UNL A   1      42.318  21.963  26.236  1.00  0.00     0.005 A 
ATOM     26  C   UNL A   1      41.565  19.683  26.182  1.00  0.00     0.125 A 
ATOM     27  C   UNL A   1      42.609  20.603  26.195  1.00  0.00     0.039 A 
ATOM     28  F   UNL A   1      41.849  18.376  26.116  1.00  0.00    -0.207 F 
ENDBRANCH  20  22
ENDBRANCH  17  18
ENDBRANCH  10  17
BRANCH   9  29
ATOM     29  C   UNL A   1      33.468  19.624  24.182  1.00  0.00    -0.013 A 
ATOM     30  C   UNL A   1      32.648  18.951  23.285  1.00  0.00     0.007 A 
ATOM     31  C   UNL A   1      34.555  18.883  24.693  1.00  0.00     0.007 A 
ATOM     32  C   UNL A   1      32.917  17.649  22.852  1.00  0.00     0.000 A 
ATOM     33  C   UNL A   1      34.812  17.566  24.286  1.00  0.00     0.000 A 
ATOM     34  C   UNL A   1      34.000  16.952  23.349  1.00  0.00     0.000 A 
ENDBRANCH   9  29
ENDBRANCH   8   9
ENDBRANCH   7   8
ENDBRANCH   5   7
ENDBRANCH   4   5
ENDBRANCH   3   4
ENDBRANCH   2   3
ENDBRANCH   1   2
BRANCH   1  35
ATOM     35  C   UNL A   1      32.099  28.630  25.263  1.00  0.00     0.188 C 
BRANCH  35  36
ATOM     36  C   UNL A   1      31.478  30.028  25.269  1.00  0.00     0.188 C 
BRANCH  36  37
ATOM     37  O   UNL A   1      31.864  30.851  26.369  1.00  0.00    -0.376 OA
BRANCH  37  38
ATOM     38  C   UNL A   1      31.163  32.090  26.501  1.00  0.00     0.202 C 
BRANCH  38  39
ATOM     39  C   UNL A   1      31.979  33.350  26.833  1.00  0.00     0.261 C 
BRANCH  39  40
ATOM     40  O   UNL A   1      32.994  33.102  27.805  1.00  0.00    -0.460 OA
BRANCH  40  41
ATOM     41  C   UNL A   1      33.369  34.190  28.524  1.00  0.00     0.338 C 
ATOM     42  O   UNL A   1      32.767  35.246  28.640  1.00  0.00    -0.246 OA
BRANCH  41  43
ATOM     43  C   UNL A   1      34.534  33.806  29.354  1.00  0.00     0.060 A 
ATOM     44  C   UNL A   1      35.806  34.234  28.939  1.00  0.00     0.016 A 
ATOM     45  C   UNL A   1      34.371  33.174  30.593  1.00  0.00     0.016 A 
ATOM     46  C   UNL A   1      36.921  33.992  29.739  1.00  0.00     0.010 A 
ATOM     47  C   UNL A   1      35.486  32.921  31.387  1.00  0.00     0.010 A 
ATOM     48  C   UNL A   1      36.767  33.286  30.939  1.00  0.00    -0.014 A 
BRANCH  48  49
ATOM     49  C   UNL A   1      37.945  32.653  31.570  1.00  0.00     0.031 A 
ATOM     50  C   UNL A   1      38.603  31.539  30.802  1.00  0.00     0.074 A 
ATOM     51  C   UNL A   1      38.401  33.029  32.777  1.00  0.00     0.049 A 
ATOM     52  N   UNL A   1      39.573  30.740  31.158  1.00  0.00    -0.248 NA
ATOM     53  C   UNL A   1      38.081  31.283  29.447  1.00  0.00     0.031 C 
ATOM     54  C   UNL A   1      37.861  34.116  33.591  1.00  0.00     0.029 A 
ATOM     55  N   UNL A   1      39.422  32.513  33.535  1.00  0.00    -0.354 N 
ATOM     56  C   UNL A   1      39.756  29.878  30.084  1.00  0.00     0.074 A 
ATOM     57  C   UNL A   1      38.789  30.232  29.071  1.00  0.00     0.031 C 
ATOM     58  C   UNL A   1      38.544  34.170  34.750  1.00  0.00     0.029 A 
ATOM     59  C   UNL A   1      39.540  33.100  34.771  1.00  0.00     0.049 A 
ATOM     60  H   UNL A   1      40.012  31.789  33.223  1.00  0.00     0.167 HD
ATOM     61  C   UNL A   1      40.657  28.880  29.955  1.00  0.00     0.037 A 
ATOM     62  C   UNL A   1      40.344  32.777  35.804  1.00  0.00     0.037 A 
ATOM     63  C   UNL A   1      41.627  28.548  30.960  1.00  0.00     0.049 A 
ATOM     64  C   UNL A   1      41.306  31.622  35.649  1.00  0.00     0.074 A 
ATOM     65  C   UNL A   1      42.619  27.586  30.913  1.00  0.00     0.029 A 
ATOM     66  N   UNL A   1      41.718  29.164  32.199  1.00  0.00    -0.354 N 
ATOM     67  N   UNL A   1      41.513  30.843  34.613  1.00  0.00    -0.248 NA
ATOM     68  C   UNL A   1      42.151  31.301  36.808  1.00  0.00     0.031 C 
ATOM     69  C   UNL A   1      43.268  27.574  32.150  1.00  0.00     0.029 A 
ATOM     70  C   UNL A   1      42.729  28.579  32.939  1.00  0.00     0.049 A 
ATOM     71  H   UNL A   1      41.148  29.907  32.504  1.00  0.00     0.167 HD
ATOM     72  C   UNL A   1      42.533  29.974  34.981  1.00  0.00     0.074 A 
ATOM     73  C   UNL A   1      42.915  30.329  36.331  1.00  0.00     0.031 C 
ATOM     74  C   UNL A   1      43.106  28.970  34.271  1.00  0.00     0.037 A 
BRANCH  61  75
ATOM     75  C   UNL A   1      40.621  28.054  28.705  1.00  0.00     0.064 A 
ATOM     76  C   UNL A   1      41.350  28.406  27.561  1.00  0.00     0.173 A 
ATOM     77  C   UNL A   1      39.894  26.854  28.680  1.00  0.00     0.173 A 
ATOM     78  F   UNL A   1      42.041  29.555  27.526  1.00  0.00    -0.203 F 
ATOM     79  C   UNL A   1      41.349  27.588  26.434  1.00  0.00     0.198 A 
ATOM     80  C   UNL A   1      39.920  26.024  27.564  1.00  0.00     0.198 A 
ATOM     81  F   UNL A   1      39.173  26.477  29.747  1.00  0.00    -0.203 F 
ATOM     82  F   UNL A   1      42.027  27.958  25.339  1.00  0.00    -0.200 F 
ATOM     83  C   UNL A   1      40.646  26.392  26.442  1.00  0.00     0.200 A 
ATOM     84  F   UNL A   1      39.248  24.865  27.578  1.00  0.00    -0.200 F 
ATOM     85  F   UNL A   1      40.665  25.594  25.365  1.00  0.00    -0.200 F 
ENDBRANCH  61  75
BRANCH  62  86
ATOM     86  C   UNL A   1      40.267  33.523  37.092  1.00  0.00     0.064 A 
ATOM     87  C   UNL A   1      39.320  33.187  38.071  1.00  0.00     0.173 A 
ATOM     88  C   UNL A   1      41.085  34.636  37.337  1.00  0.00     0.173 A 
ATOM     89  F   UNL A   1      38.494  32.149  37.874  1.00  0.00    -0.203 F 
ATOM     90  C   UNL A   1      39.165  33.960  39.221  1.00  0.00     0.198 A 
ATOM     91  C   UNL A   1      40.954  35.386  38.506  1.00  0.00     0.198 A 
ATOM     92  F   UNL A   1      42.004  35.009  36.435  1.00  0.00    -0.203 F 
ATOM     93  F   UNL A   1      38.197  33.661  40.099  1.00  0.00    -0.200 F 
ATOM     94  C   UNL A   1      39.983  35.057  39.439  1.00  0.00     0.200 A 
ATOM     95  F   UNL A   1      41.754  36.440  38.716  1.00  0.00    -0.200 F 
ATOM     96  F   UNL A   1      39.824  35.807  40.538  1.00  0.00    -0.200 F 
ENDBRANCH  62  86
BRANCH  74  97
ATOM     97  C   UNL A   1      44.245  28.228  34.910  1.00  0.00     0.064 A 
ATOM     98  C   UNL A   1      45.542  28.758  34.958  1.00  0.00     0.173 A 
ATOM     99  C   UNL A   1      44.017  26.989  35.532  1.00  0.00     0.173 A 
ATOM    100  F   UNL A   1      45.813  29.934  34.371  1.00  0.00    -0.203 F 
ATOM    101  C   UNL A   1      46.576  28.061  35.577  1.00  0.00     0.198 A 
ATOM    102  C   UNL A   1      45.044  26.314  36.183  1.00  0.00     0.198 A 
ATOM    103  F   UNL A   1      42.791  26.444  35.527  1.00  0.00    -0.203 F 
ATOM    104  F   UNL A   1      47.819  28.561  35.564  1.00  0.00    -0.200 F 
ATOM    105  C   UNL A   1      46.325  26.845  36.197  1.00  0.00     0.200 A 
ATOM    106  F   UNL A   1      44.794  25.151  36.800  1.00  0.00    -0.200 F 
ATOM    107  F   UNL A   1      47.319  26.182  36.802  1.00  0.00    -0.200 F 
ENDBRANCH  74  97
ENDBRANCH  48  49
ENDBRANCH  41  43
ENDBRANCH  40  41
ENDBRANCH  39  40
ENDBRANCH  38  39
ENDBRANCH  37  38
ENDBRANCH  36  37
ENDBRANCH  35  36
ENDBRANCH   1  35
TORSDOF 23
ENDMDL
MODEL 2
REMARK VINA RESULT:     -12.0      1.993      4.629
REMARK SMILES O=C(CN1C(=O)N[C@@](CCC(=O)OCCOCCOCCOC(=O)c2ccc(-c3c4nc(c(-c5c(F)c(F)c(F)c(F)c5F)c5ccc([nH]5)c(-c5c(F)c(F)c(F)c(F)c5F)c5nc(c(-c6c(F)c(F)c(F)c(F)c6F)c6ccc3[nH]6)C=C5)C=C4)cc2)(c2ccccc2)C1=O)Nc1cccc(F)c1
REMARK SMILES IDX 16 1 15 2 14 3 13 4 11 5 12 6 10 7 9 8 8 9 4 10 5 11 94 12
REMARK SMILES IDX 6 13 7 14 95 15 3 17 2 18 1 19 96 20 97 22 98 23 103 24
REMARK SMILES IDX 99 25 101 26 100 27 102 28 88 29 89 30 93 31 90 32 92 33
REMARK SMILES IDX 91 34 17 35 18 36 19 37 20 38 21 39 22 40 23 41 24 42 25 43
REMARK SMILES IDX 26 44 87 45 27 46 86 47 28 48 29 49 30 50 80 51 31 52 85 53
REMARK SMILES IDX 79 54 81 55 32 56 84 57 78 58 77 59 33 61 65 62 45 63 64 64
REMARK SMILES IDX 46 65 49 66 63 67 82 68 47 69 48 70 62 72 83 73 50 74 34 75
REMARK SMILES IDX 35 76 43 77 36 78 37 79 41 80 44 81 38 82 39 83 42 84 40 85
REMARK SMILES IDX 66 86 67 87 75 88 68 89 69 90 73 91 76 92 70 93 71 94 74 95
REMARK SMILES IDX 72 96 51 97 52 98 60 99 53 100 54 101 58 102 61 103 55 104
REMARK SMILES IDX 56 105 59 106 57 107
REMARK H PARENT 7 16 96 21 81 60 49 71
REMARK Flexibility Score: inf
ROOT
ATOM      1  O   UNL A   1      32.785  28.224  26.605  1.00  0.00    -0.376 OA
ENDROOT
BRANCH   1   2
ATOM      2  C   UNL A   1      33.722  27.377  25.950  1.00  0.00     0.202 C 
BRANCH   2   3
ATOM      3  C   UNL A   1      33.601  27.296  24.416  1.00  0.00     0.261 C 
BRANCH   3   4
ATOM      4  O   UNL A   1      33.239  25.991  23.908  1.00  0.00    -0.463 OA
BRANCH   4   5
ATOM      5  C   UNL A   1      33.785  25.607  22.730  1.00  0.00     0.305 C 
ATOM      6  O   UNL A   1      33.726  26.258  21.693  1.00  0.00    -0.252 OA
BRANCH   5   7
ATOM      7  C   UNL A   1      34.441  24.239  22.794  1.00  0.00     0.126 C 
BRANCH   7   8
ATOM      8  C   UNL A   1      33.574  22.977  22.664  1.00  0.00     0.055 C 
BRANCH   8   9
ATOM      9  C   UNL A   1      32.918  22.373  23.943  1.00  0.00     0.147 C 
ATOM     10  N   UNL A   1      31.349  23.376  25.427  1.00  0.00    -0.252 N 
ATOM     11  C   UNL A   1      32.563  23.379  26.041  1.00  0.00     0.325 C 
ATOM     12  C   UNL A   1      31.529  23.058  24.112  1.00  0.00     0.261 C 
ATOM     13  O   UNL A   1      32.831  23.768  27.164  1.00  0.00    -0.248 OA
ATOM     14  N   UNL A   1      33.505  22.884  25.164  1.00  0.00    -0.319 N 
ATOM     15  O   UNL A   1      30.704  23.241  23.222  1.00  0.00    -0.271 OA
ATOM     16  H   UNL A   1      34.472  22.878  25.349  1.00  0.00     0.166 HD
BRANCH  10  17
ATOM     17  C   UNL A   1      30.139  23.921  26.016  1.00  0.00     0.230 C 
BRANCH  17  18
ATOM     18  C   UNL A   1      29.908  25.419  25.752  1.00  0.00     0.244 C 
ATOM     19  O   UNL A   1      30.365  26.278  26.504  1.00  0.00    -0.273 OA
ATOM     20  N   UNL A   1      29.212  25.668  24.581  1.00  0.00    -0.324 N 
ATOM     21  H   UNL A   1      28.746  24.897  24.186  1.00  0.00     0.170 HD
BRANCH  20  22
ATOM     22  C   UNL A   1      29.087  26.885  23.886  1.00  0.00     0.044 A 
ATOM     23  C   UNL A   1      27.793  27.410  23.745  1.00  0.00     0.026 A 
ATOM     24  C   UNL A   1      30.159  27.547  23.292  1.00  0.00     0.065 A 
ATOM     25  C   UNL A   1      27.574  28.591  23.032  1.00  0.00     0.005 A 
ATOM     26  C   UNL A   1      29.927  28.715  22.567  1.00  0.00     0.125 A 
ATOM     27  C   UNL A   1      28.648  29.245  22.436  1.00  0.00     0.039 A 
ATOM     28  F   UNL A   1      30.954  29.334  21.970  1.00  0.00    -0.207 F 
ENDBRANCH  20  22
ENDBRANCH  17  18
ENDBRANCH  10  17
BRANCH   9  29
ATOM     29  C   UNL A   1      32.701  20.858  24.046  1.00  0.00    -0.013 A 
ATOM     30  C   UNL A   1      33.011  20.167  25.210  1.00  0.00     0.007 A 
ATOM     31  C   UNL A   1      32.294  20.066  22.952  1.00  0.00     0.007 A 
ATOM     32  C   UNL A   1      32.862  18.781  25.323  1.00  0.00     0.000 A 
ATOM     33  C   UNL A   1      32.173  18.673  23.049  1.00  0.00     0.000 A 
ATOM     34  C   UNL A   1      32.441  18.029  24.244  1.00  0.00     0.000 A 
ENDBRANCH   9  29
ENDBRANCH   8   9
ENDBRANCH   7   8
ENDBRANCH   5   7
ENDBRANCH   4   5
ENDBRANCH   3   4
ENDBRANCH   2   3
ENDBRANCH   1   2
BRANCH   1  35
ATOM     35  C   UNL A   1      33.040  29.620  26.535  1.00  0.00     0.188 C 
BRANCH  35  36
ATOM     36  C   UNL A   1      31.933  30.444  25.875  1.00  0.00     0.188 C 
BRANCH  36  37
ATOM     37  O   UNL A   1      31.241  31.331  26.753  1.00  0.00    -0.376 OA
BRANCH  37  38
ATOM     38  C   UNL A   1      31.468  32.727  26.543  1.00  0.00     0.202 C 
BRANCH  38  39
ATOM     39  C   UNL A   1      32.677  33.374  27.236  1.00  0.00     0.261 C 
BRANCH  39  40
ATOM     40  O   UNL A   1      32.300  34.177  28.353  1.00  0.00    -0.460 OA
BRANCH  40  41
ATOM     41  C   UNL A   1      33.235  35.081  28.744  1.00  0.00     0.338 C 
ATOM     42  O   UNL A   1      33.093  36.287  28.868  1.00  0.00    -0.246 OA
BRANCH  41  43
ATOM     43  C   UNL A   1      34.416  34.331  29.231  1.00  0.00     0.060 A 
ATOM     44  C   UNL A   1      34.196  33.256  30.108  1.00  0.00     0.016 A 
ATOM     45  C   UNL A   1      35.697  34.576  28.721  1.00  0.00     0.016 A 
ATOM     46  C   UNL A   1      35.261  32.453  30.512  1.00  0.00     0.010 A 
ATOM     47  C   UNL A   1      36.763  33.781  29.132  1.00  0.00     0.010 A 
ATOM     48  C   UNL A   1      36.555  32.751  30.065  1.00  0.00    -0.014 A 
BRANCH  48  49
ATOM     49  C   UNL A   1      37.722  32.209  30.794  1.00  0.00     0.031 A 
ATOM     50  C   UNL A   1      38.498  31.119  30.106  1.00  0.00     0.074 A 
ATOM     51  C   UNL A   1      38.070  32.646  32.016  1.00  0.00     0.049 A 
ATOM     52  N   UNL A   1      39.487  30.392  30.550  1.00  0.00    -0.248 NA
ATOM     53  C   UNL A   1      38.086  30.795  28.727  1.00  0.00     0.031 C 
ATOM     54  C   UNL A   1      37.411  33.717  32.758  1.00  0.00     0.029 A 
ATOM     55  N   UNL A   1      39.065  32.214  32.857  1.00  0.00    -0.354 N 
ATOM     56  C   UNL A   1      39.796  29.515  29.518  1.00  0.00     0.074 A 
ATOM     57  C   UNL A   1      38.881  29.780  28.432  1.00  0.00     0.031 C 
ATOM     58  C   UNL A   1      38.008  33.845  33.958  1.00  0.00     0.029 A 
ATOM     59  C   UNL A   1      39.063  32.840  34.079  1.00  0.00     0.049 A 
ATOM     60  H   UNL A   1      39.719  31.521  32.607  1.00  0.00     0.167 HD
ATOM     61  C   UNL A   1      40.762  28.571  29.481  1.00  0.00     0.037 A 
ATOM     62  C   UNL A   1      39.812  32.596  35.173  1.00  0.00     0.037 A 
ATOM     63  C   UNL A   1      41.678  28.327  30.559  1.00  0.00     0.049 A 
ATOM     64  C   UNL A   1      40.850  31.499  35.118  1.00  0.00     0.074 A 
ATOM     65  C   UNL A   1      42.728  27.428  30.607  1.00  0.00     0.029 A 
ATOM     66  N   UNL A   1      41.647  28.981  31.781  1.00  0.00    -0.354 N 
ATOM     67  N   UNL A   1      41.174  30.707  34.123  1.00  0.00    -0.248 NA
ATOM     68  C   UNL A   1      41.631  31.262  36.341  1.00  0.00     0.031 C 
ATOM     69  C   UNL A   1      43.290  27.490  31.885  1.00  0.00     0.029 A 
ATOM     70  C   UNL A   1      42.638  28.479  32.605  1.00  0.00     0.049 A 
ATOM     71  H   UNL A   1      41.013  29.695  32.025  1.00  0.00     0.167 HD
ATOM     72  C   UNL A   1      42.218  29.913  34.585  1.00  0.00     0.074 A 
ATOM     73  C   UNL A   1      42.484  30.328  35.947  1.00  0.00     0.031 C 
ATOM     74  C   UNL A   1      42.898  28.929  33.947  1.00  0.00     0.037 A 
BRANCH  61  75
ATOM     75  C   UNL A   1      40.862  27.712  28.258  1.00  0.00     0.064 A 
ATOM     76  C   UNL A   1      41.652  28.074  27.157  1.00  0.00     0.173 A 
ATOM     77  C   UNL A   1      40.205  26.472  28.218  1.00  0.00     0.173 A 
ATOM     78  F   UNL A   1      42.280  29.259  27.137  1.00  0.00    -0.203 F 
ATOM     79  C   UNL A   1      41.778  27.228  26.060  1.00  0.00     0.198 A 
ATOM     80  C   UNL A   1      40.358  25.616  27.132  1.00  0.00     0.198 A 
ATOM     81  F   UNL A   1      39.431  26.084  29.242  1.00  0.00    -0.203 F 
ATOM     82  F   UNL A   1      42.512  27.607  25.004  1.00  0.00    -0.200 F 
ATOM     83  C   UNL A   1      41.142  25.995  26.053  1.00  0.00     0.200 A 
ATOM     84  F   UNL A   1      39.751  24.421  27.133  1.00  0.00    -0.200 F 
ATOM     85  F   UNL A   1      41.284  25.171  25.006  1.00  0.00    -0.200 F 
ENDBRANCH  61  75
BRANCH  62  86
ATOM     86  C   UNL A   1      39.601  33.369  36.429  1.00  0.00     0.064 A 
ATOM     87  C   UNL A   1      38.676  32.948  37.395  1.00  0.00     0.173 A 
ATOM     88  C   UNL A   1      40.262  34.586  36.652  1.00  0.00     0.173 A 
ATOM     89  F   UNL A   1      37.995  31.806  37.218  1.00  0.00    -0.203 F 
ATOM     90  C   UNL A   1      38.388  33.734  38.511  1.00  0.00     0.198 A 
ATOM     91  C   UNL A   1      40.002  35.352  37.788  1.00  0.00     0.198 A 
ATOM     92  F   UNL A   1      41.154  35.042  35.761  1.00  0.00    -0.203 F 
ATOM     93  F   UNL A   1      37.440  33.344  39.375  1.00  0.00    -0.200 F 
ATOM     94  C   UNL A   1      39.053  34.933  38.708  1.00  0.00     0.200 A 
ATOM     95  F   UNL A   1      40.654  36.507  37.979  1.00  0.00    -0.200 F 
ATOM     96  F   UNL A   1      38.766  35.694  39.773  1.00  0.00    -0.200 F 
ENDBRANCH  62  86
BRANCH  74  97
ATOM     97  C   UNL A   1      44.033  28.276  34.684  1.00  0.00     0.064 A 
ATOM     98  C   UNL A   1      45.329  28.808  34.670  1.00  0.00     0.173 A 
ATOM     99  C   UNL A   1      43.801  27.129  35.459  1.00  0.00     0.173 A 
ATOM    100  F   UNL A   1      45.605  29.899  33.937  1.00  0.00    -0.203 F 
ATOM    101  C   UNL A   1      46.360  28.199  35.380  1.00  0.00     0.198 A 
ATOM    102  C   UNL A   1      44.824  26.544  36.198  1.00  0.00     0.198 A 
ATOM    103  F   UNL A   1      42.575  26.587  35.518  1.00  0.00    -0.203 F 
ATOM    104  F   UNL A   1      47.603  28.693  35.309  1.00  0.00    -0.200 F 
ATOM    105  C   UNL A   1      46.105  27.073  36.151  1.00  0.00     0.200 A 
ATOM    106  F   UNL A   1      44.570  25.471  36.959  1.00  0.00    -0.200 F 
ATOM    107  F   UNL A   1      47.096  26.495  36.843  1.00  0.00    -0.200 F 
ENDBRANCH  74  97
ENDBRANCH  48  49
ENDBRANCH  41  43
ENDBRANCH  40  41
ENDBRANCH  39  40
ENDBRANCH  38  39
ENDBRANCH  37  38
ENDBRANCH  36  37
ENDBRANCH  35  36
ENDBRANCH   1  35
TORSDOF 23
ENDMDL
MODEL 3
REMARK VINA RESULT:     -11.7      2.130      8.248
REMARK SMILES O=C(CN1C(=O)N[C@@](CCC(=O)OCCOCCOCCOC(=O)c2ccc(-c3c4nc(c(-c5c(F)c(F)c(F)c(F)c5F)c5ccc([nH]5)c(-c5c(F)c(F)c(F)c(F)c5F)c5nc(c(-c6c(F)c(F)c(F)c(F)c6F)c6ccc3[nH]6)C=C5)C=C4)cc2)(c2ccccc2)C1=O)Nc1cccc(F)c1
REMARK SMILES IDX 16 1 15 2 14 3 13 4 11 5 12 6 10 7 9 8 8 9 4 10 5 11 94 12
REMARK SMILES IDX 6 13 7 14 95 15 3 17 2 18 1 19 96 20 97 22 98 23 103 24
REMARK SMILES IDX 99 25 101 26 100 27 102 28 88 29 89 30 93 31 90 32 92 33
REMARK SMILES IDX 91 34 17 35 18 36 19 37 20 38 21 39 22 40 23 41 24 42 25 43
REMARK SMILES IDX 26 44 87 45 27 46 86 47 28 48 29 49 30 50 80 51 31 52 85 53
REMARK SMILES IDX 79 54 81 55 32 56 84 57 78 58 77 59 33 61 65 62 45 63 64 64
REMARK SMILES IDX 46 65 49 66 63 67 82 68 47 69 48 70 62 72 83 73 50 74 34 75
REMARK SMILES IDX 35 76 43 77 36 78 37 79 41 80 44 81 38 82 39 83 42 84 40 85
REMARK SMILES IDX 66 86 67 87 75 88 68 89 69 90 73 91 76 92 70 93 71 94 74 95
REMARK SMILES IDX 72 96 51 97 52 98 60 99 53 100 54 101 58 102 61 103 55 104
REMARK SMILES IDX 56 105 59 106 57 107
REMARK H PARENT 7 16 96 21 81 60 49 71
REMARK Flexibility Score: inf
ROOT
ATOM      1  O   UNL A   1      32.734  28.527  26.482  1.00  0.00    -0.376 OA
ENDROOT
BRANCH   1   2
ATOM      2  C   UNL A   1      33.871  27.776  26.072  1.00  0.00     0.202 C 
BRANCH   2   3
ATOM      3  C   UNL A   1      33.832  27.222  24.634  1.00  0.00     0.261 C 
BRANCH   3   4
ATOM      4  O   UNL A   1      33.756  25.780  24.545  1.00  0.00    -0.463 OA
BRANCH   4   5
ATOM      5  C   UNL A   1      34.069  25.212  23.357  1.00  0.00     0.305 C 
ATOM      6  O   UNL A   1      33.702  25.635  22.267  1.00  0.00    -0.252 OA
BRANCH   5   7
ATOM      7  C   UNL A   1      34.885  23.939  23.501  1.00  0.00     0.126 C 
BRANCH   7   8
ATOM      8  C   UNL A   1      34.212  22.578  23.265  1.00  0.00     0.055 C 
BRANCH   8   9
ATOM      9  C   UNL A   1      33.396  21.926  24.423  1.00  0.00     0.147 C 
ATOM     10  N   UNL A   1      31.732  22.911  25.811  1.00  0.00    -0.252 N 
ATOM     11  C   UNL A   1      32.873  22.803  26.544  1.00  0.00     0.325 C 
ATOM     12  C   UNL A   1      32.033  22.676  24.501  1.00  0.00     0.261 C 
ATOM     13  O   UNL A   1      33.042  23.097  27.713  1.00  0.00    -0.248 OA
ATOM     14  N   UNL A   1      33.877  22.316  25.732  1.00  0.00    -0.319 N 
ATOM     15  O   UNL A   1      31.316  22.966  23.549  1.00  0.00    -0.271 OA
ATOM     16  H   UNL A   1      34.818  22.242  26.012  1.00  0.00     0.166 HD
BRANCH  10  17
ATOM     17  C   UNL A   1      30.496  23.483  26.314  1.00  0.00     0.230 C 
BRANCH  17  18
ATOM     18  C   UNL A   1      30.298  24.977  26.001  1.00  0.00     0.244 C 
ATOM     19  O   UNL A   1      30.844  25.848  26.675  1.00  0.00    -0.273 OA
ATOM     20  N   UNL A   1      29.519  25.203  24.879  1.00  0.00    -0.324 N 
ATOM     21  H   UNL A   1      28.996  24.434  24.557  1.00  0.00     0.170 HD
BRANCH  20  22
ATOM     22  C   UNL A   1      29.382  26.392  24.141  1.00  0.00     0.044 A 
ATOM     23  C   UNL A   1      30.562  27.017  23.710  1.00  0.00     0.026 A 
ATOM     24  C   UNL A   1      28.155  26.998  23.876  1.00  0.00     0.065 A 
ATOM     25  C   UNL A   1      30.519  28.224  23.009  1.00  0.00     0.005 A 
ATOM     26  C   UNL A   1      28.124  28.213  23.191  1.00  0.00     0.125 A 
ATOM     27  C   UNL A   1      29.291  28.828  22.752  1.00  0.00     0.039 A 
ATOM     28  F   UNL A   1      26.947  28.810  22.965  1.00  0.00    -0.207 F 
ENDBRANCH  20  22
ENDBRANCH  17  18
ENDBRANCH  10  17
BRANCH   9  29
ATOM     29  C   UNL A   1      33.094  20.422  24.390  1.00  0.00    -0.013 A 
ATOM     30  C   UNL A   1      32.527  19.829  23.270  1.00  0.00     0.007 A 
ATOM     31  C   UNL A   1      33.255  19.583  25.513  1.00  0.00     0.007 A 
ATOM     32  C   UNL A   1      32.203  18.469  23.222  1.00  0.00     0.000 A 
ATOM     33  C   UNL A   1      32.903  18.227  25.482  1.00  0.00     0.000 A 
ATOM     34  C   UNL A   1      32.391  17.663  24.326  1.00  0.00     0.000 A 
ENDBRANCH   9  29
ENDBRANCH   8   9
ENDBRANCH   7   8
ENDBRANCH   5   7
ENDBRANCH   4   5
ENDBRANCH   3   4
ENDBRANCH   2   3
ENDBRANCH   1   2
BRANCH   1  35
ATOM     35  C   UNL A   1      32.854  29.941  26.412  1.00  0.00     0.188 C 
BRANCH  35  36
ATOM     36  C   UNL A   1      31.621  30.666  25.871  1.00  0.00     0.188 C 
BRANCH  36  37
ATOM     37  O   UNL A   1      31.060  31.636  26.754  1.00  0.00    -0.376 OA
BRANCH  37  38
ATOM     38  C   UNL A   1      31.489  32.986  26.556  1.00  0.00     0.202 C 
BRANCH  38  39
ATOM     39  C   UNL A   1      32.782  33.442  27.251  1.00  0.00     0.261 C 
BRANCH  39  40
ATOM     40  O   UNL A   1      32.529  34.262  28.390  1.00  0.00    -0.460 OA
BRANCH  40  41
ATOM     41  C   UNL A   1      33.598  34.977  28.824  1.00  0.00     0.338 C 
ATOM     42  O   UNL A   1      33.640  36.170  29.075  1.00  0.00    -0.246 OA
BRANCH  41  43
ATOM     43  C   UNL A   1      34.672  34.019  29.177  1.00  0.00     0.060 A 
ATOM     44  C   UNL A   1      34.303  32.828  29.825  1.00  0.00     0.016 A 
ATOM     45  C   UNL A   1      35.990  34.209  28.746  1.00  0.00     0.016 A 
ATOM     46  C   UNL A   1      35.259  31.847  30.083  1.00  0.00     0.010 A 
ATOM     47  C   UNL A   1      36.948  33.235  29.014  1.00  0.00     0.010 A 
ATOM     48  C   UNL A   1      36.594  32.076  29.725  1.00  0.00    -0.014 A 
BRANCH  48  49
ATOM     49  C   UNL A   1      37.667  31.277  30.354  1.00  0.00     0.031 A 
ATOM     50  C   UNL A   1      37.997  31.603  31.786  1.00  0.00     0.074 A 
ATOM     51  C   UNL A   1      38.333  30.319  29.688  1.00  0.00     0.049 A 
ATOM     52  N   UNL A   1      38.955  31.145  32.546  1.00  0.00    -0.248 NA
ATOM     53  C   UNL A   1      37.131  32.598  32.445  1.00  0.00     0.031 C 
ATOM     54  C   UNL A   1      38.073  29.900  28.313  1.00  0.00     0.029 A 
ATOM     55  N   UNL A   1      39.390  29.539  30.086  1.00  0.00    -0.354 N 
ATOM     56  C   UNL A   1      38.820  31.813  33.756  1.00  0.00     0.074 A 
ATOM     57  C   UNL A   1      37.704  32.721  33.630  1.00  0.00     0.031 C 
ATOM     58  C   UNL A   1      38.965  28.950  27.972  1.00  0.00     0.029 A 
ATOM     59  C   UNL A   1      39.878  28.726  29.092  1.00  0.00     0.049 A 
ATOM     60  H   UNL A   1      39.763  29.561  30.997  1.00  0.00     0.167 HD
ATOM     61  C   UNL A   1      39.563  31.675  34.876  1.00  0.00     0.037 A 
ATOM     62  C   UNL A   1      40.960  27.922  29.092  1.00  0.00     0.037 A 
ATOM     63  C   UNL A   1      40.658  30.756  34.998  1.00  0.00     0.049 A 
ATOM     64  C   UNL A   1      41.802  27.828  30.344  1.00  0.00     0.074 A 
ATOM     65  C   UNL A   1      41.447  30.501  36.104  1.00  0.00     0.029 A 
ATOM     66  N   UNL A   1      41.123  29.948  33.972  1.00  0.00    -0.354 N 
ATOM     67  N   UNL A   1      41.639  28.421  31.504  1.00  0.00    -0.248 NA
ATOM     68  C   UNL A   1      42.979  26.949  30.289  1.00  0.00     0.031 C 
ATOM     69  C   UNL A   1      42.434  29.586  35.728  1.00  0.00     0.029 A 
ATOM     70  C   UNL A   1      42.213  29.218  34.410  1.00  0.00     0.049 A 
ATOM     71  H   UNL A   1      40.735  29.901  33.068  1.00  0.00     0.167 HD
ATOM     72  C   UNL A   1      42.664  27.957  32.321  1.00  0.00     0.074 A 
ATOM     73  C   UNL A   1      43.434  27.021  31.531  1.00  0.00     0.031 C 
ATOM     74  C   UNL A   1      42.946  28.272  33.610  1.00  0.00     0.037 A 
BRANCH  61  75
ATOM     75  C   UNL A   1      39.242  32.554  36.047  1.00  0.00     0.064 A 
ATOM     76  C   UNL A   1      38.396  32.133  37.083  1.00  0.00     0.173 A 
ATOM     77  C   UNL A   1      39.847  33.815  36.161  1.00  0.00     0.173 A 
ATOM     78  F   UNL A   1      37.775  30.947  37.008  1.00  0.00    -0.203 F 
ATOM     79  C   UNL A   1      38.166  32.945  38.190  1.00  0.00     0.198 A 
ATOM     80  C   UNL A   1      39.639  34.610  37.284  1.00  0.00     0.198 A 
ATOM     81  F   UNL A   1      40.658  34.267  35.193  1.00  0.00    -0.203 F 
ATOM     82  F   UNL A   1      37.329  32.537  39.155  1.00  0.00    -0.200 F 
ATOM     83  C   UNL A   1      38.797  34.176  38.296  1.00  0.00     0.200 A 
ATOM     84  F   UNL A   1      40.258  35.794  37.388  1.00  0.00    -0.200 F 
ATOM     85  F   UNL A   1      38.592  34.945  39.374  1.00  0.00    -0.200 F 
ENDBRANCH  61  75
BRANCH  62  86
ATOM     86  C   UNL A   1      41.344  27.161  27.870  1.00  0.00     0.064 A 
ATOM     87  C   UNL A   1      40.952  25.826  27.691  1.00  0.00     0.173 A 
ATOM     88  C   UNL A   1      42.176  27.728  26.893  1.00  0.00     0.173 A 
ATOM     89  F   UNL A   1      40.180  25.227  28.610  1.00  0.00    -0.203 F 
ATOM     90  C   UNL A   1      41.413  25.077  26.610  1.00  0.00     0.198 A 
ATOM     91  C   UNL A   1      42.605  26.988  25.791  1.00  0.00     0.198 A 
ATOM     92  F   UNL A   1      42.588  28.999  27.012  1.00  0.00    -0.203 F 
ATOM     93  F   UNL A   1      41.087  23.780  26.509  1.00  0.00    -0.200 F 
ATOM     94  C   UNL A   1      42.236  25.659  25.659  1.00  0.00     0.200 A 
ATOM     95  F   UNL A   1      43.393  27.559  24.870  1.00  0.00    -0.200 F 
ATOM     96  F   UNL A   1      42.689  24.934  24.627  1.00  0.00    -0.200 F 
ENDBRANCH  62  86
BRANCH  74  97
ATOM     97  C   UNL A   1      44.093  27.558  34.266  1.00  0.00     0.064 A 
ATOM     98  C   UNL A   1      43.960  26.264  34.788  1.00  0.00     0.173 A 
ATOM     99  C   UNL A   1      45.359  28.163  34.323  1.00  0.00     0.173 A 
ATOM    100  F   UNL A   1      42.769  25.645  34.765  1.00  0.00    -0.203 F 
ATOM    101  C   UNL A   1      45.044  25.613  35.369  1.00  0.00     0.198 A 
ATOM    102  C   UNL A   1      46.449  27.495  34.871  1.00  0.00     0.198 A 
ATOM    103  F   UNL A   1      45.544  29.395  33.825  1.00  0.00    -0.203 F 
ATOM    104  F   UNL A   1      44.882  24.398  35.910  1.00  0.00    -0.200 F 
ATOM    105  C   UNL A   1      46.289  26.225  35.403  1.00  0.00     0.200 A 
ATOM    106  F   UNL A   1      47.655  28.079  34.880  1.00  0.00    -0.200 F 
ATOM    107  F   UNL A   1      47.334  25.592  35.953  1.00  0.00    -0.200 F 
ENDBRANCH  74  97
ENDBRANCH  48  49
ENDBRANCH  41  43
ENDBRANCH  40  41
ENDBRANCH  39  40
ENDBRANCH  38  39
ENDBRANCH  37  38
ENDBRANCH  36  37
ENDBRANCH  35  36
ENDBRANCH   1  35
TORSDOF 23
ENDMDL
