MODEL 1
REMARK VINA RESULT:     -14.4      0.000      0.000
REMARK SMILES Cc1ccc([C@@]23C[C@@H]4C[C@@H](C[C@@](C(=O)N5CCC(C(=O)OCCOCCOCCOC(=O)c6ccc(-c7c8nc(c(-c9c(F)c(F)c(F)c(F)c9F)c9ccc([nH]9)c(-c9c(F)c(F)c(F)c(F)c9F)c9nc(c(-c%10c(F)c(F)c(F)c(F)c%10F)c%10ccc7[nH]%10)C=C9)C=C8)cc6)CC5)(C4)C2)C3)cc1
REMARK SMILES IDX 25 1 24 2 23 3 22 4 21 5 19 6 20 7 18 8 13 9 14 10 15 11
REMARK SMILES IDX 16 12 97 13 17 14 96 15 12 16 6 17 7 18 99 19 100 20 8 21
REMARK SMILES IDX 10 22 9 23 98 24 11 25 5 26 1 27 2 28 3 29 102 30 4 31
REMARK SMILES IDX 101 32 26 33 27 34 28 35 29 36 30 37 31 38 32 39 33 40 34 41
REMARK SMILES IDX 95 42 35 43 94 44 36 45 37 46 38 47 88 48 39 49 93 50 87 51
REMARK SMILES IDX 89 52 40 53 92 54 86 55 85 56 41 58 73 59 53 60 72 61 54 62
REMARK SMILES IDX 57 63 71 64 90 65 55 66 56 67 70 69 91 70 58 71 42 72 43 73
REMARK SMILES IDX 51 74 44 75 45 76 49 77 52 78 46 79 47 80 50 81 48 82 74 83
REMARK SMILES IDX 75 84 83 85 76 86 77 87 81 88 84 89 78 90 79 91 82 92 80 93
REMARK SMILES IDX 59 94 60 95 68 96 61 97 62 98 66 99 69 100 63 101 64 102
REMARK SMILES IDX 67 103 65 104
REMARK H PARENT 89 57 57 68
REMARK Flexibility Score: inf
ROOT
ATOM      1  C   UNL A   1      42.879  18.676  25.993  1.00  0.00     0.188 C 
ENDROOT
BRANCH   1   2
ATOM      2  O   UNL A   1      42.134  19.808  26.464  1.00  0.00    -0.376 OA
BRANCH   2   3
ATOM      3  C   UNL A   1      40.714  19.923  26.393  1.00  0.00     0.202 C 
BRANCH   3   4
ATOM      4  C   UNL A   1      39.719  21.231  26.079  1.00  0.00     0.261 C 
BRANCH   4   5
ATOM      5  O   UNL A   1      38.157  21.526  25.260  1.00  0.00    -0.463 OA
BRANCH   5   6
ATOM      6  C   UNL A   1      36.739  21.307  25.344  1.00  0.00     0.309 C 
ATOM      7  O   UNL A   1      36.052  20.326  25.031  1.00  0.00    -0.252 OA
BRANCH   6   8
ATOM      8  C   UNL A   1      35.789  22.264  25.915  1.00  0.00     0.103 C 
ATOM      9  C   UNL A   1      32.475  23.307  24.830  1.00  0.00     0.228 C 
ATOM     10  O   UNL A   1      31.872  22.259  24.602  1.00  0.00    -0.274 OA
ATOM     11  N   UNL A   1      33.338  23.449  25.924  1.00  0.00    -0.342 N 
ATOM     12  C   UNL A   1      33.427  22.342  26.849  1.00  0.00     0.120 C 
ATOM     13  C   UNL A   1      34.544  24.291  25.927  1.00  0.00     0.120 C 
ATOM     14  C   UNL A   1      34.529  21.447  26.337  1.00  0.00     0.037 C 
ATOM     15  C   UNL A   1      35.608  23.530  25.164  1.00  0.00     0.037 C 
BRANCH   9  16
ATOM     16  C   UNL A   1      32.263  24.550  23.969  1.00  0.00     0.051 C 
ATOM     17  C   UNL A   1      32.395  27.088  24.270  1.00  0.00    -0.003 C 
ATOM     18  C   UNL A   1      33.420  27.068  23.095  1.00  0.00     0.015 C 
ATOM     19  C   UNL A   1      32.411  25.721  24.945  1.00  0.00     0.028 C 
ATOM     20  C   UNL A   1      30.970  27.214  23.672  1.00  0.00     0.015 C 
ATOM     21  C   UNL A   1      33.092  25.971  22.063  1.00  0.00    -0.009 C 
ATOM     22  C   UNL A   1      30.672  26.040  22.698  1.00  0.00    -0.009 C 
ATOM     23  C   UNL A   1      31.668  26.117  21.531  1.00  0.00     0.007 C 
ATOM     24  C   UNL A   1      33.202  24.616  22.745  1.00  0.00     0.020 C 
ATOM     25  C   UNL A   1      30.828  24.670  23.409  1.00  0.00     0.020 C 
BRANCH  17  26
ATOM     26  C   UNL A   1      32.773  28.165  25.307  1.00  0.00    -0.042 A 
ATOM     27  C   UNL A   1      34.002  31.363  27.980  1.00  0.00     0.044 C 
ATOM     28  C   UNL A   1      33.555  30.266  27.065  1.00  0.00    -0.051 A 
ATOM     29  C   UNL A   1      34.364  29.148  26.908  1.00  0.00     0.004 A 
ATOM     30  C   UNL A   1      32.352  30.329  26.353  1.00  0.00     0.004 A 
ATOM     31  C   UNL A   1      33.971  28.115  26.060  1.00  0.00     0.004 A 
ATOM     32  C   UNL A   1      31.967  29.294  25.487  1.00  0.00     0.004 A 
ENDBRANCH  17  26
ENDBRANCH   9  16
ENDBRANCH   6   8
ENDBRANCH   5   6
ENDBRANCH   4   5
ENDBRANCH   3   4
ENDBRANCH   2   3
ENDBRANCH   1   2
BRANCH   1  33
ATOM     33  C   UNL A   1      44.198  18.854  25.251  1.00  0.00     0.188 C 
BRANCH  33  34
ATOM     34  O   UNL A   1      44.178  20.072  24.529  1.00  0.00    -0.376 OA
BRANCH  34  35
ATOM     35  C   UNL A   1      45.364  20.843  24.596  1.00  0.00     0.202 C 
BRANCH  35  36
ATOM     36  C   UNL A   1      45.271  21.936  25.672  1.00  0.00     0.261 C 
BRANCH  36  37
ATOM     37  O   UNL A   1      43.963  22.561  25.647  1.00  0.00    -0.460 OA
BRANCH  37  38
ATOM     38  C   UNL A   1      43.853  23.762  24.988  1.00  0.00     0.338 C 
ATOM     39  O   UNL A   1      44.730  24.261  24.299  1.00  0.00    -0.246 OA
BRANCH  38  40
ATOM     40  C   UNL A   1      42.623  24.488  25.451  1.00  0.00     0.060 A 
ATOM     41  C   UNL A   1      42.346  25.846  25.243  1.00  0.00     0.016 A 
ATOM     42  C   UNL A   1      41.954  23.905  26.465  1.00  0.00     0.016 A 
ATOM     43  C   UNL A   1      41.629  26.652  26.231  1.00  0.00     0.010 A 
ATOM     44  C   UNL A   1      41.550  24.764  27.484  1.00  0.00     0.010 A 
ATOM     45  C   UNL A   1      41.331  26.191  27.524  1.00  0.00    -0.014 A 
BRANCH  45  46
ATOM     46  C   UNL A   1      40.868  27.240  28.900  1.00  0.00     0.031 A 
ATOM     47  C   UNL A   1      39.588  28.507  29.119  1.00  0.00     0.074 A 
ATOM     48  C   UNL A   1      41.803  27.378  29.871  1.00  0.00     0.049 A 
ATOM     49  N   UNL A   1      39.819  29.725  29.605  1.00  0.00    -0.248 NA
ATOM     50  C   UNL A   1      38.158  28.592  28.594  1.00  0.00     0.031 C 
ATOM     51  C   UNL A   1      41.699  28.175  31.087  1.00  0.00     0.029 A 
ATOM     52  N   UNL A   1      43.133  26.938  29.865  1.00  0.00    -0.354 N 
ATOM     53  C   UNL A   1      38.673  30.538  29.460  1.00  0.00     0.074 A 
ATOM     54  C   UNL A   1      37.719  29.820  28.737  1.00  0.00     0.031 C 
ATOM     55  C   UNL A   1      42.936  28.443  31.528  1.00  0.00     0.029 A 
ATOM     56  C   UNL A   1      43.871  27.908  30.556  1.00  0.00     0.049 A 
ATOM     57  H   UNL A   1      43.481  26.112  29.456  1.00  0.00     0.167 HD
ATOM     58  C   UNL A   1      38.450  31.757  30.011  1.00  0.00     0.037 A 
ATOM     59  C   UNL A   1      44.936  28.558  30.016  1.00  0.00     0.037 A 
ATOM     60  C   UNL A   1      39.573  32.123  30.799  1.00  0.00     0.049 A 
ATOM     61  C   UNL A   1      44.864  30.055  30.172  1.00  0.00     0.074 A 
ATOM     62  C   UNL A   1      39.941  31.732  32.070  1.00  0.00     0.029 A 
ATOM     63  N   UNL A   1      40.700  32.569  30.147  1.00  0.00    -0.354 N 
ATOM     64  N   UNL A   1      43.757  30.719  30.354  1.00  0.00    -0.248 NA
ATOM     65  C   UNL A   1      46.036  30.925  30.122  1.00  0.00     0.031 C 
ATOM     66  C   UNL A   1      41.338  31.904  32.171  1.00  0.00     0.029 A 
ATOM     67  C   UNL A   1      41.782  32.471  30.989  1.00  0.00     0.049 A 
ATOM     68  H   UNL A   1      40.726  32.905  29.222  1.00  0.00     0.167 HD
ATOM     69  C   UNL A   1      44.038  32.060  30.421  1.00  0.00     0.074 A 
ATOM     70  C   UNL A   1      45.478  32.136  30.291  1.00  0.00     0.031 C 
ATOM     71  C   UNL A   1      43.057  32.995  30.565  1.00  0.00     0.037 A 
BRANCH  58  72
ATOM     72  C   UNL A   1      37.046  32.332  30.099  1.00  0.00     0.064 A 
ATOM     73  C   UNL A   1      36.671  33.385  29.245  1.00  0.00     0.173 A 
ATOM     74  C   UNL A   1      36.108  32.013  31.107  1.00  0.00     0.173 A 
ATOM     75  F   UNL A   1      37.437  33.730  28.203  1.00  0.00    -0.203 F 
ATOM     76  C   UNL A   1      35.522  34.151  29.468  1.00  0.00     0.198 A 
ATOM     77  C   UNL A   1      34.995  32.823  31.373  1.00  0.00     0.198 A 
ATOM     78  F   UNL A   1      36.295  30.945  31.902  1.00  0.00    -0.203 F 
ATOM     79  F   UNL A   1      35.230  35.166  28.642  1.00  0.00    -0.200 F 
ATOM     80  C   UNL A   1      34.711  33.902  30.560  1.00  0.00     0.200 A 
ATOM     81  F   UNL A   1      34.227  32.584  32.448  1.00  0.00    -0.200 F 
ATOM     82  F   UNL A   1      33.670  34.703  30.827  1.00  0.00    -0.200 F 
ENDBRANCH  58  72
BRANCH  59  83
ATOM     83  C   UNL A   1      45.648  27.831  28.926  1.00  0.00     0.064 A 
ATOM     84  C   UNL A   1      46.546  26.800  29.278  1.00  0.00     0.173 A 
ATOM     85  C   UNL A   1      45.269  27.914  27.579  1.00  0.00     0.173 A 
ATOM     86  F   UNL A   1      46.949  26.666  30.553  1.00  0.00    -0.203 F 
ATOM     87  C   UNL A   1      46.955  25.837  28.357  1.00  0.00     0.198 A 
ATOM     88  C   UNL A   1      45.697  26.955  26.651  1.00  0.00     0.198 A 
ATOM     89  F   UNL A   1      44.413  28.859  27.169  1.00  0.00    -0.203 F 
ATOM     90  F   UNL A   1      47.704  24.801  28.761  1.00  0.00    -0.200 F 
ATOM     91  C   UNL A   1      46.518  25.907  27.046  1.00  0.00     0.200 A 
ATOM     92  F   UNL A   1      45.239  26.989  25.391  1.00  0.00    -0.200 F 
ATOM     93  F   UNL A   1      46.827  24.926  26.185  1.00  0.00    -0.200 F 
ENDBRANCH  59  83
BRANCH  71  94
ATOM     94  C   UNL A   1      43.154  34.492  30.371  1.00  0.00     0.064 A 
ATOM     95  C   UNL A   1      43.405  35.399  31.408  1.00  0.00     0.173 A 
ATOM     96  C   UNL A   1      43.190  35.043  29.059  1.00  0.00     0.173 A 
ATOM     97  F   UNL A   1      43.504  34.998  32.680  1.00  0.00    -0.203 F 
ATOM     98  C   UNL A   1      43.631  36.757  31.158  1.00  0.00     0.198 A 
ATOM     99  C   UNL A   1      43.492  36.378  28.812  1.00  0.00     0.198 A 
ATOM    100  F   UNL A   1      42.970  34.292  27.969  1.00  0.00    -0.203 F 
ATOM    101  F   UNL A   1      43.825  37.592  32.188  1.00  0.00    -0.200 F 
ATOM    102  C   UNL A   1      43.696  37.240  29.865  1.00  0.00     0.200 A 
ATOM    103  F   UNL A   1      43.608  36.814  27.549  1.00  0.00    -0.200 F 
ATOM    104  F   UNL A   1      43.975  38.531  29.634  1.00  0.00    -0.200 F 
ENDBRANCH  71  94
ENDBRANCH  45  46
ENDBRANCH  38  40
ENDBRANCH  37  38
ENDBRANCH  36  37
ENDBRANCH  35  36
ENDBRANCH  34  35
ENDBRANCH  33  34
ENDBRANCH   1  33
TORSDOF 19
ENDMDL
MODEL 2
REMARK VINA RESULT:     -14.1      1.415      2.289
REMARK SMILES Cc1ccc([C@@]23C[C@@H]4C[C@@H](C[C@@](C(=O)N5CCC(C(=O)OCCOCCOCCOC(=O)c6ccc(-c7c8nc(c(-c9c(F)c(F)c(F)c(F)c9F)c9ccc([nH]9)c(-c9c(F)c(F)c(F)c(F)c9F)c9nc(c(-c%10c(F)c(F)c(F)c(F)c%10F)c%10ccc7[nH]%10)C=C9)C=C8)cc6)CC5)(C4)C2)C3)cc1
REMARK SMILES IDX 25 1 24 2 23 3 22 4 21 5 19 6 20 7 18 8 13 9 14 10 15 11
REMARK SMILES IDX 16 12 97 13 17 14 96 15 12 16 6 17 7 18 99 19 100 20 8 21
REMARK SMILES IDX 10 22 9 23 98 24 11 25 5 26 1 27 2 28 3 29 102 30 4 31
REMARK SMILES IDX 101 32 26 33 27 34 28 35 29 36 30 37 31 38 32 39 33 40 34 41
REMARK SMILES IDX 95 42 35 43 94 44 36 45 37 46 38 47 88 48 39 49 93 50 87 51
REMARK SMILES IDX 89 52 40 53 92 54 86 55 85 56 41 58 73 59 53 60 72 61 54 62
REMARK SMILES IDX 57 63 71 64 90 65 55 66 56 67 70 69 91 70 58 71 42 72 43 73
REMARK SMILES IDX 51 74 44 75 45 76 49 77 52 78 46 79 47 80 50 81 48 82 74 83
REMARK SMILES IDX 75 84 83 85 76 86 77 87 81 88 84 89 78 90 79 91 82 92 80 93
REMARK SMILES IDX 59 94 60 95 68 96 61 97 62 98 66 99 69 100 63 101 64 102
REMARK SMILES IDX 67 103 65 104
REMARK H PARENT 89 57 57 68
REMARK Flexibility Score: inf
ROOT
ATOM      1  C   UNL A   1      42.305  18.826  26.122  1.00  0.00     0.188 C 
ENDROOT
BRANCH   1   2
ATOM      2  O   UNL A   1      41.062  19.454  25.778  1.00  0.00    -0.376 OA
BRANCH   2   3
ATOM      3  C   UNL A   1      40.447  20.492  26.538  1.00  0.00     0.202 C 
BRANCH   3   4
ATOM      4  C   UNL A   1      39.453  21.761  26.088  1.00  0.00     0.261 C 
BRANCH   4   5
ATOM      5  O   UNL A   1      37.722  22.004  25.715  1.00  0.00    -0.463 OA
BRANCH   5   6
ATOM      6  C   UNL A   1      36.673  22.985  25.645  1.00  0.00     0.309 C 
ATOM      7  O   UNL A   1      36.657  24.177  25.978  1.00  0.00    -0.252 OA
BRANCH   6   8
ATOM      8  C   UNL A   1      35.349  22.738  25.070  1.00  0.00     0.103 C 
ATOM      9  C   UNL A   1      33.147  24.860  23.096  1.00  0.00     0.228 C 
ATOM     10  O   UNL A   1      33.866  25.329  22.214  1.00  0.00    -0.274 OA
ATOM     11  N   UNL A   1      33.257  23.529  23.519  1.00  0.00    -0.342 N 
ATOM     12  C   UNL A   1      34.187  22.681  22.811  1.00  0.00     0.120 C 
ATOM     13  C   UNL A   1      33.000  23.071  24.893  1.00  0.00     0.120 C 
ATOM     14  C   UNL A   1      35.512  22.816  23.521  1.00  0.00     0.037 C 
ATOM     15  C   UNL A   1      34.217  23.449  25.711  1.00  0.00     0.037 C 
BRANCH   9  16
ATOM     16  C   UNL A   1      32.035  25.686  23.739  1.00  0.00     0.051 C 
ATOM     17  C   UNL A   1      31.857  27.632  25.391  1.00  0.00    -0.003 C 
ATOM     18  C   UNL A   1      31.066  28.374  24.270  1.00  0.00     0.015 C 
ATOM     19  C   UNL A   1      32.762  26.594  24.735  1.00  0.00     0.028 C 
ATOM     20  C   UNL A   1      30.853  26.803  26.232  1.00  0.00     0.015 C 
ATOM     21  C   UNL A   1      30.219  27.402  23.424  1.00  0.00    -0.009 C 
ATOM     22  C   UNL A   1      30.085  25.792  25.336  1.00  0.00    -0.009 C 
ATOM     23  C   UNL A   1      29.272  26.584  24.299  1.00  0.00     0.007 C 
ATOM     24  C   UNL A   1      31.156  26.435  22.715  1.00  0.00     0.020 C 
ATOM     25  C   UNL A   1      31.064  24.844  24.596  1.00  0.00     0.020 C 
BRANCH  17  26
ATOM     26  C   UNL A   1      32.727  28.622  26.191  1.00  0.00    -0.042 A 
ATOM     27  C   UNL A   1      35.276  31.546  28.150  1.00  0.00     0.044 C 
ATOM     28  C   UNL A   1      34.379  30.547  27.489  1.00  0.00    -0.051 A 
ATOM     29  C   UNL A   1      34.895  29.306  27.138  1.00  0.00     0.004 A 
ATOM     30  C   UNL A   1      33.038  30.822  27.201  1.00  0.00     0.004 A 
ATOM     31  C   UNL A   1      34.080  28.362  26.519  1.00  0.00     0.004 A 
ATOM     32  C   UNL A   1      32.224  29.874  26.562  1.00  0.00     0.004 A 
ENDBRANCH  17  26
ENDBRANCH   9  16
ENDBRANCH   6   8
ENDBRANCH   5   6
ENDBRANCH   4   5
ENDBRANCH   3   4
ENDBRANCH   2   3
ENDBRANCH   1   2
BRANCH   1  33
ATOM     33  C   UNL A   1      43.593  19.169  25.382  1.00  0.00     0.188 C 
BRANCH  33  34
ATOM     34  O   UNL A   1      43.558  20.523  24.969  1.00  0.00    -0.376 OA
BRANCH  34  35
ATOM     35  C   UNL A   1      44.736  21.268  25.215  1.00  0.00     0.202 C 
BRANCH  35  36
ATOM     36  C   UNL A   1      44.504  22.368  26.261  1.00  0.00     0.261 C 
BRANCH  36  37
ATOM     37  O   UNL A   1      43.117  22.789  26.256  1.00  0.00    -0.460 OA
BRANCH  37  38
ATOM     38  C   UNL A   1      42.802  23.907  25.521  1.00  0.00     0.338 C 
ATOM     39  O   UNL A   1      43.416  24.288  24.536  1.00  0.00    -0.246 OA
BRANCH  38  40
ATOM     40  C   UNL A   1      41.781  24.728  26.254  1.00  0.00     0.060 A 
ATOM     41  C   UNL A   1      41.416  26.047  25.948  1.00  0.00     0.016 A 
ATOM     42  C   UNL A   1      41.505  24.324  27.510  1.00  0.00     0.016 A 
ATOM     43  C   UNL A   1      41.052  27.012  26.984  1.00  0.00     0.010 A 
ATOM     44  C   UNL A   1      41.444  25.339  28.462  1.00  0.00     0.010 A 
ATOM     45  C   UNL A   1      41.216  26.761  28.356  1.00  0.00    -0.014 A 
BRANCH  45  46
ATOM     46  C   UNL A   1      41.215  28.019  29.631  1.00  0.00     0.031 A 
ATOM     47  C   UNL A   1      40.023  29.301  30.108  1.00  0.00     0.074 A 
ATOM     48  C   UNL A   1      42.425  28.314  30.162  1.00  0.00     0.049 A 
ATOM     49  N   UNL A   1      40.339  30.582  30.287  1.00  0.00    -0.248 NA
ATOM     50  C   UNL A   1      38.498  29.297  30.134  1.00  0.00     0.031 C 
ATOM     51  C   UNL A   1      42.717  29.298  31.197  1.00  0.00     0.029 A 
ATOM     52  N   UNL A   1      43.690  27.882  29.738  1.00  0.00    -0.354 N 
ATOM     53  C   UNL A   1      39.169  31.358  30.450  1.00  0.00     0.074 A 
ATOM     54  C   UNL A   1      38.065  30.530  30.241  1.00  0.00     0.031 C 
ATOM     55  C   UNL A   1      44.011  29.637  31.111  1.00  0.00     0.029 A 
ATOM     56  C   UNL A   1      44.565  28.954  29.958  1.00  0.00     0.049 A 
ATOM     57  H   UNL A   1      43.917  27.002  29.359  1.00  0.00     0.167 HD
ATOM     58  C   UNL A   1      39.085  32.650  30.854  1.00  0.00     0.037 A 
ATOM     59  C   UNL A   1      45.323  29.510  28.975  1.00  0.00     0.037 A 
ATOM     60  C   UNL A   1      40.392  33.141  31.113  1.00  0.00     0.049 A 
ATOM     61  C   UNL A   1      45.220  31.012  28.919  1.00  0.00     0.074 A 
ATOM     62  C   UNL A   1      41.215  32.963  32.207  1.00  0.00     0.029 A 
ATOM     63  N   UNL A   1      41.179  33.478  30.037  1.00  0.00    -0.354 N 
ATOM     64  N   UNL A   1      44.214  31.694  29.391  1.00  0.00    -0.248 NA
ATOM     65  C   UNL A   1      46.240  31.865  28.316  1.00  0.00     0.031 C 
ATOM     66  C   UNL A   1      42.541  33.153  31.764  1.00  0.00     0.029 A 
ATOM     67  C   UNL A   1      42.495  33.521  30.431  1.00  0.00     0.049 A 
ATOM     68  H   UNL A   1      40.851  33.660  29.126  1.00  0.00     0.167 HD
ATOM     69  C   UNL A   1      44.418  33.029  29.148  1.00  0.00     0.074 A 
ATOM     70  C   UNL A   1      45.706  33.086  28.492  1.00  0.00     0.031 C 
ATOM     71  C   UNL A   1      43.498  33.973  29.498  1.00  0.00     0.037 A 
BRANCH  58  72
ATOM     72  C   UNL A   1      37.774  33.229  31.360  1.00  0.00     0.064 A 
ATOM     73  C   UNL A   1      37.389  33.017  32.695  1.00  0.00     0.173 A 
ATOM     74  C   UNL A   1      36.794  33.833  30.540  1.00  0.00     0.173 A 
ATOM     75  F   UNL A   1      38.255  32.525  33.590  1.00  0.00    -0.203 F 
ATOM     76  C   UNL A   1      36.084  33.254  33.141  1.00  0.00     0.198 A 
ATOM     77  C   UNL A   1      35.469  34.005  30.967  1.00  0.00     0.198 A 
ATOM     78  F   UNL A   1      37.086  34.202  29.281  1.00  0.00    -0.203 F 
ATOM     79  F   UNL A   1      35.762  33.002  34.417  1.00  0.00    -0.200 F 
ATOM     80  C   UNL A   1      35.112  33.700  32.265  1.00  0.00     0.200 A 
ATOM     81  F   UNL A   1      34.529  34.419  30.102  1.00  0.00    -0.200 F 
ATOM     82  F   UNL A   1      33.841  33.828  32.672  1.00  0.00    -0.200 F 
ENDBRANCH  58  72
BRANCH  59  83
ATOM     83  C   UNL A   1      45.639  28.616  27.824  1.00  0.00     0.064 A 
ATOM     84  C   UNL A   1      46.674  27.668  27.971  1.00  0.00     0.173 A 
ATOM     85  C   UNL A   1      44.791  28.469  26.717  1.00  0.00     0.173 A 
ATOM     86  F   UNL A   1      47.521  27.753  29.010  1.00  0.00    -0.203 F 
ATOM     87  C   UNL A   1      46.786  26.568  27.122  1.00  0.00     0.198 A 
ATOM     88  C   UNL A   1      44.918  27.373  25.854  1.00  0.00     0.198 A 
ATOM     89  F   UNL A   1      43.780  29.325  26.515  1.00  0.00    -0.203 F 
ATOM     90  F   UNL A   1      47.702  25.621  27.372  1.00  0.00    -0.200 F 
ATOM     91  C   UNL A   1      45.899  26.413  26.072  1.00  0.00     0.200 A 
ATOM     92  F   UNL A   1      44.032  27.191  24.864  1.00  0.00    -0.200 F 
ATOM     93  F   UNL A   1      45.941  25.305  25.318  1.00  0.00    -0.200 F 
ENDBRANCH  59  83
BRANCH  71  94
ATOM     94  C   UNL A   1      43.427  35.418  29.059  1.00  0.00     0.064 A 
ATOM     95  C   UNL A   1      42.909  35.836  27.827  1.00  0.00     0.173 A 
ATOM     96  C   UNL A   1      43.712  36.462  29.984  1.00  0.00     0.173 A 
ATOM     97  F   UNL A   1      42.500  34.957  26.906  1.00  0.00    -0.203 F 
ATOM     98  C   UNL A   1      42.729  37.189  27.525  1.00  0.00     0.198 A 
ATOM     99  C   UNL A   1      43.458  37.802  29.707  1.00  0.00     0.198 A 
ATOM    100  F   UNL A   1      44.211  36.212  31.204  1.00  0.00    -0.203 F 
ATOM    101  F   UNL A   1      42.268  37.539  26.317  1.00  0.00    -0.200 F 
ATOM    102  C   UNL A   1      42.981  38.168  28.469  1.00  0.00     0.200 A 
ATOM    103  F   UNL A   1      43.655  38.728  30.656  1.00  0.00    -0.200 F 
ATOM    104  F   UNL A   1      42.747  39.458  28.192  1.00  0.00    -0.200 F 
ENDBRANCH  71  94
ENDBRANCH  45  46
ENDBRANCH  38  40
ENDBRANCH  37  38
ENDBRANCH  36  37
ENDBRANCH  35  36
ENDBRANCH  34  35
ENDBRANCH  33  34
ENDBRANCH   1  33
TORSDOF 19
ENDMDL
MODEL 3
REMARK VINA RESULT:     -13.9      4.070     10.576
REMARK SMILES Cc1ccc([C@@]23C[C@@H]4C[C@@H](C[C@@](C(=O)N5CCC(C(=O)OCCOCCOCCOC(=O)c6ccc(-c7c8nc(c(-c9c(F)c(F)c(F)c(F)c9F)c9ccc([nH]9)c(-c9c(F)c(F)c(F)c(F)c9F)c9nc(c(-c%10c(F)c(F)c(F)c(F)c%10F)c%10ccc7[nH]%10)C=C9)C=C8)cc6)CC5)(C4)C2)C3)cc1
REMARK SMILES IDX 25 1 24 2 23 3 22 4 21 5 19 6 20 7 18 8 13 9 14 10 15 11
REMARK SMILES IDX 16 12 97 13 17 14 96 15 12 16 6 17 7 18 99 19 100 20 8 21
REMARK SMILES IDX 10 22 9 23 98 24 11 25 5 26 1 27 2 28 3 29 102 30 4 31
REMARK SMILES IDX 101 32 26 33 27 34 28 35 29 36 30 37 31 38 32 39 33 40 34 41
REMARK SMILES IDX 95 42 35 43 94 44 36 45 37 46 38 47 88 48 39 49 93 50 87 51
REMARK SMILES IDX 89 52 40 53 92 54 86 55 85 56 41 58 73 59 53 60 72 61 54 62
REMARK SMILES IDX 57 63 71 64 90 65 55 66 56 67 70 69 91 70 58 71 42 72 43 73
REMARK SMILES IDX 51 74 44 75 45 76 49 77 52 78 46 79 47 80 50 81 48 82 74 83
REMARK SMILES IDX 75 84 83 85 76 86 77 87 81 88 84 89 78 90 79 91 82 92 80 93
REMARK SMILES IDX 59 94 60 95 68 96 61 97 62 98 66 99 69 100 63 101 64 102
REMARK SMILES IDX 67 103 65 104
REMARK H PARENT 89 57 57 68
REMARK Flexibility Score: inf
ROOT
ATOM      1  C   UNL A   1      33.638  33.141  28.188  1.00  0.00     0.188 C 
ENDROOT
BRANCH   1   2
ATOM      2  O   UNL A   1      32.764  32.215  27.528  1.00  0.00    -0.376 OA
BRANCH   2   3
ATOM      3  C   UNL A   1      33.086  30.851  27.265  1.00  0.00     0.202 C 
BRANCH   3   4
ATOM      4  C   UNL A   1      32.255  29.648  26.452  1.00  0.00     0.261 C 
BRANCH   4   5
ATOM      5  O   UNL A   1      31.348  29.484  24.920  1.00  0.00    -0.463 OA
BRANCH   5   6
ATOM      6  C   UNL A   1      30.966  28.561  23.887  1.00  0.00     0.309 C 
ATOM      7  O   UNL A   1      29.859  28.315  23.391  1.00  0.00    -0.252 OA
BRANCH   6   8
ATOM      8  C   UNL A   1      31.906  27.721  23.140  1.00  0.00     0.103 C 
ATOM      9  C   UNL A   1      32.588  24.149  23.288  1.00  0.00     0.228 C 
ATOM     10  O   UNL A   1      31.480  23.614  23.245  1.00  0.00    -0.274 OA
ATOM     11  N   UNL A   1      32.905  25.270  22.509  1.00  0.00    -0.342 N 
ATOM     12  C   UNL A   1      31.911  25.728  21.566  1.00  0.00     0.120 C 
ATOM     13  C   UNL A   1      33.828  26.336  22.926  1.00  0.00     0.120 C 
ATOM     14  C   UNL A   1      31.049  26.722  22.305  1.00  0.00     0.037 C 
ATOM     15  C   UNL A   1      33.070  27.209  23.903  1.00  0.00     0.037 C 
BRANCH   9  16
ATOM     16  C   UNL A   1      33.715  23.579  24.145  1.00  0.00     0.051 C 
ATOM     17  C   UNL A   1      34.437  21.282  25.011  1.00  0.00    -0.003 C 
ATOM     18  C   UNL A   1      35.799  21.560  24.305  1.00  0.00     0.015 C 
ATOM     19  C   UNL A   1      33.356  22.099  24.312  1.00  0.00     0.028 C 
ATOM     20  C   UNL A   1      34.503  21.864  26.447  1.00  0.00     0.015 C 
ATOM     21  C   UNL A   1      36.170  23.057  24.340  1.00  0.00    -0.009 C 
ATOM     22  C   UNL A   1      34.806  23.388  26.412  1.00  0.00    -0.009 C 
ATOM     23  C   UNL A   1      36.187  23.592  25.770  1.00  0.00     0.007 C 
ATOM     24  C   UNL A   1      35.120  23.834  23.560  1.00  0.00     0.020 C 
ATOM     25  C   UNL A   1      33.742  24.151  25.580  1.00  0.00     0.020 C 
BRANCH  17  26
ATOM     26  C   UNL A   1      34.072  19.786  24.923  1.00  0.00    -0.042 A 
ATOM     27  C   UNL A   1      33.134  15.544  25.000  1.00  0.00     0.044 C 
ATOM     28  C   UNL A   1      33.434  17.010  24.966  1.00  0.00    -0.051 A 
ATOM     29  C   UNL A   1      34.711  17.428  24.615  1.00  0.00     0.004 A 
ATOM     30  C   UNL A   1      32.475  17.977  25.284  1.00  0.00     0.004 A 
ATOM     31  C   UNL A   1      35.015  18.787  24.579  1.00  0.00     0.004 A 
ATOM     32  C   UNL A   1      32.789  19.345  25.264  1.00  0.00     0.004 A 
ENDBRANCH  17  26
ENDBRANCH   9  16
ENDBRANCH   6   8
ENDBRANCH   5   6
ENDBRANCH   4   5
ENDBRANCH   3   4
ENDBRANCH   2   3
ENDBRANCH   1   2
BRANCH   1  33
ATOM     33  C   UNL A   1      33.255  34.608  28.351  1.00  0.00     0.188 C 
BRANCH  33  34
ATOM     34  O   UNL A   1      32.627  34.800  29.605  1.00  0.00    -0.376 OA
BRANCH  34  35
ATOM     35  C   UNL A   1      32.824  36.070  30.200  1.00  0.00     0.202 C 
BRANCH  35  36
ATOM     36  C   UNL A   1      33.381  35.949  31.626  1.00  0.00     0.261 C 
BRANCH  36  37
ATOM     37  O   UNL A   1      33.856  34.601  31.872  1.00  0.00    -0.460 OA
BRANCH  37  38
ATOM     38  C   UNL A   1      35.204  34.440  32.087  1.00  0.00     0.338 C 
ATOM     39  O   UNL A   1      35.899  35.197  32.746  1.00  0.00    -0.246 OA
BRANCH  38  40
ATOM     40  C   UNL A   1      35.740  33.368  31.182  1.00  0.00     0.060 A 
ATOM     41  C   UNL A   1      36.073  32.062  31.566  1.00  0.00     0.016 A 
ATOM     42  C   UNL A   1      36.314  33.805  30.043  1.00  0.00     0.016 A 
ATOM     43  C   UNL A   1      37.189  31.335  30.960  1.00  0.00     0.010 A 
ATOM     44  C   UNL A   1      37.525  33.201  29.717  1.00  0.00     0.010 A 
ATOM     45  C   UNL A   1      38.118  31.940  30.098  1.00  0.00    -0.014 A 
BRANCH  45  46
ATOM     46  C   UNL A   1      39.720  31.256  29.682  1.00  0.00     0.031 A 
ATOM     47  C   UNL A   1      40.239  29.750  28.813  1.00  0.00     0.074 A 
ATOM     48  C   UNL A   1      40.767  31.746  30.388  1.00  0.00     0.049 A 
ATOM     49  N   UNL A   1      41.142  28.891  29.282  1.00  0.00    -0.248 NA
ATOM     50  C   UNL A   1      39.635  29.021  27.616  1.00  0.00     0.031 C 
ATOM     51  C   UNL A   1      42.168  31.363  30.267  1.00  0.00     0.029 A 
ATOM     52  N   UNL A   1      40.742  32.598  31.501  1.00  0.00    -0.354 N 
ATOM     53  C   UNL A   1      41.176  27.727  28.482  1.00  0.00     0.074 A 
ATOM     54  C   UNL A   1      40.155  27.820  27.536  1.00  0.00     0.031 C 
ATOM     55  C   UNL A   1      42.798  31.686  31.406  1.00  0.00     0.029 A 
ATOM     56  C   UNL A   1      41.800  32.196  32.327  1.00  0.00     0.049 A 
ATOM     57  H   UNL A   1      40.106  33.331  31.670  1.00  0.00     0.167 HD
ATOM     58  C   UNL A   1      42.095  26.730  28.515  1.00  0.00     0.037 A 
ATOM     59  C   UNL A   1      41.633  31.827  33.625  1.00  0.00     0.037 A 
ATOM     60  C   UNL A   1      43.070  27.029  29.503  1.00  0.00     0.049 A 
ATOM     61  C   UNL A   1      42.296  30.517  33.963  1.00  0.00     0.074 A 
ATOM     62  C   UNL A   1      44.154  27.882  29.462  1.00  0.00     0.029 A 
ATOM     63  N   UNL A   1      42.734  26.829  30.821  1.00  0.00    -0.354 N 
ATOM     64  N   UNL A   1      42.587  29.597  33.087  1.00  0.00    -0.248 NA
ATOM     65  C   UNL A   1      42.674  30.136  35.321  1.00  0.00     0.031 C 
ATOM     66  C   UNL A   1      44.449  28.244  30.793  1.00  0.00     0.029 A 
ATOM     67  C   UNL A   1      43.593  27.542  31.624  1.00  0.00     0.049 A 
ATOM     68  H   UNL A   1      41.993  26.264  31.141  1.00  0.00     0.167 HD
ATOM     69  C   UNL A   1      43.148  28.522  33.728  1.00  0.00     0.074 A 
ATOM     70  C   UNL A   1      43.200  28.915  35.119  1.00  0.00     0.031 C 
ATOM     71  C   UNL A   1      43.512  27.392  33.056  1.00  0.00     0.037 A 
BRANCH  58  72
ATOM     72  C   UNL A   1      42.236  25.757  27.356  1.00  0.00     0.064 A 
ATOM     73  C   UNL A   1      41.562  24.524  27.397  1.00  0.00     0.173 A 
ATOM     74  C   UNL A   1      43.147  25.909  26.286  1.00  0.00     0.173 A 
ATOM     75  F   UNL A   1      40.616  24.289  28.315  1.00  0.00    -0.203 F 
ATOM     76  C   UNL A   1      41.876  23.474  26.527  1.00  0.00     0.198 A 
ATOM     77  C   UNL A   1      43.513  24.836  25.460  1.00  0.00     0.198 A 
ATOM     78  F   UNL A   1      43.756  27.087  26.068  1.00  0.00    -0.203 F 
ATOM     79  F   UNL A   1      41.225  22.308  26.632  1.00  0.00    -0.200 F 
ATOM     80  C   UNL A   1      42.886  23.613  25.593  1.00  0.00     0.200 A 
ATOM     81  F   UNL A   1      44.509  24.976  24.572  1.00  0.00    -0.200 F 
ATOM     82  F   UNL A   1      43.252  22.572  24.832  1.00  0.00    -0.200 F 
ENDBRANCH  58  72
BRANCH  59  83
ATOM     83  C   UNL A   1      40.435  32.397  34.306  1.00  0.00     0.064 A 
ATOM     84  C   UNL A   1      40.501  33.721  34.790  1.00  0.00     0.173 A 
ATOM     85  C   UNL A   1      39.167  31.803  34.242  1.00  0.00     0.173 A 
ATOM     86  F   UNL A   1      41.687  34.347  34.876  1.00  0.00    -0.203 F 
ATOM     87  C   UNL A   1      39.352  34.451  35.087  1.00  0.00     0.198 A 
ATOM     88  C   UNL A   1      38.014  32.534  34.560  1.00  0.00     0.198 A 
ATOM     89  F   UNL A   1      39.022  30.552  33.786  1.00  0.00    -0.203 F 
ATOM     90  F   UNL A   1      39.450  35.747  35.419  1.00  0.00    -0.200 F 
ATOM     91  C   UNL A   1      38.107  33.862  34.958  1.00  0.00     0.200 A 
ATOM     92  F   UNL A   1      36.803  31.985  34.391  1.00  0.00    -0.200 F 
ATOM     93  F   UNL A   1      36.998  34.592  35.144  1.00  0.00    -0.200 F 
ENDBRANCH  59  83
BRANCH  71  94
ATOM     94  C   UNL A   1      43.866  26.037  33.626  1.00  0.00     0.064 A 
ATOM     95  C   UNL A   1      45.122  25.434  33.484  1.00  0.00     0.173 A 
ATOM     96  C   UNL A   1      42.975  25.383  34.523  1.00  0.00     0.173 A 
ATOM     97  F   UNL A   1      46.090  25.998  32.754  1.00  0.00    -0.203 F 
ATOM     98  C   UNL A   1      45.448  24.249  34.151  1.00  0.00     0.198 A 
ATOM     99  C   UNL A   1      43.333  24.247  35.243  1.00  0.00     0.198 A 
ATOM    100  F   UNL A   1      41.739  25.847  34.761  1.00  0.00    -0.203 F 
ATOM    101  F   UNL A   1      46.649  23.689  33.949  1.00  0.00    -0.200 F 
ATOM    102  C   UNL A   1      44.566  23.670  35.044  1.00  0.00     0.200 A 
ATOM    103  F   UNL A   1      42.485  23.736  36.147  1.00  0.00    -0.200 F 
ATOM    104  F   UNL A   1      44.912  22.568  35.725  1.00  0.00    -0.200 F 
ENDBRANCH  71  94
ENDBRANCH  45  46
ENDBRANCH  38  40
ENDBRANCH  37  38
ENDBRANCH  36  37
ENDBRANCH  35  36
ENDBRANCH  34  35
ENDBRANCH  33  34
ENDBRANCH   1  33
TORSDOF 19
ENDMDL
