MODEL 1
REMARK VINA RESULT:     -11.5      0.000      0.000
REMARK SMILES Cc1cc(C)c(S(=O)(=O)Nc2ccc(N3CC[NH+](C)CC3)c(C(=O)OCCOCCOCCOC(=O)c3ccc(-c4c5nc(c(-c6c(F)c(F)c(F)c(F)c6F)c6ccc([nH]6)c(-c6c(F)c(F)c(F)c(F)c6F)c6nc(c(-c7c(F)c(F)c(F)c(F)c7F)c7ccc4[nH]7)C=C6)C=C5)cc3)c2)c(C)c1
REMARK SMILES IDX 29 1 28 2 27 3 26 4 25 5 23 6 24 7 22 8 11 9 12 10 100 11
REMARK SMILES IDX 13 12 14 13 10 14 7 16 8 17 9 18 6 19 1 20 2 21 3 22 103 23
REMARK SMILES IDX 4 24 101 25 5 26 102 27 15 28 16 29 21 30 17 31 20 32 18 33
REMARK SMILES IDX 19 34 30 36 31 37 32 38 33 39 34 40 35 41 36 42 37 43 38 44
REMARK SMILES IDX 99 45 39 46 98 47 40 48 41 49 42 50 92 51 43 52 97 53 91 54
REMARK SMILES IDX 93 55 44 56 96 57 90 58 89 59 45 61 77 62 57 63 76 64 58 65
REMARK SMILES IDX 61 66 75 67 94 68 59 69 60 70 74 72 95 73 62 74 46 75 47 76
REMARK SMILES IDX 55 77 48 78 49 79 53 80 56 81 50 82 51 83 54 84 52 85 78 86
REMARK SMILES IDX 79 87 87 88 80 89 81 90 85 91 88 92 82 93 83 94 86 95 84 96
REMARK SMILES IDX 63 97 64 98 72 99 65 100 66 101 70 102 73 103 67 104 68 105
REMARK SMILES IDX 71 106 69 107
REMARK H PARENT 10 15 18 35 93 60 61 71
REMARK Flexibility Score: inf
ROOT
ATOM      1  C   UNL A   1      39.869  22.680  26.404  1.00  0.00     0.188 C 
ENDROOT
BRANCH   1   2
ATOM      2  O   UNL A   1      38.519  22.260  26.390  1.00  0.00    -0.376 OA
BRANCH   2   3
ATOM      3  C   UNL A   1      38.117  21.383  25.355  1.00  0.00     0.202 C 
BRANCH   3   4
ATOM      4  C   UNL A   1      37.174  21.914  24.263  1.00  0.00     0.261 C 
BRANCH   4   5
ATOM      5  O   UNL A   1      35.868  22.290  24.712  1.00  0.00    -0.460 OA
BRANCH   5   6
ATOM      6  C   UNL A   1      35.136  23.126  23.940  1.00  0.00     0.340 C 
ATOM      7  O   UNL A   1      35.219  23.230  22.726  1.00  0.00    -0.246 OA
BRANCH   6   8
ATOM      8  C   UNL A   1      34.186  23.866  24.822  1.00  0.00     0.085 A 
ATOM      9  C   UNL A   1      33.584  25.988  25.786  1.00  0.00     0.050 A 
ATOM     10  C   UNL A   1      32.369  25.448  26.214  1.00  0.00     0.029 A 
ATOM     11  C   UNL A   1      34.551  25.160  25.236  1.00  0.00     0.044 A 
ATOM     12  C   UNL A   1      32.040  24.135  25.892  1.00  0.00     0.029 A 
ATOM     13  C   UNL A   1      32.912  23.344  25.136  1.00  0.00     0.052 A 
BRANCH   9  14
ATOM     14  N   UNL A   1      33.662  27.403  25.763  1.00  0.00    -0.280 N 
ATOM     15  H   UNL A   1      33.899  27.849  26.608  1.00  0.00     0.180 HD
BRANCH  14  16
ATOM     16  S   UNL A   1      33.388  28.391  24.438  1.00  0.00     0.262 S 
ATOM     17  O   UNL A   1      34.011  27.708  23.321  1.00  0.00    -0.201 OA
ATOM     18  O   UNL A   1      33.834  29.706  24.849  1.00  0.00    -0.201 OA
BRANCH  16  19
ATOM     19  C   UNL A   1      31.630  28.551  24.037  1.00  0.00     0.093 A 
ATOM     20  C   UNL A   1      28.152  30.105  21.998  1.00  0.00     0.044 C 
ATOM     21  C   UNL A   1      29.319  29.534  22.747  1.00  0.00    -0.051 A 
ATOM     22  C   UNL A   1      29.860  30.216  23.834  1.00  0.00     0.008 A 
ATOM     23  C   UNL A   1      29.821  28.265  22.448  1.00  0.00     0.008 A 
ATOM     24  C   UNL A   1      30.998  29.729  24.500  1.00  0.00    -0.030 A 
ATOM     25  C   UNL A   1      30.951  27.735  23.111  1.00  0.00    -0.030 A 
ATOM     26  C   UNL A   1      31.388  30.436  25.774  1.00  0.00     0.046 C 
ATOM     27  C   UNL A   1      31.247  26.283  22.863  1.00  0.00     0.046 C 
ENDBRANCH  16  19
ENDBRANCH  14  16
ENDBRANCH   9  14
BRANCH  13  28
ATOM     28  N   UNL A   1      32.515  22.089  24.758  1.00  0.00    -0.360 N 
ATOM     29  C   UNL A   1      32.307  21.054  25.754  1.00  0.00     0.178 C 
ATOM     30  C   UNL A   1      31.989  21.792  23.425  1.00  0.00     0.178 C 
ATOM     31  C   UNL A   1      32.967  19.757  25.243  1.00  0.00     0.283 C 
ATOM     32  C   UNL A   1      32.513  20.404  22.954  1.00  0.00     0.283 C 
ATOM     33  N   UNL A   1      32.367  19.320  23.961  1.00  0.00    -0.334 N 
ATOM     34  C   UNL A   1      33.015  18.093  23.503  1.00  0.00     0.332 C 
ATOM     35  H   UNL A   1      31.374  19.125  24.092  1.00  0.00     0.347 HD
ENDBRANCH  13  28
ENDBRANCH   6   8
ENDBRANCH   5   6
ENDBRANCH   4   5
ENDBRANCH   3   4
ENDBRANCH   2   3
ENDBRANCH   1   2
BRANCH   1  36
ATOM     36  C   UNL A   1      40.863  21.501  26.423  1.00  0.00     0.188 C 
BRANCH  36  37
ATOM     37  O   UNL A   1      41.835  21.370  25.396  1.00  0.00    -0.376 OA
BRANCH  37  38
ATOM     38  C   UNL A   1      43.206  21.406  25.746  1.00  0.00     0.202 C 
BRANCH  38  39
ATOM     39  C   UNL A   1      44.109  22.384  24.984  1.00  0.00     0.261 C 
BRANCH  39  40
ATOM     40  O   UNL A   1      43.533  23.676  24.709  1.00  0.00    -0.460 OA
BRANCH  40  41
ATOM     41  C   UNL A   1      44.263  24.742  25.128  1.00  0.00     0.338 C 
ATOM     42  O   UNL A   1      45.307  25.156  24.651  1.00  0.00    -0.246 OA
BRANCH  41  43
ATOM     43  C   UNL A   1      43.536  25.475  26.191  1.00  0.00     0.060 A 
ATOM     44  C   UNL A   1      43.881  26.812  26.438  1.00  0.00     0.016 A 
ATOM     45  C   UNL A   1      42.573  24.849  26.984  1.00  0.00     0.016 A 
ATOM     46  C   UNL A   1      43.274  27.521  27.482  1.00  0.00     0.010 A 
ATOM     47  C   UNL A   1      41.987  25.551  28.049  1.00  0.00     0.010 A 
ATOM     48  C   UNL A   1      42.345  26.885  28.317  1.00  0.00    -0.014 A 
BRANCH  48  49
ATOM     49  C   UNL A   1      41.834  27.571  29.535  1.00  0.00     0.031 A 
ATOM     50  C   UNL A   1      40.573  28.370  29.457  1.00  0.00     0.074 A 
ATOM     51  C   UNL A   1      42.489  27.513  30.708  1.00  0.00     0.049 A 
ATOM     52  N   UNL A   1      40.005  29.104  30.378  1.00  0.00    -0.248 NA
ATOM     53  C   UNL A   1      39.874  28.359  28.166  1.00  0.00     0.031 C 
ATOM     54  C   UNL A   1      43.725  26.786  30.908  1.00  0.00     0.029 A 
ATOM     55  N   UNL A   1      42.226  28.068  31.938  1.00  0.00    -0.354 N 
ATOM     56  C   UNL A   1      38.895  29.669  29.772  1.00  0.00     0.074 A 
ATOM     57  C   UNL A   1      38.871  29.191  28.404  1.00  0.00     0.031 C 
ATOM     58  C   UNL A   1      44.107  26.898  32.187  1.00  0.00     0.029 A 
ATOM     59  C   UNL A   1      43.186  27.787  32.881  1.00  0.00     0.049 A 
ATOM     60  H   UNL A   1      41.428  28.613  32.125  1.00  0.00     0.167 HD
ATOM     61  C   UNL A   1      37.990  30.521  30.308  1.00  0.00     0.037 A 
ATOM     62  C   UNL A   1      43.348  28.229  34.144  1.00  0.00     0.037 A 
ATOM     63  C   UNL A   1      38.030  31.013  31.661  1.00  0.00     0.049 A 
ATOM     64  C   UNL A   1      42.357  29.209  34.702  1.00  0.00     0.074 A 
ATOM     65  C   UNL A   1      37.131  31.851  32.298  1.00  0.00     0.029 A 
ATOM     66  N   UNL A   1      39.032  30.734  32.581  1.00  0.00    -0.354 N 
ATOM     67  N   UNL A   1      41.289  29.711  34.134  1.00  0.00    -0.248 NA
ATOM     68  C   UNL A   1      42.602  29.706  36.063  1.00  0.00     0.031 C 
ATOM     69  C   UNL A   1      37.621  32.132  33.578  1.00  0.00     0.029 A 
ATOM     70  C   UNL A   1      38.794  31.418  33.766  1.00  0.00     0.049 A 
ATOM     71  H   UNL A   1      39.799  30.140  32.417  1.00  0.00     0.167 HD
ATOM     72  C   UNL A   1      40.735  30.582  35.060  1.00  0.00     0.074 A 
ATOM     73  C   UNL A   1      41.570  30.518  36.244  1.00  0.00     0.031 C 
ATOM     74  C   UNL A   1      39.639  31.368  34.933  1.00  0.00     0.037 A 
BRANCH  61  75
ATOM     75  C   UNL A   1      36.915  31.025  29.393  1.00  0.00     0.064 A 
ATOM     76  C   UNL A   1      36.943  32.321  28.857  1.00  0.00     0.173 A 
ATOM     77  C   UNL A   1      35.833  30.198  29.059  1.00  0.00     0.173 A 
ATOM     78  F   UNL A   1      37.947  33.157  29.162  1.00  0.00    -0.203 F 
ATOM     79  C   UNL A   1      35.905  32.783  28.053  1.00  0.00     0.198 A 
ATOM     80  C   UNL A   1      34.815  30.652  28.228  1.00  0.00     0.198 A 
ATOM     81  F   UNL A   1      35.760  28.949  29.546  1.00  0.00    -0.203 F 
ATOM     82  F   UNL A   1      35.920  34.046  27.605  1.00  0.00    -0.200 F 
ATOM     83  C   UNL A   1      34.845  31.947  27.735  1.00  0.00     0.200 A 
ATOM     84  F   UNL A   1      33.796  29.840  27.914  1.00  0.00    -0.200 F 
ATOM     85  F   UNL A   1      33.846  32.394  26.963  1.00  0.00    -0.200 F 
ENDBRANCH  61  75
BRANCH  62  86
ATOM     86  C   UNL A   1      44.529  27.794  34.939  1.00  0.00     0.064 A 
ATOM     87  C   UNL A   1      44.446  26.724  35.839  1.00  0.00     0.173 A 
ATOM     88  C   UNL A   1      45.772  28.434  34.805  1.00  0.00     0.173 A 
ATOM     89  F   UNL A   1      43.276  26.098  36.029  1.00  0.00    -0.203 F 
ATOM     90  C   UNL A   1      45.557  26.314  36.578  1.00  0.00     0.198 A 
ATOM     91  C   UNL A   1      46.890  28.001  35.516  1.00  0.00     0.198 A 
ATOM     92  F   UNL A   1      45.908  29.470  33.962  1.00  0.00    -0.203 F 
ATOM     93  F   UNL A   1      45.440  25.313  37.461  1.00  0.00    -0.200 F 
ATOM     94  C   UNL A   1      46.780  26.946  36.407  1.00  0.00     0.200 A 
ATOM     95  F   UNL A   1      48.072  28.605  35.334  1.00  0.00    -0.200 F 
ATOM     96  F   UNL A   1      47.850  26.542  37.105  1.00  0.00    -0.200 F 
ENDBRANCH  62  86
BRANCH  74  97
ATOM     97  C   UNL A   1      39.270  32.226  36.109  1.00  0.00     0.064 A 
ATOM     98  C   UNL A   1      39.807  33.512  36.278  1.00  0.00     0.173 A 
ATOM     99  C   UNL A   1      38.339  31.775  37.057  1.00  0.00     0.173 A 
ATOM    100  F   UNL A   1      40.717  33.983  35.412  1.00  0.00    -0.203 F 
ATOM    101  C   UNL A   1      39.438  34.306  37.362  1.00  0.00     0.198 A 
ATOM    102  C   UNL A   1      37.950  32.582  38.122  1.00  0.00     0.198 A 
ATOM    103  F   UNL A   1      37.795  30.554  36.942  1.00  0.00    -0.203 F 
ATOM    104  F   UNL A   1      39.997  35.512  37.527  1.00  0.00    -0.200 F 
ATOM    105  C   UNL A   1      38.505  33.843  38.278  1.00  0.00     0.200 A 
ATOM    106  F   UNL A   1      37.038  32.139  38.998  1.00  0.00    -0.200 F 
ATOM    107  F   UNL A   1      38.144  34.612  39.314  1.00  0.00    -0.200 F 
ENDBRANCH  74  97
ENDBRANCH  48  49
ENDBRANCH  41  43
ENDBRANCH  40  41
ENDBRANCH  39  40
ENDBRANCH  38  39
ENDBRANCH  37  38
ENDBRANCH  36  37
ENDBRANCH   1  36
TORSDOF 21
ENDMDL
MODEL 2
REMARK VINA RESULT:     -11.3      4.195      8.436
REMARK SMILES Cc1cc(C)c(S(=O)(=O)Nc2ccc(N3CC[NH+](C)CC3)c(C(=O)OCCOCCOCCOC(=O)c3ccc(-c4c5nc(c(-c6c(F)c(F)c(F)c(F)c6F)c6ccc([nH]6)c(-c6c(F)c(F)c(F)c(F)c6F)c6nc(c(-c7c(F)c(F)c(F)c(F)c7F)c7ccc4[nH]7)C=C6)C=C5)cc3)c2)c(C)c1
REMARK SMILES IDX 29 1 28 2 27 3 26 4 25 5 23 6 24 7 22 8 11 9 12 10 100 11
REMARK SMILES IDX 13 12 14 13 10 14 7 16 8 17 9 18 6 19 1 20 2 21 3 22 103 23
REMARK SMILES IDX 4 24 101 25 5 26 102 27 15 28 16 29 21 30 17 31 20 32 18 33
REMARK SMILES IDX 19 34 30 36 31 37 32 38 33 39 34 40 35 41 36 42 37 43 38 44
REMARK SMILES IDX 99 45 39 46 98 47 40 48 41 49 42 50 92 51 43 52 97 53 91 54
REMARK SMILES IDX 93 55 44 56 96 57 90 58 89 59 45 61 77 62 57 63 76 64 58 65
REMARK SMILES IDX 61 66 75 67 94 68 59 69 60 70 74 72 95 73 62 74 46 75 47 76
REMARK SMILES IDX 55 77 48 78 49 79 53 80 56 81 50 82 51 83 54 84 52 85 78 86
REMARK SMILES IDX 79 87 87 88 80 89 81 90 85 91 88 92 82 93 83 94 86 95 84 96
REMARK SMILES IDX 63 97 64 98 72 99 65 100 66 101 70 102 73 103 67 104 68 105
REMARK SMILES IDX 71 106 69 107
REMARK H PARENT 10 15 18 35 93 60 61 71
REMARK Flexibility Score: inf
ROOT
ATOM      1  C   UNL A   1      36.731  22.408  23.781  1.00  0.00     0.188 C 
ENDROOT
BRANCH   1   2
ATOM      2  O   UNL A   1      35.652  23.244  24.153  1.00  0.00    -0.376 OA
BRANCH   2   3
ATOM      3  C   UNL A   1      35.741  23.912  25.397  1.00  0.00     0.202 C 
BRANCH   3   4
ATOM      4  C   UNL A   1      34.596  23.743  26.409  1.00  0.00     0.261 C 
BRANCH   4   5
ATOM      5  O   UNL A   1      34.110  22.405  26.564  1.00  0.00    -0.460 OA
BRANCH   5   6
ATOM      6  C   UNL A   1      32.772  22.206  26.592  1.00  0.00     0.340 C 
ATOM      7  O   UNL A   1      32.077  22.183  27.596  1.00  0.00    -0.246 OA
BRANCH   6   8
ATOM      8  C   UNL A   1      32.290  22.061  25.187  1.00  0.00     0.085 A 
ATOM      9  C   UNL A   1      31.443  23.182  23.233  1.00  0.00     0.050 A 
ATOM     10  C   UNL A   1      31.616  22.013  22.488  1.00  0.00     0.029 A 
ATOM     11  C   UNL A   1      31.628  23.158  24.607  1.00  0.00     0.044 A 
ATOM     12  C   UNL A   1      32.183  20.889  23.080  1.00  0.00     0.029 A 
ATOM     13  C   UNL A   1      32.589  20.914  24.420  1.00  0.00     0.052 A 
BRANCH   9  14
ATOM     14  N   UNL A   1      31.282  24.377  22.487  1.00  0.00    -0.280 N 
ATOM     15  H   UNL A   1      30.401  24.526  22.072  1.00  0.00     0.180 HD
BRANCH  14  16
ATOM     16  S   UNL A   1      32.443  25.558  22.242  1.00  0.00     0.262 S 
ATOM     17  O   UNL A   1      32.172  26.087  20.920  1.00  0.00    -0.201 OA
ATOM     18  O   UNL A   1      33.705  24.914  22.542  1.00  0.00    -0.201 OA
BRANCH  16  19
ATOM     19  C   UNL A   1      32.288  26.941  23.400  1.00  0.00     0.093 A 
ATOM     20  C   UNL A   1      32.430  28.949  27.223  1.00  0.00     0.044 C 
ATOM     21  C   UNL A   1      32.352  28.305  25.871  1.00  0.00    -0.051 A 
ATOM     22  C   UNL A   1      31.234  27.558  25.510  1.00  0.00     0.008 A 
ATOM     23  C   UNL A   1      33.337  28.526  24.905  1.00  0.00     0.008 A 
ATOM     24  C   UNL A   1      31.178  26.889  24.276  1.00  0.00    -0.030 A 
ATOM     25  C   UNL A   1      33.302  27.886  23.645  1.00  0.00    -0.030 A 
ATOM     26  C   UNL A   1      29.854  26.269  23.904  1.00  0.00     0.046 C 
ATOM     27  C   UNL A   1      34.285  28.381  22.621  1.00  0.00     0.046 C 
ENDBRANCH  16  19
ENDBRANCH  14  16
ENDBRANCH   9  14
BRANCH  13  28
ATOM     28  N   UNL A   1      33.228  19.821  24.942  1.00  0.00    -0.360 N 
ATOM     29  C   UNL A   1      34.647  19.621  24.710  1.00  0.00     0.178 C 
ATOM     30  C   UNL A   1      32.638  18.980  25.983  1.00  0.00     0.178 C 
ATOM     31  C   UNL A   1      34.867  18.142  24.331  1.00  0.00     0.283 C 
ATOM     32  C   UNL A   1      32.987  17.488  25.711  1.00  0.00     0.283 C 
ATOM     33  N   UNL A   1      34.424  17.239  25.418  1.00  0.00    -0.334 N 
ATOM     34  C   UNL A   1      34.642  15.848  25.027  1.00  0.00     0.332 C 
ATOM     35  H   UNL A   1      34.967  17.421  26.263  1.00  0.00     0.347 HD
ENDBRANCH  13  28
ENDBRANCH   6   8
ENDBRANCH   5   6
ENDBRANCH   4   5
ENDBRANCH   3   4
ENDBRANCH   2   3
ENDBRANCH   1   2
BRANCH   1  36
ATOM     36  C   UNL A   1      37.779  22.248  24.901  1.00  0.00     0.188 C 
BRANCH  36  37
ATOM     37  O   UNL A   1      37.893  21.018  25.600  1.00  0.00    -0.376 OA
BRANCH  37  38
ATOM     38  C   UNL A   1      38.709  19.997  25.054  1.00  0.00     0.202 C 
BRANCH  38  39
ATOM     39  C   UNL A   1      39.636  19.240  26.013  1.00  0.00     0.261 C 
BRANCH  39  40
ATOM     40  O   UNL A   1      40.990  19.057  25.556  1.00  0.00    -0.460 OA
BRANCH  40  41
ATOM     41  C   UNL A   1      41.956  19.279  26.485  1.00  0.00     0.338 C 
ATOM     42  O   UNL A   1      42.724  18.460  26.962  1.00  0.00    -0.246 OA
BRANCH  41  43
ATOM     43  C   UNL A   1      42.079  20.730  26.759  1.00  0.00     0.060 A 
ATOM     44  C   UNL A   1      42.092  21.618  25.673  1.00  0.00     0.016 A 
ATOM     45  C   UNL A   1      42.247  21.218  28.056  1.00  0.00     0.016 A 
ATOM     46  C   UNL A   1      42.282  22.990  25.880  1.00  0.00     0.010 A 
ATOM     47  C   UNL A   1      42.467  22.589  28.259  1.00  0.00     0.010 A 
ATOM     48  C   UNL A   1      42.503  23.482  27.173  1.00  0.00    -0.014 A 
BRANCH  48  49
ATOM     49  C   UNL A   1      42.887  24.905  27.382  1.00  0.00     0.031 A 
ATOM     50  C   UNL A   1      44.271  25.353  27.042  1.00  0.00     0.074 A 
ATOM     51  C   UNL A   1      42.026  25.803  27.894  1.00  0.00     0.049 A 
ATOM     52  N   UNL A   1      44.826  26.524  27.222  1.00  0.00    -0.248 NA
ATOM     53  C   UNL A   1      45.153  24.345  26.442  1.00  0.00     0.031 C 
ATOM     54  C   UNL A   1      40.665  25.490  28.277  1.00  0.00     0.029 A 
ATOM     55  N   UNL A   1      42.156  27.139  28.189  1.00  0.00    -0.354 N 
ATOM     56  C   UNL A   1      46.133  26.388  26.785  1.00  0.00     0.074 A 
ATOM     57  C   UNL A   1      46.287  25.021  26.330  1.00  0.00     0.031 C 
ATOM     58  C   UNL A   1      40.061  26.599  28.723  1.00  0.00     0.029 A 
ATOM     59  C   UNL A   1      41.026  27.689  28.744  1.00  0.00     0.049 A 
ATOM     60  H   UNL A   1      42.979  27.652  28.018  1.00  0.00     0.167 HD
ATOM     61  C   UNL A   1      47.116  27.319  26.780  1.00  0.00     0.037 A 
ATOM     62  C   UNL A   1      40.794  28.911  29.263  1.00  0.00     0.037 A 
ATOM     63  C   UNL A   1      46.966  28.671  27.253  1.00  0.00     0.049 A 
ATOM     64  C   UNL A   1      41.913  29.913  29.288  1.00  0.00     0.074 A 
ATOM     65  C   UNL A   1      47.902  29.691  27.250  1.00  0.00     0.029 A 
ATOM     66  N   UNL A   1      45.818  29.187  27.838  1.00  0.00    -0.354 N 
ATOM     67  N   UNL A   1      43.137  29.788  28.839  1.00  0.00    -0.248 NA
ATOM     68  C   UNL A   1      41.632  31.213  29.911  1.00  0.00     0.031 C 
ATOM     69  C   UNL A   1      47.343  30.803  27.890  1.00  0.00     0.029 A 
ATOM     70  C   UNL A   1      46.036  30.499  28.237  1.00  0.00     0.049 A 
ATOM     71  H   UNL A   1      44.973  28.696  27.953  1.00  0.00     0.167 HD
ATOM     72  C   UNL A   1      43.774  30.986  29.125  1.00  0.00     0.074 A 
ATOM     73  C   UNL A   1      42.791  31.840  29.761  1.00  0.00     0.031 C 
ATOM     74  C   UNL A   1      45.061  31.338  28.889  1.00  0.00     0.037 A 
BRANCH  61  75
ATOM     75  C   UNL A   1      48.464  26.871  26.301  1.00  0.00     0.064 A 
ATOM     76  C   UNL A   1      49.411  26.306  27.169  1.00  0.00     0.173 A 
ATOM     77  C   UNL A   1      48.817  27.024  24.952  1.00  0.00     0.173 A 
ATOM     78  F   UNL A   1      49.128  26.157  28.472  1.00  0.00    -0.203 F 
ATOM     79  C   UNL A   1      50.675  25.949  26.710  1.00  0.00     0.198 A 
ATOM     80  C   UNL A   1      50.070  26.634  24.491  1.00  0.00     0.198 A 
ATOM     81  F   UNL A   1      47.947  27.559  24.081  1.00  0.00    -0.203 F 
ATOM     82  F   UNL A   1      51.587  25.471  27.570  1.00  0.00    -0.200 F 
ATOM     83  C   UNL A   1      51.002  26.108  25.371  1.00  0.00     0.200 A 
ATOM     84  F   UNL A   1      50.380  26.780  23.196  1.00  0.00    -0.200 F 
ATOM     85  F   UNL A   1      52.220  25.765  24.933  1.00  0.00    -0.200 F 
ENDBRANCH  61  75
BRANCH  62  86
ATOM     86  C   UNL A   1      39.465  29.229  29.856  1.00  0.00     0.064 A 
ATOM     87  C   UNL A   1      39.202  29.006  31.213  1.00  0.00     0.173 A 
ATOM     88  C   UNL A   1      38.434  29.776  29.076  1.00  0.00     0.173 A 
ATOM     89  F   UNL A   1      40.141  28.456  31.996  1.00  0.00    -0.203 F 
ATOM     90  C   UNL A   1      37.958  29.310  31.767  1.00  0.00     0.198 A 
ATOM     91  C   UNL A   1      37.204  30.113  29.636  1.00  0.00     0.198 A 
ATOM     92  F   UNL A   1      38.628  30.004  27.768  1.00  0.00    -0.203 F 
ATOM     93  F   UNL A   1      37.719  29.049  33.059  1.00  0.00    -0.200 F 
ATOM     94  C   UNL A   1      36.964  29.874  30.981  1.00  0.00     0.200 A 
ATOM     95  F   UNL A   1      36.253  30.673  28.876  1.00  0.00    -0.200 F 
ATOM     96  F   UNL A   1      35.775  30.181  31.516  1.00  0.00    -0.200 F 
ENDBRANCH  62  86
BRANCH  74  97
ATOM     97  C   UNL A   1      45.486  32.714  29.316  1.00  0.00     0.064 A 
ATOM     98  C   UNL A   1      46.082  32.944  30.565  1.00  0.00     0.173 A 
ATOM     99  C   UNL A   1      45.332  33.808  28.451  1.00  0.00     0.173 A 
ATOM    100  F   UNL A   1      46.233  31.936  31.438  1.00  0.00    -0.203 F 
ATOM    101  C   UNL A   1      46.492  34.222  30.940  1.00  0.00     0.198 A 
ATOM    102  C   UNL A   1      45.769  35.078  28.816  1.00  0.00     0.198 A 
ATOM    103  F   UNL A   1      44.768  33.642  27.245  1.00  0.00    -0.203 F 
ATOM    104  F   UNL A   1      47.018  34.426  32.155  1.00  0.00    -0.200 F 
ATOM    105  C   UNL A   1      46.342  35.285  30.062  1.00  0.00     0.200 A 
ATOM    106  F   UNL A   1      45.636  36.102  27.961  1.00  0.00    -0.200 F 
ATOM    107  F   UNL A   1      46.746  36.512  30.419  1.00  0.00    -0.200 F 
ENDBRANCH  74  97
ENDBRANCH  48  49
ENDBRANCH  41  43
ENDBRANCH  40  41
ENDBRANCH  39  40
ENDBRANCH  38  39
ENDBRANCH  37  38
ENDBRANCH  36  37
ENDBRANCH   1  36
TORSDOF 21
ENDMDL
MODEL 3
REMARK VINA RESULT:     -11.3      1.115      2.055
REMARK SMILES Cc1cc(C)c(S(=O)(=O)Nc2ccc(N3CC[NH+](C)CC3)c(C(=O)OCCOCCOCCOC(=O)c3ccc(-c4c5nc(c(-c6c(F)c(F)c(F)c(F)c6F)c6ccc([nH]6)c(-c6c(F)c(F)c(F)c(F)c6F)c6nc(c(-c7c(F)c(F)c(F)c(F)c7F)c7ccc4[nH]7)C=C6)C=C5)cc3)c2)c(C)c1
REMARK SMILES IDX 29 1 28 2 27 3 26 4 25 5 23 6 24 7 22 8 11 9 12 10 100 11
REMARK SMILES IDX 13 12 14 13 10 14 7 16 8 17 9 18 6 19 1 20 2 21 3 22 103 23
REMARK SMILES IDX 4 24 101 25 5 26 102 27 15 28 16 29 21 30 17 31 20 32 18 33
REMARK SMILES IDX 19 34 30 36 31 37 32 38 33 39 34 40 35 41 36 42 37 43 38 44
REMARK SMILES IDX 99 45 39 46 98 47 40 48 41 49 42 50 92 51 43 52 97 53 91 54
REMARK SMILES IDX 93 55 44 56 96 57 90 58 89 59 45 61 77 62 57 63 76 64 58 65
REMARK SMILES IDX 61 66 75 67 94 68 59 69 60 70 74 72 95 73 62 74 46 75 47 76
REMARK SMILES IDX 55 77 48 78 49 79 53 80 56 81 50 82 51 83 54 84 52 85 78 86
REMARK SMILES IDX 79 87 87 88 80 89 81 90 85 91 88 92 82 93 83 94 86 95 84 96
REMARK SMILES IDX 63 97 64 98 72 99 65 100 66 101 70 102 73 103 67 104 68 105
REMARK SMILES IDX 71 106 69 107
REMARK H PARENT 10 15 18 35 93 60 61 71
REMARK Flexibility Score: inf
ROOT
ATOM      1  C   UNL A   1      39.056  23.502  26.653  1.00  0.00     0.188 C 
ENDROOT
BRANCH   1   2
ATOM      2  O   UNL A   1      37.785  23.157  26.136  1.00  0.00    -0.376 OA
BRANCH   2   3
ATOM      3  C   UNL A   1      37.712  22.041  25.268  1.00  0.00     0.202 C 
BRANCH   3   4
ATOM      4  C   UNL A   1      36.958  22.191  23.937  1.00  0.00     0.261 C 
BRANCH   4   5
ATOM      5  O   UNL A   1      35.534  22.069  24.023  1.00  0.00    -0.460 OA
BRANCH   5   6
ATOM      6  C   UNL A   1      34.771  23.075  23.538  1.00  0.00     0.340 C 
ATOM      7  O   UNL A   1      34.773  23.479  22.386  1.00  0.00    -0.246 OA
BRANCH   6   8
ATOM      8  C   UNL A   1      33.898  23.575  24.642  1.00  0.00     0.085 A 
ATOM      9  C   UNL A   1      33.376  25.409  26.110  1.00  0.00     0.050 A 
ATOM     10  C   UNL A   1      32.205  24.759  26.504  1.00  0.00     0.029 A 
ATOM     11  C   UNL A   1      34.294  24.749  25.307  1.00  0.00     0.044 A 
ATOM     12  C   UNL A   1      31.852  23.546  25.921  1.00  0.00     0.029 A 
ATOM     13  C   UNL A   1      32.659  22.966  24.934  1.00  0.00     0.052 A 
BRANCH   9  14
ATOM     14  N   UNL A   1      33.448  26.794  26.403  1.00  0.00    -0.280 N 
ATOM     15  H   UNL A   1      33.926  27.051  27.225  1.00  0.00     0.180 HD
BRANCH  14  16
ATOM     16  S   UNL A   1      32.797  28.037  25.488  1.00  0.00     0.262 S 
ATOM     17  O   UNL A   1      33.856  29.020  25.377  1.00  0.00    -0.201 OA
ATOM     18  O   UNL A   1      31.542  28.363  26.133  1.00  0.00    -0.201 OA
BRANCH  16  19
ATOM     19  C   UNL A   1      32.384  27.522  23.802  1.00  0.00     0.093 A 
ATOM     20  C   UNL A   1      32.603  25.106  20.226  1.00  0.00     0.044 C 
ATOM     21  C   UNL A   1      32.490  25.988  21.435  1.00  0.00    -0.051 A 
ATOM     22  C   UNL A   1      33.418  27.002  21.655  1.00  0.00     0.008 A 
ATOM     23  C   UNL A   1      31.401  25.889  22.304  1.00  0.00     0.008 A 
ATOM     24  C   UNL A   1      33.367  27.788  22.819  1.00  0.00    -0.030 A 
ATOM     25  C   UNL A   1      31.306  26.679  23.473  1.00  0.00    -0.030 A 
ATOM     26  C   UNL A   1      34.296  28.976  22.872  1.00  0.00     0.046 C 
ATOM     27  C   UNL A   1      29.988  26.644  24.194  1.00  0.00     0.046 C 
ENDBRANCH  16  19
ENDBRANCH  14  16
ENDBRANCH   9  14
BRANCH  13  28
ATOM     28  N   UNL A   1      32.233  21.820  24.315  1.00  0.00    -0.360 N 
ATOM     29  C   UNL A   1      32.088  20.590  25.070  1.00  0.00     0.178 C 
ATOM     30  C   UNL A   1      31.621  21.818  22.987  1.00  0.00     0.178 C 
ATOM     31  C   UNL A   1      32.710  19.445  24.245  1.00  0.00     0.283 C 
ATOM     32  C   UNL A   1      32.108  20.574  22.188  1.00  0.00     0.283 C 
ATOM     33  N   UNL A   1      32.026  19.293  22.939  1.00  0.00    -0.334 N 
ATOM     34  C   UNL A   1      32.639  18.205  22.182  1.00  0.00     0.332 C 
ATOM     35  H   UNL A   1      31.043  19.063  23.088  1.00  0.00     0.347 HD
ENDBRANCH  13  28
ENDBRANCH   6   8
ENDBRANCH   5   6
ENDBRANCH   4   5
ENDBRANCH   3   4
ENDBRANCH   2   3
ENDBRANCH   1   2
BRANCH   1  36
ATOM     36  C   UNL A   1      39.999  22.289  26.780  1.00  0.00     0.188 C 
BRANCH  36  37
ATOM     37  O   UNL A   1      40.941  22.007  25.755  1.00  0.00    -0.376 OA
BRANCH  37  38
ATOM     38  C   UNL A   1      42.275  21.703  26.119  1.00  0.00     0.202 C 
BRANCH  38  39
ATOM     39  C   UNL A   1      43.387  22.592  25.548  1.00  0.00     0.261 C 
BRANCH  39  40
ATOM     40  O   UNL A   1      42.956  23.852  24.999  1.00  0.00    -0.460 OA
BRANCH  40  41
ATOM     41  C   UNL A   1      43.719  24.925  25.330  1.00  0.00     0.338 C 
ATOM     42  O   UNL A   1      44.743  25.301  24.782  1.00  0.00    -0.246 OA
BRANCH  41  43
ATOM     43  C   UNL A   1      43.057  25.718  26.393  1.00  0.00     0.060 A 
ATOM     44  C   UNL A   1      43.437  27.057  26.564  1.00  0.00     0.016 A 
ATOM     45  C   UNL A   1      42.122  25.146  27.257  1.00  0.00     0.016 A 
ATOM     46  C   UNL A   1      42.893  27.822  27.603  1.00  0.00     0.010 A 
ATOM     47  C   UNL A   1      41.600  25.904  28.316  1.00  0.00     0.010 A 
ATOM     48  C   UNL A   1      41.994  27.241  28.507  1.00  0.00    -0.014 A 
BRANCH  48  49
ATOM     49  C   UNL A   1      41.553  27.990  29.717  1.00  0.00     0.031 A 
ATOM     50  C   UNL A   1      40.324  28.836  29.653  1.00  0.00     0.074 A 
ATOM     51  C   UNL A   1      42.246  27.945  30.868  1.00  0.00     0.049 A 
ATOM     52  N   UNL A   1      39.818  29.625  30.565  1.00  0.00    -0.248 NA
ATOM     53  C   UNL A   1      39.580  28.810  28.387  1.00  0.00     0.031 C 
ATOM     54  C   UNL A   1      43.459  27.175  31.052  1.00  0.00     0.029 A 
ATOM     55  N   UNL A   1      42.049  28.553  32.086  1.00  0.00    -0.354 N 
ATOM     56  C   UNL A   1      38.711  30.213  29.977  1.00  0.00     0.074 A 
ATOM     57  C   UNL A   1      38.619  29.690  28.629  1.00  0.00     0.031 C 
ATOM     58  C   UNL A   1      43.890  27.316  32.313  1.00  0.00     0.029 A 
ATOM     59  C   UNL A   1      43.030  28.266  33.005  1.00  0.00     0.049 A 
ATOM     60  H   UNL A   1      41.280  29.136  32.280  1.00  0.00     0.167 HD
ATOM     61  C   UNL A   1      37.860  31.120  30.512  1.00  0.00     0.037 A 
ATOM     62  C   UNL A   1      43.253  28.744  34.245  1.00  0.00     0.037 A 
ATOM     63  C   UNL A   1      37.967  31.656  31.845  1.00  0.00     0.049 A 
ATOM     64  C   UNL A   1      42.323  29.783  34.801  1.00  0.00     0.074 A 
ATOM     65  C   UNL A   1      37.125  32.552  32.481  1.00  0.00     0.029 A 
ATOM     66  N   UNL A   1      38.989  31.369  32.740  1.00  0.00    -0.354 N 
ATOM     67  N   UNL A   1      41.256  30.308  34.251  1.00  0.00    -0.248 NA
ATOM     68  C   UNL A   1      42.635  30.315  36.134  1.00  0.00     0.031 C 
ATOM     69  C   UNL A   1      37.670  32.856  33.733  1.00  0.00     0.029 A 
ATOM     70  C   UNL A   1      38.820  32.102  33.907  1.00  0.00     0.049 A 
ATOM     71  H   UNL A   1      39.725  30.738  32.572  1.00  0.00     0.167 HD
ATOM     72  C   UNL A   1      40.770  31.232  35.164  1.00  0.00     0.074 A 
ATOM     73  C   UNL A   1      41.643  31.175  36.320  1.00  0.00     0.031 C 
ATOM     74  C   UNL A   1      39.702  32.058  35.046  1.00  0.00     0.037 A 
BRANCH  61  75
ATOM     75  C   UNL A   1      36.774  31.635  29.617  1.00  0.00     0.064 A 
ATOM     76  C   UNL A   1      36.760  32.959  29.152  1.00  0.00     0.173 A 
ATOM     77  C   UNL A   1      35.724  30.791  29.228  1.00  0.00     0.173 A 
ATOM     78  F   UNL A   1      37.732  33.811  29.512  1.00  0.00    -0.203 F 
ATOM     79  C   UNL A   1      35.713  33.428  28.366  1.00  0.00     0.198 A 
ATOM     80  C   UNL A   1      34.696  31.254  28.414  1.00  0.00     0.198 A 
ATOM     81  F   UNL A   1      35.691  29.515  29.645  1.00  0.00    -0.203 F 
ATOM     82  F   UNL A   1      35.686  34.714  27.987  1.00  0.00    -0.200 F 
ATOM     83  C   UNL A   1      34.685  32.574  27.993  1.00  0.00     0.200 A 
ATOM     84  F   UNL A   1      33.709  30.426  28.047  1.00  0.00    -0.200 F 
ATOM     85  F   UNL A   1      33.676  33.029  27.237  1.00  0.00    -0.200 F 
ENDBRANCH  61  75
BRANCH  62  86
ATOM     86  C   UNL A   1      44.444  28.288  35.015  1.00  0.00     0.064 A 
ATOM     87  C   UNL A   1      45.679  28.938  34.898  1.00  0.00     0.173 A 
ATOM     88  C   UNL A   1      44.365  27.198  35.897  1.00  0.00     0.173 A 
ATOM     89  F   UNL A   1      45.818  29.965  34.047  1.00  0.00    -0.203 F 
ATOM     90  C   UNL A   1      46.791  28.513  35.626  1.00  0.00     0.198 A 
ATOM     91  C   UNL A   1      45.466  26.795  36.651  1.00  0.00     0.198 A 
ATOM     92  F   UNL A   1      43.208  26.533  36.044  1.00  0.00    -0.203 F 
ATOM     93  F   UNL A   1      47.971  29.126  35.465  1.00  0.00    -0.200 F 
ATOM     94  C   UNL A   1      46.680  27.449  36.510  1.00  0.00     0.200 A 
ATOM     95  F   UNL A   1      45.349  25.778  37.514  1.00  0.00    -0.200 F 
ATOM     96  F   UNL A   1      47.744  27.050  37.220  1.00  0.00    -0.200 F 
ENDBRANCH  62  86
BRANCH  74  97
ATOM     97  C   UNL A   1      39.409  32.970  36.202  1.00  0.00     0.064 A 
ATOM     98  C   UNL A   1      38.575  32.573  37.259  1.00  0.00     0.173 A 
ATOM     99  C   UNL A   1      40.000  34.241  36.275  1.00  0.00     0.173 A 
ATOM    100  F   UNL A   1      37.969  31.377  37.229  1.00  0.00    -0.203 F 
ATOM    101  C   UNL A   1      38.331  33.422  38.336  1.00  0.00     0.198 A 
ATOM    102  C   UNL A   1      39.777  35.075  37.367  1.00  0.00     0.198 A 
ATOM    103  F   UNL A   1      40.805  34.669  35.291  1.00  0.00    -0.203 F 
ATOM    104  F   UNL A   1      37.496  33.039  39.313  1.00  0.00    -0.200 F 
ATOM    105  C   UNL A   1      38.938  34.668  38.393  1.00  0.00     0.200 A 
ATOM    106  F   UNL A   1      40.375  36.273  37.426  1.00  0.00    -0.200 F 
ATOM    107  F   UNL A   1      38.710  35.479  39.435  1.00  0.00    -0.200 F 
ENDBRANCH  74  97
ENDBRANCH  48  49
ENDBRANCH  41  43
ENDBRANCH  40  41
ENDBRANCH  39  40
ENDBRANCH  38  39
ENDBRANCH  37  38
ENDBRANCH  36  37
ENDBRANCH   1  36
TORSDOF 21
ENDMDL
