MODEL 1
REMARK VINA RESULT:     -10.6      0.000      0.000
REMARK SMILES CCC(CC)COc1cc2c(cc1Cl)C=C(C(=O)OCCOCCOCCOC(=O)c1ccc(-c3c4nc(c(-c5c(F)c(F)c(F)c(F)c5F)c5ccc([nH]5)c(-c5c(F)c(F)c(F)c(F)c5F)c5nc(c(-c6c(F)c(F)c(F)c(F)c6F)c6ccc3[nH]6)C=C5)C=C4)cc1)[C@@H](C(F)(F)F)O2
REMARK SMILES IDX 23 1 22 2 21 3 20 4 19 5 17 6 18 7 16 8 8 9 9 10 13 11 10 12
REMARK SMILES IDX 12 13 14 14 11 15 99 16 15 17 94 18 7 19 6 20 3 21 2 22 1 23
REMARK SMILES IDX 4 24 5 25 95 26 96 27 97 28 98 29 24 30 25 31 26 32 27 33
REMARK SMILES IDX 28 34 29 35 30 36 31 37 32 38 93 39 33 40 92 41 34 42 35 43
REMARK SMILES IDX 36 44 86 45 37 46 91 47 85 48 87 49 38 50 90 51 84 52 83 53
REMARK SMILES IDX 39 55 71 56 51 57 70 58 52 59 55 60 69 61 88 62 53 63 54 64
REMARK SMILES IDX 68 66 89 67 56 68 40 69 41 70 49 71 42 72 43 73 47 74 50 75
REMARK SMILES IDX 44 76 45 77 48 78 46 79 72 80 73 81 81 82 74 83 75 84 79 85
REMARK SMILES IDX 82 86 76 87 77 88 80 89 78 90 57 91 58 92 66 93 59 94 60 95
REMARK SMILES IDX 64 96 67 97 61 98 62 99 65 100 63 101
REMARK H PARENT 87 54 55 65
REMARK Flexibility Score: inf
ROOT
ATOM      1  C   UNL A   1      31.950  29.017  24.345  1.00  0.00     0.188 C 
ENDROOT
BRANCH   1   2
ATOM      2  O   UNL A   1      31.871  27.627  24.131  1.00  0.00    -0.376 OA
BRANCH   2   3
ATOM      3  C   UNL A   1      32.029  27.067  22.839  1.00  0.00     0.202 C 
BRANCH   3   4
ATOM      4  C   UNL A   1      33.350  26.559  22.229  1.00  0.00     0.261 C 
BRANCH   4   5
ATOM      5  O   UNL A   1      33.372  25.218  21.731  1.00  0.00    -0.460 OA
BRANCH   5   6
ATOM      6  C   UNL A   1      33.149  24.273  22.672  1.00  0.00     0.338 C 
ATOM      7  O   UNL A   1      32.191  23.516  22.724  1.00  0.00    -0.246 OA
BRANCH   6   8
ATOM      8  C   UNL A   1      34.314  24.135  23.563  1.00  0.00     0.087 C 
ATOM      9  C   UNL A   1      38.256  22.137  25.883  1.00  0.00     0.141 A 
ATOM     10  C   UNL A   1      37.549  23.333  26.090  1.00  0.00     0.095 A 
ATOM     11  C   UNL A   1      37.839  21.259  24.874  1.00  0.00     0.083 A 
ATOM     12  C   UNL A   1      36.498  23.672  25.227  1.00  0.00     0.131 A 
ATOM     13  C   UNL A   1      36.921  21.681  23.923  1.00  0.00     0.036 A 
ATOM     14  Cl  UNL A   1      38.370  19.621  24.777  1.00  0.00    -0.080 Cl
ATOM     15  C   UNL A   1      36.257  22.890  24.096  1.00  0.00     0.019 A 
ATOM     16  O   UNL A   1      35.725  24.768  25.520  1.00  0.00    -0.475 OA
ATOM     17  C   UNL A   1      35.237  23.264  23.143  1.00  0.00     0.027 C 
ATOM     18  C   UNL A   1      34.395  24.834  24.893  1.00  0.00     0.316 C 
BRANCH   9  19
ATOM     19  O   UNL A   1      39.271  21.780  26.731  1.00  0.00    -0.492 OA
BRANCH  19  20
ATOM     20  C   UNL A   1      40.595  22.172  26.284  1.00  0.00     0.233 C 
BRANCH  20  21
ATOM     21  C   UNL A   1      41.753  21.503  27.075  1.00  0.00     0.026 C 
BRANCH  21  22
ATOM     22  C   UNL A   1      42.493  20.454  26.211  1.00  0.00     0.003 C 
ATOM     23  C   UNL A   1      41.668  19.199  25.954  1.00  0.00     0.004 C 
ENDBRANCH  21  22
BRANCH  21  24
ATOM     24  C   UNL A   1      42.732  22.522  27.701  1.00  0.00     0.003 C 
ATOM     25  C   UNL A   1      42.130  23.498  28.699  1.00  0.00     0.004 C 
ENDBRANCH  21  24
ENDBRANCH  20  21
ENDBRANCH  19  20
ENDBRANCH   9  19
BRANCH  18  26
ATOM     26  C   UNL A   1      33.299  24.319  25.837  1.00  0.00     0.430 C 
ATOM     27  F   UNL A   1      32.207  25.115  25.823  1.00  0.00    -0.167 F 
ATOM     28  F   UNL A   1      32.886  23.081  25.466  1.00  0.00    -0.167 F 
ATOM     29  F   UNL A   1      33.728  24.230  27.115  1.00  0.00    -0.167 F 
ENDBRANCH  18  26
ENDBRANCH   6   8
ENDBRANCH   5   6
ENDBRANCH   4   5
ENDBRANCH   3   4
ENDBRANCH   2   3
ENDBRANCH   1   2
BRANCH   1  30
ATOM     30  C   UNL A   1      32.429  29.519  25.722  1.00  0.00     0.188 C 
BRANCH  30  31
ATOM     31  O   UNL A   1      32.064  30.803  26.177  1.00  0.00    -0.376 OA
BRANCH  31  32
ATOM     32  C   UNL A   1      32.762  31.393  27.264  1.00  0.00     0.202 C 
BRANCH  32  33
ATOM     33  C   UNL A   1      33.155  32.882  27.327  1.00  0.00     0.261 C 
BRANCH  33  34
ATOM     34  O   UNL A   1      32.348  33.734  28.147  1.00  0.00    -0.460 OA
BRANCH  34  35
ATOM     35  C   UNL A   1      32.988  34.805  28.689  1.00  0.00     0.338 C 
ATOM     36  O   UNL A   1      32.595  35.950  28.750  1.00  0.00    -0.246 OA
BRANCH  35  37
ATOM     37  C   UNL A   1      34.187  34.312  29.401  1.00  0.00     0.060 A 
ATOM     38  C   UNL A   1      34.057  33.555  30.564  1.00  0.00     0.016 A 
ATOM     39  C   UNL A   1      35.456  34.629  28.895  1.00  0.00     0.016 A 
ATOM     40  C   UNL A   1      35.205  33.099  31.213  1.00  0.00     0.010 A 
ATOM     41  C   UNL A   1      36.605  34.187  29.557  1.00  0.00     0.010 A 
ATOM     42  C   UNL A   1      36.486  33.401  30.710  1.00  0.00    -0.014 A 
BRANCH  42  43
ATOM     43  C   UNL A   1      37.677  32.742  31.301  1.00  0.00     0.031 A 
ATOM     44  C   UNL A   1      38.212  33.117  32.648  1.00  0.00     0.074 A 
ATOM     45  C   UNL A   1      38.271  31.767  30.588  1.00  0.00     0.049 A 
ATOM     46  N   UNL A   1      39.170  32.547  33.337  1.00  0.00    -0.248 NA
ATOM     47  C   UNL A   1      37.606  34.281  33.306  1.00  0.00     0.031 C 
ATOM     48  C   UNL A   1      37.859  31.346  29.248  1.00  0.00     0.029 A 
ATOM     49  N   UNL A   1      39.327  30.945  30.888  1.00  0.00    -0.354 N 
ATOM     50  C   UNL A   1      39.262  33.259  34.524  1.00  0.00     0.074 A 
ATOM     51  C   UNL A   1      38.302  34.342  34.436  1.00  0.00     0.031 C 
ATOM     52  C   UNL A   1      38.625  30.316  28.860  1.00  0.00     0.029 A 
ATOM     53  C   UNL A   1      39.598  30.022  29.909  1.00  0.00     0.049 A 
ATOM     54  H   UNL A   1      39.840  31.010  31.726  1.00  0.00     0.167 HD
ATOM     55  C   UNL A   1      40.058  33.010  35.593  1.00  0.00     0.037 A 
ATOM     56  C   UNL A   1      40.518  29.040  29.863  1.00  0.00     0.037 A 
ATOM     57  C   UNL A   1      41.023  31.939  35.662  1.00  0.00     0.049 A 
ATOM     58  C   UNL A   1      41.422  28.822  31.043  1.00  0.00     0.074 A 
ATOM     59  C   UNL A   1      41.847  31.589  36.720  1.00  0.00     0.029 A 
ATOM     60  N   UNL A   1      41.307  31.054  34.632  1.00  0.00    -0.354 N 
ATOM     61  N   UNL A   1      41.441  29.445  32.195  1.00  0.00    -0.248 NA
ATOM     62  C   UNL A   1      42.430  27.759  30.917  1.00  0.00     0.031 C 
ATOM     63  C   UNL A   1      42.668  30.536  36.309  1.00  0.00     0.029 A 
ATOM     64  C   UNL A   1      42.317  30.184  35.017  1.00  0.00     0.049 A 
ATOM     65  H   UNL A   1      40.858  31.046  33.756  1.00  0.00     0.167 HD
ATOM     66  C   UNL A   1      42.444  28.839  32.940  1.00  0.00     0.074 A 
ATOM     67  C   UNL A   1      42.997  27.784  32.116  1.00  0.00     0.031 C 
ATOM     68  C   UNL A   1      42.867  29.136  34.193  1.00  0.00     0.037 A 
BRANCH  55  69
ATOM     69  C   UNL A   1      39.918  33.898  36.798  1.00  0.00     0.064 A 
ATOM     70  C   UNL A   1      40.555  35.147  36.859  1.00  0.00     0.173 A 
ATOM     71  C   UNL A   1      39.063  33.548  37.854  1.00  0.00     0.173 A 
ATOM     72  F   UNL A   1      41.383  35.532  35.875  1.00  0.00    -0.203 F 
ATOM     73  C   UNL A   1      40.351  36.005  37.937  1.00  0.00     0.198 A 
ATOM     74  C   UNL A   1      38.838  34.421  38.916  1.00  0.00     0.198 A 
ATOM     75  F   UNL A   1      38.416  32.372  37.840  1.00  0.00    -0.203 F 
ATOM     76  F   UNL A   1      40.992  37.181  37.984  1.00  0.00    -0.200 F 
ATOM     77  C   UNL A   1      39.485  35.647  38.959  1.00  0.00     0.200 A 
ATOM     78  F   UNL A   1      37.985  34.081  39.892  1.00  0.00    -0.200 F 
ATOM     79  F   UNL A   1      39.274  36.483  39.984  1.00  0.00    -0.200 F 
ENDBRANCH  55  69
BRANCH  56  80
ATOM     80  C   UNL A   1      40.588  28.163  28.666  1.00  0.00     0.064 A 
ATOM     81  C   UNL A   1      41.383  28.509  27.565  1.00  0.00     0.173 A 
ATOM     82  C   UNL A   1      39.890  26.948  28.612  1.00  0.00     0.173 A 
ATOM     83  F   UNL A   1      42.056  29.669  27.564  1.00  0.00    -0.203 F 
ATOM     84  C   UNL A   1      41.469  27.678  26.451  1.00  0.00     0.198 A 
ATOM     85  C   UNL A   1      40.002  26.102  27.510  1.00  0.00     0.198 A 
ATOM     86  F   UNL A   1      39.121  26.567  29.642  1.00  0.00    -0.203 F 
ATOM     87  F   UNL A   1      42.210  28.050  25.397  1.00  0.00    -0.200 F 
ATOM     88  C   UNL A   1      40.787  26.471  26.429  1.00  0.00     0.200 A 
ATOM     89  F   UNL A   1      39.357  24.929  27.501  1.00  0.00    -0.200 F 
ATOM     90  F   UNL A   1      40.884  25.665  25.362  1.00  0.00    -0.200 F 
ENDBRANCH  56  80
BRANCH  68  91
ATOM     91  C   UNL A   1      43.984  28.310  34.768  1.00  0.00     0.064 A 
ATOM     92  C   UNL A   1      45.327  28.682  34.609  1.00  0.00     0.173 A 
ATOM     93  C   UNL A   1      43.706  27.176  35.546  1.00  0.00     0.173 A 
ATOM     94  F   UNL A   1      45.649  29.749  33.862  1.00  0.00    -0.203 F 
ATOM     95  C   UNL A   1      46.350  27.943  35.199  1.00  0.00     0.198 A 
ATOM     96  C   UNL A   1      44.728  26.459  36.162  1.00  0.00     0.198 A 
ATOM     97  F   UNL A   1      42.438  26.778  35.735  1.00  0.00    -0.203 F 
ATOM     98  F   UNL A   1      47.628  28.297  35.004  1.00  0.00    -0.200 F 
ATOM     99  C   UNL A   1      46.050  26.840  35.983  1.00  0.00     0.200 A 
ATOM    100  F   UNL A   1      44.435  25.403  36.933  1.00  0.00    -0.200 F 
ATOM    101  F   UNL A   1      47.034  26.142  36.567  1.00  0.00    -0.200 F 
ENDBRANCH  68  91
ENDBRANCH  42  43
ENDBRANCH  35  37
ENDBRANCH  34  35
ENDBRANCH  33  34
ENDBRANCH  32  33
ENDBRANCH  31  32
ENDBRANCH  30  31
ENDBRANCH   1  30
TORSDOF 23
ENDMDL
MODEL 2
REMARK VINA RESULT:     -10.5      2.053      7.523
REMARK SMILES CCC(CC)COc1cc2c(cc1Cl)C=C(C(=O)OCCOCCOCCOC(=O)c1ccc(-c3c4nc(c(-c5c(F)c(F)c(F)c(F)c5F)c5ccc([nH]5)c(-c5c(F)c(F)c(F)c(F)c5F)c5nc(c(-c6c(F)c(F)c(F)c(F)c6F)c6ccc3[nH]6)C=C5)C=C4)cc1)[C@@H](C(F)(F)F)O2
REMARK SMILES IDX 23 1 22 2 21 3 20 4 19 5 17 6 18 7 16 8 8 9 9 10 13 11 10 12
REMARK SMILES IDX 12 13 14 14 11 15 99 16 15 17 94 18 7 19 6 20 3 21 2 22 1 23
REMARK SMILES IDX 4 24 5 25 95 26 96 27 97 28 98 29 24 30 25 31 26 32 27 33
REMARK SMILES IDX 28 34 29 35 30 36 31 37 32 38 93 39 33 40 92 41 34 42 35 43
REMARK SMILES IDX 36 44 86 45 37 46 91 47 85 48 87 49 38 50 90 51 84 52 83 53
REMARK SMILES IDX 39 55 71 56 51 57 70 58 52 59 55 60 69 61 88 62 53 63 54 64
REMARK SMILES IDX 68 66 89 67 56 68 40 69 41 70 49 71 42 72 43 73 47 74 50 75
REMARK SMILES IDX 44 76 45 77 48 78 46 79 72 80 73 81 81 82 74 83 75 84 79 85
REMARK SMILES IDX 82 86 76 87 77 88 80 89 78 90 57 91 58 92 66 93 59 94 60 95
REMARK SMILES IDX 64 96 67 97 61 98 62 99 65 100 63 101
REMARK H PARENT 87 54 55 65
REMARK Flexibility Score: inf
ROOT
ATOM      1  C   UNL A   1      30.820  30.254  24.595  1.00  0.00     0.188 C 
ENDROOT
BRANCH   1   2
ATOM      2  O   UNL A   1      30.574  29.189  23.707  1.00  0.00    -0.376 OA
BRANCH   2   3
ATOM      3  C   UNL A   1      31.502  28.842  22.693  1.00  0.00     0.202 C 
BRANCH   3   4
ATOM      4  C   UNL A   1      33.007  28.577  22.896  1.00  0.00     0.261 C 
BRANCH   4   5
ATOM      5  O   UNL A   1      33.377  27.374  23.576  1.00  0.00    -0.460 OA
BRANCH   5   6
ATOM      6  C   UNL A   1      33.379  26.272  22.792  1.00  0.00     0.338 C 
ATOM      7  O   UNL A   1      33.653  26.232  21.601  1.00  0.00    -0.246 OA
BRANCH   6   8
ATOM      8  C   UNL A   1      33.175  25.055  23.595  1.00  0.00     0.087 C 
ATOM      9  C   UNL A   1      32.331  20.278  24.774  1.00  0.00     0.141 A 
ATOM     10  C   UNL A   1      32.382  21.445  25.554  1.00  0.00     0.095 A 
ATOM     11  C   UNL A   1      32.516  20.370  23.389  1.00  0.00     0.083 A 
ATOM     12  C   UNL A   1      32.707  22.666  24.949  1.00  0.00     0.131 A 
ATOM     13  C   UNL A   1      33.006  21.543  22.830  1.00  0.00     0.036 A 
ATOM     14  Cl  UNL A   1      32.101  19.099  22.300  1.00  0.00    -0.080 Cl
ATOM     15  C   UNL A   1      33.109  22.687  23.612  1.00  0.00     0.019 A 
ATOM     16  O   UNL A   1      32.617  23.820  25.689  1.00  0.00    -0.475 OA
ATOM     17  C   UNL A   1      33.533  23.920  22.987  1.00  0.00     0.027 C 
ATOM     18  C   UNL A   1      32.509  25.085  24.944  1.00  0.00     0.316 C 
BRANCH   9  19
ATOM     19  O   UNL A   1      31.994  19.080  25.346  1.00  0.00    -0.492 OA
BRANCH  19  20
ATOM     20  C   UNL A   1      33.123  18.285  25.789  1.00  0.00     0.233 C 
BRANCH  20  21
ATOM     21  C   UNL A   1      33.494  17.122  24.827  1.00  0.00     0.026 C 
BRANCH  21  22
ATOM     22  C   UNL A   1      34.825  17.402  24.090  1.00  0.00     0.003 C 
ATOM     23  C   UNL A   1      35.544  18.644  24.603  1.00  0.00     0.004 C 
ENDBRANCH  21  22
BRANCH  21  24
ATOM     24  C   UNL A   1      33.502  15.739  25.517  1.00  0.00     0.003 C 
ATOM     25  C   UNL A   1      32.144  15.088  25.722  1.00  0.00     0.004 C 
ENDBRANCH  21  24
ENDBRANCH  20  21
ENDBRANCH  19  20
ENDBRANCH   9  19
BRANCH  18  26
ATOM     26  C   UNL A   1      31.049  25.541  24.811  1.00  0.00     0.430 C 
ATOM     27  F   UNL A   1      30.194  24.670  25.393  1.00  0.00    -0.167 F 
ATOM     28  F   UNL A   1      30.861  26.739  25.418  1.00  0.00    -0.167 F 
ATOM     29  F   UNL A   1      30.677  25.684  23.520  1.00  0.00    -0.167 F 
ENDBRANCH  18  26
ENDBRANCH   6   8
ENDBRANCH   5   6
ENDBRANCH   4   5
ENDBRANCH   3   4
ENDBRANCH   2   3
ENDBRANCH   1   2
BRANCH   1  30
ATOM     30  C   UNL A   1      31.829  30.034  25.741  1.00  0.00     0.188 C 
BRANCH  30  31
ATOM     31  O   UNL A   1      31.733  30.789  26.928  1.00  0.00    -0.376 OA
BRANCH  31  32
ATOM     32  C   UNL A   1      31.796  32.207  26.872  1.00  0.00     0.202 C 
BRANCH  32  33
ATOM     33  C   UNL A   1      32.543  33.076  27.901  1.00  0.00     0.261 C 
BRANCH  33  34
ATOM     34  O   UNL A   1      32.686  34.468  27.597  1.00  0.00    -0.460 OA
BRANCH  34  35
ATOM     35  C   UNL A   1      33.011  35.268  28.648  1.00  0.00     0.338 C 
ATOM     36  O   UNL A   1      32.415  36.244  29.048  1.00  0.00    -0.246 OA
BRANCH  35  37
ATOM     37  C   UNL A   1      34.124  34.630  29.383  1.00  0.00     0.060 A 
ATOM     38  C   UNL A   1      33.919  34.098  30.655  1.00  0.00     0.016 A 
ATOM     39  C   UNL A   1      35.393  34.580  28.786  1.00  0.00     0.016 A 
ATOM     40  C   UNL A   1      34.986  33.498  31.325  1.00  0.00     0.010 A 
ATOM     41  C   UNL A   1      36.465  33.995  29.466  1.00  0.00     0.010 A 
ATOM     42  C   UNL A   1      36.263  33.431  30.733  1.00  0.00    -0.014 A 
BRANCH  42  43
ATOM     43  C   UNL A   1      37.324  32.617  31.374  1.00  0.00     0.031 A 
ATOM     44  C   UNL A   1      37.981  31.466  30.677  1.00  0.00     0.074 A 
ATOM     45  C   UNL A   1      37.702  32.952  32.622  1.00  0.00     0.049 A 
ATOM     46  N   UNL A   1      39.001  30.744  31.069  1.00  0.00    -0.248 NA
ATOM     47  C   UNL A   1      37.423  31.067  29.378  1.00  0.00     0.031 C 
ATOM     48  C   UNL A   1      37.105  34.029  33.412  1.00  0.00     0.029 A 
ATOM     49  N   UNL A   1      38.681  32.441  33.436  1.00  0.00    -0.354 N 
ATOM     50  C   UNL A   1      39.231  29.825  30.055  1.00  0.00     0.074 A 
ATOM     51  C   UNL A   1      38.205  30.042  29.054  1.00  0.00     0.031 C 
ATOM     52  C   UNL A   1      37.757  34.128  34.579  1.00  0.00     0.029 A 
ATOM     53  C   UNL A   1      38.799  33.106  34.631  1.00  0.00     0.049 A 
ATOM     54  H   UNL A   1      39.245  31.674  33.186  1.00  0.00     0.167 HD
ATOM     55  C   UNL A   1      40.224  28.906  29.964  1.00  0.00     0.037 A 
ATOM     56  C   UNL A   1      39.658  32.923  35.653  1.00  0.00     0.037 A 
ATOM     57  C   UNL A   1      41.230  28.686  30.975  1.00  0.00     0.049 A 
ATOM     58  C   UNL A   1      40.715  31.861  35.544  1.00  0.00     0.074 A 
ATOM     59  C   UNL A   1      42.296  27.802  30.951  1.00  0.00     0.029 A 
ATOM     60  N   UNL A   1      41.289  29.342  32.196  1.00  0.00    -0.354 N 
ATOM     61  N   UNL A   1      40.979  31.057  34.544  1.00  0.00    -0.248 NA
ATOM     62  C   UNL A   1      41.598  31.684  36.706  1.00  0.00     0.031 C 
ATOM     63  C   UNL A   1      42.962  27.880  32.178  1.00  0.00     0.029 A 
ATOM     64  C   UNL A   1      42.351  28.856  32.946  1.00  0.00     0.049 A 
ATOM     65  H   UNL A   1      40.668  30.048  32.489  1.00  0.00     0.167 HD
ATOM     66  C   UNL A   1      42.069  30.295  34.944  1.00  0.00     0.074 A 
ATOM     67  C   UNL A   1      42.430  30.747  36.271  1.00  0.00     0.031 C 
ATOM     68  C   UNL A   1      42.707  29.308  34.269  1.00  0.00     0.037 A 
BRANCH  55  69
ATOM     69  C   UNL A   1      40.296  28.068  28.719  1.00  0.00     0.064 A 
ATOM     70  C   UNL A   1      41.061  28.472  27.613  1.00  0.00     0.173 A 
ATOM     71  C   UNL A   1      39.686  26.805  28.664  1.00  0.00     0.173 A 
ATOM     72  F   UNL A   1      41.667  29.670  27.613  1.00  0.00    -0.203 F 
ATOM     73  C   UNL A   1      41.198  27.652  26.497  1.00  0.00     0.198 A 
ATOM     74  C   UNL A   1      39.850  25.975  27.558  1.00  0.00     0.198 A 
ATOM     75  F   UNL A   1      38.956  26.362  29.699  1.00  0.00    -0.203 F 
ATOM     76  F   UNL A   1      41.911  28.073  25.443  1.00  0.00    -0.200 F 
ATOM     77  C   UNL A   1      40.603  26.400  26.474  1.00  0.00     0.200 A 
ATOM     78  F   UNL A   1      39.291  24.757  27.547  1.00  0.00    -0.200 F 
ATOM     79  F   UNL A   1      40.754  25.603  25.407  1.00  0.00    -0.200 F 
ENDBRANCH  55  69
BRANCH  56  80
ATOM     80  C   UNL A   1      39.572  33.805  36.844  1.00  0.00     0.064 A 
ATOM     81  C   UNL A   1      40.225  35.045  36.869  1.00  0.00     0.173 A 
ATOM     82  C   UNL A   1      38.811  33.444  37.965  1.00  0.00     0.173 A 
ATOM     83  F   UNL A   1      40.978  35.427  35.828  1.00  0.00    -0.203 F 
ATOM     84  C   UNL A   1      40.127  35.885  37.976  1.00  0.00     0.198 A 
ATOM     85  C   UNL A   1      38.688  34.299  39.058  1.00  0.00     0.198 A 
ATOM     86  F   UNL A   1      38.161  32.271  37.987  1.00  0.00    -0.203 F 
ATOM     87  F   UNL A   1      40.790  37.051  37.989  1.00  0.00    -0.200 F 
ATOM     88  C   UNL A   1      39.352  35.516  39.065  1.00  0.00     0.200 A 
ATOM     89  F   UNL A   1      37.923  33.947  40.099  1.00  0.00    -0.200 F 
ATOM     90  F   UNL A   1      39.246  36.333  40.122  1.00  0.00    -0.200 F 
ENDBRANCH  56  80
BRANCH  68  91
ATOM     91  C   UNL A   1      43.873  28.641  34.944  1.00  0.00     0.064 A 
ATOM     92  C   UNL A   1      45.159  29.202  34.910  1.00  0.00     0.173 A 
ATOM     93  C   UNL A   1      43.691  27.469  35.693  1.00  0.00     0.173 A 
ATOM     94  F   UNL A   1      45.392  30.314  34.195  1.00  0.00    -0.203 F 
ATOM     95  C   UNL A   1      46.219  28.608  35.591  1.00  0.00     0.198 A 
ATOM     96  C   UNL A   1      44.744  26.896  36.400  1.00  0.00     0.198 A 
ATOM     97  F   UNL A   1      42.480  26.893  35.764  1.00  0.00    -0.203 F 
ATOM     98  F   UNL A   1      47.445  29.143  35.514  1.00  0.00    -0.200 F 
ATOM     99  C   UNL A   1      46.008  27.463  36.344  1.00  0.00     0.200 A 
ATOM    100  F   UNL A   1      44.535  25.799  37.141  1.00  0.00    -0.200 F 
ATOM    101  F   UNL A   1      47.024  26.905  37.016  1.00  0.00    -0.200 F 
ENDBRANCH  68  91
ENDBRANCH  42  43
ENDBRANCH  35  37
ENDBRANCH  34  35
ENDBRANCH  33  34
ENDBRANCH  32  33
ENDBRANCH  31  32
ENDBRANCH  30  31
ENDBRANCH   1  30
TORSDOF 23
ENDMDL
MODEL 3
REMARK VINA RESULT:     -10.1      4.706      9.474
REMARK SMILES CCC(CC)COc1cc2c(cc1Cl)C=C(C(=O)OCCOCCOCCOC(=O)c1ccc(-c3c4nc(c(-c5c(F)c(F)c(F)c(F)c5F)c5ccc([nH]5)c(-c5c(F)c(F)c(F)c(F)c5F)c5nc(c(-c6c(F)c(F)c(F)c(F)c6F)c6ccc3[nH]6)C=C5)C=C4)cc1)[C@@H](C(F)(F)F)O2
REMARK SMILES IDX 23 1 22 2 21 3 20 4 19 5 17 6 18 7 16 8 8 9 9 10 13 11 10 12
REMARK SMILES IDX 12 13 14 14 11 15 99 16 15 17 94 18 7 19 6 20 3 21 2 22 1 23
REMARK SMILES IDX 4 24 5 25 95 26 96 27 97 28 98 29 24 30 25 31 26 32 27 33
REMARK SMILES IDX 28 34 29 35 30 36 31 37 32 38 93 39 33 40 92 41 34 42 35 43
REMARK SMILES IDX 36 44 86 45 37 46 91 47 85 48 87 49 38 50 90 51 84 52 83 53
REMARK SMILES IDX 39 55 71 56 51 57 70 58 52 59 55 60 69 61 88 62 53 63 54 64
REMARK SMILES IDX 68 66 89 67 56 68 40 69 41 70 49 71 42 72 43 73 47 74 50 75
REMARK SMILES IDX 44 76 45 77 48 78 46 79 72 80 73 81 81 82 74 83 75 84 79 85
REMARK SMILES IDX 82 86 76 87 77 88 80 89 78 90 57 91 58 92 66 93 59 94 60 95
REMARK SMILES IDX 64 96 67 97 61 98 62 99 65 100 63 101
REMARK H PARENT 87 54 55 65
REMARK Flexibility Score: inf
ROOT
ATOM      1  C   UNL A   1      33.755  33.655  27.739  1.00  0.00     0.188 C 
ENDROOT
BRANCH   1   2
ATOM      2  O   UNL A   1      32.888  32.547  27.689  1.00  0.00    -0.376 OA
BRANCH   2   3
ATOM      3  C   UNL A   1      33.378  31.231  27.494  1.00  0.00     0.202 C 
BRANCH   3   4
ATOM      4  C   UNL A   1      32.953  30.265  26.371  1.00  0.00     0.261 C 
BRANCH   4   5
ATOM      5  O   UNL A   1      32.032  29.225  26.713  1.00  0.00    -0.460 OA
BRANCH   5   6
ATOM      6  C   UNL A   1      31.495  28.587  25.649  1.00  0.00     0.338 C 
ATOM      7  O   UNL A   1      31.138  29.105  24.600  1.00  0.00    -0.246 OA
BRANCH   6   8
ATOM      8  C   UNL A   1      31.546  27.127  25.830  1.00  0.00     0.087 C 
ATOM      9  C   UNL A   1      33.305  22.457  25.961  1.00  0.00     0.141 A 
ATOM     10  C   UNL A   1      32.005  22.976  26.073  1.00  0.00     0.095 A 
ATOM     11  C   UNL A   1      34.378  23.332  25.747  1.00  0.00     0.083 A 
ATOM     12  C   UNL A   1      31.812  24.364  26.061  1.00  0.00     0.131 A 
ATOM     13  C   UNL A   1      34.201  24.700  25.911  1.00  0.00     0.036 A 
ATOM     14  Cl  UNL A   1      35.931  22.802  25.218  1.00  0.00    -0.080 Cl
ATOM     15  C   UNL A   1      32.920  25.213  26.076  1.00  0.00     0.019 A 
ATOM     16  O   UNL A   1      30.531  24.857  26.028  1.00  0.00    -0.475 OA
ATOM     17  C   UNL A   1      32.751  26.647  26.151  1.00  0.00     0.027 C 
ATOM     18  C   UNL A   1      30.359  26.242  25.560  1.00  0.00     0.316 C 
BRANCH   9  19
ATOM     19  O   UNL A   1      33.509  21.103  25.950  1.00  0.00    -0.492 OA
BRANCH  19  20
ATOM     20  C   UNL A   1      33.734  20.539  24.632  1.00  0.00     0.233 C 
BRANCH  20  21
ATOM     21  C   UNL A   1      33.039  19.167  24.404  1.00  0.00     0.026 C 
BRANCH  21  22
ATOM     22  C   UNL A   1      32.151  19.188  23.138  1.00  0.00     0.003 C 
ATOM     23  C   UNL A   1      32.522  18.111  22.127  1.00  0.00     0.004 C 
ENDBRANCH  21  22
BRANCH  21  24
ATOM     24  C   UNL A   1      34.028  17.979  24.390  1.00  0.00     0.003 C 
ATOM     25  C   UNL A   1      35.489  18.324  24.623  1.00  0.00     0.004 C 
ENDBRANCH  21  24
ENDBRANCH  20  21
ENDBRANCH  19  20
ENDBRANCH   9  19
BRANCH  18  26
ATOM     26  C   UNL A   1      29.980  26.293  24.073  1.00  0.00     0.430 C 
ATOM     27  F   UNL A   1      31.003  26.731  23.307  1.00  0.00    -0.167 F 
ATOM     28  F   UNL A   1      29.649  25.060  23.617  1.00  0.00    -0.167 F 
ATOM     29  F   UNL A   1      28.920  27.101  23.846  1.00  0.00    -0.167 F 
ENDBRANCH  18  26
ENDBRANCH   6   8
ENDBRANCH   5   6
ENDBRANCH   4   5
ENDBRANCH   3   4
ENDBRANCH   2   3
ENDBRANCH   1   2
BRANCH   1  30
ATOM     30  C   UNL A   1      33.395  34.825  28.677  1.00  0.00     0.188 C 
BRANCH  30  31
ATOM     31  O   UNL A   1      33.083  34.581  30.031  1.00  0.00    -0.376 OA
BRANCH  31  32
ATOM     32  C   UNL A   1      34.035  33.948  30.874  1.00  0.00     0.202 C 
BRANCH  32  33
ATOM     33  C   UNL A   1      35.558  34.017  30.653  1.00  0.00     0.261 C 
BRANCH  33  34
ATOM     34  O   UNL A   1      36.392  33.783  31.794  1.00  0.00    -0.460 OA
BRANCH  34  35
ATOM     35  C   UNL A   1      36.427  32.499  32.241  1.00  0.00     0.338 C 
ATOM     36  O   UNL A   1      35.611  31.934  32.936  1.00  0.00    -0.246 OA
BRANCH  35  37
ATOM     37  C   UNL A   1      37.543  31.806  31.562  1.00  0.00     0.060 A 
ATOM     38  C   UNL A   1      37.581  31.720  30.172  1.00  0.00     0.016 A 
ATOM     39  C   UNL A   1      38.557  31.226  32.341  1.00  0.00     0.016 A 
ATOM     40  C   UNL A   1      38.649  31.064  29.557  1.00  0.00     0.010 A 
ATOM     41  C   UNL A   1      39.615  30.554  31.723  1.00  0.00     0.010 A 
ATOM     42  C   UNL A   1      39.679  30.486  30.326  1.00  0.00    -0.014 A 
BRANCH  42  43
ATOM     43  C   UNL A   1      40.895  29.974  29.649  1.00  0.00     0.031 A 
ATOM     44  C   UNL A   1      41.010  28.557  29.176  1.00  0.00     0.074 A 
ATOM     45  C   UNL A   1      41.912  30.833  29.453  1.00  0.00     0.049 A 
ATOM     46  N   UNL A   1      41.963  28.005  28.467  1.00  0.00    -0.248 NA
ATOM     47  C   UNL A   1      39.925  27.639  29.549  1.00  0.00     0.031 C 
ATOM     48  C   UNL A   1      41.926  32.224  29.906  1.00  0.00     0.029 A 
ATOM     49  N   UNL A   1      43.116  30.677  28.812  1.00  0.00    -0.354 N 
ATOM     50  C   UNL A   1      41.582  26.684  28.278  1.00  0.00     0.074 A 
ATOM     51  C   UNL A   1      40.337  26.502  28.999  1.00  0.00     0.031 C 
ATOM     52  C   UNL A   1      43.061  32.807  29.493  1.00  0.00     0.029 A 
ATOM     53  C   UNL A   1      43.865  31.826  28.771  1.00  0.00     0.049 A 
ATOM     54  H   UNL A   1      43.411  29.823  28.420  1.00  0.00     0.167 HD
ATOM     55  C   UNL A   1      42.205  25.726  27.548  1.00  0.00     0.037 A 
ATOM     56  C   UNL A   1      45.063  32.068  28.203  1.00  0.00     0.037 A 
ATOM     57  C   UNL A   1      43.453  25.914  26.849  1.00  0.00     0.049 A 
ATOM     58  C   UNL A   1      45.754  30.970  27.444  1.00  0.00     0.074 A 
ATOM     59  C   UNL A   1      44.139  25.010  26.053  1.00  0.00     0.029 A 
ATOM     60  N   UNL A   1      44.211  27.076  26.869  1.00  0.00    -0.354 N 
ATOM     61  N   UNL A   1      45.343  29.751  27.198  1.00  0.00    -0.248 NA
ATOM     62  C   UNL A   1      47.074  31.286  26.880  1.00  0.00     0.031 C 
ATOM     63  C   UNL A   1      45.337  25.603  25.645  1.00  0.00     0.029 A 
ATOM     64  C   UNL A   1      45.373  26.898  26.131  1.00  0.00     0.049 A 
ATOM     65  H   UNL A   1      43.962  27.904  27.339  1.00  0.00     0.167 HD
ATOM     66  C   UNL A   1      46.340  29.159  26.433  1.00  0.00     0.074 A 
ATOM     67  C   UNL A   1      47.367  30.162  26.240  1.00  0.00     0.031 C 
ATOM     68  C   UNL A   1      46.395  27.898  25.942  1.00  0.00     0.037 A 
BRANCH  55  69
ATOM     69  C   UNL A   1      41.546  24.379  27.443  1.00  0.00     0.064 A 
ATOM     70  C   UNL A   1      40.391  24.194  26.668  1.00  0.00     0.173 A 
ATOM     71  C   UNL A   1      42.126  23.246  28.033  1.00  0.00     0.173 A 
ATOM     72  F   UNL A   1      39.795  25.244  26.081  1.00  0.00    -0.203 F 
ATOM     73  C   UNL A   1      39.834  22.928  26.500  1.00  0.00     0.198 A 
ATOM     74  C   UNL A   1      41.585  21.978  27.838  1.00  0.00     0.198 A 
ATOM     75  F   UNL A   1      43.241  23.364  28.771  1.00  0.00    -0.203 F 
ATOM     76  F   UNL A   1      38.715  22.781  25.778  1.00  0.00    -0.200 F 
ATOM     77  C   UNL A   1      40.437  21.820  27.076  1.00  0.00     0.200 A 
ATOM     78  F   UNL A   1      42.181  20.906  28.378  1.00  0.00    -0.200 F 
ATOM     79  F   UNL A   1      39.913  20.600  26.895  1.00  0.00    -0.200 F 
ENDBRANCH  55  69
BRANCH  56  80
ATOM     80  C   UNL A   1      45.652  33.427  28.299  1.00  0.00     0.064 A 
ATOM     81  C   UNL A   1      46.476  33.780  29.378  1.00  0.00     0.173 A 
ATOM     82  C   UNL A   1      45.433  34.389  27.302  1.00  0.00     0.173 A 
ATOM     83  F   UNL A   1      46.700  32.901  30.364  1.00  0.00    -0.203 F 
ATOM     84  C   UNL A   1      47.049  35.047  29.459  1.00  0.00     0.198 A 
ATOM     85  C   UNL A   1      46.033  35.645  27.369  1.00  0.00     0.198 A 
ATOM     86  F   UNL A   1      44.659  34.098  26.246  1.00  0.00    -0.203 F 
ATOM     87  F   UNL A   1      47.804  35.371  30.518  1.00  0.00    -0.200 F 
ATOM     88  C   UNL A   1      46.835  35.974  28.450  1.00  0.00     0.200 A 
ATOM     89  F   UNL A   1      45.840  36.530  26.383  1.00  0.00    -0.200 F 
ATOM     90  F   UNL A   1      47.401  37.187  28.522  1.00  0.00    -0.200 F 
ENDBRANCH  56  80
BRANCH  68  91
ATOM     91  C   UNL A   1      47.606  27.515  25.136  1.00  0.00     0.064 A 
ATOM     92  C   UNL A   1      47.662  27.732  23.751  1.00  0.00     0.173 A 
ATOM     93  C   UNL A   1      48.747  26.995  25.764  1.00  0.00     0.173 A 
ATOM     94  F   UNL A   1      46.593  28.212  23.098  1.00  0.00    -0.203 F 
ATOM     95  C   UNL A   1      48.811  27.430  23.024  1.00  0.00     0.198 A 
ATOM     96  C   UNL A   1      49.906  26.725  25.040  1.00  0.00     0.198 A 
ATOM     97  F   UNL A   1      48.750  26.772  27.088  1.00  0.00    -0.203 F 
ATOM     98  F   UNL A   1      48.829  27.612  21.696  1.00  0.00    -0.200 F 
ATOM     99  C   UNL A   1      49.936  26.939  23.671  1.00  0.00     0.200 A 
ATOM    100  F   UNL A   1      50.997  26.267  25.670  1.00  0.00    -0.200 F 
ATOM    101  F   UNL A   1      51.048  26.670  22.974  1.00  0.00    -0.200 F 
ENDBRANCH  68  91
ENDBRANCH  42  43
ENDBRANCH  35  37
ENDBRANCH  34  35
ENDBRANCH  33  34
ENDBRANCH  32  33
ENDBRANCH  31  32
ENDBRANCH  30  31
ENDBRANCH   1  30
TORSDOF 23
ENDMDL
