MODEL 1
REMARK VINA RESULT:     -11.8      0.000      0.000
REMARK SMILES Cn1cc(-c2cc(C(F)(F)F)c3c(C4CC4)nn(CC(=O)OCCOCCOCCOC(=O)c4ccc(-c5c6nc(c(-c7c(F)c(F)c(F)c(F)c7F)c7ccc([nH]7)c(-c7c(F)c(F)c(F)c(F)c7F)c7nc(c(-c8c(F)c(F)c(F)c(F)c8F)c8ccc5[nH]8)C=C7)C=C6)cc4)c3n2)cn1
REMARK SMILES IDX 26 1 25 2 24 3 23 4 22 5 20 6 21 7 19 8 18 9 5 10 6 11 98 12
REMARK SMILES IDX 7 13 97 14 12 15 13 16 17 17 4 18 1 19 2 20 3 21 100 22
REMARK SMILES IDX 99 23 8 24 9 25 10 26 11 27 14 28 15 29 16 30 27 31 28 32
REMARK SMILES IDX 29 33 30 34 31 35 32 36 33 37 34 38 35 39 96 40 36 41 95 42
REMARK SMILES IDX 37 43 38 44 39 45 89 46 40 47 94 48 88 49 90 50 41 51 93 52
REMARK SMILES IDX 87 53 86 54 42 56 74 57 54 58 73 59 55 60 58 61 72 62 91 63
REMARK SMILES IDX 56 64 57 65 71 67 92 68 59 69 43 70 44 71 52 72 45 73 46 74
REMARK SMILES IDX 50 75 53 76 47 77 48 78 51 79 49 80 75 81 76 82 84 83 77 84
REMARK SMILES IDX 78 85 82 86 85 87 79 88 80 89 83 90 81 91 60 92 61 93 69 94
REMARK SMILES IDX 62 95 63 96 67 97 70 98 64 99 65 100 68 101 66 102
REMARK H PARENT 90 55 58 66
REMARK Flexibility Score: inf
ROOT
ATOM      1  C   UNL A   1      38.119  23.154  26.078  1.00  0.00     0.188 C 
ENDROOT
BRANCH   1   2
ATOM      2  O   UNL A   1      37.192  23.833  25.230  1.00  0.00    -0.376 OA
BRANCH   2   3
ATOM      3  C   UNL A   1      35.912  24.140  25.780  1.00  0.00     0.202 C 
BRANCH   3   4
ATOM      4  C   UNL A   1      34.697  24.121  24.829  1.00  0.00     0.261 C 
BRANCH   4   5
ATOM      5  O   UNL A   1      34.248  25.389  24.294  1.00  0.00    -0.462 OA
BRANCH   5   6
ATOM      6  C   UNL A   1      33.928  25.378  22.980  1.00  0.00     0.327 C 
ATOM      7  O   UNL A   1      33.930  24.354  22.294  1.00  0.00    -0.250 OA
BRANCH   6   8
ATOM      8  C   UNL A   1      33.674  26.694  22.328  1.00  0.00     0.269 C 
BRANCH   8   9
ATOM      9  N   UNL A   1      33.034  27.830  22.991  1.00  0.00    -0.236 N 
ATOM     10  C   UNL A   1      29.709  27.019  22.848  1.00  0.00     0.077 A 
ATOM     11  C   UNL A   1      29.091  28.130  23.409  1.00  0.00     0.043 A 
ATOM     12  N   UNL A   1      30.868  27.160  22.160  1.00  0.00    -0.228 NA
ATOM     13  C   UNL A   1      29.869  29.285  23.639  1.00  0.00     0.071 A 
ATOM     14  C   UNL A   1      31.679  28.021  22.808  1.00  0.00     0.159 A 
ATOM     15  C   UNL A   1      31.255  29.014  23.677  1.00  0.00     0.055 A 
ATOM     16  C   UNL A   1      32.313  28.996  24.632  1.00  0.00     0.076 A 
ATOM     17  N   UNL A   1      33.408  28.335  24.191  1.00  0.00    -0.174 NA
BRANCH  10  18
ATOM     18  C   UNL A   1      29.781  25.760  23.615  1.00  0.00     0.038 A 
ATOM     19  C   UNL A   1      31.607  24.863  26.525  1.00  0.00     0.173 C 
ATOM     20  N   UNL A   1      30.751  24.820  25.357  1.00  0.00    -0.275 N 
ATOM     21  C   UNL A   1      29.866  25.799  25.002  1.00  0.00     0.118 A 
ATOM     22  N   UNL A   1      31.006  23.962  24.354  1.00  0.00    -0.181 NA
ATOM     23  C   UNL A   1      30.490  24.579  23.282  1.00  0.00     0.145 A 
ENDBRANCH  10  18
BRANCH  13  24
ATOM     24  C   UNL A   1      29.273  30.662  23.565  1.00  0.00     0.417 C 
ATOM     25  F   UNL A   1      29.718  31.541  24.493  1.00  0.00    -0.166 F 
ATOM     26  F   UNL A   1      29.505  31.247  22.356  1.00  0.00    -0.166 F 
ATOM     27  F   UNL A   1      27.915  30.653  23.704  1.00  0.00    -0.166 F 
ENDBRANCH  13  24
BRANCH  16  28
ATOM     28  C   UNL A   1      32.249  29.345  26.127  1.00  0.00     0.041 C 
ATOM     29  C   UNL A   1      33.322  30.041  26.921  1.00  0.00     0.011 C 
ATOM     30  C   UNL A   1      32.095  30.797  26.563  1.00  0.00     0.011 C 
ENDBRANCH  16  28
ENDBRANCH   8   9
ENDBRANCH   6   8
ENDBRANCH   5   6
ENDBRANCH   4   5
ENDBRANCH   3   4
ENDBRANCH   2   3
ENDBRANCH   1   2
BRANCH   1  31
ATOM     31  C   UNL A   1      38.498  21.728  25.665  1.00  0.00     0.188 C 
BRANCH  31  32
ATOM     32  O   UNL A   1      39.760  21.341  26.203  1.00  0.00    -0.376 OA
BRANCH  32  33
ATOM     33  C   UNL A   1      40.186  19.992  26.051  1.00  0.00     0.202 C 
BRANCH  33  34
ATOM     34  C   UNL A   1      41.626  19.742  26.497  1.00  0.00     0.261 C 
BRANCH  34  35
ATOM     35  O   UNL A   1      42.411  20.923  26.389  1.00  0.00    -0.460 OA
BRANCH  35  36
ATOM     36  C   UNL A   1      43.421  20.847  25.509  1.00  0.00     0.338 C 
ATOM     37  O   UNL A   1      43.791  19.858  24.883  1.00  0.00    -0.246 OA
BRANCH  36  38
ATOM     38  C   UNL A   1      44.048  22.162  25.399  1.00  0.00     0.060 A 
ATOM     39  C   UNL A   1      45.090  22.454  26.283  1.00  0.00     0.016 A 
ATOM     40  C   UNL A   1      43.363  23.151  24.688  1.00  0.00     0.016 A 
ATOM     41  C   UNL A   1      45.222  23.750  26.712  1.00  0.00     0.010 A 
ATOM     42  C   UNL A   1      43.452  24.432  25.154  1.00  0.00     0.010 A 
ATOM     43  C   UNL A   1      44.292  24.674  26.240  1.00  0.00    -0.014 A 
BRANCH  43  44
ATOM     44  C   UNL A   1      44.069  25.855  27.038  1.00  0.00     0.031 A 
ATOM     45  C   UNL A   1      45.024  26.949  26.811  1.00  0.00     0.074 A 
ATOM     46  C   UNL A   1      42.975  25.935  27.819  1.00  0.00     0.049 A 
ATOM     47  N   UNL A   1      45.834  27.482  27.661  1.00  0.00    -0.248 NA
ATOM     48  C   UNL A   1      45.172  27.437  25.433  1.00  0.00     0.031 C 
ATOM     49  C   UNL A   1      41.818  25.032  27.853  1.00  0.00     0.029 A 
ATOM     50  N   UNL A   1      42.616  26.926  28.674  1.00  0.00    -0.354 N 
ATOM     51  C   UNL A   1      46.477  28.495  26.962  1.00  0.00     0.074 A 
ATOM     52  C   UNL A   1      46.166  28.310  25.570  1.00  0.00     0.031 C 
ATOM     53  C   UNL A   1      40.805  25.636  28.516  1.00  0.00     0.029 A 
ATOM     54  C   UNL A   1      41.280  26.905  29.040  1.00  0.00     0.049 A 
ATOM     55  H   UNL A   1      43.251  27.602  29.005  1.00  0.00     0.167 HD
ATOM     56  C   UNL A   1      47.012  29.567  27.599  1.00  0.00     0.037 A 
ATOM     57  C   UNL A   1      40.610  27.921  29.637  1.00  0.00     0.037 A 
ATOM     58  C   UNL A   1      47.236  29.309  28.994  1.00  0.00     0.049 A 
ATOM     59  C   UNL A   1      41.625  28.841  30.218  1.00  0.00     0.074 A 
ATOM     60  C   UNL A   1      48.002  28.397  29.694  1.00  0.00     0.029 A 
ATOM     61  N   UNL A   1      46.345  29.823  29.902  1.00  0.00    -0.354 N 
ATOM     62  N   UNL A   1      42.389  28.551  31.234  1.00  0.00    -0.248 NA
ATOM     63  C   UNL A   1      42.081  29.951  29.392  1.00  0.00     0.031 C 
ATOM     64  C   UNL A   1      47.241  28.081  30.857  1.00  0.00     0.029 A 
ATOM     65  C   UNL A   1      46.068  28.835  30.812  1.00  0.00     0.049 A 
ATOM     66  H   UNL A   1      45.972  30.735  29.901  1.00  0.00     0.167 HD
ATOM     67  C   UNL A   1      43.605  29.156  30.949  1.00  0.00     0.074 A 
ATOM     68  C   UNL A   1      43.325  30.086  29.862  1.00  0.00     0.031 C 
ATOM     69  C   UNL A   1      44.775  28.641  31.426  1.00  0.00     0.037 A 
BRANCH  56  70
ATOM     70  C   UNL A   1      47.007  30.944  27.005  1.00  0.00     0.064 A 
ATOM     71  C   UNL A   1      48.200  31.682  26.957  1.00  0.00     0.173 A 
ATOM     72  C   UNL A   1      45.824  31.663  26.716  1.00  0.00     0.173 A 
ATOM     73  F   UNL A   1      49.372  31.105  27.265  1.00  0.00    -0.203 F 
ATOM     74  C   UNL A   1      48.204  33.049  26.670  1.00  0.00     0.198 A 
ATOM     75  C   UNL A   1      45.838  33.008  26.366  1.00  0.00     0.198 A 
ATOM     76  F   UNL A   1      44.609  31.122  26.870  1.00  0.00    -0.203 F 
ATOM     77  F   UNL A   1      49.350  33.739  26.745  1.00  0.00    -0.200 F 
ATOM     78  C   UNL A   1      47.025  33.709  26.369  1.00  0.00     0.200 A 
ATOM     79  F   UNL A   1      44.682  33.634  26.102  1.00  0.00    -0.200 F 
ATOM     80  F   UNL A   1      47.023  35.028  26.135  1.00  0.00    -0.200 F 
ENDBRANCH  56  70
BRANCH  57  81
ATOM     81  C   UNL A   1      39.196  28.323  29.446  1.00  0.00     0.064 A 
ATOM     82  C   UNL A   1      38.340  28.470  30.549  1.00  0.00     0.173 A 
ATOM     83  C   UNL A   1      38.727  28.838  28.220  1.00  0.00     0.173 A 
ATOM     84  F   UNL A   1      38.725  28.046  31.762  1.00  0.00    -0.203 F 
ATOM     85  C   UNL A   1      37.106  29.121  30.442  1.00  0.00     0.198 A 
ATOM     86  C   UNL A   1      37.490  29.473  28.111  1.00  0.00     0.198 A 
ATOM     87  F   UNL A   1      39.496  28.824  27.124  1.00  0.00    -0.203 F 
ATOM     88  F   UNL A   1      36.351  29.306  31.533  1.00  0.00    -0.200 F 
ATOM     89  C   UNL A   1      36.687  29.631  29.224  1.00  0.00     0.200 A 
ATOM     90  F   UNL A   1      37.112  29.992  26.933  1.00  0.00    -0.200 F 
ATOM     91  F   UNL A   1      35.536  30.310  29.132  1.00  0.00    -0.200 F 
ENDBRANCH  57  81
BRANCH  69  92
ATOM     92  C   UNL A   1      44.687  27.586  32.492  1.00  0.00     0.064 A 
ATOM     93  C   UNL A   1      44.558  27.873  33.862  1.00  0.00     0.173 A 
ATOM     94  C   UNL A   1      44.570  26.246  32.098  1.00  0.00     0.173 A 
ATOM     95  F   UNL A   1      44.552  29.138  34.303  1.00  0.00    -0.203 F 
ATOM     96  C   UNL A   1      44.365  26.859  34.797  1.00  0.00     0.198 A 
ATOM     97  C   UNL A   1      44.340  25.239  33.031  1.00  0.00     0.198 A 
ATOM     98  F   UNL A   1      44.625  25.921  30.797  1.00  0.00    -0.203 F 
ATOM     99  F   UNL A   1      44.251  27.157  36.100  1.00  0.00    -0.200 F 
ATOM    100  C   UNL A   1      44.247  25.543  34.380  1.00  0.00     0.200 A 
ATOM    101  F   UNL A   1      44.175  23.974  32.618  1.00  0.00    -0.200 F 
ATOM    102  F   UNL A   1      44.013  24.572  35.274  1.00  0.00    -0.200 F 
ENDBRANCH  69  92
ENDBRANCH  43  44
ENDBRANCH  36  38
ENDBRANCH  35  36
ENDBRANCH  34  35
ENDBRANCH  33  34
ENDBRANCH  32  33
ENDBRANCH  31  32
ENDBRANCH   1  31
TORSDOF 21
ENDMDL
MODEL 2
REMARK VINA RESULT:     -11.5      4.446      8.930
REMARK SMILES Cn1cc(-c2cc(C(F)(F)F)c3c(C4CC4)nn(CC(=O)OCCOCCOCCOC(=O)c4ccc(-c5c6nc(c(-c7c(F)c(F)c(F)c(F)c7F)c7ccc([nH]7)c(-c7c(F)c(F)c(F)c(F)c7F)c7nc(c(-c8c(F)c(F)c(F)c(F)c8F)c8ccc5[nH]8)C=C7)C=C6)cc4)c3n2)cn1
REMARK SMILES IDX 26 1 25 2 24 3 23 4 22 5 20 6 21 7 19 8 18 9 5 10 6 11 98 12
REMARK SMILES IDX 7 13 97 14 12 15 13 16 17 17 4 18 1 19 2 20 3 21 100 22
REMARK SMILES IDX 99 23 8 24 9 25 10 26 11 27 14 28 15 29 16 30 27 31 28 32
REMARK SMILES IDX 29 33 30 34 31 35 32 36 33 37 34 38 35 39 96 40 36 41 95 42
REMARK SMILES IDX 37 43 38 44 39 45 89 46 40 47 94 48 88 49 90 50 41 51 93 52
REMARK SMILES IDX 87 53 86 54 42 56 74 57 54 58 73 59 55 60 58 61 72 62 91 63
REMARK SMILES IDX 56 64 57 65 71 67 92 68 59 69 43 70 44 71 52 72 45 73 46 74
REMARK SMILES IDX 50 75 53 76 47 77 48 78 51 79 49 80 75 81 76 82 84 83 77 84
REMARK SMILES IDX 78 85 82 86 85 87 79 88 80 89 83 90 81 91 60 92 61 93 69 94
REMARK SMILES IDX 62 95 63 96 67 97 70 98 64 99 65 100 68 101 66 102
REMARK H PARENT 90 55 58 66
REMARK Flexibility Score: inf
ROOT
ATOM      1  C   UNL A   1      33.186  29.089  23.959  1.00  0.00     0.188 C 
ENDROOT
BRANCH   1   2
ATOM      2  O   UNL A   1      31.767  29.052  23.803  1.00  0.00    -0.376 OA
BRANCH   2   3
ATOM      3  C   UNL A   1      31.261  28.533  22.575  1.00  0.00     0.202 C 
BRANCH   3   4
ATOM      4  C   UNL A   1      31.416  27.020  22.315  1.00  0.00     0.261 C 
BRANCH   4   5
ATOM      5  O   UNL A   1      30.645  26.118  23.144  1.00  0.00    -0.462 OA
BRANCH   5   6
ATOM      6  C   UNL A   1      30.939  24.807  22.996  1.00  0.00     0.327 C 
ATOM      7  O   UNL A   1      30.192  23.901  23.373  1.00  0.00    -0.250 OA
BRANCH   6   8
ATOM      8  C   UNL A   1      32.284  24.465  22.454  1.00  0.00     0.269 C 
BRANCH   8   9
ATOM      9  N   UNL A   1      33.043  23.273  22.830  1.00  0.00    -0.236 N 
ATOM     10  C   UNL A   1      34.483  24.191  25.799  1.00  0.00     0.077 A 
ATOM     11  C   UNL A   1      35.265  23.089  26.123  1.00  0.00     0.043 A 
ATOM     12  N   UNL A   1      34.266  24.514  24.501  1.00  0.00    -0.228 NA
ATOM     13  C   UNL A   1      35.451  22.089  25.145  1.00  0.00     0.071 A 
ATOM     14  C   UNL A   1      34.030  23.395  23.788  1.00  0.00     0.159 A 
ATOM     15  C   UNL A   1      34.469  22.126  24.130  1.00  0.00     0.055 A 
ATOM     16  C   UNL A   1      33.369  21.338  23.681  1.00  0.00     0.076 A 
ATOM     17  N   UNL A   1      32.545  22.013  22.847  1.00  0.00    -0.174 NA
BRANCH  10  18
ATOM     18  C   UNL A   1      33.239  24.448  26.550  1.00  0.00     0.038 A 
ATOM     19  C   UNL A   1      30.143  22.713  26.661  1.00  0.00     0.173 C 
ATOM     20  N   UNL A   1      31.195  23.686  26.869  1.00  0.00    -0.275 N 
ATOM     21  C   UNL A   1      32.512  23.381  27.068  1.00  0.00     0.118 A 
ATOM     22  N   UNL A   1      31.003  24.979  26.550  1.00  0.00    -0.181 NA
ATOM     23  C   UNL A   1      32.240  25.414  26.273  1.00  0.00     0.145 A 
ENDBRANCH  10  18
BRANCH  13  24
ATOM     24  C   UNL A   1      36.716  21.282  25.075  1.00  0.00     0.417 C 
ATOM     25  F   UNL A   1      37.622  21.532  26.050  1.00  0.00    -0.166 F 
ATOM     26  F   UNL A   1      36.464  19.944  25.136  1.00  0.00    -0.166 F 
ATOM     27  F   UNL A   1      37.391  21.467  23.903  1.00  0.00    -0.166 F 
ENDBRANCH  13  24
BRANCH  16  28
ATOM     28  C   UNL A   1      32.868  19.999  24.243  1.00  0.00     0.041 C 
ATOM     29  C   UNL A   1      32.529  18.772  23.439  1.00  0.00     0.011 C 
ATOM     30  C   UNL A   1      33.783  18.781  24.233  1.00  0.00     0.011 C 
ENDBRANCH  16  28
ENDBRANCH   8   9
ENDBRANCH   6   8
ENDBRANCH   5   6
ENDBRANCH   4   5
ENDBRANCH   3   4
ENDBRANCH   2   3
ENDBRANCH   1   2
BRANCH   1  31
ATOM     31  C   UNL A   1      33.783  28.122  24.988  1.00  0.00     0.188 C 
BRANCH  31  32
ATOM     32  O   UNL A   1      34.434  28.816  26.049  1.00  0.00    -0.376 OA
BRANCH  32  33
ATOM     33  C   UNL A   1      33.639  29.470  27.031  1.00  0.00     0.202 C 
BRANCH  33  34
ATOM     34  C   UNL A   1      33.869  30.979  27.113  1.00  0.00     0.261 C 
BRANCH  34  35
ATOM     35  O   UNL A   1      32.936  31.593  27.994  1.00  0.00    -0.460 OA
BRANCH  35  36
ATOM     36  C   UNL A   1      32.964  32.936  27.992  1.00  0.00     0.338 C 
ATOM     37  O   UNL A   1      32.173  33.696  27.444  1.00  0.00    -0.246 OA
BRANCH  36  38
ATOM     38  C   UNL A   1      34.122  33.382  28.763  1.00  0.00     0.060 A 
ATOM     39  C   UNL A   1      35.120  34.080  28.080  1.00  0.00     0.016 A 
ATOM     40  C   UNL A   1      34.333  32.797  30.015  1.00  0.00     0.016 A 
ATOM     41  C   UNL A   1      36.418  33.907  28.487  1.00  0.00     0.010 A 
ATOM     42  C   UNL A   1      35.627  32.575  30.391  1.00  0.00     0.010 A 
ATOM     43  C   UNL A   1      36.640  33.031  29.548  1.00  0.00    -0.014 A 
BRANCH  43  44
ATOM     44  C   UNL A   1      37.948  32.432  29.650  1.00  0.00     0.031 A 
ATOM     45  C   UNL A   1      38.051  31.068  29.114  1.00  0.00     0.074 A 
ATOM     46  C   UNL A   1      38.985  33.167  30.095  1.00  0.00     0.049 A 
ATOM     47  N   UNL A   1      38.370  29.991  29.747  1.00  0.00    -0.248 NA
ATOM     48  C   UNL A   1      37.640  30.860  27.718  1.00  0.00     0.031 C 
ATOM     49  C   UNL A   1      39.032  34.614  30.338  1.00  0.00     0.029 A 
ATOM     50  N   UNL A   1      40.267  32.779  30.309  1.00  0.00    -0.354 N 
ATOM     51  C   UNL A   1      38.366  28.990  28.784  1.00  0.00     0.074 A 
ATOM     52  C   UNL A   1      37.746  29.539  27.608  1.00  0.00     0.031 C 
ATOM     53  C   UNL A   1      40.322  35.003  30.451  1.00  0.00     0.029 A 
ATOM     54  C   UNL A   1      41.172  33.825  30.399  1.00  0.00     0.049 A 
ATOM     55  H   UNL A   1      40.532  31.834  30.395  1.00  0.00     0.167 HD
ATOM     56  C   UNL A   1      39.102  27.860  28.932  1.00  0.00     0.037 A 
ATOM     57  C   UNL A   1      42.520  33.710  30.323  1.00  0.00     0.037 A 
ATOM     58  C   UNL A   1      39.470  27.632  30.301  1.00  0.00     0.049 A 
ATOM     59  C   UNL A   1      42.859  32.284  30.579  1.00  0.00     0.074 A 
ATOM     60  C   UNL A   1      38.761  27.431  31.470  1.00  0.00     0.029 A 
ATOM     61  N   UNL A   1      40.750  27.938  30.690  1.00  0.00    -0.354 N 
ATOM     62  N   UNL A   1      42.724  31.688  31.731  1.00  0.00    -0.248 NA
ATOM     63  C   UNL A   1      42.963  31.398  29.428  1.00  0.00     0.031 C 
ATOM     64  C   UNL A   1      39.527  28.067  32.489  1.00  0.00     0.029 A 
ATOM     65  C   UNL A   1      40.669  28.598  31.889  1.00  0.00     0.049 A 
ATOM     66  H   UNL A   1      41.576  27.724  30.198  1.00  0.00     0.167 HD
ATOM     67  C   UNL A   1      42.322  30.397  31.419  1.00  0.00     0.074 A 
ATOM     68  C   UNL A   1      42.589  30.247  29.994  1.00  0.00     0.031 C 
ATOM     69  C   UNL A   1      41.551  29.673  32.281  1.00  0.00     0.037 A 
BRANCH  56  70
ATOM     70  C   UNL A   1      39.755  27.164  27.775  1.00  0.00     0.064 A 
ATOM     71  C   UNL A   1      39.695  25.765  27.684  1.00  0.00     0.173 A 
ATOM     72  C   UNL A   1      40.656  27.802  26.891  1.00  0.00     0.173 A 
ATOM     73  F   UNL A   1      38.909  25.061  28.513  1.00  0.00    -0.203 F 
ATOM     74  C   UNL A   1      40.501  25.054  26.792  1.00  0.00     0.198 A 
ATOM     75  C   UNL A   1      41.409  27.097  25.959  1.00  0.00     0.198 A 
ATOM     76  F   UNL A   1      40.923  29.112  26.972  1.00  0.00    -0.203 F 
ATOM     77  F   UNL A   1      40.494  23.715  26.816  1.00  0.00    -0.200 F 
ATOM     78  C   UNL A   1      41.352  25.720  25.928  1.00  0.00     0.200 A 
ATOM     79  F   UNL A   1      42.245  27.760  25.148  1.00  0.00    -0.200 F 
ATOM     80  F   UNL A   1      42.156  25.037  25.102  1.00  0.00    -0.200 F 
ENDBRANCH  56  70
BRANCH  57  81
ATOM     81  C   UNL A   1      43.488  34.656  29.719  1.00  0.00     0.064 A 
ATOM     82  C   UNL A   1      44.655  35.023  30.408  1.00  0.00     0.173 A 
ATOM     83  C   UNL A   1      43.435  35.005  28.354  1.00  0.00     0.173 A 
ATOM     84  F   UNL A   1      44.806  34.692  31.699  1.00  0.00    -0.203 F 
ATOM     85  C   UNL A   1      45.717  35.667  29.765  1.00  0.00     0.198 A 
ATOM     86  C   UNL A   1      44.488  35.662  27.717  1.00  0.00     0.198 A 
ATOM     87  F   UNL A   1      42.404  34.632  27.583  1.00  0.00    -0.203 F 
ATOM     88  F   UNL A   1      46.844  35.934  30.440  1.00  0.00    -0.200 F 
ATOM     89  C   UNL A   1      45.636  35.976  28.417  1.00  0.00     0.200 A 
ATOM     90  F   UNL A   1      44.410  35.925  26.404  1.00  0.00    -0.200 F 
ATOM     91  F   UNL A   1      46.677  36.536  27.786  1.00  0.00    -0.200 F 
ENDBRANCH  57  81
BRANCH  69  92
ATOM     92  C   UNL A   1      41.394  30.196  33.681  1.00  0.00     0.064 A 
ATOM     93  C   UNL A   1      42.292  29.910  34.723  1.00  0.00     0.173 A 
ATOM     94  C   UNL A   1      40.392  31.143  33.932  1.00  0.00     0.173 A 
ATOM     95  F   UNL A   1      43.339  29.097  34.528  1.00  0.00    -0.203 F 
ATOM     96  C   UNL A   1      42.164  30.513  35.973  1.00  0.00     0.198 A 
ATOM     97  C   UNL A   1      40.290  31.772  35.170  1.00  0.00     0.198 A 
ATOM     98  F   UNL A   1      39.544  31.500  32.955  1.00  0.00    -0.203 F 
ATOM     99  F   UNL A   1      43.030  30.219  36.954  1.00  0.00    -0.200 F 
ATOM    100  C   UNL A   1      41.168  31.450  36.192  1.00  0.00     0.200 A 
ATOM    101  F   UNL A   1      39.357  32.716  35.362  1.00  0.00    -0.200 F 
ATOM    102  F   UNL A   1      41.074  32.067  37.379  1.00  0.00    -0.200 F 
ENDBRANCH  69  92
ENDBRANCH  43  44
ENDBRANCH  36  38
ENDBRANCH  35  36
ENDBRANCH  34  35
ENDBRANCH  33  34
ENDBRANCH  32  33
ENDBRANCH  31  32
ENDBRANCH   1  31
TORSDOF 21
ENDMDL
MODEL 3
REMARK VINA RESULT:     -11.5      4.337      9.260
REMARK SMILES Cn1cc(-c2cc(C(F)(F)F)c3c(C4CC4)nn(CC(=O)OCCOCCOCCOC(=O)c4ccc(-c5c6nc(c(-c7c(F)c(F)c(F)c(F)c7F)c7ccc([nH]7)c(-c7c(F)c(F)c(F)c(F)c7F)c7nc(c(-c8c(F)c(F)c(F)c(F)c8F)c8ccc5[nH]8)C=C7)C=C6)cc4)c3n2)cn1
REMARK SMILES IDX 26 1 25 2 24 3 23 4 22 5 20 6 21 7 19 8 18 9 5 10 6 11 98 12
REMARK SMILES IDX 7 13 97 14 12 15 13 16 17 17 4 18 1 19 2 20 3 21 100 22
REMARK SMILES IDX 99 23 8 24 9 25 10 26 11 27 14 28 15 29 16 30 27 31 28 32
REMARK SMILES IDX 29 33 30 34 31 35 32 36 33 37 34 38 35 39 96 40 36 41 95 42
REMARK SMILES IDX 37 43 38 44 39 45 89 46 40 47 94 48 88 49 90 50 41 51 93 52
REMARK SMILES IDX 87 53 86 54 42 56 74 57 54 58 73 59 55 60 58 61 72 62 91 63
REMARK SMILES IDX 56 64 57 65 71 67 92 68 59 69 43 70 44 71 52 72 45 73 46 74
REMARK SMILES IDX 50 75 53 76 47 77 48 78 51 79 49 80 75 81 76 82 84 83 77 84
REMARK SMILES IDX 78 85 82 86 85 87 79 88 80 89 83 90 81 91 60 92 61 93 69 94
REMARK SMILES IDX 62 95 63 96 67 97 70 98 64 99 65 100 68 101 66 102
REMARK H PARENT 90 55 58 66
REMARK Flexibility Score: inf
ROOT
ATOM      1  C   UNL A   1      33.394  29.628  26.500  1.00  0.00     0.188 C 
ENDROOT
BRANCH   1   2
ATOM      2  O   UNL A   1      33.014  29.648  25.123  1.00  0.00    -0.376 OA
BRANCH   2   3
ATOM      3  C   UNL A   1      32.560  28.422  24.555  1.00  0.00     0.202 C 
BRANCH   3   4
ATOM      4  C   UNL A   1      33.189  27.971  23.220  1.00  0.00     0.261 C 
BRANCH   4   5
ATOM      5  O   UNL A   1      32.310  27.379  22.234  1.00  0.00    -0.462 OA
BRANCH   5   6
ATOM      6  C   UNL A   1      32.667  26.145  21.812  1.00  0.00     0.327 C 
ATOM      7  O   UNL A   1      33.278  25.943  20.760  1.00  0.00    -0.250 OA
BRANCH   6   8
ATOM      8  C   UNL A   1      32.190  24.984  22.614  1.00  0.00     0.269 C 
BRANCH   8   9
ATOM      9  N   UNL A   1      32.980  23.777  22.864  1.00  0.00    -0.236 N 
ATOM     10  C   UNL A   1      34.275  24.347  25.983  1.00  0.00     0.077 A 
ATOM     11  C   UNL A   1      35.086  23.238  26.193  1.00  0.00     0.043 A 
ATOM     12  N   UNL A   1      34.093  24.830  24.729  1.00  0.00    -0.228 NA
ATOM     13  C   UNL A   1      35.345  22.381  25.102  1.00  0.00     0.071 A 
ATOM     14  C   UNL A   1      33.926  23.806  23.868  1.00  0.00     0.159 A 
ATOM     15  C   UNL A   1      34.400  22.518  24.061  1.00  0.00     0.055 A 
ATOM     16  C   UNL A   1      33.348  21.760  23.469  1.00  0.00     0.076 A 
ATOM     17  N   UNL A   1      32.529  22.511  22.697  1.00  0.00    -0.174 NA
BRANCH  10  18
ATOM     18  C   UNL A   1      32.995  24.461  26.709  1.00  0.00     0.038 A 
ATOM     19  C   UNL A   1      29.993  22.576  26.523  1.00  0.00     0.173 C 
ATOM     20  N   UNL A   1      30.985  23.572  26.871  1.00  0.00    -0.275 N 
ATOM     21  C   UNL A   1      32.309  23.312  27.086  1.00  0.00     0.118 A 
ATOM     22  N   UNL A   1      30.736  24.880  26.681  1.00  0.00    -0.181 NA
ATOM     23  C   UNL A   1      31.956  25.402  26.496  1.00  0.00     0.145 A 
ENDBRANCH  10  18
BRANCH  13  24
ATOM     24  C   UNL A   1      36.642  21.633  24.981  1.00  0.00     0.417 C 
ATOM     25  F   UNL A   1      37.583  21.942  25.904  1.00  0.00    -0.166 F 
ATOM     26  F   UNL A   1      36.457  20.285  25.075  1.00  0.00    -0.166 F 
ATOM     27  F   UNL A   1      37.248  21.828  23.773  1.00  0.00    -0.166 F 
ENDBRANCH  13  24
BRANCH  16  28
ATOM     28  C   UNL A   1      32.878  20.343  23.832  1.00  0.00     0.041 C 
ATOM     29  C   UNL A   1      33.666  19.320  24.605  1.00  0.00     0.011 C 
ATOM     30  C   UNL A   1      32.532  20.004  25.277  1.00  0.00     0.011 C 
ENDBRANCH  16  28
ENDBRANCH   8   9
ENDBRANCH   6   8
ENDBRANCH   5   6
ENDBRANCH   4   5
ENDBRANCH   3   4
ENDBRANCH   2   3
ENDBRANCH   1   2
BRANCH   1  31
ATOM     31  C   UNL A   1      33.274  30.954  27.258  1.00  0.00     0.188 C 
BRANCH  31  32
ATOM     32  O   UNL A   1      34.501  31.678  27.252  1.00  0.00    -0.376 OA
BRANCH  32  33
ATOM     33  C   UNL A   1      34.876  32.405  28.416  1.00  0.00     0.202 C 
BRANCH  33  34
ATOM     34  C   UNL A   1      33.910  33.531  28.783  1.00  0.00     0.261 C 
BRANCH  34  35
ATOM     35  O   UNL A   1      34.519  34.462  29.669  1.00  0.00    -0.460 OA
BRANCH  35  36
ATOM     36  C   UNL A   1      33.989  34.493  30.902  1.00  0.00     0.338 C 
ATOM     37  O   UNL A   1      32.902  34.956  31.233  1.00  0.00    -0.246 OA
BRANCH  36  38
ATOM     38  C   UNL A   1      34.930  33.875  31.833  1.00  0.00     0.060 A 
ATOM     39  C   UNL A   1      36.050  34.622  32.206  1.00  0.00     0.016 A 
ATOM     40  C   UNL A   1      34.852  32.492  32.013  1.00  0.00     0.016 A 
ATOM     41  C   UNL A   1      37.220  33.948  32.445  1.00  0.00     0.010 A 
ATOM     42  C   UNL A   1      36.026  31.818  32.194  1.00  0.00     0.010 A 
ATOM     43  C   UNL A   1      37.201  32.564  32.281  1.00  0.00    -0.014 A 
BRANCH  43  44
ATOM     44  C   UNL A   1      38.457  31.913  32.003  1.00  0.00     0.031 A 
ATOM     45  C   UNL A   1      39.330  31.721  33.170  1.00  0.00     0.074 A 
ATOM     46  C   UNL A   1      38.698  31.426  30.771  1.00  0.00     0.049 A 
ATOM     47  N   UNL A   1      40.514  32.195  33.359  1.00  0.00    -0.248 NA
ATOM     48  C   UNL A   1      38.768  30.998  34.319  1.00  0.00     0.031 C 
ATOM     49  C   UNL A   1      37.758  31.289  29.651  1.00  0.00     0.029 A 
ATOM     50  N   UNL A   1      39.824  30.834  30.299  1.00  0.00    -0.354 N 
ATOM     51  C   UNL A   1      40.916  31.685  34.586  1.00  0.00     0.074 A 
ATOM     52  C   UNL A   1      39.753  31.109  35.206  1.00  0.00     0.031 C 
ATOM     53  C   UNL A   1      38.291  30.462  28.724  1.00  0.00     0.029 A 
ATOM     54  C   UNL A   1      39.641  30.109  29.133  1.00  0.00     0.049 A 
ATOM     55  H   UNL A   1      40.697  30.913  30.748  1.00  0.00     0.167 HD
ATOM     56  C   UNL A   1      42.229  31.543  34.900  1.00  0.00     0.037 A 
ATOM     57  C   UNL A   1      40.511  29.206  28.621  1.00  0.00     0.037 A 
ATOM     58  C   UNL A   1      43.072  32.360  34.073  1.00  0.00     0.049 A 
ATOM     59  C   UNL A   1      41.835  29.457  29.252  1.00  0.00     0.074 A 
ATOM     60  C   UNL A   1      43.179  33.720  33.852  1.00  0.00     0.029 A 
ATOM     61  N   UNL A   1      43.751  31.760  33.043  1.00  0.00    -0.354 N 
ATOM     62  N   UNL A   1      42.569  30.512  29.031  1.00  0.00    -0.248 NA
ATOM     63  C   UNL A   1      42.156  28.716  30.464  1.00  0.00     0.031 C 
ATOM     64  C   UNL A   1      43.519  33.851  32.475  1.00  0.00     0.029 A 
ATOM     65  C   UNL A   1      43.623  32.566  31.941  1.00  0.00     0.049 A 
ATOM     66  H   UNL A   1      44.240  30.906  33.085  1.00  0.00     0.167 HD
ATOM     67  C   UNL A   1      43.159  30.797  30.255  1.00  0.00     0.074 A 
ATOM     68  C   UNL A   1      42.954  29.603  31.067  1.00  0.00     0.031 C 
ATOM     69  C   UNL A   1      43.506  32.074  30.588  1.00  0.00     0.037 A 
BRANCH  56  70
ATOM     70  C   UNL A   1      42.741  30.406  35.732  1.00  0.00     0.064 A 
ATOM     71  C   UNL A   1      43.560  30.672  36.841  1.00  0.00     0.173 A 
ATOM     72  C   UNL A   1      42.669  29.052  35.329  1.00  0.00     0.173 A 
ATOM     73  F   UNL A   1      43.736  31.931  37.271  1.00  0.00    -0.203 F 
ATOM     74  C   UNL A   1      44.277  29.659  37.481  1.00  0.00     0.198 A 
ATOM     75  C   UNL A   1      43.332  28.037  36.009  1.00  0.00     0.198 A 
ATOM     76  F   UNL A   1      42.048  28.678  34.203  1.00  0.00    -0.203 F 
ATOM     77  F   UNL A   1      45.133  29.971  38.463  1.00  0.00    -0.200 F 
ATOM     78  C   UNL A   1      44.158  28.343  37.069  1.00  0.00     0.200 A 
ATOM     79  F   UNL A   1      43.222  26.772  35.578  1.00  0.00    -0.200 F 
ATOM     80  F   UNL A   1      44.878  27.378  37.656  1.00  0.00    -0.200 F 
ENDBRANCH  56  70
BRANCH  57  81
ATOM     81  C   UNL A   1      40.207  27.947  27.898  1.00  0.00     0.064 A 
ATOM     82  C   UNL A   1      40.840  27.652  26.680  1.00  0.00     0.173 A 
ATOM     83  C   UNL A   1      39.507  26.887  28.509  1.00  0.00     0.173 A 
ATOM     84  F   UNL A   1      41.563  28.591  26.052  1.00  0.00    -0.203 F 
ATOM     85  C   UNL A   1      40.806  26.368  26.125  1.00  0.00     0.198 A 
ATOM     86  C   UNL A   1      39.460  25.611  27.948  1.00  0.00     0.198 A 
ATOM     87  F   UNL A   1      38.936  27.038  29.712  1.00  0.00    -0.203 F 
ATOM     88  F   UNL A   1      41.485  26.108  25.000  1.00  0.00    -0.200 F 
ATOM     89  C   UNL A   1      40.124  25.347  26.766  1.00  0.00     0.200 A 
ATOM     90  F   UNL A   1      38.824  24.623  28.595  1.00  0.00    -0.200 F 
ATOM     91  F   UNL A   1      40.143  24.103  26.269  1.00  0.00    -0.200 F 
ENDBRANCH  57  81
BRANCH  69  92
ATOM     92  C   UNL A   1      43.499  33.104  29.495  1.00  0.00     0.064 A 
ATOM     93  C   UNL A   1      42.401  33.937  29.217  1.00  0.00     0.173 A 
ATOM     94  C   UNL A   1      44.695  33.362  28.812  1.00  0.00     0.173 A 
ATOM     95  F   UNL A   1      41.257  33.821  29.904  1.00  0.00    -0.203 F 
ATOM     96  C   UNL A   1      42.488  34.952  28.267  1.00  0.00     0.198 A 
ATOM     97  C   UNL A   1      44.789  34.402  27.891  1.00  0.00     0.198 A 
ATOM     98  F   UNL A   1      45.793  32.637  29.081  1.00  0.00    -0.203 F 
ATOM     99  F   UNL A   1      41.424  35.731  28.015  1.00  0.00    -0.200 F 
ATOM    100  C   UNL A   1      43.685  35.190  27.612  1.00  0.00     0.200 A 
ATOM    101  F   UNL A   1      45.963  34.661  27.298  1.00  0.00    -0.200 F 
ATOM    102  F   UNL A   1      43.782  36.198  26.734  1.00  0.00    -0.200 F 
ENDBRANCH  69  92
ENDBRANCH  43  44
ENDBRANCH  36  38
ENDBRANCH  35  36
ENDBRANCH  34  35
ENDBRANCH  33  34
ENDBRANCH  32  33
ENDBRANCH  31  32
ENDBRANCH   1  31
TORSDOF 21
ENDMDL
