MODEL 1
REMARK VINA RESULT:     -10.2      0.000      0.000
REMARK SMILES C[C@H](CC(=O)OCCOCCOCCOC(=O)c1ccc(-c2c3nc(c(-c4c(F)c(F)c(F)c(F)c4F)c4ccc([nH]4)c(-c4c(F)c(F)c(F)c(F)c4F)c4nc(c(-c5c(F)c(F)c(F)c(F)c5F)c5ccc2[nH]5)C=C4)C=C3)cc1)NC(=O)Cc1cn2ccsc2n1
REMARK SMILES IDX 10 1 9 2 8 3 7 4 6 5 4 6 5 7 3 8 2 9 1 10 81 11 82 12 83 14
REMARK SMILES IDX 84 15 85 16 86 17 92 18 87 19 91 20 88 21 90 22 89 23 11 24
REMARK SMILES IDX 12 25 13 26 14 27 15 28 16 29 17 30 18 31 19 32 80 33 20 34
REMARK SMILES IDX 79 35 21 36 22 37 23 38 73 39 24 40 78 41 72 42 74 43 25 44
REMARK SMILES IDX 77 45 71 46 70 47 26 49 58 50 38 51 57 52 39 53 42 54 56 55
REMARK SMILES IDX 75 56 40 57 41 58 55 60 76 61 43 62 27 63 28 64 36 65 29 66
REMARK SMILES IDX 30 67 34 68 37 69 31 70 32 71 35 72 33 73 59 74 60 75 68 76
REMARK SMILES IDX 61 77 62 78 66 79 69 80 63 81 64 82 67 83 65 84 44 85 45 86
REMARK SMILES IDX 53 87 46 88 47 89 51 90 54 91 48 92 49 93 52 94 50 95
REMARK H PARENT 81 13 74 48 42 59
REMARK Flexibility Score: inf
ROOT
ATOM      1  C   UNL A   1      36.393  23.504  25.218  1.00  0.00     0.188 C 
ENDROOT
BRANCH   1   2
ATOM      2  O   UNL A   1      35.043  23.417  25.642  1.00  0.00    -0.376 OA
BRANCH   2   3
ATOM      3  C   UNL A   1      34.822  22.794  26.905  1.00  0.00     0.202 C 
BRANCH   3   4
ATOM      4  C   UNL A   1      33.927  21.547  26.897  1.00  0.00     0.261 C 
BRANCH   4   5
ATOM      5  O   UNL A   1      33.894  20.822  25.650  1.00  0.00    -0.463 OA
BRANCH   5   6
ATOM      6  C   UNL A   1      32.691  20.747  25.016  1.00  0.00     0.307 C 
ATOM      7  O   UNL A   1      31.813  19.932  25.272  1.00  0.00    -0.252 OA
BRANCH   6   8
ATOM      8  C   UNL A   1      32.595  21.737  23.876  1.00  0.00     0.147 C 
BRANCH   8   9
ATOM      9  C   UNL A   1      31.851  23.053  24.130  1.00  0.00     0.090 C 
ATOM     10  C   UNL A   1      30.867  23.459  23.039  1.00  0.00     0.031 C 
BRANCH   9  11
ATOM     11  N   UNL A   1      31.083  22.929  25.377  1.00  0.00    -0.353 N 
ATOM     12  C   UNL A   1      30.982  23.780  26.441  1.00  0.00     0.226 C 
ATOM     13  H   UNL A   1      30.557  22.101  25.459  1.00  0.00     0.163 HD
ATOM     14  O   UNL A   1      30.127  23.539  27.297  1.00  0.00    -0.275 OA
BRANCH  12  15
ATOM     15  C   UNL A   1      31.849  25.020  26.517  1.00  0.00     0.157 C 
BRANCH  15  16
ATOM     16  C   UNL A   1      31.564  26.004  25.432  1.00  0.00     0.070 A 
ATOM     17  C   UNL A   1      32.476  26.791  24.734  1.00  0.00     0.118 A 
ATOM     18  N   UNL A   1      30.267  26.274  25.020  1.00  0.00    -0.223 NA
ATOM     19  N   UNL A   1      31.707  27.578  23.932  1.00  0.00    -0.297 N 
ATOM     20  C   UNL A   1      30.413  27.207  24.124  1.00  0.00     0.193 A 
ATOM     21  C   UNL A   1      31.903  28.618  23.053  1.00  0.00     0.104 A 
ATOM     22  S   UNL A   1      29.333  28.163  23.163  1.00  0.00    -0.105 S 
ATOM     23  C   UNL A   1      30.737  29.058  22.547  1.00  0.00     0.087 A 
ENDBRANCH  15  16
ENDBRANCH  12  15
ENDBRANCH   9  11
ENDBRANCH   8   9
ENDBRANCH   6   8
ENDBRANCH   5   6
ENDBRANCH   4   5
ENDBRANCH   3   4
ENDBRANCH   2   3
ENDBRANCH   1   2
BRANCH   1  24
ATOM     24  C   UNL A   1      37.324  22.378  25.670  1.00  0.00     0.188 C 
BRANCH  24  25
ATOM     25  O   UNL A   1      37.693  21.465  24.642  1.00  0.00    -0.376 OA
BRANCH  25  26
ATOM     26  C   UNL A   1      37.774  20.090  25.039  1.00  0.00     0.202 C 
BRANCH  26  27
ATOM     27  C   UNL A   1      39.179  19.583  25.407  1.00  0.00     0.261 C 
BRANCH  27  28
ATOM     28  O   UNL A   1      39.655  20.075  26.676  1.00  0.00    -0.460 OA
BRANCH  28  29
ATOM     29  C   UNL A   1      40.991  20.256  26.798  1.00  0.00     0.338 C 
ATOM     30  O   UNL A   1      41.867  19.470  26.477  1.00  0.00    -0.246 OA
BRANCH  29  31
ATOM     31  C   UNL A   1      41.238  21.678  27.144  1.00  0.00     0.060 A 
ATOM     32  C   UNL A   1      40.690  22.667  26.315  1.00  0.00     0.016 A 
ATOM     33  C   UNL A   1      41.931  22.044  28.303  1.00  0.00     0.016 A 
ATOM     34  C   UNL A   1      40.876  24.017  26.617  1.00  0.00     0.010 A 
ATOM     35  C   UNL A   1      42.116  23.396  28.605  1.00  0.00     0.010 A 
ATOM     36  C   UNL A   1      41.619  24.390  27.746  1.00  0.00    -0.014 A 
BRANCH  36  37
ATOM     37  C   UNL A   1      42.036  25.802  27.920  1.00  0.00     0.031 A 
ATOM     38  C   UNL A   1      43.372  26.225  27.373  1.00  0.00     0.074 A 
ATOM     39  C   UNL A   1      41.249  26.704  28.532  1.00  0.00     0.049 A 
ATOM     40  N   UNL A   1      43.964  27.390  27.426  1.00  0.00    -0.248 NA
ATOM     41  C   UNL A   1      44.145  25.187  26.671  1.00  0.00     0.031 C 
ATOM     42  C   UNL A   1      39.925  26.438  29.089  1.00  0.00     0.029 A 
ATOM     43  N   UNL A   1      41.467  28.034  28.799  1.00  0.00    -0.354 N 
ATOM     44  C   UNL A   1      45.177  27.225  26.771  1.00  0.00     0.074 A 
ATOM     45  C   UNL A   1      45.252  25.841  26.356  1.00  0.00     0.031 C 
ATOM     46  C   UNL A   1      39.454  27.566  29.649  1.00  0.00     0.029 A 
ATOM     47  C   UNL A   1      40.453  28.625  29.512  1.00  0.00     0.049 A 
ATOM     48  H   UNL A   1      42.273  28.516  28.507  1.00  0.00     0.167 HD
ATOM     49  C   UNL A   1      46.139  28.145  26.523  1.00  0.00     0.037 A 
ATOM     50  C   UNL A   1      40.357  29.873  30.013  1.00  0.00     0.037 A 
ATOM     51  C   UNL A   1      46.077  29.521  26.932  1.00  0.00     0.049 A 
ATOM     52  C   UNL A   1      41.473  30.863  29.786  1.00  0.00     0.074 A 
ATOM     53  C   UNL A   1      46.991  30.533  26.698  1.00  0.00     0.029 A 
ATOM     54  N   UNL A   1      45.046  30.077  27.675  1.00  0.00    -0.354 N 
ATOM     55  N   UNL A   1      42.595  30.710  29.126  1.00  0.00    -0.248 NA
ATOM     56  C   UNL A   1      41.303  32.201  30.372  1.00  0.00     0.031 C 
ATOM     57  C   UNL A   1      46.536  31.690  27.340  1.00  0.00     0.029 A 
ATOM     58  C   UNL A   1      45.314  31.411  27.930  1.00  0.00     0.049 A 
ATOM     59  H   UNL A   1      44.242  29.594  27.974  1.00  0.00     0.167 HD
ATOM     60  C   UNL A   1      43.251  31.935  29.196  1.00  0.00     0.074 A 
ATOM     61  C   UNL A   1      42.394  32.825  29.950  1.00  0.00     0.031 C 
ATOM     62  C   UNL A   1      44.454  32.290  28.680  1.00  0.00     0.037 A 
BRANCH  49  63
ATOM     63  C   UNL A   1      47.359  27.676  25.788  1.00  0.00     0.064 A 
ATOM     64  C   UNL A   1      48.473  27.161  26.467  1.00  0.00     0.173 A 
ATOM     65  C   UNL A   1      47.406  27.728  24.388  1.00  0.00     0.173 A 
ATOM     66  F   UNL A   1      48.482  27.110  27.807  1.00  0.00    -0.203 F 
ATOM     67  C   UNL A   1      49.602  26.739  25.770  1.00  0.00     0.198 A 
ATOM     68  C   UNL A   1      48.526  27.281  23.693  1.00  0.00     0.198 A 
ATOM     69  F   UNL A   1      46.365  28.215  23.694  1.00  0.00    -0.203 F 
ATOM     70  F   UNL A   1      50.675  26.298  26.440  1.00  0.00    -0.200 F 
ATOM     71  C   UNL A   1      49.626  26.794  24.384  1.00  0.00     0.200 A 
ATOM     72  F   UNL A   1      48.544  27.328  22.354  1.00  0.00    -0.200 F 
ATOM     73  F   UNL A   1      50.712  26.386  23.715  1.00  0.00    -0.200 F 
ENDBRANCH  49  63
BRANCH  50  74
ATOM     74  C   UNL A   1      39.158  30.267  30.797  1.00  0.00     0.064 A 
ATOM     75  C   UNL A   1      38.075  30.910  30.184  1.00  0.00     0.173 A 
ATOM     76  C   UNL A   1      39.088  30.040  32.179  1.00  0.00     0.173 A 
ATOM     77  F   UNL A   1      38.110  31.172  28.869  1.00  0.00    -0.203 F 
ATOM     78  C   UNL A   1      36.973  31.329  30.927  1.00  0.00     0.198 A 
ATOM     79  C   UNL A   1      37.974  30.436  32.917  1.00  0.00     0.198 A 
ATOM     80  F   UNL A   1      40.102  29.434  32.812  1.00  0.00    -0.203 F 
ATOM     81  F   UNL A   1      35.972  31.985  30.324  1.00  0.00    -0.200 F 
ATOM     82  C   UNL A   1      36.921  31.087  32.292  1.00  0.00     0.200 A 
ATOM     83  F   UNL A   1      37.925  30.195  34.234  1.00  0.00    -0.200 F 
ATOM     84  F   UNL A   1      35.862  31.492  33.006  1.00  0.00    -0.200 F 
ENDBRANCH  50  74
BRANCH  62  85
ATOM     85  C   UNL A   1      44.905  33.709  28.883  1.00  0.00     0.064 A 
ATOM     86  C   UNL A   1      45.719  34.076  29.964  1.00  0.00     0.173 A 
ATOM     87  C   UNL A   1      44.553  34.705  27.960  1.00  0.00     0.173 A 
ATOM     88  F   UNL A   1      46.073  33.163  30.882  1.00  0.00    -0.203 F 
ATOM     89  C   UNL A   1      46.142  35.393  30.129  1.00  0.00     0.198 A 
ATOM     90  C   UNL A   1      45.002  36.015  28.110  1.00  0.00     0.198 A 
ATOM     91  F   UNL A   1      43.783  34.406  26.902  1.00  0.00    -0.203 F 
ATOM     92  F   UNL A   1      46.880  35.730  31.195  1.00  0.00    -0.200 F 
ATOM     93  C   UNL A   1      45.789  36.359  29.197  1.00  0.00     0.200 A 
ATOM     94  F   UNL A   1      44.670  36.944  27.202  1.00  0.00    -0.200 F 
ATOM     95  F   UNL A   1      46.201  37.624  29.355  1.00  0.00    -0.200 F 
ENDBRANCH  62  85
ENDBRANCH  36  37
ENDBRANCH  29  31
ENDBRANCH  28  29
ENDBRANCH  27  28
ENDBRANCH  26  27
ENDBRANCH  25  26
ENDBRANCH  24  25
ENDBRANCH   1  24
TORSDOF 21
ENDMDL
MODEL 2
REMARK VINA RESULT:     -10.1      1.465      2.676
REMARK SMILES C[C@H](CC(=O)OCCOCCOCCOC(=O)c1ccc(-c2c3nc(c(-c4c(F)c(F)c(F)c(F)c4F)c4ccc([nH]4)c(-c4c(F)c(F)c(F)c(F)c4F)c4nc(c(-c5c(F)c(F)c(F)c(F)c5F)c5ccc2[nH]5)C=C4)C=C3)cc1)NC(=O)Cc1cn2ccsc2n1
REMARK SMILES IDX 10 1 9 2 8 3 7 4 6 5 4 6 5 7 3 8 2 9 1 10 81 11 82 12 83 14
REMARK SMILES IDX 84 15 85 16 86 17 92 18 87 19 91 20 88 21 90 22 89 23 11 24
REMARK SMILES IDX 12 25 13 26 14 27 15 28 16 29 17 30 18 31 19 32 80 33 20 34
REMARK SMILES IDX 79 35 21 36 22 37 23 38 73 39 24 40 78 41 72 42 74 43 25 44
REMARK SMILES IDX 77 45 71 46 70 47 26 49 58 50 38 51 57 52 39 53 42 54 56 55
REMARK SMILES IDX 75 56 40 57 41 58 55 60 76 61 43 62 27 63 28 64 36 65 29 66
REMARK SMILES IDX 30 67 34 68 37 69 31 70 32 71 35 72 33 73 59 74 60 75 68 76
REMARK SMILES IDX 61 77 62 78 66 79 69 80 63 81 64 82 67 83 65 84 44 85 45 86
REMARK SMILES IDX 53 87 46 88 47 89 51 90 54 91 48 92 49 93 52 94 50 95
REMARK H PARENT 81 13 74 48 42 59
REMARK Flexibility Score: inf
ROOT
ATOM      1  C   UNL A   1      36.776  23.696  25.120  1.00  0.00     0.188 C 
ENDROOT
BRANCH   1   2
ATOM      2  O   UNL A   1      35.531  24.167  24.632  1.00  0.00    -0.376 OA
BRANCH   2   3
ATOM      3  C   UNL A   1      34.600  24.614  25.616  1.00  0.00     0.202 C 
BRANCH   3   4
ATOM      4  C   UNL A   1      33.999  26.009  25.394  1.00  0.00     0.261 C 
BRANCH   4   5
ATOM      5  O   UNL A   1      34.080  26.505  24.041  1.00  0.00    -0.463 OA
BRANCH   5   6
ATOM      6  C   UNL A   1      33.818  27.829  23.857  1.00  0.00     0.307 C 
ATOM      7  O   UNL A   1      34.076  28.460  22.840  1.00  0.00    -0.252 OA
BRANCH   6   8
ATOM      8  C   UNL A   1      33.253  28.468  25.107  1.00  0.00     0.147 C 
BRANCH   8   9
ATOM      9  C   UNL A   1      31.856  29.093  25.023  1.00  0.00     0.090 C 
ATOM     10  C   UNL A   1      31.679  30.386  25.811  1.00  0.00     0.031 C 
BRANCH   9  11
ATOM     11  N   UNL A   1      31.559  29.402  23.617  1.00  0.00    -0.353 N 
ATOM     12  C   UNL A   1      30.488  29.054  22.843  1.00  0.00     0.226 C 
ATOM     13  H   UNL A   1      32.240  29.947  23.160  1.00  0.00     0.163 HD
ATOM     14  O   UNL A   1      30.376  29.588  21.736  1.00  0.00    -0.275 OA
BRANCH  12  15
ATOM     15  C   UNL A   1      29.439  28.097  23.370  1.00  0.00     0.157 C 
BRANCH  15  16
ATOM     16  C   UNL A   1      29.969  26.726  23.624  1.00  0.00     0.070 A 
ATOM     17  C   UNL A   1      29.779  25.935  24.753  1.00  0.00     0.118 A 
ATOM     18  N   UNL A   1      30.793  26.086  22.709  1.00  0.00    -0.223 NA
ATOM     19  N   UNL A   1      30.543  24.829  24.531  1.00  0.00    -0.297 N 
ATOM     20  C   UNL A   1      31.095  24.964  23.296  1.00  0.00     0.193 A 
ATOM     21  C   UNL A   1      30.900  23.694  25.222  1.00  0.00     0.104 A 
ATOM     22  S   UNL A   1      32.114  23.615  22.910  1.00  0.00    -0.105 S 
ATOM     23  C   UNL A   1      31.741  22.929  24.504  1.00  0.00     0.087 A 
ENDBRANCH  15  16
ENDBRANCH  12  15
ENDBRANCH   9  11
ENDBRANCH   8   9
ENDBRANCH   6   8
ENDBRANCH   5   6
ENDBRANCH   4   5
ENDBRANCH   3   4
ENDBRANCH   2   3
ENDBRANCH   1   2
BRANCH   1  24
ATOM     24  C   UNL A   1      36.839  22.220  25.515  1.00  0.00     0.188 C 
BRANCH  24  25
ATOM     25  O   UNL A   1      37.734  21.435  24.733  1.00  0.00    -0.376 OA
BRANCH  25  26
ATOM     26  C   UNL A   1      37.835  20.056  25.112  1.00  0.00     0.202 C 
BRANCH  26  27
ATOM     27  C   UNL A   1      39.259  19.545  25.395  1.00  0.00     0.261 C 
BRANCH  27  28
ATOM     28  O   UNL A   1      39.755  19.917  26.697  1.00  0.00    -0.460 OA
BRANCH  28  29
ATOM     29  C   UNL A   1      41.088  20.132  26.803  1.00  0.00     0.338 C 
ATOM     30  O   UNL A   1      41.980  19.366  26.478  1.00  0.00    -0.246 OA
BRANCH  29  31
ATOM     31  C   UNL A   1      41.302  21.563  27.135  1.00  0.00     0.060 A 
ATOM     32  C   UNL A   1      40.828  22.530  26.237  1.00  0.00     0.016 A 
ATOM     33  C   UNL A   1      41.890  21.959  28.341  1.00  0.00     0.016 A 
ATOM     34  C   UNL A   1      40.985  23.887  26.523  1.00  0.00     0.010 A 
ATOM     35  C   UNL A   1      42.046  23.318  28.626  1.00  0.00     0.010 A 
ATOM     36  C   UNL A   1      41.625  24.290  27.703  1.00  0.00    -0.014 A 
BRANCH  36  37
ATOM     37  C   UNL A   1      42.024  25.707  27.880  1.00  0.00     0.031 A 
ATOM     38  C   UNL A   1      43.358  26.146  27.340  1.00  0.00     0.074 A 
ATOM     39  C   UNL A   1      41.222  26.599  28.487  1.00  0.00     0.049 A 
ATOM     40  N   UNL A   1      43.936  27.319  27.396  1.00  0.00    -0.248 NA
ATOM     41  C   UNL A   1      44.147  25.118  26.642  1.00  0.00     0.031 C 
ATOM     42  C   UNL A   1      39.899  26.317  29.036  1.00  0.00     0.029 A 
ATOM     43  N   UNL A   1      41.422  27.931  28.755  1.00  0.00    -0.354 N 
ATOM     44  C   UNL A   1      45.154  27.168  26.748  1.00  0.00     0.074 A 
ATOM     45  C   UNL A   1      45.248  25.785  26.334  1.00  0.00     0.031 C 
ATOM     46  C   UNL A   1      39.411  27.439  29.593  1.00  0.00     0.029 A 
ATOM     47  C   UNL A   1      40.398  28.510  29.462  1.00  0.00     0.049 A 
ATOM     48  H   UNL A   1      42.225  28.424  28.468  1.00  0.00     0.167 HD
ATOM     49  C   UNL A   1      46.106  28.100  26.506  1.00  0.00     0.037 A 
ATOM     50  C   UNL A   1      40.283  29.756  29.963  1.00  0.00     0.037 A 
ATOM     51  C   UNL A   1      46.024  29.475  26.914  1.00  0.00     0.049 A 
ATOM     52  C   UNL A   1      41.388  30.760  29.741  1.00  0.00     0.074 A 
ATOM     53  C   UNL A   1      46.927  30.499  26.685  1.00  0.00     0.029 A 
ATOM     54  N   UNL A   1      44.982  30.018  27.651  1.00  0.00    -0.354 N 
ATOM     55  N   UNL A   1      42.515  30.622  29.088  1.00  0.00    -0.248 NA
ATOM     56  C   UNL A   1      41.198  32.097  30.326  1.00  0.00     0.031 C 
ATOM     57  C   UNL A   1      46.454  31.650  27.325  1.00  0.00     0.029 A 
ATOM     58  C   UNL A   1      45.233  31.356  27.907  1.00  0.00     0.049 A 
ATOM     59  H   UNL A   1      44.183  29.525  27.946  1.00  0.00     0.167 HD
ATOM     60  C   UNL A   1      43.156  31.854  29.162  1.00  0.00     0.074 A 
ATOM     61  C   UNL A   1      42.284  32.734  29.911  1.00  0.00     0.031 C 
ATOM     62  C   UNL A   1      44.357  32.224  28.652  1.00  0.00     0.037 A 
BRANCH  49  63
ATOM     63  C   UNL A   1      47.336  27.646  25.778  1.00  0.00     0.064 A 
ATOM     64  C   UNL A   1      48.457  27.159  26.464  1.00  0.00     0.173 A 
ATOM     65  C   UNL A   1      47.385  27.685  24.377  1.00  0.00     0.173 A 
ATOM     66  F   UNL A   1      48.465  27.122  27.804  1.00  0.00    -0.203 F 
ATOM     67  C   UNL A   1      49.595  26.751  25.773  1.00  0.00     0.198 A 
ATOM     68  C   UNL A   1      48.513  27.252  23.689  1.00  0.00     0.198 A 
ATOM     69  F   UNL A   1      46.336  28.145  23.676  1.00  0.00    -0.203 F 
ATOM     70  F   UNL A   1      50.675  26.336  26.450  1.00  0.00    -0.200 F 
ATOM     71  C   UNL A   1      49.621  26.792  24.387  1.00  0.00     0.200 A 
ATOM     72  F   UNL A   1      48.534  27.286  22.349  1.00  0.00    -0.200 F 
ATOM     73  F   UNL A   1      50.716  26.398  23.724  1.00  0.00    -0.200 F 
ENDBRANCH  49  63
BRANCH  50  74
ATOM     74  C   UNL A   1      39.075  30.136  30.740  1.00  0.00     0.064 A 
ATOM     75  C   UNL A   1      37.925  30.614  30.098  1.00  0.00     0.173 A 
ATOM     76  C   UNL A   1      39.060  30.061  32.140  1.00  0.00     0.173 A 
ATOM     77  F   UNL A   1      37.904  30.728  28.762  1.00  0.00    -0.203 F 
ATOM     78  C   UNL A   1      36.810  31.021  30.828  1.00  0.00     0.198 A 
ATOM     79  C   UNL A   1      37.935  30.444  32.868  1.00  0.00     0.198 A 
ATOM     80  F   UNL A   1      40.139  29.617  32.800  1.00  0.00    -0.203 F 
ATOM     81  F   UNL A   1      35.742  31.519  30.192  1.00  0.00    -0.200 F 
ATOM     82  C   UNL A   1      36.815  30.931  32.213  1.00  0.00     0.200 A 
ATOM     83  F   UNL A   1      37.941  30.350  34.205  1.00  0.00    -0.200 F 
ATOM     84  F   UNL A   1      35.743  31.325  32.914  1.00  0.00    -0.200 F 
ENDBRANCH  50  74
BRANCH  62  85
ATOM     85  C   UNL A   1      44.789  33.648  28.857  1.00  0.00     0.064 A 
ATOM     86  C   UNL A   1      45.588  34.026  29.947  1.00  0.00     0.173 A 
ATOM     87  C   UNL A   1      44.436  34.639  27.929  1.00  0.00     0.173 A 
ATOM     88  F   UNL A   1      45.943  33.120  30.870  1.00  0.00    -0.203 F 
ATOM     89  C   UNL A   1      45.994  35.348  30.114  1.00  0.00     0.198 A 
ATOM     90  C   UNL A   1      44.868  35.954  28.083  1.00  0.00     0.198 A 
ATOM     91  F   UNL A   1      43.680  34.329  26.864  1.00  0.00    -0.203 F 
ATOM     92  F   UNL A   1      46.717  35.696  31.187  1.00  0.00    -0.200 F 
ATOM     93  C   UNL A   1      45.639  36.309  29.177  1.00  0.00     0.200 A 
ATOM     94  F   UNL A   1      44.535  36.878  27.170  1.00  0.00    -0.200 F 
ATOM     95  F   UNL A   1      46.035  37.580  29.337  1.00  0.00    -0.200 F 
ENDBRANCH  62  85
ENDBRANCH  36  37
ENDBRANCH  29  31
ENDBRANCH  28  29
ENDBRANCH  27  28
ENDBRANCH  26  27
ENDBRANCH  25  26
ENDBRANCH  24  25
ENDBRANCH   1  24
TORSDOF 21
ENDMDL
MODEL 3
REMARK VINA RESULT:      -9.9      4.100      9.371
REMARK SMILES C[C@H](CC(=O)OCCOCCOCCOC(=O)c1ccc(-c2c3nc(c(-c4c(F)c(F)c(F)c(F)c4F)c4ccc([nH]4)c(-c4c(F)c(F)c(F)c(F)c4F)c4nc(c(-c5c(F)c(F)c(F)c(F)c5F)c5ccc2[nH]5)C=C4)C=C3)cc1)NC(=O)Cc1cn2ccsc2n1
REMARK SMILES IDX 10 1 9 2 8 3 7 4 6 5 4 6 5 7 3 8 2 9 1 10 81 11 82 12 83 14
REMARK SMILES IDX 84 15 85 16 86 17 92 18 87 19 91 20 88 21 90 22 89 23 11 24
REMARK SMILES IDX 12 25 13 26 14 27 15 28 16 29 17 30 18 31 19 32 80 33 20 34
REMARK SMILES IDX 79 35 21 36 22 37 23 38 73 39 24 40 78 41 72 42 74 43 25 44
REMARK SMILES IDX 77 45 71 46 70 47 26 49 58 50 38 51 57 52 39 53 42 54 56 55
REMARK SMILES IDX 75 56 40 57 41 58 55 60 76 61 43 62 27 63 28 64 36 65 29 66
REMARK SMILES IDX 30 67 34 68 37 69 31 70 32 71 35 72 33 73 59 74 60 75 68 76
REMARK SMILES IDX 61 77 62 78 66 79 69 80 63 81 64 82 67 83 65 84 44 85 45 86
REMARK SMILES IDX 53 87 46 88 47 89 51 90 54 91 48 92 49 93 52 94 50 95
REMARK H PARENT 81 13 74 48 42 59
REMARK Flexibility Score: inf
ROOT
ATOM      1  C   UNL A   1      32.931  36.703  30.979  1.00  0.00     0.188 C 
ENDROOT
BRANCH   1   2
ATOM      2  O   UNL A   1      32.476  35.881  29.917  1.00  0.00    -0.376 OA
BRANCH   2   3
ATOM      3  C   UNL A   1      33.367  35.732  28.814  1.00  0.00     0.202 C 
BRANCH   3   4
ATOM      4  C   UNL A   1      34.524  34.741  29.007  1.00  0.00     0.261 C 
BRANCH   4   5
ATOM      5  O   UNL A   1      34.129  33.370  29.218  1.00  0.00    -0.463 OA
BRANCH   5   6
ATOM      6  C   UNL A   1      33.963  32.602  28.105  1.00  0.00     0.307 C 
ATOM      7  O   UNL A   1      32.928  32.522  27.456  1.00  0.00    -0.252 OA
BRANCH   6   8
ATOM      8  C   UNL A   1      35.191  31.769  27.810  1.00  0.00     0.147 C 
BRANCH   8   9
ATOM      9  C   UNL A   1      34.984  30.308  27.396  1.00  0.00     0.090 C 
ATOM     10  C   UNL A   1      35.917  29.307  28.068  1.00  0.00     0.031 C 
BRANCH   9  11
ATOM     11  N   UNL A   1      33.610  29.909  27.737  1.00  0.00    -0.353 N 
ATOM     12  C   UNL A   1      32.764  29.034  27.118  1.00  0.00     0.226 C 
ATOM     13  H   UNL A   1      33.241  30.343  28.540  1.00  0.00     0.163 HD
ATOM     14  O   UNL A   1      31.720  28.728  27.699  1.00  0.00    -0.275 OA
BRANCH  12  15
ATOM     15  C   UNL A   1      33.145  28.408  25.792  1.00  0.00     0.157 C 
BRANCH  15  16
ATOM     16  C   UNL A   1      32.988  26.924  25.775  1.00  0.00     0.070 A 
ATOM     17  C   UNL A   1      33.993  25.961  25.775  1.00  0.00     0.118 A 
ATOM     18  N   UNL A   1      31.737  26.328  25.712  1.00  0.00    -0.223 NA
ATOM     19  N   UNL A   1      33.333  24.776  25.657  1.00  0.00    -0.297 N 
ATOM     20  C   UNL A   1      32.002  25.055  25.653  1.00  0.00     0.193 A 
ATOM     21  C   UNL A   1      33.662  23.447  25.514  1.00  0.00     0.104 A 
ATOM     22  S   UNL A   1      31.055  23.612  25.484  1.00  0.00    -0.105 S 
ATOM     23  C   UNL A   1      32.563  22.680  25.405  1.00  0.00     0.087 A 
ENDBRANCH  15  16
ENDBRANCH  12  15
ENDBRANCH   9  11
ENDBRANCH   8   9
ENDBRANCH   6   8
ENDBRANCH   5   6
ENDBRANCH   4   5
ENDBRANCH   3   4
ENDBRANCH   2   3
ENDBRANCH   1   2
BRANCH   1  24
ATOM     24  C   UNL A   1      33.290  35.993  32.285  1.00  0.00     0.188 C 
BRANCH  24  25
ATOM     25  O   UNL A   1      32.528  34.821  32.552  1.00  0.00    -0.376 OA
BRANCH  25  26
ATOM     26  C   UNL A   1      33.286  33.668  32.941  1.00  0.00     0.202 C 
BRANCH  26  27
ATOM     27  C   UNL A   1      34.797  33.737  32.657  1.00  0.00     0.261 C 
BRANCH  27  28
ATOM     28  O   UNL A   1      35.412  32.442  32.500  1.00  0.00    -0.460 OA
BRANCH  28  29
ATOM     29  C   UNL A   1      36.525  32.202  33.233  1.00  0.00     0.338 C 
ATOM     30  O   UNL A   1      36.634  32.292  34.445  1.00  0.00    -0.246 OA
BRANCH  29  31
ATOM     31  C   UNL A   1      37.529  31.552  32.354  1.00  0.00     0.060 A 
ATOM     32  C   UNL A   1      38.472  30.698  32.944  1.00  0.00     0.016 A 
ATOM     33  C   UNL A   1      37.504  31.712  30.965  1.00  0.00     0.016 A 
ATOM     34  C   UNL A   1      39.418  30.046  32.152  1.00  0.00     0.010 A 
ATOM     35  C   UNL A   1      38.452  31.057  30.173  1.00  0.00     0.010 A 
ATOM     36  C   UNL A   1      39.435  30.248  30.765  1.00  0.00    -0.014 A 
BRANCH  36  37
ATOM     37  C   UNL A   1      40.588  29.770  29.964  1.00  0.00     0.031 A 
ATOM     38  C   UNL A   1      41.703  30.738  29.670  1.00  0.00     0.074 A 
ATOM     39  C   UNL A   1      40.667  28.505  29.517  1.00  0.00     0.049 A 
ATOM     40  N   UNL A   1      42.796  30.564  28.972  1.00  0.00    -0.248 NA
ATOM     41  C   UNL A   1      41.561  32.087  30.244  1.00  0.00     0.031 C 
ATOM     42  C   UNL A   1      39.673  27.460  29.746  1.00  0.00     0.029 A 
ATOM     43  N   UNL A   1      41.634  27.892  28.758  1.00  0.00    -0.354 N 
ATOM     44  C   UNL A   1      43.467  31.778  29.018  1.00  0.00     0.074 A 
ATOM     45  C   UNL A   1      42.646  32.691  29.785  1.00  0.00     0.031 C 
ATOM     46  C   UNL A   1      40.072  26.337  29.124  1.00  0.00     0.029 A 
ATOM     47  C   UNL A   1      41.335  26.592  28.433  1.00  0.00     0.049 A 
ATOM     48  H   UNL A   1      42.461  28.343  28.473  1.00  0.00     0.167 HD
ATOM     49  C   UNL A   1      44.666  32.104  28.482  1.00  0.00     0.037 A 
ATOM     50  C   UNL A   1      41.998  25.719  27.649  1.00  0.00     0.037 A 
ATOM     51  C   UNL A   1      45.489  31.208  27.717  1.00  0.00     0.049 A 
ATOM     52  C   UNL A   1      43.300  26.126  27.004  1.00  0.00     0.074 A 
ATOM     53  C   UNL A   1      46.735  31.442  27.161  1.00  0.00     0.029 A 
ATOM     54  N   UNL A   1      45.142  29.907  27.387  1.00  0.00    -0.354 N 
ATOM     55  N   UNL A   1      43.950  27.260  27.091  1.00  0.00    -0.248 NA
ATOM     56  C   UNL A   1      43.961  25.123  26.154  1.00  0.00     0.031 C 
ATOM     57  C   UNL A   1      47.119  30.298  26.454  1.00  0.00     0.029 A 
ATOM     58  C   UNL A   1      46.137  29.334  26.613  1.00  0.00     0.049 A 
ATOM     59  H   UNL A   1      44.311  29.457  27.664  1.00  0.00     0.167 HD
ATOM     60  C   UNL A   1      45.103  27.102  26.330  1.00  0.00     0.074 A 
ATOM     61  C   UNL A   1      45.073  25.755  25.801  1.00  0.00     0.031 C 
ATOM     62  C   UNL A   1      46.099  27.992  26.093  1.00  0.00     0.037 A 
BRANCH  49  63
ATOM     63  C   UNL A   1      45.149  33.509  28.691  1.00  0.00     0.064 A 
ATOM     64  C   UNL A   1      44.826  34.537  27.794  1.00  0.00     0.173 A 
ATOM     65  C   UNL A   1      45.929  33.831  29.810  1.00  0.00     0.173 A 
ATOM     66  F   UNL A   1      44.099  34.274  26.698  1.00  0.00    -0.203 F 
ATOM     67  C   UNL A   1      45.290  35.834  27.997  1.00  0.00     0.198 A 
ATOM     68  C   UNL A   1      46.369  35.133  30.024  1.00  0.00     0.198 A 
ATOM     69  F   UNL A   1      46.266  32.880  30.696  1.00  0.00    -0.203 F 
ATOM     70  F   UNL A   1      45.013  36.791  27.102  1.00  0.00    -0.200 F 
ATOM     71  C   UNL A   1      46.056  36.132  29.115  1.00  0.00     0.200 A 
ATOM     72  F   UNL A   1      47.104  35.421  31.108  1.00  0.00    -0.200 F 
ATOM     73  F   UNL A   1      46.501  37.381  29.310  1.00  0.00    -0.200 F 
ENDBRANCH  49  63
BRANCH  50  74
ATOM     74  C   UNL A   1      41.442  24.361  27.415  1.00  0.00     0.064 A 
ATOM     75  C   UNL A   1      40.298  24.176  26.628  1.00  0.00     0.173 A 
ATOM     76  C   UNL A   1      42.023  23.227  28.001  1.00  0.00     0.173 A 
ATOM     77  F   UNL A   1      39.693  25.234  26.069  1.00  0.00    -0.203 F 
ATOM     78  C   UNL A   1      39.743  22.910  26.450  1.00  0.00     0.198 A 
ATOM     79  C   UNL A   1      41.483  21.958  27.802  1.00  0.00     0.198 A 
ATOM     80  F   UNL A   1      43.116  23.354  28.768  1.00  0.00    -0.203 F 
ATOM     81  F   UNL A   1      38.621  22.767  25.733  1.00  0.00    -0.200 F 
ATOM     82  C   UNL A   1      40.340  21.801  27.034  1.00  0.00     0.200 A 
ATOM     83  F   UNL A   1      42.066  20.889  28.362  1.00  0.00    -0.200 F 
ATOM     84  F   UNL A   1      39.805  20.584  26.865  1.00  0.00    -0.200 F 
ENDBRANCH  50  74
BRANCH  62  85
ATOM     85  C   UNL A   1      47.255  27.532  25.252  1.00  0.00     0.064 A 
ATOM     86  C   UNL A   1      47.313  27.791  23.874  1.00  0.00     0.173 A 
ATOM     87  C   UNL A   1      48.339  26.861  25.838  1.00  0.00     0.173 A 
ATOM     88  F   UNL A   1      46.297  28.417  23.262  1.00  0.00    -0.203 F 
ATOM     89  C   UNL A   1      48.401  27.372  23.111  1.00  0.00     0.198 A 
ATOM     90  C   UNL A   1      49.438  26.470  25.078  1.00  0.00     0.198 A 
ATOM     91  F   UNL A   1      48.338  26.596  27.154  1.00  0.00    -0.203 F 
ATOM     92  F   UNL A   1      48.413  27.588  21.789  1.00  0.00    -0.200 F 
ATOM     93  C   UNL A   1      49.465  26.718  23.715  1.00  0.00     0.200 A 
ATOM     94  F   UNL A   1      50.472  25.850  25.667  1.00  0.00    -0.200 F 
ATOM     95  F   UNL A   1      50.513  26.321  22.981  1.00  0.00    -0.200 F 
ENDBRANCH  62  85
ENDBRANCH  36  37
ENDBRANCH  29  31
ENDBRANCH  28  29
ENDBRANCH  27  28
ENDBRANCH  26  27
ENDBRANCH  25  26
ENDBRANCH  24  25
ENDBRANCH   1  24
TORSDOF 21
ENDMDL
