MODEL 1
REMARK VINA RESULT:     -11.0      0.000      0.000
REMARK SMILES Cc1nc(CNC(=O)[C@H]2CCO[C@H]2C)sc1C(=O)OCCOCCOCCOC(=O)c1ccc(-c2c3nc(c(-c4c(F)c(F)c(F)c(F)c4F)c4ccc([nH]4)c(-c4c(F)c(F)c(F)c(F)c4F)c4nc(c(-c5c(F)c(F)c(F)c(F)c5F)c5ccc2[nH]5)C=C4)C=C3)cc1
REMARK SMILES IDX 23 1 22 2 21 3 20 4 19 5 17 6 18 7 16 8 1 9 2 10 3 11 4 12
REMARK SMILES IDX 15 13 5 14 6 15 7 16 8 18 9 19 10 20 13 21 11 22 12 23 14 24
REMARK SMILES IDX 24 25 25 26 26 27 27 28 28 29 29 30 30 31 31 32 32 33 93 34
REMARK SMILES IDX 33 35 92 36 34 37 35 38 36 39 86 40 37 41 91 42 85 43 87 44
REMARK SMILES IDX 38 45 90 46 84 47 83 48 39 50 71 51 51 52 70 53 52 54 55 55
REMARK SMILES IDX 69 56 88 57 53 58 54 59 68 61 89 62 56 63 40 64 41 65 49 66
REMARK SMILES IDX 42 67 43 68 47 69 50 70 44 71 45 72 48 73 46 74 72 75 73 76
REMARK SMILES IDX 81 77 74 78 75 79 79 80 82 81 76 82 77 83 80 84 78 85 57 86
REMARK SMILES IDX 58 87 66 88 59 89 60 90 64 91 67 92 61 93 62 94 65 95 63 96
REMARK H PARENT 6 17 87 49 55 60
REMARK Flexibility Score: inf
ROOT
ATOM      1  C   UNL A   1      39.615  21.697  26.470  1.00  0.00     0.188 C 
ENDROOT
BRANCH   1   2
ATOM      2  O   UNL A   1      38.710  21.756  25.373  1.00  0.00    -0.376 OA
BRANCH   2   3
ATOM      3  C   UNL A   1      37.400  21.219  25.513  1.00  0.00     0.202 C 
BRANCH   3   4
ATOM      4  C   UNL A   1      36.247  22.219  25.628  1.00  0.00     0.261 C 
BRANCH   4   5
ATOM      5  O   UNL A   1      35.133  21.879  24.784  1.00  0.00    -0.459 OA
BRANCH   5   6
ATOM      6  C   UNL A   1      34.021  21.410  25.428  1.00  0.00     0.350 C 
ATOM      7  O   UNL A   1      34.022  20.465  26.199  1.00  0.00    -0.245 OA
BRANCH   6   8
ATOM      8  C   UNL A   1      32.889  22.280  25.173  1.00  0.00     0.135 A 
ATOM      9  C   UNL A   1      32.111  21.792  22.748  1.00  0.00     0.068 C 
ATOM     10  C   UNL A   1      32.093  22.499  24.060  1.00  0.00     0.063 A 
ATOM     11  N   UNL A   1      31.141  23.505  24.219  1.00  0.00    -0.244 NA
ATOM     12  C   UNL A   1      31.198  24.016  25.430  1.00  0.00     0.113 A 
ATOM     13  S   UNL A   1      32.381  23.314  26.452  1.00  0.00    -0.110 S 
BRANCH  12  14
ATOM     14  C   UNL A   1      30.315  25.100  25.984  1.00  0.00     0.183 C 
BRANCH  14  15
ATOM     15  N   UNL A   1      31.077  26.289  26.321  1.00  0.00    -0.349 N 
ATOM     16  C   UNL A   1      31.145  27.485  25.672  1.00  0.00     0.226 C 
ATOM     17  H   UNL A   1      31.625  26.220  27.137  1.00  0.00     0.163 HD
ATOM     18  O   UNL A   1      31.773  28.403  26.200  1.00  0.00    -0.275 OA
BRANCH  16  19
ATOM     19  C   UNL A   1      30.444  27.641  24.340  1.00  0.00     0.109 C 
ATOM     20  C   UNL A   1      30.276  29.074  23.877  1.00  0.00     0.044 C 
ATOM     21  C   UNL A   1      31.198  27.022  23.167  1.00  0.00     0.127 C 
ATOM     22  C   UNL A   1      30.026  28.896  22.395  1.00  0.00     0.161 C 
ATOM     23  O   UNL A   1      30.701  27.696  21.990  1.00  0.00    -0.378 OA
ATOM     24  C   UNL A   1      32.714  27.205  23.187  1.00  0.00     0.039 C 
ENDBRANCH  16  19
ENDBRANCH  14  15
ENDBRANCH  12  14
ENDBRANCH   6   8
ENDBRANCH   5   6
ENDBRANCH   4   5
ENDBRANCH   3   4
ENDBRANCH   2   3
ENDBRANCH   1   2
BRANCH   1  25
ATOM     25  C   UNL A   1      40.578  20.504  26.614  1.00  0.00     0.188 C 
BRANCH  25  26
ATOM     26  O   UNL A   1      41.568  20.423  25.602  1.00  0.00    -0.376 OA
BRANCH  26  27
ATOM     27  C   UNL A   1      42.914  20.482  26.051  1.00  0.00     0.202 C 
BRANCH  27  28
ATOM     28  C   UNL A   1      43.718  21.628  25.425  1.00  0.00     0.261 C 
BRANCH  28  29
ATOM     29  O   UNL A   1      42.951  22.805  25.120  1.00  0.00    -0.460 OA
BRANCH  29  30
ATOM     30  C   UNL A   1      43.628  23.972  25.046  1.00  0.00     0.338 C 
ATOM     31  O   UNL A   1      44.499  24.271  24.250  1.00  0.00    -0.246 OA
BRANCH  30  32
ATOM     32  C   UNL A   1      43.016  24.912  26.007  1.00  0.00     0.060 A 
ATOM     33  C   UNL A   1      43.494  26.226  26.069  1.00  0.00     0.016 A 
ATOM     34  C   UNL A   1      41.977  24.494  26.841  1.00  0.00     0.016 A 
ATOM     35  C   UNL A   1      42.943  27.123  26.987  1.00  0.00     0.010 A 
ATOM     36  C   UNL A   1      41.439  25.388  27.772  1.00  0.00     0.010 A 
ATOM     37  C   UNL A   1      41.935  26.700  27.866  1.00  0.00    -0.014 A 
BRANCH  37  38
ATOM     38  C   UNL A   1      41.508  27.570  28.988  1.00  0.00     0.031 A 
ATOM     39  C   UNL A   1      42.253  27.484  30.291  1.00  0.00     0.074 A 
ATOM     40  C   UNL A   1      40.473  28.419  28.861  1.00  0.00     0.049 A 
ATOM     41  N   UNL A   1      42.033  28.108  31.420  1.00  0.00    -0.248 NA
ATOM     42  C   UNL A   1      43.406  26.569  30.322  1.00  0.00     0.031 C 
ATOM     43  C   UNL A   1      39.682  28.614  27.650  1.00  0.00     0.029 A 
ATOM     44  N   UNL A   1      39.901  29.269  29.778  1.00  0.00    -0.354 N 
ATOM     45  C   UNL A   1      43.017  27.664  32.293  1.00  0.00     0.074 A 
ATOM     46  C   UNL A   1      43.819  26.697  31.574  1.00  0.00     0.031 C 
ATOM     47  C   UNL A   1      38.714  29.515  27.901  1.00  0.00     0.029 A 
ATOM     48  C   UNL A   1      38.802  29.937  29.299  1.00  0.00     0.049 A 
ATOM     49  H   UNL A   1      40.248  29.387  30.692  1.00  0.00     0.167 HD
ATOM     50  C   UNL A   1      43.239  28.034  33.577  1.00  0.00     0.037 A 
ATOM     51  C   UNL A   1      37.954  30.776  29.925  1.00  0.00     0.037 A 
ATOM     52  C   UNL A   1      42.436  28.983  34.301  1.00  0.00     0.049 A 
ATOM     53  C   UNL A   1      38.179  31.119  31.377  1.00  0.00     0.074 A 
ATOM     54  C   UNL A   1      42.590  29.429  35.603  1.00  0.00     0.029 A 
ATOM     55  N   UNL A   1      41.320  29.625  33.787  1.00  0.00    -0.354 N 
ATOM     56  N   UNL A   1      39.133  30.721  32.184  1.00  0.00    -0.248 NA
ATOM     57  C   UNL A   1      37.208  32.029  32.003  1.00  0.00     0.031 C 
ATOM     58  C   UNL A   1      41.540  30.308  35.889  1.00  0.00     0.029 A 
ATOM     59  C   UNL A   1      40.762  30.447  34.752  1.00  0.00     0.049 A 
ATOM     60  H   UNL A   1      40.975  29.514  32.872  1.00  0.00     0.167 HD
ATOM     61  C   UNL A   1      38.893  31.352  33.400  1.00  0.00     0.074 A 
ATOM     62  C   UNL A   1      37.711  32.167  33.222  1.00  0.00     0.031 C 
ATOM     63  C   UNL A   1      39.592  31.262  34.558  1.00  0.00     0.037 A 
BRANCH  50  64
ATOM     64  C   UNL A   1      44.392  27.393  34.287  1.00  0.00     0.064 A 
ATOM     65  C   UNL A   1      45.668  27.976  34.288  1.00  0.00     0.173 A 
ATOM     66  C   UNL A   1      44.213  26.197  34.999  1.00  0.00     0.173 A 
ATOM     67  F   UNL A   1      45.892  29.111  33.609  1.00  0.00    -0.203 F 
ATOM     68  C   UNL A   1      46.729  27.373  34.959  1.00  0.00     0.198 A 
ATOM     69  C   UNL A   1      45.271  25.610  35.688  1.00  0.00     0.198 A 
ATOM     70  F   UNL A   1      43.012  25.600  35.029  1.00  0.00    -0.203 F 
ATOM     71  F   UNL A   1      47.949  27.926  34.913  1.00  0.00    -0.200 F 
ATOM     72  C   UNL A   1      46.528  26.195  35.663  1.00  0.00     0.200 A 
ATOM     73  F   UNL A   1      45.074  24.477  36.376  1.00  0.00    -0.200 F 
ATOM     74  F   UNL A   1      47.550  25.619  36.312  1.00  0.00    -0.200 F 
ENDBRANCH  50  64
BRANCH  51  75
ATOM     75  C   UNL A   1      36.795  31.348  29.191  1.00  0.00     0.064 A 
ATOM     76  C   UNL A   1      36.768  32.700  28.822  1.00  0.00     0.173 A 
ATOM     77  C   UNL A   1      35.678  30.562  28.873  1.00  0.00     0.173 A 
ATOM     78  F   UNL A   1      37.801  33.499  29.130  1.00  0.00    -0.203 F 
ATOM     79  C   UNL A   1      35.659  33.248  28.179  1.00  0.00     0.198 A 
ATOM     80  C   UNL A   1      34.581  31.105  28.208  1.00  0.00     0.198 A 
ATOM     81  F   UNL A   1      35.652  29.265  29.213  1.00  0.00    -0.203 F 
ATOM     82  F   UNL A   1      35.640  34.554  27.880  1.00  0.00    -0.200 F 
ATOM     83  C   UNL A   1      34.570  32.449  27.868  1.00  0.00     0.200 A 
ATOM     84  F   UNL A   1      33.532  30.328  27.904  1.00  0.00    -0.200 F 
ATOM     85  F   UNL A   1      33.503  32.977  27.252  1.00  0.00    -0.200 F 
ENDBRANCH  51  75
BRANCH  63  86
ATOM     86  C   UNL A   1      39.122  32.094  35.718  1.00  0.00     0.064 A 
ATOM     87  C   UNL A   1      38.256  31.576  36.692  1.00  0.00     0.173 A 
ATOM     88  C   UNL A   1      39.583  33.409  35.880  1.00  0.00     0.173 A 
ATOM     89  F   UNL A   1      37.777  30.329  36.575  1.00  0.00    -0.203 F 
ATOM     90  C   UNL A   1      37.855  32.352  37.777  1.00  0.00     0.198 A 
ATOM     91  C   UNL A   1      39.201  34.173  36.979  1.00  0.00     0.198 A 
ATOM     92  F   UNL A   1      40.417  33.948  34.978  1.00  0.00    -0.203 F 
ATOM     93  F   UNL A   1      36.996  31.851  38.676  1.00  0.00    -0.200 F 
ATOM     94  C   UNL A   1      38.332  33.646  37.923  1.00  0.00     0.200 A 
ATOM     95  F   UNL A   1      39.673  35.418  37.125  1.00  0.00    -0.200 F 
ATOM     96  F   UNL A   1      37.951  34.388  38.972  1.00  0.00    -0.200 F 
ENDBRANCH  63  86
ENDBRANCH  37  38
ENDBRANCH  30  32
ENDBRANCH  29  30
ENDBRANCH  28  29
ENDBRANCH  27  28
ENDBRANCH  26  27
ENDBRANCH  25  26
ENDBRANCH   1  25
TORSDOF 20
ENDMDL
MODEL 2
REMARK VINA RESULT:     -10.6      4.946     10.590
REMARK SMILES Cc1nc(CNC(=O)[C@H]2CCO[C@H]2C)sc1C(=O)OCCOCCOCCOC(=O)c1ccc(-c2c3nc(c(-c4c(F)c(F)c(F)c(F)c4F)c4ccc([nH]4)c(-c4c(F)c(F)c(F)c(F)c4F)c4nc(c(-c5c(F)c(F)c(F)c(F)c5F)c5ccc2[nH]5)C=C4)C=C3)cc1
REMARK SMILES IDX 23 1 22 2 21 3 20 4 19 5 17 6 18 7 16 8 1 9 2 10 3 11 4 12
REMARK SMILES IDX 15 13 5 14 6 15 7 16 8 18 9 19 10 20 13 21 11 22 12 23 14 24
REMARK SMILES IDX 24 25 25 26 26 27 27 28 28 29 29 30 30 31 31 32 32 33 93 34
REMARK SMILES IDX 33 35 92 36 34 37 35 38 36 39 86 40 37 41 91 42 85 43 87 44
REMARK SMILES IDX 38 45 90 46 84 47 83 48 39 50 71 51 51 52 70 53 52 54 55 55
REMARK SMILES IDX 69 56 88 57 53 58 54 59 68 61 89 62 56 63 40 64 41 65 49 66
REMARK SMILES IDX 42 67 43 68 47 69 50 70 44 71 45 72 48 73 46 74 72 75 73 76
REMARK SMILES IDX 81 77 74 78 75 79 79 80 82 81 76 82 77 83 80 84 78 85 57 86
REMARK SMILES IDX 58 87 66 88 59 89 60 90 64 91 67 92 61 93 62 94 65 95 63 96
REMARK H PARENT 6 17 87 49 55 60
REMARK Flexibility Score: inf
ROOT
ATOM      1  C   UNL A   1      34.759  31.629  28.347  1.00  0.00     0.188 C 
ENDROOT
BRANCH   1   2
ATOM      2  O   UNL A   1      34.179  31.016  27.201  1.00  0.00    -0.376 OA
BRANCH   2   3
ATOM      3  C   UNL A   1      32.835  30.550  27.258  1.00  0.00     0.202 C 
BRANCH   3   4
ATOM      4  C   UNL A   1      32.122  30.324  25.922  1.00  0.00     0.261 C 
BRANCH   4   5
ATOM      5  O   UNL A   1      31.418  29.070  25.877  1.00  0.00    -0.459 OA
BRANCH   5   6
ATOM      6  C   UNL A   1      31.776  28.223  24.866  1.00  0.00     0.350 C 
ATOM      7  O   UNL A   1      32.441  28.553  23.898  1.00  0.00    -0.245 OA
BRANCH   6   8
ATOM      8  C   UNL A   1      31.379  26.865  25.183  1.00  0.00     0.135 A 
ATOM      9  C   UNL A   1      29.137  26.442  23.950  1.00  0.00     0.068 C 
ATOM     10  C   UNL A   1      30.270  26.100  24.856  1.00  0.00     0.063 A 
ATOM     11  N   UNL A   1      30.243  24.838  25.449  1.00  0.00    -0.244 NA
ATOM     12  C   UNL A   1      31.316  24.643  26.184  1.00  0.00     0.113 A 
ATOM     13  S   UNL A   1      32.426  25.949  26.197  1.00  0.00    -0.110 S 
BRANCH  12  14
ATOM     14  C   UNL A   1      31.655  23.398  26.955  1.00  0.00     0.183 C 
BRANCH  14  15
ATOM     15  N   UNL A   1      31.403  22.200  26.174  1.00  0.00    -0.349 N 
ATOM     16  C   UNL A   1      32.283  21.395  25.519  1.00  0.00     0.226 C 
ATOM     17  H   UNL A   1      30.457  21.932  26.109  1.00  0.00     0.163 HD
ATOM     18  O   UNL A   1      31.860  20.358  25.008  1.00  0.00    -0.275 OA
BRANCH  16  19
ATOM     19  C   UNL A   1      33.740  21.798  25.450  1.00  0.00     0.109 C 
ATOM     20  C   UNL A   1      34.694  20.671  25.104  1.00  0.00     0.044 C 
ATOM     21  C   UNL A   1      34.051  22.815  24.355  1.00  0.00     0.127 C 
ATOM     22  C   UNL A   1      35.918  21.431  24.640  1.00  0.00     0.161 C 
ATOM     23  O   UNL A   1      35.464  22.676  24.091  1.00  0.00    -0.378 OA
ATOM     24  C   UNL A   1      33.319  22.603  23.032  1.00  0.00     0.039 C 
ENDBRANCH  16  19
ENDBRANCH  14  15
ENDBRANCH  12  14
ENDBRANCH   6   8
ENDBRANCH   5   6
ENDBRANCH   4   5
ENDBRANCH   3   4
ENDBRANCH   2   3
ENDBRANCH   1   2
BRANCH   1  25
ATOM     25  C   UNL A   1      34.120  32.893  28.954  1.00  0.00     0.188 C 
BRANCH  25  26
ATOM     26  O   UNL A   1      34.978  33.633  29.807  1.00  0.00    -0.376 OA
BRANCH  26  27
ATOM     27  C   UNL A   1      34.349  34.273  30.908  1.00  0.00     0.202 C 
BRANCH  27  28
ATOM     28  C   UNL A   1      34.271  33.397  32.163  1.00  0.00     0.261 C 
BRANCH  28  29
ATOM     29  O   UNL A   1      35.045  32.187  32.101  1.00  0.00    -0.460 OA
BRANCH  29  30
ATOM     30  C   UNL A   1      36.145  32.125  32.884  1.00  0.00     0.338 C 
ATOM     31  O   UNL A   1      36.236  32.443  34.055  1.00  0.00    -0.246 OA
BRANCH  30  32
ATOM     32  C   UNL A   1      37.206  31.441  32.119  1.00  0.00     0.060 A 
ATOM     33  C   UNL A   1      38.174  30.703  32.811  1.00  0.00     0.016 A 
ATOM     34  C   UNL A   1      37.245  31.531  30.726  1.00  0.00     0.016 A 
ATOM     35  C   UNL A   1      39.200  30.068  32.107  1.00  0.00     0.010 A 
ATOM     36  C   UNL A   1      38.283  30.910  30.024  1.00  0.00     0.010 A 
ATOM     37  C   UNL A   1      39.278  30.194  30.712  1.00  0.00    -0.014 A 
BRANCH  37  38
ATOM     38  C   UNL A   1      40.481  29.721  29.985  1.00  0.00     0.031 A 
ATOM     39  C   UNL A   1      41.597  30.694  29.726  1.00  0.00     0.074 A 
ATOM     40  C   UNL A   1      40.583  28.451  29.554  1.00  0.00     0.049 A 
ATOM     41  N   UNL A   1      42.718  30.523  29.072  1.00  0.00    -0.248 NA
ATOM     42  C   UNL A   1      41.423  32.046  30.281  1.00  0.00     0.031 C 
ATOM     43  C   UNL A   1      39.585  27.405  29.758  1.00  0.00     0.029 A 
ATOM     44  N   UNL A   1      41.579  27.833  28.838  1.00  0.00    -0.354 N 
ATOM     45  C   UNL A   1      43.382  31.740  29.140  1.00  0.00     0.074 A 
ATOM     46  C   UNL A   1      42.528  32.651  29.872  1.00  0.00     0.031 C 
ATOM     47  C   UNL A   1      40.011  26.275  29.164  1.00  0.00     0.029 A 
ATOM     48  C   UNL A   1      41.298  26.528  28.516  1.00  0.00     0.049 A 
ATOM     49  H   UNL A   1      42.416  28.283  28.579  1.00  0.00     0.167 HD
ATOM     50  C   UNL A   1      44.598  32.069  28.643  1.00  0.00     0.037 A 
ATOM     51  C   UNL A   1      41.991  25.649  27.767  1.00  0.00     0.037 A 
ATOM     52  C   UNL A   1      45.444  31.172  27.902  1.00  0.00     0.049 A 
ATOM     53  C   UNL A   1      43.311  26.059  27.163  1.00  0.00     0.074 A 
ATOM     54  C   UNL A   1      46.699  31.412  27.368  1.00  0.00     0.029 A 
ATOM     55  N   UNL A   1      45.116  29.864  27.581  1.00  0.00    -0.354 N 
ATOM     56  N   UNL A   1      43.948  27.201  27.262  1.00  0.00    -0.248 NA
ATOM     57  C   UNL A   1      44.008  25.056  26.345  1.00  0.00     0.031 C 
ATOM     58  C   UNL A   1      47.110  30.261  26.686  1.00  0.00     0.029 A 
ATOM     59  C   UNL A   1      46.134  29.290  26.838  1.00  0.00     0.049 A 
ATOM     60  H   UNL A   1      44.283  29.409  27.844  1.00  0.00     0.167 HD
ATOM     61  C   UNL A   1      45.128  27.045  26.545  1.00  0.00     0.074 A 
ATOM     62  C   UNL A   1      45.126  25.695  26.025  1.00  0.00     0.031 C 
ATOM     63  C   UNL A   1      46.124  27.941  26.336  1.00  0.00     0.037 A 
BRANCH  50  64
ATOM     64  C   UNL A   1      45.079  33.469  28.873  1.00  0.00     0.064 A 
ATOM     65  C   UNL A   1      44.895  34.474  27.912  1.00  0.00     0.173 A 
ATOM     66  C   UNL A   1      45.704  33.817  30.080  1.00  0.00     0.173 A 
ATOM     67  F   UNL A   1      44.317  34.186  26.736  1.00  0.00    -0.203 F 
ATOM     68  C   UNL A   1      45.340  35.774  28.142  1.00  0.00     0.198 A 
ATOM     69  C   UNL A   1      46.125  35.123  30.316  1.00  0.00     0.198 A 
ATOM     70  F   UNL A   1      45.902  32.892  31.031  1.00  0.00    -0.203 F 
ATOM     71  F   UNL A   1      45.191  36.709  27.194  1.00  0.00    -0.200 F 
ATOM     72  C   UNL A   1      45.948  36.098  29.346  1.00  0.00     0.200 A 
ATOM     73  F   UNL A   1      46.704  35.438  31.483  1.00  0.00    -0.200 F 
ATOM     74  F   UNL A   1      46.371  37.350  29.568  1.00  0.00    -0.200 F 
ENDBRANCH  50  64
BRANCH  51  75
ATOM     75  C   UNL A   1      41.448  24.286  27.525  1.00  0.00     0.064 A 
ATOM     76  C   UNL A   1      42.050  23.156  28.096  1.00  0.00     0.173 A 
ATOM     77  C   UNL A   1      40.338  24.084  26.693  1.00  0.00     0.173 A 
ATOM     78  F   UNL A   1      43.132  23.296  28.877  1.00  0.00    -0.203 F 
ATOM     79  C   UNL A   1      41.572  21.874  27.829  1.00  0.00     0.198 A 
ATOM     80  C   UNL A   1      39.846  22.805  26.447  1.00  0.00     0.198 A 
ATOM     81  F   UNL A   1      39.733  25.132  26.116  1.00  0.00    -0.203 F 
ATOM     82  F   UNL A   1      42.195  20.808  28.350  1.00  0.00    -0.200 F 
ATOM     83  C   UNL A   1      40.467  21.700  27.009  1.00  0.00     0.200 A 
ATOM     84  F   UNL A   1      38.775  22.641  25.659  1.00  0.00    -0.200 F 
ATOM     85  F   UNL A   1      40.010  20.467  26.751  1.00  0.00    -0.200 F 
ENDBRANCH  51  75
BRANCH  63  86
ATOM     86  C   UNL A   1      47.315  27.483  25.544  1.00  0.00     0.064 A 
ATOM     87  C   UNL A   1      47.396  27.679  24.158  1.00  0.00     0.173 A 
ATOM     88  C   UNL A   1      48.408  26.885  26.188  1.00  0.00     0.173 A 
ATOM     89  F   UNL A   1      46.372  28.234  23.493  1.00  0.00    -0.203 F 
ATOM     90  C   UNL A   1      48.521  27.276  23.443  1.00  0.00     0.198 A 
ATOM     91  C   UNL A   1      49.542  26.507  25.475  1.00  0.00     0.198 A 
ATOM     92  F   UNL A   1      48.382  26.681  27.514  1.00  0.00    -0.203 F 
ATOM     93  F   UNL A   1      48.562  27.437  22.113  1.00  0.00    -0.200 F 
ATOM     94  C   UNL A   1      49.595  26.696  24.102  1.00  0.00     0.200 A 
ATOM     95  F   UNL A   1      50.583  25.958  26.116  1.00  0.00    -0.200 F 
ATOM     96  F   UNL A   1      50.681  26.316  23.414  1.00  0.00    -0.200 F 
ENDBRANCH  63  86
ENDBRANCH  37  38
ENDBRANCH  30  32
ENDBRANCH  29  30
ENDBRANCH  28  29
ENDBRANCH  27  28
ENDBRANCH  26  27
ENDBRANCH  25  26
ENDBRANCH   1  25
TORSDOF 20
ENDMDL
MODEL 3
REMARK VINA RESULT:     -10.5      2.678      9.373
REMARK SMILES Cc1nc(CNC(=O)[C@H]2CCO[C@H]2C)sc1C(=O)OCCOCCOCCOC(=O)c1ccc(-c2c3nc(c(-c4c(F)c(F)c(F)c(F)c4F)c4ccc([nH]4)c(-c4c(F)c(F)c(F)c(F)c4F)c4nc(c(-c5c(F)c(F)c(F)c(F)c5F)c5ccc2[nH]5)C=C4)C=C3)cc1
REMARK SMILES IDX 23 1 22 2 21 3 20 4 19 5 17 6 18 7 16 8 1 9 2 10 3 11 4 12
REMARK SMILES IDX 15 13 5 14 6 15 7 16 8 18 9 19 10 20 13 21 11 22 12 23 14 24
REMARK SMILES IDX 24 25 25 26 26 27 27 28 28 29 29 30 30 31 31 32 32 33 93 34
REMARK SMILES IDX 33 35 92 36 34 37 35 38 36 39 86 40 37 41 91 42 85 43 87 44
REMARK SMILES IDX 38 45 90 46 84 47 83 48 39 50 71 51 51 52 70 53 52 54 55 55
REMARK SMILES IDX 69 56 88 57 53 58 54 59 68 61 89 62 56 63 40 64 41 65 49 66
REMARK SMILES IDX 42 67 43 68 47 69 50 70 44 71 45 72 48 73 46 74 72 75 73 76
REMARK SMILES IDX 81 77 74 78 75 79 79 80 82 81 76 82 77 83 80 84 78 85 57 86
REMARK SMILES IDX 58 87 66 88 59 89 60 90 64 91 67 92 61 93 62 94 65 95 63 96
REMARK H PARENT 6 17 87 49 55 60
REMARK Flexibility Score: inf
ROOT
ATOM      1  C   UNL A   1      33.244  28.749  27.243  1.00  0.00     0.188 C 
ENDROOT
BRANCH   1   2
ATOM      2  O   UNL A   1      33.996  28.088  26.232  1.00  0.00    -0.376 OA
BRANCH   2   3
ATOM      3  C   UNL A   1      33.382  27.784  24.985  1.00  0.00     0.202 C 
BRANCH   3   4
ATOM      4  C   UNL A   1      33.327  26.309  24.579  1.00  0.00     0.261 C 
BRANCH   4   5
ATOM      5  O   UNL A   1      34.439  25.553  25.089  1.00  0.00    -0.459 OA
BRANCH   5   6
ATOM      6  C   UNL A   1      34.118  24.426  25.795  1.00  0.00     0.350 C 
ATOM      7  O   UNL A   1      33.125  24.314  26.495  1.00  0.00    -0.245 OA
BRANCH   6   8
ATOM      8  C   UNL A   1      35.040  23.353  25.476  1.00  0.00     0.135 A 
ATOM      9  C   UNL A   1      33.632  21.462  24.396  1.00  0.00     0.068 C 
ATOM     10  C   UNL A   1      34.874  22.089  24.931  1.00  0.00     0.063 A 
ATOM     11  N   UNL A   1      36.041  21.330  24.866  1.00  0.00    -0.244 NA
ATOM     12  C   UNL A   1      37.069  22.011  25.325  1.00  0.00     0.113 A 
ATOM     13  S   UNL A   1      36.703  23.602  25.846  1.00  0.00    -0.110 S 
BRANCH  12  14
ATOM     14  C   UNL A   1      38.495  21.538  25.391  1.00  0.00     0.183 C 
BRANCH  14  15
ATOM     15  N   UNL A   1      39.117  21.891  26.654  1.00  0.00    -0.349 N 
ATOM     16  C   UNL A   1      40.437  21.934  26.985  1.00  0.00     0.226 C 
ATOM     17  H   UNL A   1      38.493  22.135  27.377  1.00  0.00     0.163 HD
ATOM     18  O   UNL A   1      40.750  22.374  28.091  1.00  0.00    -0.275 OA
BRANCH  16  19
ATOM     19  C   UNL A   1      41.463  21.450  25.983  1.00  0.00     0.109 C 
ATOM     20  C   UNL A   1      42.830  22.094  26.116  1.00  0.00     0.044 C 
ATOM     21  C   UNL A   1      41.804  19.969  26.112  1.00  0.00     0.127 C 
ATOM     22  C   UNL A   1      43.710  21.111  25.374  1.00  0.00     0.161 C 
ATOM     23  O   UNL A   1      43.103  19.817  25.497  1.00  0.00    -0.378 OA
ATOM     24  C   UNL A   1      41.914  19.438  27.540  1.00  0.00     0.039 C 
ENDBRANCH  16  19
ENDBRANCH  14  15
ENDBRANCH  12  14
ENDBRANCH   6   8
ENDBRANCH   5   6
ENDBRANCH   4   5
ENDBRANCH   3   4
ENDBRANCH   2   3
ENDBRANCH   1   2
BRANCH   1  25
ATOM     25  C   UNL A   1      32.008  29.587  26.863  1.00  0.00     0.188 C 
BRANCH  25  26
ATOM     26  O   UNL A   1      32.307  30.842  26.275  1.00  0.00    -0.376 OA
BRANCH  26  27
ATOM     27  C   UNL A   1      31.793  31.979  26.954  1.00  0.00     0.202 C 
BRANCH  27  28
ATOM     28  C   UNL A   1      32.839  33.073  27.196  1.00  0.00     0.261 C 
BRANCH  28  29
ATOM     29  O   UNL A   1      32.447  34.080  28.144  1.00  0.00    -0.460 OA
BRANCH  29  30
ATOM     30  C   UNL A   1      33.436  34.829  28.681  1.00  0.00     0.338 C 
ATOM     31  O   UNL A   1      33.410  36.021  28.927  1.00  0.00    -0.246 OA
BRANCH  30  32
ATOM     32  C   UNL A   1      34.525  33.917  29.084  1.00  0.00     0.060 A 
ATOM     33  C   UNL A   1      34.214  32.777  29.834  1.00  0.00     0.016 A 
ATOM     34  C   UNL A   1      35.847  34.190  28.724  1.00  0.00     0.016 A 
ATOM     35  C   UNL A   1      35.233  31.914  30.245  1.00  0.00     0.010 A 
ATOM     36  C   UNL A   1      36.868  33.335  29.151  1.00  0.00     0.010 A 
ATOM     37  C   UNL A   1      36.569  32.206  29.932  1.00  0.00    -0.014 A 
BRANCH  37  38
ATOM     38  C   UNL A   1      37.669  31.428  30.553  1.00  0.00     0.031 A 
ATOM     39  C   UNL A   1      37.983  31.656  32.005  1.00  0.00     0.074 A 
ATOM     40  C   UNL A   1      38.384  30.538  29.842  1.00  0.00     0.049 A 
ATOM     41  N   UNL A   1      38.924  31.131  32.747  1.00  0.00    -0.248 NA
ATOM     42  C   UNL A   1      37.114  32.607  32.718  1.00  0.00     0.031 C 
ATOM     43  C   UNL A   1      38.169  30.208  28.437  1.00  0.00     0.029 A 
ATOM     44  N   UNL A   1      39.453  29.757  30.213  1.00  0.00    -0.354 N 
ATOM     45  C   UNL A   1      38.760  31.684  34.010  1.00  0.00     0.074 A 
ATOM     46  C   UNL A   1      37.649  32.606  33.929  1.00  0.00     0.031 C 
ATOM     47  C   UNL A   1      39.089  29.303  28.056  1.00  0.00     0.029 A 
ATOM     48  C   UNL A   1      39.973  29.013  29.184  1.00  0.00     0.049 A 
ATOM     49  H   UNL A   1      39.811  29.734  31.130  1.00  0.00     0.167 HD
ATOM     50  C   UNL A   1      39.468  31.439  35.139  1.00  0.00     0.037 A 
ATOM     51  C   UNL A   1      41.054  28.207  29.154  1.00  0.00     0.037 A 
ATOM     52  C   UNL A   1      40.583  30.535  35.221  1.00  0.00     0.049 A 
ATOM     53  C   UNL A   1      41.869  28.005  30.406  1.00  0.00     0.074 A 
ATOM     54  C   UNL A   1      41.355  30.214  36.325  1.00  0.00     0.029 A 
ATOM     55  N   UNL A   1      41.092  29.813  34.153  1.00  0.00    -0.354 N 
ATOM     56  N   UNL A   1      41.686  28.505  31.605  1.00  0.00    -0.248 NA
ATOM     57  C   UNL A   1      43.043  27.125  30.300  1.00  0.00     0.031 C 
ATOM     58  C   UNL A   1      42.359  29.331  35.913  1.00  0.00     0.029 A 
ATOM     59  C   UNL A   1      42.182  29.064  34.565  1.00  0.00     0.049 A 
ATOM     60  H   UNL A   1      40.732  29.829  33.237  1.00  0.00     0.167 HD
ATOM     61  C   UNL A   1      42.700  27.980  32.398  1.00  0.00     0.074 A 
ATOM     62  C   UNL A   1      43.489  27.115  31.549  1.00  0.00     0.031 C 
ATOM     63  C   UNL A   1      42.952  28.197  33.712  1.00  0.00     0.037 A 
BRANCH  50  64
ATOM     64  C   UNL A   1      39.062  32.179  36.377  1.00  0.00     0.064 A 
ATOM     65  C   UNL A   1      38.140  31.638  37.285  1.00  0.00     0.173 A 
ATOM     66  C   UNL A   1      39.623  33.430  36.674  1.00  0.00     0.173 A 
ATOM     67  F   UNL A   1      37.565  30.451  37.037  1.00  0.00    -0.203 F 
ATOM     68  C   UNL A   1      37.778  32.333  38.437  1.00  0.00     0.198 A 
ATOM     69  C   UNL A   1      39.277  34.111  37.838  1.00  0.00     0.198 A 
ATOM     70  F   UNL A   1      40.510  33.990  35.837  1.00  0.00    -0.203 F 
ATOM     71  F   UNL A   1      36.865  31.816  39.270  1.00  0.00    -0.200 F 
ATOM     72  C   UNL A   1      38.351  33.566  38.714  1.00  0.00     0.200 A 
ATOM     73  F   UNL A   1      39.838  35.298  38.111  1.00  0.00    -0.200 F 
ATOM     74  F   UNL A   1      38.005  34.230  39.825  1.00  0.00    -0.200 F 
ENDBRANCH  50  64
BRANCH  51  75
ATOM     75  C   UNL A   1      41.445  27.534  27.887  1.00  0.00     0.064 A 
ATOM     76  C   UNL A   1      40.731  26.428  27.406  1.00  0.00     0.173 A 
ATOM     77  C   UNL A   1      42.560  27.962  27.152  1.00  0.00     0.173 A 
ATOM     78  F   UNL A   1      39.675  25.963  28.089  1.00  0.00    -0.203 F 
ATOM     79  C   UNL A   1      41.129  25.766  26.245  1.00  0.00     0.198 A 
ATOM     80  C   UNL A   1      42.941  27.315  25.980  1.00  0.00     0.198 A 
ATOM     81  F   UNL A   1      43.281  29.011  27.577  1.00  0.00    -0.203 F 
ATOM     82  F   UNL A   1      40.457  24.682  25.833  1.00  0.00    -0.200 F 
ATOM     83  C   UNL A   1      42.230  26.213  25.531  1.00  0.00     0.200 A 
ATOM     84  F   UNL A   1      44.002  27.753  25.289  1.00  0.00    -0.200 F 
ATOM     85  F   UNL A   1      42.613  25.573  24.417  1.00  0.00    -0.200 F 
ENDBRANCH  51  75
BRANCH  63  86
ATOM     86  C   UNL A   1      44.107  27.460  34.327  1.00  0.00     0.064 A 
ATOM     87  C   UNL A   1      45.381  28.037  34.425  1.00  0.00     0.173 A 
ATOM     88  C   UNL A   1      43.922  26.179  34.870  1.00  0.00     0.173 A 
ATOM     89  F   UNL A   1      45.612  29.254  33.910  1.00  0.00    -0.203 F 
ATOM     90  C   UNL A   1      46.433  27.351  35.027  1.00  0.00     0.198 A 
ATOM     91  C   UNL A   1      44.969  25.506  35.494  1.00  0.00     0.198 A 
ATOM     92  F   UNL A   1      42.720  25.586  34.807  1.00  0.00    -0.203 F 
ATOM     93  F   UNL A   1      47.653  27.904  35.074  1.00  0.00    -0.200 F 
ATOM     94  C   UNL A   1      46.225  26.090  35.566  1.00  0.00     0.200 A 
ATOM     95  F   UNL A   1      44.762  24.294  36.025  1.00  0.00    -0.200 F 
ATOM     96  F   UNL A   1      47.236  25.434  36.152  1.00  0.00    -0.200 F 
ENDBRANCH  63  86
ENDBRANCH  37  38
ENDBRANCH  30  32
ENDBRANCH  29  30
ENDBRANCH  28  29
ENDBRANCH  27  28
ENDBRANCH  26  27
ENDBRANCH  25  26
ENDBRANCH   1  25
TORSDOF 20
ENDMDL
