MODEL 1
REMARK VINA RESULT:     -10.0      0.000      0.000
REMARK SMILES Cc1nc(Nc2ccc(F)cc2)nc(OCC(=O)OCCOCCOCCOC(=O)c2ccc(-c3c4nc(c(-c5c(F)c(F)c(F)c(F)c5F)c5ccc([nH]5)c(-c5c(F)c(F)c(F)c(F)c5F)c5nc(c(-c6c(F)c(F)c(F)c(F)c6F)c6ccc3[nH]6)C=C5)C=C4)cc2)c1CCO
REMARK SMILES IDX 22 1 21 2 20 3 19 4 17 5 18 6 16 7 15 8 14 9 1 10 2 11 3 12
REMARK SMILES IDX 94 13 4 14 13 15 95 16 96 17 97 18 5 20 6 22 7 23 12 24 8 25
REMARK SMILES IDX 11 26 9 27 10 28 23 29 24 30 25 31 26 32 27 33 28 34 29 35
REMARK SMILES IDX 30 36 31 37 32 38 93 39 33 40 92 41 34 42 35 43 36 44 86 45
REMARK SMILES IDX 37 46 91 47 85 48 87 49 38 50 90 51 84 52 83 53 39 55 71 56
REMARK SMILES IDX 51 57 70 58 52 59 55 60 69 61 88 62 53 63 54 64 68 66 89 67
REMARK SMILES IDX 56 68 40 69 41 70 49 71 42 72 43 73 47 74 50 75 44 76 45 77
REMARK SMILES IDX 48 78 46 79 72 80 73 81 81 82 74 83 75 84 79 85 82 86 76 87
REMARK SMILES IDX 77 88 80 89 78 90 57 91 58 92 66 93 59 94 60 95 64 96 67 97
REMARK SMILES IDX 61 98 62 99 65 100 63 101
REMARK H PARENT 97 19 5 21 87 54 55 65
REMARK Flexibility Score: inf
ROOT
ATOM      1  O   UNL A   1      40.525  20.509  26.612  1.00  0.00    -0.376 OA
ENDROOT
BRANCH   1   2
ATOM      2  C   UNL A   1      40.549  21.934  26.665  1.00  0.00     0.202 C 
BRANCH   2   3
ATOM      3  C   UNL A   1      39.199  22.608  26.407  1.00  0.00     0.261 C 
BRANCH   3   4
ATOM      4  O   UNL A   1      38.265  21.670  25.831  1.00  0.00    -0.461 OA
BRANCH   4   5
ATOM      5  C   UNL A   1      37.238  22.175  25.094  1.00  0.00     0.344 C 
ATOM      6  O   UNL A   1      36.638  21.556  24.223  1.00  0.00    -0.248 OA
BRANCH   5   7
ATOM      7  C   UNL A   1      36.920  23.625  25.478  1.00  0.00     0.353 C 
BRANCH   7   8
ATOM      8  O   UNL A   1      35.625  23.815  26.008  1.00  0.00    -0.465 OA
BRANCH   8   9
ATOM      9  C   UNL A   1      34.475  23.857  25.285  1.00  0.00     0.222 A 
ATOM     10  C   UNL A   1      30.863  22.902  24.690  1.00  0.00     0.067 C 
ATOM     11  C   UNL A   1      32.241  23.493  24.653  1.00  0.00     0.050 A 
ATOM     12  N   UNL A   1      32.282  24.586  23.877  1.00  0.00    -0.218 NA
ATOM     13  C   UNL A   1      33.330  23.073  25.426  1.00  0.00     0.038 A 
ATOM     14  C   UNL A   1      33.395  25.314  23.849  1.00  0.00     0.230 A 
ATOM     15  N   UNL A   1      34.500  24.963  24.506  1.00  0.00    -0.177 NA
BRANCH  13  16
ATOM     16  C   UNL A   1      33.171  21.916  26.372  1.00  0.00     0.071 C 
BRANCH  16  17
ATOM     17  C   UNL A   1      33.481  20.547  25.761  1.00  0.00     0.161 C 
BRANCH  17  18
ATOM     18  O   UNL A   1      32.946  19.490  26.541  1.00  0.00    -0.396 OA
ATOM     19  H   UNL A   1      32.208  19.077  26.065  1.00  0.00     0.210 HD
ENDBRANCH  17  18
ENDBRANCH  16  17
ENDBRANCH  13  16
BRANCH  14  20
ATOM     20  N   UNL A   1      33.367  26.568  23.226  1.00  0.00    -0.324 N 
ATOM     21  H   UNL A   1      33.698  26.641  22.302  1.00  0.00     0.170 HD
BRANCH  20  22
ATOM     22  C   UNL A   1      32.887  27.727  23.862  1.00  0.00     0.041 A 
ATOM     23  C   UNL A   1      33.773  28.586  24.529  1.00  0.00     0.029 A 
ATOM     24  C   UNL A   1      31.511  27.981  23.931  1.00  0.00     0.029 A 
ATOM     25  C   UNL A   1      33.292  29.668  25.269  1.00  0.00     0.041 A 
ATOM     26  C   UNL A   1      31.029  29.073  24.658  1.00  0.00     0.041 A 
ATOM     27  C   UNL A   1      31.923  29.900  25.327  1.00  0.00     0.123 A 
ATOM     28  F   UNL A   1      31.458  30.928  26.050  1.00  0.00    -0.207 F 
ENDBRANCH  20  22
ENDBRANCH  14  20
ENDBRANCH   8   9
ENDBRANCH   7   8
ENDBRANCH   5   7
ENDBRANCH   4   5
ENDBRANCH   3   4
ENDBRANCH   2   3
ENDBRANCH   1   2
BRANCH   1  29
ATOM     29  C   UNL A   1      41.733  19.836  26.283  1.00  0.00     0.188 C 
BRANCH  29  30
ATOM     30  C   UNL A   1      43.006  20.685  26.143  1.00  0.00     0.188 C 
BRANCH  30  31
ATOM     31  O   UNL A   1      43.563  20.861  24.848  1.00  0.00    -0.376 OA
BRANCH  31  32
ATOM     32  C   UNL A   1      44.851  21.456  24.779  1.00  0.00     0.202 C 
BRANCH  32  33
ATOM     33  C   UNL A   1      44.819  22.944  24.448  1.00  0.00     0.261 C 
BRANCH  33  34
ATOM     34  O   UNL A   1      44.946  23.726  25.649  1.00  0.00    -0.460 OA
BRANCH  34  35
ATOM     35  C   UNL A   1      45.027  25.053  25.430  1.00  0.00     0.338 C 
ATOM     36  O   UNL A   1      45.712  25.605  24.571  1.00  0.00    -0.246 OA
BRANCH  35  37
ATOM     37  C   UNL A   1      44.148  25.797  26.359  1.00  0.00     0.060 A 
ATOM     38  C   UNL A   1      44.331  27.159  26.605  1.00  0.00     0.016 A 
ATOM     39  C   UNL A   1      43.204  25.086  27.102  1.00  0.00     0.016 A 
ATOM     40  C   UNL A   1      43.638  27.784  27.647  1.00  0.00     0.010 A 
ATOM     41  C   UNL A   1      42.483  25.725  28.116  1.00  0.00     0.010 A 
ATOM     42  C   UNL A   1      42.732  27.069  28.439  1.00  0.00    -0.014 A 
BRANCH  42  43
ATOM     43  C   UNL A   1      42.146  27.661  29.675  1.00  0.00     0.031 A 
ATOM     44  C   UNL A   1      40.858  28.441  29.579  1.00  0.00     0.074 A 
ATOM     45  C   UNL A   1      42.695  27.484  30.893  1.00  0.00     0.049 A 
ATOM     46  N   UNL A   1      40.330  29.284  30.429  1.00  0.00    -0.248 NA
ATOM     47  C   UNL A   1      40.051  28.230  28.365  1.00  0.00     0.031 C 
ATOM     48  C   UNL A   1      43.843  26.634  31.196  1.00  0.00     0.029 A 
ATOM     49  N   UNL A   1      42.348  28.022  32.111  1.00  0.00    -0.354 N 
ATOM     50  C   UNL A   1      39.168  29.750  29.829  1.00  0.00     0.074 A 
ATOM     51  C   UNL A   1      39.050  29.080  28.552  1.00  0.00     0.031 C 
ATOM     52  C   UNL A   1      44.093  26.689  32.513  1.00  0.00     0.029 A 
ATOM     53  C   UNL A   1      43.206  27.675  33.126  1.00  0.00     0.049 A 
ATOM     54  H   UNL A   1      41.561  28.599  32.242  1.00  0.00     0.167 HD
ATOM     55  C   UNL A   1      38.288  30.665  30.299  1.00  0.00     0.037 A 
ATOM     56  C   UNL A   1      43.325  28.152  34.381  1.00  0.00     0.037 A 
ATOM     57  C   UNL A   1      38.380  31.295  31.590  1.00  0.00     0.049 A 
ATOM     58  C   UNL A   1      42.430  29.271  34.840  1.00  0.00     0.074 A 
ATOM     59  C   UNL A   1      37.563  32.269  32.138  1.00  0.00     0.029 A 
ATOM     60  N   UNL A   1      39.338  30.994  32.545  1.00  0.00    -0.354 N 
ATOM     61  N   UNL A   1      41.431  29.839  34.212  1.00  0.00    -0.248 NA
ATOM     62  C   UNL A   1      42.709  29.845  36.165  1.00  0.00     0.031 C 
ATOM     63  C   UNL A   1      38.047  32.581  33.412  1.00  0.00     0.029 A 
ATOM     64  C   UNL A   1      39.140  31.773  33.673  1.00  0.00     0.049 A 
ATOM     65  H   UNL A   1      40.053  30.327  32.437  1.00  0.00     0.167 HD
ATOM     66  C   UNL A   1      40.964  30.835  35.060  1.00  0.00     0.074 A 
ATOM     67  C   UNL A   1      41.775  30.783  36.258  1.00  0.00     0.031 C 
ATOM     68  C   UNL A   1      39.956  31.717  34.857  1.00  0.00     0.037 A 
BRANCH  55  69
ATOM     69  C   UNL A   1      37.165  31.089  29.403  1.00  0.00     0.064 A 
ATOM     70  C   UNL A   1      37.178  32.367  28.823  1.00  0.00     0.173 A 
ATOM     71  C   UNL A   1      36.040  30.280  29.189  1.00  0.00     0.173 A 
ATOM     72  F   UNL A   1      38.231  33.179  29.004  1.00  0.00    -0.203 F 
ATOM     73  C   UNL A   1      36.096  32.830  28.080  1.00  0.00     0.198 A 
ATOM     74  C   UNL A   1      34.967  30.738  28.427  1.00  0.00     0.198 A 
ATOM     75  F   UNL A   1      35.989  29.046  29.711  1.00  0.00    -0.203 F 
ATOM     76  F   UNL A   1      36.116  34.068  27.570  1.00  0.00    -0.200 F 
ATOM     77  C   UNL A   1      34.991  32.015  27.884  1.00  0.00     0.200 A 
ATOM     78  F   UNL A   1      33.907  29.945  28.222  1.00  0.00    -0.200 F 
ATOM     79  F   UNL A   1      33.948  32.462  27.171  1.00  0.00    -0.200 F 
ENDBRANCH  55  69
BRANCH  56  80
ATOM     80  C   UNL A   1      44.406  27.633  35.259  1.00  0.00     0.064 A 
ATOM     81  C   UNL A   1      44.186  26.538  36.110  1.00  0.00     0.173 A 
ATOM     82  C   UNL A   1      45.670  28.235  35.285  1.00  0.00     0.173 A 
ATOM     83  F   UNL A   1      42.997  25.918  36.114  1.00  0.00    -0.203 F 
ATOM     84  C   UNL A   1      45.173  26.096  36.986  1.00  0.00     0.198 A 
ATOM     85  C   UNL A   1      46.669  27.771  36.139  1.00  0.00     0.198 A 
ATOM     86  F   UNL A   1      45.940  29.259  34.463  1.00  0.00    -0.203 F 
ATOM     87  F   UNL A   1      44.917  25.083  37.824  1.00  0.00    -0.200 F 
ATOM     88  C   UNL A   1      46.416  26.712  36.999  1.00  0.00     0.200 A 
ATOM     89  F   UNL A   1      47.878  28.348  36.128  1.00  0.00    -0.200 F 
ATOM     90  F   UNL A   1      47.368  26.283  37.837  1.00  0.00    -0.200 F 
ENDBRANCH  56  80
BRANCH  68  91
ATOM     91  C   UNL A   1      39.654  32.696  35.952  1.00  0.00     0.064 A 
ATOM     92  C   UNL A   1      38.653  32.425  36.895  1.00  0.00     0.173 A 
ATOM     93  C   UNL A   1      40.310  33.934  36.024  1.00  0.00     0.173 A 
ATOM     94  F   UNL A   1      37.993  31.257  36.863  1.00  0.00    -0.203 F 
ATOM     95  C   UNL A   1      38.307  33.363  37.863  1.00  0.00     0.198 A 
ATOM     96  C   UNL A   1      39.978  34.861  37.008  1.00  0.00     0.198 A 
ATOM     97  F   UNL A   1      41.284  34.232  35.152  1.00  0.00    -0.203 F 
ATOM     98  F   UNL A   1      37.328  33.094  38.737  1.00  0.00    -0.200 F 
ATOM     99  C   UNL A   1      38.972  34.580  37.921  1.00  0.00     0.200 A 
ATOM    100  F   UNL A   1      40.634  36.028  37.074  1.00  0.00    -0.200 F 
ATOM    101  F   UNL A   1      38.645  35.479  38.858  1.00  0.00    -0.200 F 
ENDBRANCH  68  91
ENDBRANCH  42  43
ENDBRANCH  35  37
ENDBRANCH  34  35
ENDBRANCH  33  34
ENDBRANCH  32  33
ENDBRANCH  31  32
ENDBRANCH  30  31
ENDBRANCH  29  30
ENDBRANCH   1  29
TORSDOF 24
ENDMDL
MODEL 2
REMARK VINA RESULT:     -10.0      3.797      9.070
REMARK SMILES Cc1nc(Nc2ccc(F)cc2)nc(OCC(=O)OCCOCCOCCOC(=O)c2ccc(-c3c4nc(c(-c5c(F)c(F)c(F)c(F)c5F)c5ccc([nH]5)c(-c5c(F)c(F)c(F)c(F)c5F)c5nc(c(-c6c(F)c(F)c(F)c(F)c6F)c6ccc3[nH]6)C=C5)C=C4)cc2)c1CCO
REMARK SMILES IDX 22 1 21 2 20 3 19 4 17 5 18 6 16 7 15 8 14 9 1 10 2 11 3 12
REMARK SMILES IDX 94 13 4 14 13 15 95 16 96 17 97 18 5 20 6 22 7 23 12 24 8 25
REMARK SMILES IDX 11 26 9 27 10 28 23 29 24 30 25 31 26 32 27 33 28 34 29 35
REMARK SMILES IDX 30 36 31 37 32 38 93 39 33 40 92 41 34 42 35 43 36 44 86 45
REMARK SMILES IDX 37 46 91 47 85 48 87 49 38 50 90 51 84 52 83 53 39 55 71 56
REMARK SMILES IDX 51 57 70 58 52 59 55 60 69 61 88 62 53 63 54 64 68 66 89 67
REMARK SMILES IDX 56 68 40 69 41 70 49 71 42 72 43 73 47 74 50 75 44 76 45 77
REMARK SMILES IDX 48 78 46 79 72 80 73 81 81 82 74 83 75 84 79 85 82 86 76 87
REMARK SMILES IDX 77 88 80 89 78 90 57 91 58 92 66 93 59 94 60 95 64 96 67 97
REMARK SMILES IDX 61 98 62 99 65 100 63 101
REMARK H PARENT 97 19 5 21 87 54 55 65
REMARK Flexibility Score: inf
ROOT
ATOM      1  O   UNL A   1      32.730  29.382  24.551  1.00  0.00    -0.376 OA
ENDROOT
BRANCH   1   2
ATOM      2  C   UNL A   1      33.160  28.068  24.204  1.00  0.00     0.202 C 
BRANCH   2   3
ATOM      3  C   UNL A   1      32.737  27.603  22.808  1.00  0.00     0.261 C 
BRANCH   3   4
ATOM      4  O   UNL A   1      33.531  26.474  22.385  1.00  0.00    -0.461 OA
BRANCH   4   5
ATOM      5  C   UNL A   1      32.872  25.337  22.029  1.00  0.00     0.344 C 
ATOM      6  O   UNL A   1      33.298  24.507  21.236  1.00  0.00    -0.248 OA
BRANCH   5   7
ATOM      7  C   UNL A   1      31.518  25.218  22.738  1.00  0.00     0.353 C 
BRANCH   7   8
ATOM      8  O   UNL A   1      31.179  23.903  23.126  1.00  0.00    -0.465 OA
BRANCH   8   9
ATOM      9  C   UNL A   1      31.983  23.055  23.820  1.00  0.00     0.222 A 
ATOM     10  C   UNL A   1      33.823  22.006  26.955  1.00  0.00     0.067 C 
ATOM     11  C   UNL A   1      33.197  22.108  25.597  1.00  0.00     0.050 A 
ATOM     12  N   UNL A   1      33.162  20.915  24.984  1.00  0.00    -0.218 NA
ATOM     13  C   UNL A   1      32.586  23.249  25.063  1.00  0.00     0.038 A 
ATOM     14  C   UNL A   1      32.510  20.802  23.831  1.00  0.00     0.230 A 
ATOM     15  N   UNL A   1      31.947  21.843  23.219  1.00  0.00    -0.177 NA
BRANCH  13  16
ATOM     16  C   UNL A   1      32.552  24.521  25.864  1.00  0.00     0.071 C 
BRANCH  16  17
ATOM     17  C   UNL A   1      31.166  24.904  26.391  1.00  0.00     0.161 C 
BRANCH  17  18
ATOM     18  O   UNL A   1      30.629  23.901  27.236  1.00  0.00    -0.396 OA
ATOM     19  H   UNL A   1      30.467  24.272  28.118  1.00  0.00     0.210 HD
ENDBRANCH  17  18
ENDBRANCH  16  17
ENDBRANCH  13  16
BRANCH  14  20
ATOM     20  N   UNL A   1      32.277  19.524  23.308  1.00  0.00    -0.324 N 
ATOM     21  H   UNL A   1      31.732  19.442  22.493  1.00  0.00     0.170 HD
BRANCH  20  22
ATOM     22  C   UNL A   1      32.789  18.353  23.895  1.00  0.00     0.041 A 
ATOM     23  C   UNL A   1      33.776  17.605  23.235  1.00  0.00     0.029 A 
ATOM     24  C   UNL A   1      32.246  17.860  25.088  1.00  0.00     0.029 A 
ATOM     25  C   UNL A   1      34.198  16.377  23.748  1.00  0.00     0.041 A 
ATOM     26  C   UNL A   1      32.678  16.638  25.611  1.00  0.00     0.041 A 
ATOM     27  C   UNL A   1      33.644  15.905  24.931  1.00  0.00     0.123 A 
ATOM     28  F   UNL A   1      34.035  14.718  25.417  1.00  0.00    -0.207 F 
ENDBRANCH  20  22
ENDBRANCH  14  20
ENDBRANCH   8   9
ENDBRANCH   7   8
ENDBRANCH   5   7
ENDBRANCH   4   5
ENDBRANCH   3   4
ENDBRANCH   2   3
ENDBRANCH   1   2
BRANCH   1  29
ATOM     29  C   UNL A   1      31.851  29.522  25.660  1.00  0.00     0.188 C 
BRANCH  29  30
ATOM     30  C   UNL A   1      32.478  29.831  27.029  1.00  0.00     0.188 C 
BRANCH  30  31
ATOM     31  O   UNL A   1      33.066  31.107  27.232  1.00  0.00    -0.376 OA
BRANCH  31  32
ATOM     32  C   UNL A   1      32.185  32.220  27.277  1.00  0.00     0.202 C 
BRANCH  32  33
ATOM     33  C   UNL A   1      32.900  33.563  27.368  1.00  0.00     0.261 C 
BRANCH  33  34
ATOM     34  O   UNL A   1      32.377  34.334  28.465  1.00  0.00    -0.460 OA
BRANCH  34  35
ATOM     35  C   UNL A   1      33.305  35.073  29.104  1.00  0.00     0.338 C 
ATOM     36  O   UNL A   1      33.227  36.275  29.354  1.00  0.00    -0.246 OA
BRANCH  35  37
ATOM     37  C   UNL A   1      34.460  34.241  29.506  1.00  0.00     0.060 A 
ATOM     38  C   UNL A   1      34.360  33.297  30.531  1.00  0.00     0.016 A 
ATOM     39  C   UNL A   1      35.706  34.504  28.934  1.00  0.00     0.016 A 
ATOM     40  C   UNL A   1      35.512  32.689  31.039  1.00  0.00     0.010 A 
ATOM     41  C   UNL A   1      36.850  33.862  29.418  1.00  0.00     0.010 A 
ATOM     42  C   UNL A   1      36.776  32.988  30.516  1.00  0.00    -0.014 A 
BRANCH  42  43
ATOM     43  C   UNL A   1      38.024  32.512  31.178  1.00  0.00     0.031 A 
ATOM     44  C   UNL A   1      38.769  31.340  30.588  1.00  0.00     0.074 A 
ATOM     45  C   UNL A   1      38.546  33.122  32.259  1.00  0.00     0.049 A 
ATOM     46  N   UNL A   1      39.675  30.571  31.135  1.00  0.00    -0.248 NA
ATOM     47  C   UNL A   1      38.457  30.999  29.190  1.00  0.00     0.031 C 
ATOM     48  C   UNL A   1      38.053  34.356  32.866  1.00  0.00     0.029 A 
ATOM     49  N   UNL A   1      39.623  32.773  33.043  1.00  0.00    -0.354 N 
ATOM     50  C   UNL A   1      39.995  29.621  30.174  1.00  0.00     0.074 A 
ATOM     51  C   UNL A   1      39.205  29.921  28.999  1.00  0.00     0.031 C 
ATOM     52  C   UNL A   1      38.833  34.672  33.911  1.00  0.00     0.029 A 
ATOM     53  C   UNL A   1      39.801  33.600  34.125  1.00  0.00     0.049 A 
ATOM     54  H   UNL A   1      40.207  32.005  32.847  1.00  0.00     0.167 HD
ATOM     55  C   UNL A   1      40.861  28.585  30.272  1.00  0.00     0.037 A 
ATOM     56  C   UNL A   1      40.591  33.473  35.211  1.00  0.00     0.037 A 
ATOM     57  C   UNL A   1      41.682  28.316  31.424  1.00  0.00     0.049 A 
ATOM     58  C   UNL A   1      41.441  32.242  35.372  1.00  0.00     0.074 A 
ATOM     59  C   UNL A   1      42.556  27.264  31.636  1.00  0.00     0.029 A 
ATOM     60  N   UNL A   1      41.745  29.122  32.549  1.00  0.00    -0.354 N 
ATOM     61  N   UNL A   1      41.621  31.247  34.539  1.00  0.00    -0.248 NA
ATOM     62  C   UNL A   1      42.164  32.095  36.645  1.00  0.00     0.031 C 
ATOM     63  C   UNL A   1      43.124  27.416  32.905  1.00  0.00     0.029 A 
ATOM     64  C   UNL A   1      42.634  28.583  33.465  1.00  0.00     0.049 A 
ATOM     65  H   UNL A   1      41.234  29.953  32.678  1.00  0.00     0.167 HD
ATOM     66  C   UNL A   1      42.472  30.359  35.182  1.00  0.00     0.074 A 
ATOM     67  C   UNL A   1      42.792  30.939  36.470  1.00  0.00     0.031 C 
ATOM     68  C   UNL A   1      42.940  29.165  34.745  1.00  0.00     0.037 A 
BRANCH  55  69
ATOM     69  C   UNL A   1      40.942  27.623  29.126  1.00  0.00     0.064 A 
ATOM     70  C   UNL A   1      40.010  26.579  29.023  1.00  0.00     0.173 A 
ATOM     71  C   UNL A   1      41.983  27.672  28.189  1.00  0.00     0.173 A 
ATOM     72  F   UNL A   1      38.999  26.488  29.900  1.00  0.00    -0.203 F 
ATOM     73  C   UNL A   1      40.129  25.605  28.036  1.00  0.00     0.198 A 
ATOM     74  C   UNL A   1      42.088  26.707  27.189  1.00  0.00     0.198 A 
ATOM     75  F   UNL A   1      42.890  28.659  28.240  1.00  0.00    -0.203 F 
ATOM     76  F   UNL A   1      39.249  24.597  27.981  1.00  0.00    -0.200 F 
ATOM     77  C   UNL A   1      41.169  25.670  27.120  1.00  0.00     0.200 A 
ATOM     78  F   UNL A   1      43.082  26.779  26.294  1.00  0.00    -0.200 F 
ATOM     79  F   UNL A   1      41.285  24.730  26.172  1.00  0.00    -0.200 F 
ENDBRANCH  55  69
BRANCH  56  80
ATOM     80  C   UNL A   1      40.532  34.503  36.280  1.00  0.00     0.064 A 
ATOM     81  C   UNL A   1      41.445  35.569  36.310  1.00  0.00     0.173 A 
ATOM     82  C   UNL A   1      39.582  34.430  37.305  1.00  0.00     0.173 A 
ATOM     83  F   UNL A   1      42.367  35.692  35.343  1.00  0.00    -0.203 F 
ATOM     84  C   UNL A   1      41.440  36.494  37.350  1.00  0.00     0.198 A 
ATOM     85  C   UNL A   1      39.556  35.375  38.329  1.00  0.00     0.198 A 
ATOM     86  F   UNL A   1      38.665  33.452  37.299  1.00  0.00    -0.203 F 
ATOM     87  F   UNL A   1      42.357  37.470  37.379  1.00  0.00    -0.200 F 
ATOM     88  C   UNL A   1      40.493  36.398  38.359  1.00  0.00     0.200 A 
ATOM     89  F   UNL A   1      38.621  35.298  39.287  1.00  0.00    -0.200 F 
ATOM     90  F   UNL A   1      40.483  37.292  39.356  1.00  0.00    -0.200 F 
ENDBRANCH  56  80
BRANCH  68  91
ATOM     91  C   UNL A   1      43.859  28.401  35.650  1.00  0.00     0.064 A 
ATOM     92  C   UNL A   1      43.345  27.497  36.591  1.00  0.00     0.173 A 
ATOM     93  C   UNL A   1      45.244  28.619  35.634  1.00  0.00     0.173 A 
ATOM     94  F   UNL A   1      42.025  27.261  36.649  1.00  0.00    -0.203 F 
ATOM     95  C   UNL A   1      44.182  26.847  37.492  1.00  0.00     0.198 A 
ATOM     96  C   UNL A   1      46.082  27.950  36.522  1.00  0.00     0.198 A 
ATOM     97  F   UNL A   1      45.783  29.465  34.744  1.00  0.00    -0.203 F 
ATOM     98  F   UNL A   1      43.666  26.008  38.400  1.00  0.00    -0.200 F 
ATOM     99  C   UNL A   1      45.551  27.072  37.456  1.00  0.00     0.200 A 
ATOM    100  F   UNL A   1      47.406  28.154  36.474  1.00  0.00    -0.200 F 
ATOM    101  F   UNL A   1      46.357  26.440  38.319  1.00  0.00    -0.200 F 
ENDBRANCH  68  91
ENDBRANCH  42  43
ENDBRANCH  35  37
ENDBRANCH  34  35
ENDBRANCH  33  34
ENDBRANCH  32  33
ENDBRANCH  31  32
ENDBRANCH  30  31
ENDBRANCH  29  30
ENDBRANCH   1  29
TORSDOF 24
ENDMDL
MODEL 3
REMARK VINA RESULT:     -10.0      3.748      9.016
REMARK SMILES Cc1nc(Nc2ccc(F)cc2)nc(OCC(=O)OCCOCCOCCOC(=O)c2ccc(-c3c4nc(c(-c5c(F)c(F)c(F)c(F)c5F)c5ccc([nH]5)c(-c5c(F)c(F)c(F)c(F)c5F)c5nc(c(-c6c(F)c(F)c(F)c(F)c6F)c6ccc3[nH]6)C=C5)C=C4)cc2)c1CCO
REMARK SMILES IDX 22 1 21 2 20 3 19 4 17 5 18 6 16 7 15 8 14 9 1 10 2 11 3 12
REMARK SMILES IDX 94 13 4 14 13 15 95 16 96 17 97 18 5 20 6 22 7 23 12 24 8 25
REMARK SMILES IDX 11 26 9 27 10 28 23 29 24 30 25 31 26 32 27 33 28 34 29 35
REMARK SMILES IDX 30 36 31 37 32 38 93 39 33 40 92 41 34 42 35 43 36 44 86 45
REMARK SMILES IDX 37 46 91 47 85 48 87 49 38 50 90 51 84 52 83 53 39 55 71 56
REMARK SMILES IDX 51 57 70 58 52 59 55 60 69 61 88 62 53 63 54 64 68 66 89 67
REMARK SMILES IDX 56 68 40 69 41 70 49 71 42 72 43 73 47 74 50 75 44 76 45 77
REMARK SMILES IDX 48 78 46 79 72 80 73 81 81 82 74 83 75 84 79 85 82 86 76 87
REMARK SMILES IDX 77 88 80 89 78 90 57 91 58 92 66 93 59 94 60 95 64 96 67 97
REMARK SMILES IDX 61 98 62 99 65 100 63 101
REMARK H PARENT 97 19 5 21 87 54 55 65
REMARK Flexibility Score: inf
ROOT
ATOM      1  O   UNL A   1      32.954  29.571  24.695  1.00  0.00    -0.376 OA
ENDROOT
BRANCH   1   2
ATOM      2  C   UNL A   1      33.352  28.225  24.446  1.00  0.00     0.202 C 
BRANCH   2   3
ATOM      3  C   UNL A   1      32.629  27.549  23.278  1.00  0.00     0.261 C 
BRANCH   3   4
ATOM      4  O   UNL A   1      33.549  26.752  22.502  1.00  0.00    -0.461 OA
BRANCH   4   5
ATOM      5  C   UNL A   1      33.110  25.549  22.042  1.00  0.00     0.344 C 
ATOM      6  O   UNL A   1      33.332  25.111  20.919  1.00  0.00    -0.248 OA
BRANCH   5   7
ATOM      7  C   UNL A   1      32.289  24.800  23.099  1.00  0.00     0.353 C 
BRANCH   7   8
ATOM      8  O   UNL A   1      32.673  23.453  23.284  1.00  0.00    -0.465 OA
BRANCH   8   9
ATOM      9  C   UNL A   1      33.193  22.932  24.426  1.00  0.00     0.222 A 
ATOM     10  C   UNL A   1      33.193  22.434  28.177  1.00  0.00     0.067 C 
ATOM     11  C   UNL A   1      33.449  22.393  26.700  1.00  0.00     0.050 A 
ATOM     12  N   UNL A   1      34.202  21.334  26.364  1.00  0.00    -0.218 NA
ATOM     13  C   UNL A   1      32.877  23.245  25.748  1.00  0.00     0.038 A 
ATOM     14  C   UNL A   1      34.402  21.069  25.076  1.00  0.00     0.230 A 
ATOM     15  N   UNL A   1      33.946  21.855  24.102  1.00  0.00    -0.177 NA
BRANCH  13  16
ATOM     16  C   UNL A   1      31.938  24.333  26.190  1.00  0.00     0.071 C 
BRANCH  16  17
ATOM     17  C   UNL A   1      30.454  23.964  26.116  1.00  0.00     0.161 C 
BRANCH  17  18
ATOM     18  O   UNL A   1      29.912  23.708  27.401  1.00  0.00    -0.396 OA
ATOM     19  H   UNL A   1      30.518  24.041  28.082  1.00  0.00     0.210 HD
ENDBRANCH  17  18
ENDBRANCH  16  17
ENDBRANCH  13  16
BRANCH  14  20
ATOM     20  N   UNL A   1      34.989  19.849  24.720  1.00  0.00    -0.324 N 
ATOM     21  H   UNL A   1      35.940  19.841  24.467  1.00  0.00     0.170 HD
BRANCH  20  22
ATOM     22  C   UNL A   1      34.280  18.634  24.709  1.00  0.00     0.041 A 
ATOM     23  C   UNL A   1      33.038  18.536  25.354  1.00  0.00     0.029 A 
ATOM     24  C   UNL A   1      34.851  17.483  24.152  1.00  0.00     0.029 A 
ATOM     25  C   UNL A   1      32.387  17.304  25.457  1.00  0.00     0.041 A 
ATOM     26  C   UNL A   1      34.194  16.253  24.241  1.00  0.00     0.041 A 
ATOM     27  C   UNL A   1      32.973  16.174  24.900  1.00  0.00     0.123 A 
ATOM     28  F   UNL A   1      32.359  14.988  25.013  1.00  0.00    -0.207 F 
ENDBRANCH  20  22
ENDBRANCH  14  20
ENDBRANCH   8   9
ENDBRANCH   7   8
ENDBRANCH   5   7
ENDBRANCH   4   5
ENDBRANCH   3   4
ENDBRANCH   2   3
ENDBRANCH   1   2
BRANCH   1  29
ATOM     29  C   UNL A   1      31.979  29.800  25.705  1.00  0.00     0.188 C 
BRANCH  29  30
ATOM     30  C   UNL A   1      32.484  30.113  27.122  1.00  0.00     0.188 C 
BRANCH  30  31
ATOM     31  O   UNL A   1      33.171  31.336  27.341  1.00  0.00    -0.376 OA
BRANCH  31  32
ATOM     32  C   UNL A   1      32.377  32.507  27.457  1.00  0.00     0.202 C 
BRANCH  32  33
ATOM     33  C   UNL A   1      33.187  33.774  27.706  1.00  0.00     0.261 C 
BRANCH  33  34
ATOM     34  O   UNL A   1      32.423  34.710  28.486  1.00  0.00    -0.460 OA
BRANCH  34  35
ATOM     35  C   UNL A   1      33.107  35.253  29.512  1.00  0.00     0.338 C 
ATOM     36  O   UNL A   1      32.837  36.307  30.087  1.00  0.00    -0.246 OA
BRANCH  35  37
ATOM     37  C   UNL A   1      34.249  34.396  29.899  1.00  0.00     0.060 A 
ATOM     38  C   UNL A   1      34.186  33.553  31.011  1.00  0.00     0.016 A 
ATOM     39  C   UNL A   1      35.456  34.537  29.213  1.00  0.00     0.016 A 
ATOM     40  C   UNL A   1      35.344  32.927  31.484  1.00  0.00     0.010 A 
ATOM     41  C   UNL A   1      36.603  33.877  29.665  1.00  0.00     0.010 A 
ATOM     42  C   UNL A   1      36.574  33.109  30.841  1.00  0.00    -0.014 A 
BRANCH  42  43
ATOM     43  C   UNL A   1      37.847  32.623  31.447  1.00  0.00     0.031 A 
ATOM     44  C   UNL A   1      38.593  31.491  30.785  1.00  0.00     0.074 A 
ATOM     45  C   UNL A   1      38.390  33.191  32.541  1.00  0.00     0.049 A 
ATOM     46  N   UNL A   1      39.525  30.712  31.271  1.00  0.00    -0.248 NA
ATOM     47  C   UNL A   1      38.248  31.209  29.381  1.00  0.00     0.031 C 
ATOM     48  C   UNL A   1      37.895  34.388  33.216  1.00  0.00     0.029 A 
ATOM     49  N   UNL A   1      39.492  32.824  33.279  1.00  0.00    -0.354 N 
ATOM     50  C   UNL A   1      39.832  29.812  30.259  1.00  0.00     0.074 A 
ATOM     51  C   UNL A   1      39.006  30.152  29.122  1.00  0.00     0.031 C 
ATOM     52  C   UNL A   1      38.698  34.670  34.253  1.00  0.00     0.029 A 
ATOM     53  C   UNL A   1      39.688  33.604  34.392  1.00  0.00     0.049 A 
ATOM     54  H   UNL A   1      40.083  32.075  33.032  1.00  0.00     0.167 HD
ATOM     55  C   UNL A   1      40.716  28.787  30.287  1.00  0.00     0.037 A 
ATOM     56  C   UNL A   1      40.509  33.441  35.450  1.00  0.00     0.037 A 
ATOM     57  C   UNL A   1      41.572  28.479  31.403  1.00  0.00     0.049 A 
ATOM     58  C   UNL A   1      41.382  32.218  35.531  1.00  0.00     0.074 A 
ATOM     59  C   UNL A   1      42.467  27.433  31.544  1.00  0.00     0.029 A 
ATOM     60  N   UNL A   1      41.654  29.234  32.562  1.00  0.00    -0.354 N 
ATOM     61  N   UNL A   1      41.553  31.265  34.649  1.00  0.00    -0.248 NA
ATOM     62  C   UNL A   1      42.141  32.025  36.777  1.00  0.00     0.031 C 
ATOM     63  C   UNL A   1      43.068  27.536  32.802  1.00  0.00     0.029 A 
ATOM     64  C   UNL A   1      42.575  28.668  33.428  1.00  0.00     0.049 A 
ATOM     65  H   UNL A   1      41.135  30.050  32.743  1.00  0.00     0.167 HD
ATOM     66  C   UNL A   1      42.435  30.362  35.229  1.00  0.00     0.074 A 
ATOM     67  C   UNL A   1      42.781  30.888  36.532  1.00  0.00     0.031 C 
ATOM     68  C   UNL A   1      42.908  29.197  34.725  1.00  0.00     0.037 A 
BRANCH  55  69
ATOM     69  C   UNL A   1      40.780  27.879  29.097  1.00  0.00     0.064 A 
ATOM     70  C   UNL A   1      41.715  28.127  28.079  1.00  0.00     0.173 A 
ATOM     71  C   UNL A   1      39.870  26.830  28.913  1.00  0.00     0.173 A 
ATOM     72  F   UNL A   1      42.604  29.124  28.208  1.00  0.00    -0.203 F 
ATOM     73  C   UNL A   1      41.722  27.371  26.911  1.00  0.00     0.198 A 
ATOM     74  C   UNL A   1      39.893  26.060  27.752  1.00  0.00     0.198 A 
ATOM     75  F   UNL A   1      38.968  26.546  29.864  1.00  0.00    -0.203 F 
ATOM     76  F   UNL A   1      42.599  27.651  25.938  1.00  0.00    -0.200 F 
ATOM     77  C   UNL A   1      40.810  26.339  26.749  1.00  0.00     0.200 A 
ATOM     78  F   UNL A   1      39.024  25.052  27.601  1.00  0.00    -0.200 F 
ATOM     79  F   UNL A   1      40.815  25.612  25.622  1.00  0.00    -0.200 F 
ENDBRANCH  55  69
BRANCH  56  80
ATOM     80  C   UNL A   1      40.465  34.421  36.566  1.00  0.00     0.064 A 
ATOM     81  C   UNL A   1      39.508  34.312  37.588  1.00  0.00     0.173 A 
ATOM     82  C   UNL A   1      41.358  35.497  36.620  1.00  0.00     0.173 A 
ATOM     83  F   UNL A   1      38.638  33.292  37.588  1.00  0.00    -0.203 F 
ATOM     84  C   UNL A   1      39.416  35.269  38.594  1.00  0.00     0.198 A 
ATOM     85  C   UNL A   1      41.286  36.438  37.647  1.00  0.00     0.198 A 
ATOM     86  F   UNL A   1      42.313  35.622  35.688  1.00  0.00    -0.203 F 
ATOM     87  F   UNL A   1      38.460  35.168  39.526  1.00  0.00    -0.200 F 
ATOM     88  C   UNL A   1      40.308  36.331  38.624  1.00  0.00     0.200 A 
ATOM     89  F   UNL A   1      42.168  37.446  37.691  1.00  0.00    -0.200 F 
ATOM     90  F   UNL A   1      40.225  37.249  39.596  1.00  0.00    -0.200 F 
ENDBRANCH  56  80
BRANCH  68  91
ATOM     91  C   UNL A   1      43.862  28.407  35.570  1.00  0.00     0.064 A 
ATOM     92  C   UNL A   1      45.247  28.539  35.394  1.00  0.00     0.173 A 
ATOM     93  C   UNL A   1      43.403  27.468  36.504  1.00  0.00     0.173 A 
ATOM     94  F   UNL A   1      45.735  29.420  34.507  1.00  0.00    -0.203 F 
ATOM     95  C   UNL A   1      46.139  27.749  36.114  1.00  0.00     0.198 A 
ATOM     96  C   UNL A   1      44.298  26.695  37.239  1.00  0.00     0.198 A 
ATOM     97  F   UNL A   1      42.087  27.316  36.715  1.00  0.00    -0.203 F 
ATOM     98  F   UNL A   1      47.457  27.873  35.911  1.00  0.00    -0.200 F 
ATOM     99  C   UNL A   1      45.664  26.830  37.038  1.00  0.00     0.200 A 
ATOM    100  F   UNL A   1      43.838  25.821  38.145  1.00  0.00    -0.200 F 
ATOM    101  F   UNL A   1      46.523  26.076  37.736  1.00  0.00    -0.200 F 
ENDBRANCH  68  91
ENDBRANCH  42  43
ENDBRANCH  35  37
ENDBRANCH  34  35
ENDBRANCH  33  34
ENDBRANCH  32  33
ENDBRANCH  31  32
ENDBRANCH  30  31
ENDBRANCH  29  30
ENDBRANCH   1  29
TORSDOF 24
ENDMDL
