MODEL 1
REMARK VINA RESULT:     -11.3      0.000      0.000
REMARK SMILES C[C@H](NC(=O)N1CC[C@@H](C(=O)OCCOCCOCCOC(=O)c2ccc(-c3c4nc(c(-c5c(F)c(F)c(F)c(F)c5F)c5ccc([nH]5)c(-c5c(F)c(F)c(F)c(F)c5F)c5nc(c(-c6c(F)c(F)c(F)c(F)c6F)c6ccc3[nH]6)C=C5)C=C4)cc2)[C@H]1C)c1ccc(Cl)cc1
REMARK SMILES IDX 16 1 15 2 14 3 13 4 12 5 10 6 11 7 9 8 6 9 7 10 87 11 8 12
REMARK SMILES IDX 88 13 4 14 3 15 5 17 2 18 1 19 89 20 90 21 95 22 91 23 94 24
REMARK SMILES IDX 92 25 93 26 17 27 18 28 19 29 20 30 21 31 22 32 23 33 24 34
REMARK SMILES IDX 25 35 86 36 26 37 85 38 27 39 28 40 29 41 79 42 30 43 84 44
REMARK SMILES IDX 78 45 80 46 31 47 83 48 77 49 76 50 32 52 64 53 44 54 63 55
REMARK SMILES IDX 45 56 48 57 62 58 81 59 46 60 47 61 61 63 82 64 49 65 33 66
REMARK SMILES IDX 34 67 42 68 35 69 36 70 40 71 43 72 37 73 38 74 41 75 39 76
REMARK SMILES IDX 65 77 66 78 74 79 67 80 68 81 72 82 75 83 69 84 70 85 73 86
REMARK SMILES IDX 71 87 50 88 51 89 59 90 52 91 53 92 57 93 60 94 54 95 55 96
REMARK SMILES IDX 58 97 56 98
REMARK H PARENT 3 16 80 51 48 62
REMARK Flexibility Score: inf
ROOT
ATOM      1  C   UNL A   1      39.281  21.666  26.155  1.00  0.00     0.188 C 
ENDROOT
BRANCH   1   2
ATOM      2  O   UNL A   1      38.077  21.742  25.403  1.00  0.00    -0.376 OA
BRANCH   2   3
ATOM      3  C   UNL A   1      37.125  22.716  25.828  1.00  0.00     0.202 C 
BRANCH   3   4
ATOM      4  C   UNL A   1      35.732  22.154  26.155  1.00  0.00     0.261 C 
BRANCH   4   5
ATOM      5  O   UNL A   1      34.896  22.005  24.988  1.00  0.00    -0.463 OA
BRANCH   5   6
ATOM      6  C   UNL A   1      33.620  22.446  25.066  1.00  0.00     0.311 C 
ATOM      7  O   UNL A   1      32.643  21.786  24.729  1.00  0.00    -0.252 OA
BRANCH   6   8
ATOM      8  C   UNL A   1      33.486  23.859  25.623  1.00  0.00     0.123 C 
ATOM      9  N   UNL A   1      33.001  26.217  25.338  1.00  0.00    -0.321 N 
ATOM     10  C   UNL A   1      32.123  25.624  26.348  1.00  0.00     0.122 C 
ATOM     11  C   UNL A   1      33.910  25.138  24.842  1.00  0.00     0.098 C 
ATOM     12  C   UNL A   1      32.054  24.147  26.030  1.00  0.00     0.039 C 
ATOM     13  C   UNL A   1      33.866  25.025  23.336  1.00  0.00     0.032 C 
BRANCH   9  14
ATOM     14  C   UNL A   1      33.440  27.470  25.675  1.00  0.00     0.318 C 
ATOM     15  N   UNL A   1      33.325  28.541  24.882  1.00  0.00    -0.331 N 
ATOM     16  H   UNL A   1      33.660  29.323  25.377  1.00  0.00     0.165 HD
ATOM     17  O   UNL A   1      33.884  27.707  26.804  1.00  0.00    -0.249 OA
BRANCH  15  18
ATOM     18  C   UNL A   1      32.891  28.995  23.562  1.00  0.00     0.111 C 
ATOM     19  C   UNL A   1      33.718  28.566  22.367  1.00  0.00     0.036 C 
BRANCH  18  20
ATOM     20  C   UNL A   1      31.396  28.957  23.285  1.00  0.00    -0.026 A 
ATOM     21  C   UNL A   1      30.776  27.720  23.023  1.00  0.00     0.007 A 
ATOM     22  C   UNL A   1      30.580  30.087  23.443  1.00  0.00     0.007 A 
ATOM     23  C   UNL A   1      29.383  27.604  22.992  1.00  0.00     0.021 A 
ATOM     24  C   UNL A   1      29.185  29.970  23.426  1.00  0.00     0.021 A 
ATOM     25  C   UNL A   1      28.593  28.728  23.213  1.00  0.00     0.041 A 
ATOM     26  Cl  UNL A   1      26.879  28.575  23.249  1.00  0.00    -0.084 Cl
ENDBRANCH  18  20
ENDBRANCH  15  18
ENDBRANCH   9  14
ENDBRANCH   6   8
ENDBRANCH   5   6
ENDBRANCH   4   5
ENDBRANCH   3   4
ENDBRANCH   2   3
ENDBRANCH   1   2
BRANCH   1  27
ATOM     27  C   UNL A   1      39.989  20.319  26.092  1.00  0.00     0.188 C 
BRANCH  27  28
ATOM     28  O   UNL A   1      41.063  20.199  26.998  1.00  0.00    -0.376 OA
BRANCH  28  29
ATOM     29  C   UNL A   1      42.388  20.039  26.506  1.00  0.00     0.202 C 
BRANCH  29  30
ATOM     30  C   UNL A   1      43.169  21.123  25.730  1.00  0.00     0.261 C 
BRANCH  30  31
ATOM     31  O   UNL A   1      42.497  22.345  25.406  1.00  0.00    -0.460 OA
BRANCH  31  32
ATOM     32  C   UNL A   1      43.249  23.444  25.154  1.00  0.00     0.338 C 
ATOM     33  O   UNL A   1      44.010  23.608  24.230  1.00  0.00    -0.246 OA
BRANCH  32  34
ATOM     34  C   UNL A   1      42.747  24.516  26.070  1.00  0.00     0.060 A 
ATOM     35  C   UNL A   1      43.190  25.834  25.873  1.00  0.00     0.016 A 
ATOM     36  C   UNL A   1      41.765  24.251  27.029  1.00  0.00     0.016 A 
ATOM     37  C   UNL A   1      42.676  26.879  26.648  1.00  0.00     0.010 A 
ATOM     38  C   UNL A   1      41.265  25.291  27.817  1.00  0.00     0.010 A 
ATOM     39  C   UNL A   1      41.741  26.605  27.654  1.00  0.00    -0.014 A 
BRANCH  39  40
ATOM     40  C   UNL A   1      41.444  27.596  28.718  1.00  0.00     0.031 A 
ATOM     41  C   UNL A   1      42.270  27.519  29.974  1.00  0.00     0.074 A 
ATOM     42  C   UNL A   1      40.452  28.499  28.621  1.00  0.00     0.049 A 
ATOM     43  N   UNL A   1      42.094  28.102  31.130  1.00  0.00    -0.248 NA
ATOM     44  C   UNL A   1      43.452  26.642  29.912  1.00  0.00     0.031 C 
ATOM     45  C   UNL A   1      39.622  28.727  27.443  1.00  0.00     0.029 A 
ATOM     46  N   UNL A   1      39.960  29.376  29.558  1.00  0.00    -0.354 N 
ATOM     47  C   UNL A   1      43.125  27.641  31.939  1.00  0.00     0.074 A 
ATOM     48  C   UNL A   1      43.910  26.718  31.150  1.00  0.00     0.031 C 
ATOM     49  C   UNL A   1      38.701  29.664  27.737  1.00  0.00     0.029 A 
ATOM     50  C   UNL A   1      38.844  30.061  29.139  1.00  0.00     0.049 A 
ATOM     51  H   UNL A   1      40.367  29.503  30.446  1.00  0.00     0.167 HD
ATOM     52  C   UNL A   1      43.391  27.958  33.226  1.00  0.00     0.037 A 
ATOM     53  C   UNL A   1      38.013  30.874  29.823  1.00  0.00     0.037 A 
ATOM     54  C   UNL A   1      42.610  28.878  34.006  1.00  0.00     0.049 A 
ATOM     55  C   UNL A   1      38.275  31.145  31.287  1.00  0.00     0.074 A 
ATOM     56  C   UNL A   1      42.802  29.273  35.318  1.00  0.00     0.029 A 
ATOM     57  N   UNL A   1      41.481  29.539  33.547  1.00  0.00    -0.354 N 
ATOM     58  N   UNL A   1      39.247  30.708  32.052  1.00  0.00    -0.248 NA
ATOM     59  C   UNL A   1      37.317  32.015  31.989  1.00  0.00     0.031 C 
ATOM     60  C   UNL A   1      41.754  30.126  35.673  1.00  0.00     0.029 A 
ATOM     61  C   UNL A   1      40.952  30.321  34.559  1.00  0.00     0.049 A 
ATOM     62  H   UNL A   1      41.113  29.464  32.636  1.00  0.00     0.167 HD
ATOM     63  C   UNL A   1      39.045  31.285  33.302  1.00  0.00     0.074 A 
ATOM     64  C   UNL A   1      37.854  32.099  33.198  1.00  0.00     0.031 C 
ATOM     65  C   UNL A   1      39.785  31.157  34.430  1.00  0.00     0.037 A 
BRANCH  52  66
ATOM     66  C   UNL A   1      44.552  27.272  33.885  1.00  0.00     0.064 A 
ATOM     67  C   UNL A   1      45.833  27.843  33.913  1.00  0.00     0.173 A 
ATOM     68  C   UNL A   1      44.370  26.034  34.520  1.00  0.00     0.173 A 
ATOM     69  F   UNL A   1      46.063  29.016  33.303  1.00  0.00    -0.203 F 
ATOM     70  C   UNL A   1      46.895  27.189  34.530  1.00  0.00     0.198 A 
ATOM     71  C   UNL A   1      45.426  25.400  35.167  1.00  0.00     0.198 A 
ATOM     72  F   UNL A   1      43.165  25.445  34.522  1.00  0.00    -0.203 F 
ATOM     73  F   UNL A   1      48.121  27.726  34.499  1.00  0.00    -0.200 F 
ATOM     74  C   UNL A   1      46.688  25.972  35.165  1.00  0.00     0.200 A 
ATOM     75  F   UNL A   1      45.221  24.231  35.791  1.00  0.00    -0.200 F 
ATOM     76  F   UNL A   1      47.709  25.347  35.767  1.00  0.00    -0.200 F 
ENDBRANCH  52  66
BRANCH  53  77
ATOM     77  C   UNL A   1      36.827  31.474  29.151  1.00  0.00     0.064 A 
ATOM     78  C   UNL A   1      36.780  32.843  28.851  1.00  0.00     0.173 A 
ATOM     79  C   UNL A   1      35.701  30.701  28.831  1.00  0.00     0.173 A 
ATOM     80  F   UNL A   1      37.816  33.634  29.168  1.00  0.00    -0.203 F 
ATOM     81  C   UNL A   1      35.646  33.418  28.279  1.00  0.00     0.198 A 
ATOM     82  C   UNL A   1      34.580  31.271  28.228  1.00  0.00     0.198 A 
ATOM     83  F   UNL A   1      35.687  29.388  29.106  1.00  0.00    -0.203 F 
ATOM     84  F   UNL A   1      35.606  34.739  28.059  1.00  0.00    -0.200 F 
ATOM     85  C   UNL A   1      34.550  32.630  27.962  1.00  0.00     0.200 A 
ATOM     86  F   UNL A   1      33.526  30.504  27.918  1.00  0.00    -0.200 F 
ATOM     87  F   UNL A   1      33.460  33.184  27.413  1.00  0.00    -0.200 F 
ENDBRANCH  53  77
BRANCH  65  88
ATOM     88  C   UNL A   1      39.393  31.967  35.633  1.00  0.00     0.064 A 
ATOM     89  C   UNL A   1      39.822  33.289  35.812  1.00  0.00     0.173 A 
ATOM     90  C   UNL A   1      38.486  31.438  36.566  1.00  0.00     0.173 A 
ATOM     91  F   UNL A   1      40.695  33.837  34.955  1.00  0.00    -0.203 F 
ATOM     92  C   UNL A   1      39.363  34.050  36.886  1.00  0.00     0.198 A 
ATOM     93  C   UNL A   1      38.006  32.212  37.619  1.00  0.00     0.198 A 
ATOM     94  F   UNL A   1      38.036  30.181  36.434  1.00  0.00    -0.203 F 
ATOM     95  F   UNL A   1      39.805  35.304  37.053  1.00  0.00    -0.200 F 
ATOM     96  C   UNL A   1      38.446  33.516  37.779  1.00  0.00     0.200 A 
ATOM     97  F   UNL A   1      37.104  31.699  38.468  1.00  0.00    -0.200 F 
ATOM     98  F   UNL A   1      37.985  34.260  38.795  1.00  0.00    -0.200 F 
ENDBRANCH  65  88
ENDBRANCH  39  40
ENDBRANCH  32  34
ENDBRANCH  31  32
ENDBRANCH  30  31
ENDBRANCH  29  30
ENDBRANCH  28  29
ENDBRANCH  27  28
ENDBRANCH   1  27
TORSDOF 20
ENDMDL
MODEL 2
REMARK VINA RESULT:     -11.3      4.935      7.083
REMARK SMILES C[C@H](NC(=O)N1CC[C@@H](C(=O)OCCOCCOCCOC(=O)c2ccc(-c3c4nc(c(-c5c(F)c(F)c(F)c(F)c5F)c5ccc([nH]5)c(-c5c(F)c(F)c(F)c(F)c5F)c5nc(c(-c6c(F)c(F)c(F)c(F)c6F)c6ccc3[nH]6)C=C5)C=C4)cc2)[C@H]1C)c1ccc(Cl)cc1
REMARK SMILES IDX 16 1 15 2 14 3 13 4 12 5 10 6 11 7 9 8 6 9 7 10 87 11 8 12
REMARK SMILES IDX 88 13 4 14 3 15 5 17 2 18 1 19 89 20 90 21 95 22 91 23 94 24
REMARK SMILES IDX 92 25 93 26 17 27 18 28 19 29 20 30 21 31 22 32 23 33 24 34
REMARK SMILES IDX 25 35 86 36 26 37 85 38 27 39 28 40 29 41 79 42 30 43 84 44
REMARK SMILES IDX 78 45 80 46 31 47 83 48 77 49 76 50 32 52 64 53 44 54 63 55
REMARK SMILES IDX 45 56 48 57 62 58 81 59 46 60 47 61 61 63 82 64 49 65 33 66
REMARK SMILES IDX 34 67 42 68 35 69 36 70 40 71 43 72 37 73 38 74 41 75 39 76
REMARK SMILES IDX 65 77 66 78 74 79 67 80 68 81 72 82 75 83 69 84 70 85 73 86
REMARK SMILES IDX 71 87 50 88 51 89 59 90 52 91 53 92 57 93 60 94 54 95 55 96
REMARK SMILES IDX 58 97 56 98
REMARK H PARENT 3 16 80 51 48 62
REMARK Flexibility Score: inf
ROOT
ATOM      1  C   UNL A   1      39.616  21.459  26.304  1.00  0.00     0.188 C 
ENDROOT
BRANCH   1   2
ATOM      2  O   UNL A   1      39.312  22.848  26.298  1.00  0.00    -0.376 OA
BRANCH   2   3
ATOM      3  C   UNL A   1      38.008  23.209  25.843  1.00  0.00     0.202 C 
BRANCH   3   4
ATOM      4  C   UNL A   1      37.013  22.042  25.754  1.00  0.00     0.261 C 
BRANCH   4   5
ATOM      5  O   UNL A   1      36.683  21.685  24.395  1.00  0.00    -0.463 OA
BRANCH   5   6
ATOM      6  C   UNL A   1      36.079  22.619  23.626  1.00  0.00     0.311 C 
ATOM      7  O   UNL A   1      36.678  23.388  22.881  1.00  0.00    -0.252 OA
BRANCH   6   8
ATOM      8  C   UNL A   1      34.561  22.641  23.757  1.00  0.00     0.123 C 
ATOM      9  N   UNL A   1      32.481  23.817  24.173  1.00  0.00    -0.321 N 
ATOM     10  C   UNL A   1      32.463  23.179  22.855  1.00  0.00     0.122 C 
ATOM     11  C   UNL A   1      33.797  23.499  24.809  1.00  0.00     0.098 C 
ATOM     12  C   UNL A   1      33.909  23.027  22.442  1.00  0.00     0.039 C 
ATOM     13  C   UNL A   1      34.509  24.751  25.267  1.00  0.00     0.032 C 
BRANCH   9  14
ATOM     14  C   UNL A   1      31.287  23.720  24.835  1.00  0.00     0.318 C 
ATOM     15  N   UNL A   1      30.352  24.676  24.837  1.00  0.00    -0.331 N 
ATOM     16  H   UNL A   1      29.571  24.338  25.333  1.00  0.00     0.165 HD
ATOM     17  O   UNL A   1      30.954  22.670  25.398  1.00  0.00    -0.249 OA
BRANCH  15  18
ATOM     18  C   UNL A   1      30.046  26.031  24.383  1.00  0.00     0.111 C 
ATOM     19  C   UNL A   1      28.588  26.386  24.167  1.00  0.00     0.036 C 
BRANCH  18  20
ATOM     20  C   UNL A   1      30.835  27.161  25.027  1.00  0.00    -0.026 A 
ATOM     21  C   UNL A   1      31.016  28.365  24.319  1.00  0.00     0.007 A 
ATOM     22  C   UNL A   1      31.249  27.111  26.367  1.00  0.00     0.007 A 
ATOM     23  C   UNL A   1      31.527  29.503  24.951  1.00  0.00     0.021 A 
ATOM     24  C   UNL A   1      31.749  28.253  27.003  1.00  0.00     0.021 A 
ATOM     25  C   UNL A   1      31.874  29.446  26.296  1.00  0.00     0.041 A 
ATOM     26  Cl  UNL A   1      32.434  30.863  27.096  1.00  0.00    -0.084 Cl
ENDBRANCH  18  20
ENDBRANCH  15  18
ENDBRANCH   9  14
ENDBRANCH   6   8
ENDBRANCH   5   6
ENDBRANCH   4   5
ENDBRANCH   3   4
ENDBRANCH   2   3
ENDBRANCH   1   2
BRANCH   1  27
ATOM     27  C   UNL A   1      41.093  21.129  26.130  1.00  0.00     0.188 C 
BRANCH  27  28
ATOM     28  O   UNL A   1      41.331  19.806  25.699  1.00  0.00    -0.376 OA
BRANCH  28  29
ATOM     29  C   UNL A   1      42.320  19.019  26.350  1.00  0.00     0.202 C 
BRANCH  29  30
ATOM     30  C   UNL A   1      43.542  18.390  25.644  1.00  0.00     0.261 C 
BRANCH  30  31
ATOM     31  O   UNL A   1      43.896  18.869  24.342  1.00  0.00    -0.460 OA
BRANCH  31  32
ATOM     32  C   UNL A   1      45.111  19.449  24.180  1.00  0.00     0.338 C 
ATOM     33  O   UNL A   1      46.059  18.994  23.585  1.00  0.00    -0.246 OA
BRANCH  32  34
ATOM     34  C   UNL A   1      44.963  20.869  24.629  1.00  0.00     0.060 A 
ATOM     35  C   UNL A   1      44.426  21.807  23.732  1.00  0.00     0.016 A 
ATOM     36  C   UNL A   1      45.236  21.246  25.947  1.00  0.00     0.016 A 
ATOM     37  C   UNL A   1      44.187  23.123  24.141  1.00  0.00     0.010 A 
ATOM     38  C   UNL A   1      45.016  22.566  26.351  1.00  0.00     0.010 A 
ATOM     39  C   UNL A   1      44.521  23.519  25.443  1.00  0.00    -0.014 A 
BRANCH  39  40
ATOM     40  C   UNL A   1      44.625  24.955  25.805  1.00  0.00     0.031 A 
ATOM     41  C   UNL A   1      45.988  25.587  25.713  1.00  0.00     0.074 A 
ATOM     42  C   UNL A   1      43.580  25.673  26.255  1.00  0.00     0.049 A 
ATOM     43  N   UNL A   1      46.410  26.738  26.163  1.00  0.00    -0.248 NA
ATOM     44  C   UNL A   1      47.019  24.790  25.027  1.00  0.00     0.031 C 
ATOM     45  C   UNL A   1      42.199  25.209  26.332  1.00  0.00     0.029 A 
ATOM     46  N   UNL A   1      43.539  26.950  26.764  1.00  0.00    -0.354 N 
ATOM     47  C   UNL A   1      47.760  26.791  25.841  1.00  0.00     0.074 A 
ATOM     48  C   UNL A   1      48.091  25.551  25.174  1.00  0.00     0.031 C 
ATOM     49  C   UNL A   1      41.447  26.179  26.885  1.00  0.00     0.029 A 
ATOM     50  C   UNL A   1      42.304  27.308  27.249  1.00  0.00     0.049 A 
ATOM     51  H   UNL A   1      44.319  27.551  26.778  1.00  0.00     0.167 HD
ATOM     52  C   UNL A   1      48.646  27.784  26.081  1.00  0.00     0.037 A 
ATOM     53  C   UNL A   1      41.926  28.400  27.946  1.00  0.00     0.037 A 
ATOM     54  C   UNL A   1      48.312  29.016  26.742  1.00  0.00     0.049 A 
ATOM     55  C   UNL A   1      42.951  29.459  28.286  1.00  0.00     0.074 A 
ATOM     56  C   UNL A   1      49.136  30.090  27.026  1.00  0.00     0.029 A 
ATOM     57  N   UNL A   1      47.054  29.333  27.229  1.00  0.00    -0.354 N 
ATOM     58  N   UNL A   1      44.226  29.508  27.982  1.00  0.00    -0.248 NA
ATOM     59  C   UNL A   1      42.486  30.612  29.073  1.00  0.00     0.031 C 
ATOM     60  C   UNL A   1      48.391  31.032  27.740  1.00  0.00     0.029 A 
ATOM     61  C   UNL A   1      47.085  30.578  27.834  1.00  0.00     0.049 A 
ATOM     62  H   UNL A   1      46.256  28.760  27.154  1.00  0.00     0.167 HD
ATOM     63  C   UNL A   1      44.700  30.710  28.498  1.00  0.00     0.074 A 
ATOM     64  C   UNL A   1      43.579  31.360  29.140  1.00  0.00     0.031 C 
ATOM     65  C   UNL A   1      45.950  31.230  28.438  1.00  0.00     0.037 A 
BRANCH  52  66
ATOM     66  C   UNL A   1      50.070  27.561  25.665  1.00  0.00     0.064 A 
ATOM     67  C   UNL A   1      50.483  27.699  24.331  1.00  0.00     0.173 A 
ATOM     68  C   UNL A   1      51.040  27.230  26.624  1.00  0.00     0.173 A 
ATOM     69  F   UNL A   1      49.591  27.995  23.374  1.00  0.00    -0.203 F 
ATOM     70  C   UNL A   1      51.810  27.487  23.969  1.00  0.00     0.198 A 
ATOM     71  C   UNL A   1      52.372  27.055  26.263  1.00  0.00     0.198 A 
ATOM     72  F   UNL A   1      50.697  27.087  27.912  1.00  0.00    -0.203 F 
ATOM     73  F   UNL A   1      52.174  27.571  22.683  1.00  0.00    -0.200 F 
ATOM     74  C   UNL A   1      52.755  27.175  24.936  1.00  0.00     0.200 A 
ATOM     75  F   UNL A   1      53.285  26.766  27.201  1.00  0.00    -0.200 F 
ATOM     76  F   UNL A   1      54.034  26.981  24.587  1.00  0.00    -0.200 F 
ENDBRANCH  52  66
BRANCH  53  77
ATOM     77  C   UNL A   1      40.518  28.546  28.407  1.00  0.00     0.064 A 
ATOM     78  C   UNL A   1      39.537  29.107  27.575  1.00  0.00     0.173 A 
ATOM     79  C   UNL A   1      40.130  28.167  29.702  1.00  0.00     0.173 A 
ATOM     80  F   UNL A   1      39.862  29.518  26.341  1.00  0.00    -0.203 F 
ATOM     81  C   UNL A   1      38.232  29.302  28.028  1.00  0.00     0.198 A 
ATOM     82  C   UNL A   1      38.817  28.332  30.141  1.00  0.00     0.198 A 
ATOM     83  F   UNL A   1      41.029  27.637  30.544  1.00  0.00    -0.203 F 
ATOM     84  F   UNL A   1      37.332  29.893  27.231  1.00  0.00    -0.200 F 
ATOM     85  C   UNL A   1      37.872  28.908  29.307  1.00  0.00     0.200 A 
ATOM     86  F   UNL A   1      38.473  27.945  31.377  1.00  0.00    -0.200 F 
ATOM     87  F   UNL A   1      36.618  29.097  29.741  1.00  0.00    -0.200 F 
ENDBRANCH  53  77
BRANCH  65  88
ATOM     88  C   UNL A   1      46.178  32.602  29.005  1.00  0.00     0.064 A 
ATOM     89  C   UNL A   1      45.958  33.764  28.254  1.00  0.00     0.173 A 
ATOM     90  C   UNL A   1      46.521  32.750  30.360  1.00  0.00     0.173 A 
ATOM     91  F   UNL A   1      45.638  33.678  26.955  1.00  0.00    -0.203 F 
ATOM     92  C   UNL A   1      46.080  35.025  28.836  1.00  0.00     0.198 A 
ATOM     93  C   UNL A   1      46.611  34.010  30.944  1.00  0.00     0.198 A 
ATOM     94  F   UNL A   1      46.732  31.669  31.125  1.00  0.00    -0.203 F 
ATOM     95  F   UNL A   1      45.890  36.124  28.093  1.00  0.00    -0.200 F 
ATOM     96  C   UNL A   1      46.392  35.145  30.182  1.00  0.00     0.200 A 
ATOM     97  F   UNL A   1      46.893  34.121  32.250  1.00  0.00    -0.200 F 
ATOM     98  F   UNL A   1      46.483  36.359  30.744  1.00  0.00    -0.200 F 
ENDBRANCH  65  88
ENDBRANCH  39  40
ENDBRANCH  32  34
ENDBRANCH  31  32
ENDBRANCH  30  31
ENDBRANCH  29  30
ENDBRANCH  28  29
ENDBRANCH  27  28
ENDBRANCH   1  27
TORSDOF 20
ENDMDL
MODEL 3
REMARK VINA RESULT:     -11.2      5.052      7.381
REMARK SMILES C[C@H](NC(=O)N1CC[C@@H](C(=O)OCCOCCOCCOC(=O)c2ccc(-c3c4nc(c(-c5c(F)c(F)c(F)c(F)c5F)c5ccc([nH]5)c(-c5c(F)c(F)c(F)c(F)c5F)c5nc(c(-c6c(F)c(F)c(F)c(F)c6F)c6ccc3[nH]6)C=C5)C=C4)cc2)[C@H]1C)c1ccc(Cl)cc1
REMARK SMILES IDX 16 1 15 2 14 3 13 4 12 5 10 6 11 7 9 8 6 9 7 10 87 11 8 12
REMARK SMILES IDX 88 13 4 14 3 15 5 17 2 18 1 19 89 20 90 21 95 22 91 23 94 24
REMARK SMILES IDX 92 25 93 26 17 27 18 28 19 29 20 30 21 31 22 32 23 33 24 34
REMARK SMILES IDX 25 35 86 36 26 37 85 38 27 39 28 40 29 41 79 42 30 43 84 44
REMARK SMILES IDX 78 45 80 46 31 47 83 48 77 49 76 50 32 52 64 53 44 54 63 55
REMARK SMILES IDX 45 56 48 57 62 58 81 59 46 60 47 61 61 63 82 64 49 65 33 66
REMARK SMILES IDX 34 67 42 68 35 69 36 70 40 71 43 72 37 73 38 74 41 75 39 76
REMARK SMILES IDX 65 77 66 78 74 79 67 80 68 81 72 82 75 83 69 84 70 85 73 86
REMARK SMILES IDX 71 87 50 88 51 89 59 90 52 91 53 92 57 93 60 94 54 95 55 96
REMARK SMILES IDX 58 97 56 98
REMARK H PARENT 3 16 80 51 48 62
REMARK Flexibility Score: inf
ROOT
ATOM      1  C   UNL A   1      39.540  21.233  26.297  1.00  0.00     0.188 C 
ENDROOT
BRANCH   1   2
ATOM      2  O   UNL A   1      39.218  22.609  26.134  1.00  0.00    -0.376 OA
BRANCH   2   3
ATOM      3  C   UNL A   1      37.864  22.906  25.797  1.00  0.00     0.202 C 
BRANCH   3   4
ATOM      4  C   UNL A   1      36.962  21.675  25.614  1.00  0.00     0.261 C 
BRANCH   4   5
ATOM      5  O   UNL A   1      36.542  21.482  24.246  1.00  0.00    -0.463 OA
BRANCH   5   6
ATOM      6  C   UNL A   1      35.990  22.535  23.601  1.00  0.00     0.311 C 
ATOM      7  O   UNL A   1      36.632  23.367  22.968  1.00  0.00    -0.252 OA
BRANCH   6   8
ATOM      8  C   UNL A   1      34.472  22.608  23.721  1.00  0.00     0.123 C 
ATOM      9  N   UNL A   1      32.437  23.830  24.212  1.00  0.00    -0.321 N 
ATOM     10  C   UNL A   1      32.408  23.297  22.848  1.00  0.00     0.122 C 
ATOM     11  C   UNL A   1      33.731  23.412  24.831  1.00  0.00     0.098 C 
ATOM     12  C   UNL A   1      33.851  23.119  22.435  1.00  0.00     0.039 C 
ATOM     13  C   UNL A   1      34.487  24.596  25.390  1.00  0.00     0.032 C 
BRANCH   9  14
ATOM     14  C   UNL A   1      31.232  23.731  24.855  1.00  0.00     0.318 C 
ATOM     15  N   UNL A   1      30.287  24.678  24.827  1.00  0.00    -0.331 N 
ATOM     16  H   UNL A   1      29.502  24.338  25.314  1.00  0.00     0.165 HD
ATOM     17  O   UNL A   1      30.900  22.685  25.427  1.00  0.00    -0.249 OA
BRANCH  15  18
ATOM     18  C   UNL A   1      29.976  26.023  24.348  1.00  0.00     0.111 C 
ATOM     19  C   UNL A   1      28.515  26.374  24.147  1.00  0.00     0.036 C 
BRANCH  18  20
ATOM     20  C   UNL A   1      30.775  27.165  24.955  1.00  0.00    -0.026 A 
ATOM     21  C   UNL A   1      30.899  28.373  24.242  1.00  0.00     0.007 A 
ATOM     22  C   UNL A   1      31.256  27.120  26.273  1.00  0.00     0.007 A 
ATOM     23  C   UNL A   1      31.421  29.519  24.851  1.00  0.00     0.021 A 
ATOM     24  C   UNL A   1      31.767  28.270  26.886  1.00  0.00     0.021 A 
ATOM     25  C   UNL A   1      31.835  29.466  26.177  1.00  0.00     0.041 A 
ATOM     26  Cl  UNL A   1      32.409  30.892  26.951  1.00  0.00    -0.084 Cl
ENDBRANCH  18  20
ENDBRANCH  15  18
ENDBRANCH   9  14
ENDBRANCH   6   8
ENDBRANCH   5   6
ENDBRANCH   4   5
ENDBRANCH   3   4
ENDBRANCH   2   3
ENDBRANCH   1   2
BRANCH   1  27
ATOM     27  C   UNL A   1      41.015  20.898  26.114  1.00  0.00     0.188 C 
BRANCH  27  28
ATOM     28  O   UNL A   1      41.254  19.543  25.801  1.00  0.00    -0.376 OA
BRANCH  28  29
ATOM     29  C   UNL A   1      42.311  18.846  26.447  1.00  0.00     0.202 C 
BRANCH  29  30
ATOM     30  C   UNL A   1      43.575  18.316  25.731  1.00  0.00     0.261 C 
BRANCH  30  31
ATOM     31  O   UNL A   1      43.872  18.811  24.421  1.00  0.00    -0.460 OA
BRANCH  31  32
ATOM     32  C   UNL A   1      45.086  19.374  24.207  1.00  0.00     0.338 C 
ATOM     33  O   UNL A   1      46.006  18.902  23.581  1.00  0.00    -0.246 OA
BRANCH  32  34
ATOM     34  C   UNL A   1      44.972  20.800  24.647  1.00  0.00     0.060 A 
ATOM     35  C   UNL A   1      44.406  21.734  23.765  1.00  0.00     0.016 A 
ATOM     36  C   UNL A   1      45.307  21.188  25.948  1.00  0.00     0.016 A 
ATOM     37  C   UNL A   1      44.198  23.057  24.170  1.00  0.00     0.010 A 
ATOM     38  C   UNL A   1      45.118  22.514  26.347  1.00  0.00     0.010 A 
ATOM     39  C   UNL A   1      44.593  23.463  25.451  1.00  0.00    -0.014 A 
BRANCH  39  40
ATOM     40  C   UNL A   1      44.728  24.902  25.794  1.00  0.00     0.031 A 
ATOM     41  C   UNL A   1      46.097  25.511  25.662  1.00  0.00     0.074 A 
ATOM     42  C   UNL A   1      43.705  25.640  26.259  1.00  0.00     0.049 A 
ATOM     43  N   UNL A   1      46.547  26.661  26.088  1.00  0.00    -0.248 NA
ATOM     44  C   UNL A   1      47.100  24.690  24.963  1.00  0.00     0.031 C 
ATOM     45  C   UNL A   1      42.318  25.199  26.373  1.00  0.00     0.029 A 
ATOM     46  N   UNL A   1      43.694  26.924  26.752  1.00  0.00    -0.354 N 
ATOM     47  C   UNL A   1      47.890  26.688  25.734  1.00  0.00     0.074 A 
ATOM     48  C   UNL A   1      48.186  25.436  25.076  1.00  0.00     0.031 C 
ATOM     49  C   UNL A   1      41.594  26.187  26.931  1.00  0.00     0.029 A 
ATOM     50  C   UNL A   1      42.476  27.307  27.261  1.00  0.00     0.049 A 
ATOM     51  H   UNL A   1      44.483  27.513  26.741  1.00  0.00     0.167 HD
ATOM     52  C   UNL A   1      48.796  27.671  25.942  1.00  0.00     0.037 A 
ATOM     53  C   UNL A   1      42.131  28.413  27.953  1.00  0.00     0.037 A 
ATOM     54  C   UNL A   1      48.497  28.916  26.595  1.00  0.00     0.049 A 
ATOM     55  C   UNL A   1      43.180  29.460  28.256  1.00  0.00     0.074 A 
ATOM     56  C   UNL A   1      49.343  29.980  26.847  1.00  0.00     0.029 A 
ATOM     57  N   UNL A   1      47.255  29.258  27.107  1.00  0.00    -0.354 N 
ATOM     58  N   UNL A   1      44.448  29.485  27.923  1.00  0.00    -0.248 NA
ATOM     59  C   UNL A   1      42.751  30.630  29.040  1.00  0.00     0.031 C 
ATOM     60  C   UNL A   1      48.630  30.942  27.566  1.00  0.00     0.029 A 
ATOM     61  C   UNL A   1      47.319  30.509  27.696  1.00  0.00     0.049 A 
ATOM     62  H   UNL A   1      46.447  28.696  27.057  1.00  0.00     0.167 HD
ATOM     63  C   UNL A   1      44.953  30.686  28.412  1.00  0.00     0.074 A 
ATOM     64  C   UNL A   1      43.857  31.361  29.072  1.00  0.00     0.031 C 
ATOM     65  C   UNL A   1      46.209  31.186  28.317  1.00  0.00     0.037 A 
BRANCH  52  66
ATOM     66  C   UNL A   1      50.206  27.421  25.496  1.00  0.00     0.064 A 
ATOM     67  C   UNL A   1      51.205  27.008  26.391  1.00  0.00     0.173 A 
ATOM     68  C   UNL A   1      50.555  27.571  24.145  1.00  0.00     0.173 A 
ATOM     69  F   UNL A   1      50.928  26.869  27.696  1.00  0.00    -0.203 F 
ATOM     70  C   UNL A   1      52.507  26.781  25.954  1.00  0.00     0.198 A 
ATOM     71  C   UNL A   1      51.849  27.308  23.706  1.00  0.00     0.198 A 
ATOM     72  F   UNL A   1      49.637  27.962  23.249  1.00  0.00    -0.203 F 
ATOM     73  F   UNL A   1      53.458  26.441  26.834  1.00  0.00    -0.200 F 
ATOM     74  C   UNL A   1      52.825  26.922  24.611  1.00  0.00     0.200 A 
ATOM     75  F   UNL A   1      52.151  27.432  22.406  1.00  0.00    -0.200 F 
ATOM     76  F   UNL A   1      54.077  26.694  24.190  1.00  0.00    -0.200 F 
ENDBRANCH  52  66
BRANCH  53  77
ATOM     77  C   UNL A   1      40.737  28.586  28.445  1.00  0.00     0.064 A 
ATOM     78  C   UNL A   1      40.375  28.209  29.747  1.00  0.00     0.173 A 
ATOM     79  C   UNL A   1      39.727  29.094  27.613  1.00  0.00     0.173 A 
ATOM     80  F   UNL A   1      41.295  27.685  30.571  1.00  0.00    -0.203 F 
ATOM     81  C   UNL A   1      39.057  28.312  30.189  1.00  0.00     0.198 A 
ATOM     82  C   UNL A   1      38.415  29.228  28.068  1.00  0.00     0.198 A 
ATOM     83  F   UNL A   1      40.013  29.460  26.355  1.00  0.00    -0.203 F 
ATOM     84  F   UNL A   1      38.730  27.889  31.417  1.00  0.00    -0.200 F 
ATOM     85  C   UNL A   1      38.080  28.828  29.351  1.00  0.00     0.200 A 
ATOM     86  F   UNL A   1      37.476  29.733  27.256  1.00  0.00    -0.200 F 
ATOM     87  F   UNL A   1      36.813  28.925  29.777  1.00  0.00    -0.200 F 
ENDBRANCH  53  77
BRANCH  65  88
ATOM     88  C   UNL A   1      46.470  32.561  28.862  1.00  0.00     0.064 A 
ATOM     89  C   UNL A   1      46.928  32.770  30.170  1.00  0.00     0.173 A 
ATOM     90  C   UNL A   1      46.359  33.679  28.019  1.00  0.00     0.173 A 
ATOM     91  F   UNL A   1      47.043  31.737  31.017  1.00  0.00    -0.203 F 
ATOM     92  C   UNL A   1      47.259  34.048  30.616  1.00  0.00     0.198 A 
ATOM     93  C   UNL A   1      46.720  34.950  28.459  1.00  0.00     0.198 A 
ATOM     94  F   UNL A   1      45.935  33.533  26.754  1.00  0.00    -0.203 F 
ATOM     95  F   UNL A   1      47.671  34.228  31.879  1.00  0.00    -0.200 F 
ATOM     96  C   UNL A   1      47.167  35.133  29.757  1.00  0.00     0.200 A 
ATOM     97  F   UNL A   1      46.649  35.992  27.619  1.00  0.00    -0.200 F 
ATOM     98  F   UNL A   1      47.511  36.357  30.182  1.00  0.00    -0.200 F 
ENDBRANCH  65  88
ENDBRANCH  39  40
ENDBRANCH  32  34
ENDBRANCH  31  32
ENDBRANCH  30  31
ENDBRANCH  29  30
ENDBRANCH  28  29
ENDBRANCH  27  28
ENDBRANCH   1  27
TORSDOF 20
ENDMDL
