MODEL 1
REMARK VINA RESULT:     -11.1      0.000      0.000
REMARK SMILES Cc1cc(Br)cc2c1O[C@H](C(F)(F)F)C(C(=O)OCCOCCOCCOC(=O)c1ccc(-c3c4nc(c(-c5c(F)c(F)c(F)c(F)c5F)c5ccc([nH]5)c(-c5c(F)c(F)c(F)c(F)c5F)c5nc(c(-c6c(F)c(F)c(F)c(F)c6F)c6ccc3[nH]6)C=C5)C=C4)cc1)=C2
REMARK SMILES IDX 23 1 22 2 21 3 20 4 19 5 18 6 16 7 17 8 15 9 1 10 2 11 3 12
REMARK SMILES IDX 8 13 4 14 7 15 9 16 5 17 6 18 93 19 10 20 11 21 12 22 13 23
REMARK SMILES IDX 14 24 24 25 25 26 26 27 27 28 28 29 29 30 30 31 31 32 92 33
REMARK SMILES IDX 32 34 91 35 33 36 34 37 35 38 85 39 36 40 90 41 84 42 86 43
REMARK SMILES IDX 37 44 89 45 83 46 82 47 38 49 70 50 50 51 69 52 51 53 54 54
REMARK SMILES IDX 68 55 87 56 52 57 53 58 67 60 88 61 55 62 39 63 40 64 48 65
REMARK SMILES IDX 41 66 42 67 46 68 49 69 43 70 44 71 47 72 45 73 71 74 72 75
REMARK SMILES IDX 80 76 73 77 74 78 78 79 81 80 75 81 76 82 79 83 77 84 56 85
REMARK SMILES IDX 57 86 65 87 58 88 59 89 63 90 66 91 60 92 61 93 64 94 62 95
REMARK H PARENT 86 48 54 59
REMARK Flexibility Score: inf
ROOT
ATOM      1  C   UNL A   1      36.013  21.754  24.411  1.00  0.00     0.188 C 
ENDROOT
BRANCH   1   2
ATOM      2  C   UNL A   1      35.170  20.671  25.118  1.00  0.00     0.188 C 
BRANCH   2   3
ATOM      3  O   UNL A   1      34.014  20.172  24.488  1.00  0.00    -0.376 OA
BRANCH   3   4
ATOM      4  C   UNL A   1      32.852  20.968  24.341  1.00  0.00     0.202 C 
BRANCH   4   5
ATOM      5  C   UNL A   1      31.923  21.396  25.489  1.00  0.00     0.261 C 
BRANCH   5   6
ATOM      6  O   UNL A   1      31.106  22.549  25.265  1.00  0.00    -0.460 OA
BRANCH   6   7
ATOM      7  C   UNL A   1      30.944  23.359  26.338  1.00  0.00     0.338 C 
ATOM      8  O   UNL A   1      30.803  23.014  27.500  1.00  0.00    -0.246 OA
BRANCH   7   9
ATOM      9  C   UNL A   1      31.128  24.765  25.928  1.00  0.00     0.087 C 
ATOM     10  C   UNL A   1      33.041  29.327  24.608  1.00  0.00     0.048 C 
ATOM     11  C   UNL A   1      31.736  28.606  24.411  1.00  0.00    -0.007 A 
ATOM     12  C   UNL A   1      30.731  29.197  23.632  1.00  0.00     0.023 A 
ATOM     13  C   UNL A   1      31.498  27.355  25.004  1.00  0.00     0.130 A 
ATOM     14  C   UNL A   1      29.516  28.541  23.439  1.00  0.00     0.019 A 
ATOM     15  C   UNL A   1      30.293  26.682  24.768  1.00  0.00     0.019 A 
ATOM     16  O   UNL A   1      32.486  26.852  25.801  1.00  0.00    -0.475 OA
ATOM     17  Br  UNL A   1      28.174  29.343  22.376  1.00  0.00    -0.051 Br
ATOM     18  C   UNL A   1      29.291  27.288  24.002  1.00  0.00     0.027 A 
ATOM     19  C   UNL A   1      30.113  25.327  25.259  1.00  0.00     0.027 C 
ATOM     20  C   UNL A   1      32.403  25.481  26.276  1.00  0.00     0.316 C 
BRANCH  20  21
ATOM     21  C   UNL A   1      33.645  24.727  25.786  1.00  0.00     0.430 C 
ATOM     22  F   UNL A   1      33.937  23.680  26.595  1.00  0.00    -0.167 F 
ATOM     23  F   UNL A   1      33.466  24.218  24.544  1.00  0.00    -0.167 F 
ATOM     24  F   UNL A   1      34.736  25.525  25.745  1.00  0.00    -0.167 F 
ENDBRANCH  20  21
ENDBRANCH   7   9
ENDBRANCH   6   7
ENDBRANCH   5   6
ENDBRANCH   4   5
ENDBRANCH   3   4
ENDBRANCH   2   3
ENDBRANCH   1   2
BRANCH   1  25
ATOM     25  O   UNL A   1      37.411  21.608  24.309  1.00  0.00    -0.376 OA
BRANCH  25  26
ATOM     26  C   UNL A   1      38.150  21.129  25.422  1.00  0.00     0.202 C 
BRANCH  26  27
ATOM     27  C   UNL A   1      39.068  19.892  25.376  1.00  0.00     0.261 C 
BRANCH  27  28
ATOM     28  O   UNL A   1      39.919  19.671  26.508  1.00  0.00    -0.460 OA
BRANCH  28  29
ATOM     29  C   UNL A   1      41.255  19.700  26.253  1.00  0.00     0.338 C 
ATOM     30  O   UNL A   1      41.934  18.830  25.751  1.00  0.00    -0.246 OA
BRANCH  29  31
ATOM     31  C   UNL A   1      41.745  21.071  26.505  1.00  0.00     0.060 A 
ATOM     32  C   UNL A   1      41.987  21.471  27.827  1.00  0.00     0.016 A 
ATOM     33  C   UNL A   1      41.962  21.952  25.446  1.00  0.00     0.016 A 
ATOM     34  C   UNL A   1      42.469  22.753  28.091  1.00  0.00     0.010 A 
ATOM     35  C   UNL A   1      42.415  23.246  25.716  1.00  0.00     0.010 A 
ATOM     36  C   UNL A   1      42.659  23.657  27.039  1.00  0.00    -0.014 A 
BRANCH  36  37
ATOM     37  C   UNL A   1      42.970  25.075  27.339  1.00  0.00     0.031 A 
ATOM     38  C   UNL A   1      44.332  25.604  26.989  1.00  0.00     0.074 A 
ATOM     39  C   UNL A   1      42.048  25.890  27.883  1.00  0.00     0.049 A 
ATOM     40  N   UNL A   1      44.822  26.806  27.148  1.00  0.00    -0.248 NA
ATOM     41  C   UNL A   1      45.266  24.649  26.371  1.00  0.00     0.031 C 
ATOM     42  C   UNL A   1      40.685  25.503  28.237  1.00  0.00     0.029 A 
ATOM     43  N   UNL A   1      42.124  27.217  28.234  1.00  0.00    -0.354 N 
ATOM     44  C   UNL A   1      46.113  26.754  26.643  1.00  0.00     0.074 A 
ATOM     45  C   UNL A   1      46.351  25.394  26.214  1.00  0.00     0.031 C 
ATOM     46  C   UNL A   1      40.048  26.571  28.749  1.00  0.00     0.029 A 
ATOM     47  C   UNL A   1      40.966  27.709  28.786  1.00  0.00     0.049 A 
ATOM     48  H   UNL A   1      42.932  27.763  28.100  1.00  0.00     0.167 HD
ATOM     49  C   UNL A   1      47.013  27.758  26.525  1.00  0.00     0.037 A 
ATOM     50  C   UNL A   1      40.687  28.936  29.273  1.00  0.00     0.037 A 
ATOM     51  C   UNL A   1      46.778  29.109  26.960  1.00  0.00     0.049 A 
ATOM     52  C   UNL A   1      41.743  30.013  29.221  1.00  0.00     0.074 A 
ATOM     53  C   UNL A   1      47.630  30.197  26.877  1.00  0.00     0.029 A 
ATOM     54  N   UNL A   1      45.612  29.556  27.562  1.00  0.00    -0.354 N 
ATOM     55  N   UNL A   1      42.948  29.966  28.708  1.00  0.00    -0.248 NA
ATOM     56  C   UNL A   1      41.400  31.317  29.815  1.00  0.00     0.031 C 
ATOM     57  C   UNL A   1      47.003  31.287  27.483  1.00  0.00     0.029 A 
ATOM     58  C   UNL A   1      45.734  30.897  27.883  1.00  0.00     0.049 A 
ATOM     59  H   UNL A   1      44.817  29.002  27.734  1.00  0.00     0.167 HD
ATOM     60  C   UNL A   1      43.491  31.234  28.882  1.00  0.00     0.074 A 
ATOM     61  C   UNL A   1      42.484  32.034  29.546  1.00  0.00     0.031 C 
ATOM     62  C   UNL A   1      44.714  31.691  28.521  1.00  0.00     0.037 A 
BRANCH  49  63
ATOM     63  C   UNL A   1      48.339  27.441  25.901  1.00  0.00     0.064 A 
ATOM     64  C   UNL A   1      49.442  27.065  26.682  1.00  0.00     0.173 A 
ATOM     65  C   UNL A   1      48.489  27.436  24.506  1.00  0.00     0.173 A 
ATOM     66  F   UNL A   1      49.353  27.064  28.021  1.00  0.00    -0.203 F 
ATOM     67  C   UNL A   1      50.650  26.709  26.090  1.00  0.00     0.198 A 
ATOM     68  C   UNL A   1      49.690  27.050  23.917  1.00  0.00     0.198 A 
ATOM     69  F   UNL A   1      47.464  27.781  23.714  1.00  0.00    -0.203 F 
ATOM     70  F   UNL A   1      51.700  26.387  26.858  1.00  0.00    -0.200 F 
ATOM     71  C   UNL A   1      50.770  26.691  24.709  1.00  0.00     0.200 A 
ATOM     72  F   UNL A   1      49.798  27.016  22.582  1.00  0.00    -0.200 F 
ATOM     73  F   UNL A   1      51.927  26.327  24.140  1.00  0.00    -0.200 F 
ENDBRANCH  49  63
BRANCH  50  74
ATOM     74  C   UNL A   1      39.339  29.222  29.832  1.00  0.00     0.064 A 
ATOM     75  C   UNL A   1      39.045  28.951  31.176  1.00  0.00     0.173 A 
ATOM     76  C   UNL A   1      38.317  29.770  29.041  1.00  0.00     0.173 A 
ATOM     77  F   UNL A   1      39.979  28.401  31.967  1.00  0.00    -0.203 F 
ATOM     78  C   UNL A   1      37.782  29.209  31.706  1.00  0.00     0.198 A 
ATOM     79  C   UNL A   1      37.063  30.055  29.579  1.00  0.00     0.198 A 
ATOM     80  F   UNL A   1      38.542  30.042  27.747  1.00  0.00    -0.203 F 
ATOM     81  F   UNL A   1      37.518  28.904  32.982  1.00  0.00    -0.200 F 
ATOM     82  C   UNL A   1      36.795  29.769  30.909  1.00  0.00     0.200 A 
ATOM     83  F   UNL A   1      36.116  30.606  28.807  1.00  0.00    -0.200 F 
ATOM     84  F   UNL A   1      35.583  30.026  31.420  1.00  0.00    -0.200 F 
ENDBRANCH  50  74
BRANCH  62  85
ATOM     85  C   UNL A   1      45.049  33.131  28.788  1.00  0.00     0.064 A 
ATOM     86  C   UNL A   1      44.686  34.147  27.893  1.00  0.00     0.173 A 
ATOM     87  C   UNL A   1      45.611  33.509  30.018  1.00  0.00     0.173 A 
ATOM     88  F   UNL A   1      44.154  33.839  26.701  1.00  0.00    -0.203 F 
ATOM     89  C   UNL A   1      44.868  35.488  28.222  1.00  0.00     0.198 A 
ATOM     90  C   UNL A   1      45.764  34.850  30.357  1.00  0.00     0.198 A 
ATOM     91  F   UNL A   1      45.965  32.575  30.915  1.00  0.00    -0.203 F 
ATOM     92  F   UNL A   1      44.524  36.443  27.347  1.00  0.00    -0.200 F 
ATOM     93  C   UNL A   1      45.390  35.838  29.460  1.00  0.00     0.200 A 
ATOM     94  F   UNL A   1      46.248  35.187  31.560  1.00  0.00    -0.200 F 
ATOM     95  F   UNL A   1      45.528  37.131  29.788  1.00  0.00    -0.200 F 
ENDBRANCH  62  85
ENDBRANCH  36  37
ENDBRANCH  29  31
ENDBRANCH  28  29
ENDBRANCH  27  28
ENDBRANCH  26  27
ENDBRANCH  25  26
ENDBRANCH   1  25
TORSDOF 18
ENDMDL
MODEL 2
REMARK VINA RESULT:     -11.1      4.894     10.485
REMARK SMILES Cc1cc(Br)cc2c1O[C@H](C(F)(F)F)C(C(=O)OCCOCCOCCOC(=O)c1ccc(-c3c4nc(c(-c5c(F)c(F)c(F)c(F)c5F)c5ccc([nH]5)c(-c5c(F)c(F)c(F)c(F)c5F)c5nc(c(-c6c(F)c(F)c(F)c(F)c6F)c6ccc3[nH]6)C=C5)C=C4)cc1)=C2
REMARK SMILES IDX 23 1 22 2 21 3 20 4 19 5 18 6 16 7 17 8 15 9 1 10 2 11 3 12
REMARK SMILES IDX 8 13 4 14 7 15 9 16 5 17 6 18 93 19 10 20 11 21 12 22 13 23
REMARK SMILES IDX 14 24 24 25 25 26 26 27 27 28 28 29 29 30 30 31 31 32 92 33
REMARK SMILES IDX 32 34 91 35 33 36 34 37 35 38 85 39 36 40 90 41 84 42 86 43
REMARK SMILES IDX 37 44 89 45 83 46 82 47 38 49 70 50 50 51 69 52 51 53 54 54
REMARK SMILES IDX 68 55 87 56 52 57 53 58 67 60 88 61 55 62 39 63 40 64 48 65
REMARK SMILES IDX 41 66 42 67 46 68 49 69 43 70 44 71 47 72 45 73 71 74 72 75
REMARK SMILES IDX 80 76 73 77 74 78 78 79 81 80 75 81 76 82 79 83 77 84 56 85
REMARK SMILES IDX 57 86 65 87 58 88 59 89 63 90 66 91 60 92 61 93 64 94 62 95
REMARK H PARENT 86 48 54 59
REMARK Flexibility Score: inf
ROOT
ATOM      1  C   UNL A   1      33.709  29.250  27.245  1.00  0.00     0.188 C 
ENDROOT
BRANCH   1   2
ATOM      2  C   UNL A   1      34.054  28.241  26.131  1.00  0.00     0.188 C 
BRANCH   2   3
ATOM      3  O   UNL A   1      33.346  28.282  24.915  1.00  0.00    -0.376 OA
BRANCH   3   4
ATOM      4  C   UNL A   1      34.005  28.525  23.685  1.00  0.00     0.202 C 
BRANCH   4   5
ATOM      5  C   UNL A   1      33.667  27.840  22.350  1.00  0.00     0.261 C 
BRANCH   5   6
ATOM      6  O   UNL A   1      32.569  26.923  22.355  1.00  0.00    -0.460 OA
BRANCH   6   7
ATOM      7  C   UNL A   1      32.874  25.657  21.983  1.00  0.00     0.338 C 
ATOM      8  O   UNL A   1      32.971  25.233  20.844  1.00  0.00    -0.246 OA
BRANCH   7   9
ATOM      9  C   UNL A   1      33.246  24.868  23.175  1.00  0.00     0.087 C 
ATOM     10  C   UNL A   1      33.256  22.261  27.581  1.00  0.00     0.048 C 
ATOM     11  C   UNL A   1      34.138  22.329  26.366  1.00  0.00    -0.007 A 
ATOM     12  C   UNL A   1      35.237  21.464  26.261  1.00  0.00     0.023 A 
ATOM     13  C   UNL A   1      33.891  23.253  25.337  1.00  0.00     0.130 A 
ATOM     14  C   UNL A   1      36.065  21.515  25.140  1.00  0.00     0.019 A 
ATOM     15  C   UNL A   1      34.700  23.266  24.194  1.00  0.00     0.019 A 
ATOM     16  O   UNL A   1      32.845  24.112  25.516  1.00  0.00    -0.475 OA
ATOM     17  Br  UNL A   1      37.535  20.335  25.004  1.00  0.00    -0.051 Br
ATOM     18  C   UNL A   1      35.803  22.410  24.106  1.00  0.00     0.027 A 
ATOM     19  C   UNL A   1      34.350  24.118  23.070  1.00  0.00     0.027 C 
ATOM     20  C   UNL A   1      32.400  24.948  24.414  1.00  0.00     0.316 C 
BRANCH  20  21
ATOM     21  C   UNL A   1      30.926  24.628  24.133  1.00  0.00     0.430 C 
ATOM     22  F   UNL A   1      30.792  23.852  23.030  1.00  0.00    -0.167 F 
ATOM     23  F   UNL A   1      30.356  23.950  25.156  1.00  0.00    -0.167 F 
ATOM     24  F   UNL A   1      30.197  25.749  23.932  1.00  0.00    -0.167 F 
ENDBRANCH  20  21
ENDBRANCH   7   9
ENDBRANCH   6   7
ENDBRANCH   5   6
ENDBRANCH   4   5
ENDBRANCH   3   4
ENDBRANCH   2   3
ENDBRANCH   1   2
BRANCH   1  25
ATOM     25  O   UNL A   1      33.595  30.623  26.947  1.00  0.00    -0.376 OA
BRANCH  25  26
ATOM     26  C   UNL A   1      32.308  31.206  26.809  1.00  0.00     0.202 C 
BRANCH  26  27
ATOM     27  C   UNL A   1      31.979  32.663  27.191  1.00  0.00     0.261 C 
BRANCH  27  28
ATOM     28  O   UNL A   1      33.060  33.603  27.165  1.00  0.00    -0.460 OA
BRANCH  28  29
ATOM     29  C   UNL A   1      33.437  34.098  28.374  1.00  0.00     0.338 C 
ATOM     30  O   UNL A   1      32.857  34.917  29.055  1.00  0.00    -0.246 OA
BRANCH  29  31
ATOM     31  C   UNL A   1      34.601  33.323  28.851  1.00  0.00     0.060 A 
ATOM     32  C   UNL A   1      34.402  32.330  29.821  1.00  0.00     0.016 A 
ATOM     33  C   UNL A   1      35.876  33.577  28.347  1.00  0.00     0.016 A 
ATOM     34  C   UNL A   1      35.481  31.571  30.274  1.00  0.00     0.010 A 
ATOM     35  C   UNL A   1      36.961  32.837  28.825  1.00  0.00     0.010 A 
ATOM     36  C   UNL A   1      36.770  31.839  29.799  1.00  0.00    -0.014 A 
BRANCH  36  37
ATOM     37  C   UNL A   1      37.936  31.177  30.432  1.00  0.00     0.031 A 
ATOM     38  C   UNL A   1      38.277  31.521  31.853  1.00  0.00     0.074 A 
ATOM     39  C   UNL A   1      38.662  30.259  29.766  1.00  0.00     0.049 A 
ATOM     40  N   UNL A   1      39.240  31.063  32.611  1.00  0.00    -0.248 NA
ATOM     41  C   UNL A   1      37.412  32.514  32.512  1.00  0.00     0.031 C 
ATOM     42  C   UNL A   1      38.411  29.818  28.396  1.00  0.00     0.029 A 
ATOM     43  N   UNL A   1      39.761  29.534  30.158  1.00  0.00    -0.354 N 
ATOM     44  C   UNL A   1      39.090  31.701  33.834  1.00  0.00     0.074 A 
ATOM     45  C   UNL A   1      37.976  32.614  33.707  1.00  0.00     0.031 C 
ATOM     46  C   UNL A   1      39.326  28.891  28.063  1.00  0.00     0.029 A 
ATOM     47  C   UNL A   1      40.246  28.695  29.184  1.00  0.00     0.049 A 
ATOM     48  H   UNL A   1      40.163  29.608  31.054  1.00  0.00     0.167 HD
ATOM     49  C   UNL A   1      39.805  31.525  34.969  1.00  0.00     0.037 A 
ATOM     50  C   UNL A   1      41.313  27.870  29.198  1.00  0.00     0.037 A 
ATOM     51  C   UNL A   1      40.919  30.623  35.092  1.00  0.00     0.049 A 
ATOM     52  C   UNL A   1      42.155  27.766  30.445  1.00  0.00     0.074 A 
ATOM     53  C   UNL A   1      41.702  30.374  36.205  1.00  0.00     0.029 A 
ATOM     54  N   UNL A   1      41.411  29.830  34.067  1.00  0.00    -0.354 N 
ATOM     55  N   UNL A   1      41.986  28.345  31.609  1.00  0.00    -0.248 NA
ATOM     56  C   UNL A   1      43.338  26.891  30.384  1.00  0.00     0.031 C 
ATOM     57  C   UNL A   1      42.704  29.474  35.838  1.00  0.00     0.029 A 
ATOM     58  C   UNL A   1      42.507  29.111  34.515  1.00  0.00     0.049 A 
ATOM     59  H   UNL A   1      41.037  29.783  33.158  1.00  0.00     0.167 HD
ATOM     60  C   UNL A   1      43.010  27.880  32.424  1.00  0.00     0.074 A 
ATOM     61  C   UNL A   1      43.800  26.967  31.626  1.00  0.00     0.031 C 
ATOM     62  C   UNL A   1      43.270  28.184  33.719  1.00  0.00     0.037 A 
BRANCH  49  63
ATOM     63  C   UNL A   1      39.409  32.321  36.177  1.00  0.00     0.064 A 
ATOM     64  C   UNL A   1      39.973  33.578  36.440  1.00  0.00     0.173 A 
ATOM     65  C   UNL A   1      38.400  31.860  37.036  1.00  0.00     0.173 A 
ATOM     66  F   UNL A   1      40.949  34.058  35.655  1.00  0.00    -0.203 F 
ATOM     67  C   UNL A   1      39.552  34.338  37.528  1.00  0.00     0.198 A 
ATOM     68  C   UNL A   1      37.960  32.637  38.105  1.00  0.00     0.198 A 
ATOM     69  F   UNL A   1      37.823  30.668  36.826  1.00  0.00    -0.203 F 
ATOM     70  F   UNL A   1      40.131  35.520  37.779  1.00  0.00    -0.200 F 
ATOM     71  C   UNL A   1      38.540  33.872  38.352  1.00  0.00     0.200 A 
ATOM     72  F   UNL A   1      36.969  32.193  38.890  1.00  0.00    -0.200 F 
ATOM     73  F   UNL A   1      38.120  34.615  39.386  1.00  0.00    -0.200 F 
ENDBRANCH  49  63
BRANCH  50  74
ATOM     74  C   UNL A   1      41.635  27.057  27.994  1.00  0.00     0.064 A 
ATOM     75  C   UNL A   1      42.555  27.517  27.041  1.00  0.00     0.173 A 
ATOM     76  C   UNL A   1      41.037  25.808  27.771  1.00  0.00     0.173 A 
ATOM     77  F   UNL A   1      43.134  28.717  27.194  1.00  0.00    -0.203 F 
ATOM     78  C   UNL A   1      42.857  26.764  25.907  1.00  0.00     0.198 A 
ATOM     79  C   UNL A   1      41.362  25.043  26.652  1.00  0.00     0.198 A 
ATOM     80  F   UNL A   1      40.146  25.323  28.648  1.00  0.00    -0.203 F 
ATOM     81  F   UNL A   1      43.709  27.246  24.993  1.00  0.00    -0.200 F 
ATOM     82  C   UNL A   1      42.267  25.524  25.718  1.00  0.00     0.200 A 
ATOM     83  F   UNL A   1      40.796  23.840  26.479  1.00  0.00    -0.200 F 
ATOM     84  F   UNL A   1      42.565  24.796  24.633  1.00  0.00    -0.200 F 
ENDBRANCH  50  74
BRANCH  62  85
ATOM     85  C   UNL A   1      44.429  27.508  34.395  1.00  0.00     0.064 A 
ATOM     86  C   UNL A   1      45.682  28.129  34.496  1.00  0.00     0.173 A 
ATOM     87  C   UNL A   1      44.242  26.291  35.070  1.00  0.00     0.173 A 
ATOM     88  F   UNL A   1      45.916  29.288  33.862  1.00  0.00    -0.203 F 
ATOM     89  C   UNL A   1      46.702  27.560  35.254  1.00  0.00     0.198 A 
ATOM     90  C   UNL A   1      45.253  25.740  35.851  1.00  0.00     0.198 A 
ATOM     91  F   UNL A   1      43.057  25.663  35.015  1.00  0.00    -0.203 F 
ATOM     92  F   UNL A   1      47.896  28.164  35.328  1.00  0.00    -0.200 F 
ATOM     93  C   UNL A   1      46.482  26.375  35.944  1.00  0.00     0.200 A 
ATOM     94  F   UNL A   1      45.032  24.608  36.534  1.00  0.00    -0.200 F 
ATOM     95  F   UNL A   1      47.454  25.849  36.703  1.00  0.00    -0.200 F 
ENDBRANCH  62  85
ENDBRANCH  36  37
ENDBRANCH  29  31
ENDBRANCH  28  29
ENDBRANCH  27  28
ENDBRANCH  26  27
ENDBRANCH  25  26
ENDBRANCH   1  25
TORSDOF 18
ENDMDL
MODEL 3
REMARK VINA RESULT:     -11.1      4.873     10.617
REMARK SMILES Cc1cc(Br)cc2c1O[C@H](C(F)(F)F)C(C(=O)OCCOCCOCCOC(=O)c1ccc(-c3c4nc(c(-c5c(F)c(F)c(F)c(F)c5F)c5ccc([nH]5)c(-c5c(F)c(F)c(F)c(F)c5F)c5nc(c(-c6c(F)c(F)c(F)c(F)c6F)c6ccc3[nH]6)C=C5)C=C4)cc1)=C2
REMARK SMILES IDX 23 1 22 2 21 3 20 4 19 5 18 6 16 7 17 8 15 9 1 10 2 11 3 12
REMARK SMILES IDX 8 13 4 14 7 15 9 16 5 17 6 18 93 19 10 20 11 21 12 22 13 23
REMARK SMILES IDX 14 24 24 25 25 26 26 27 27 28 28 29 29 30 30 31 31 32 92 33
REMARK SMILES IDX 32 34 91 35 33 36 34 37 35 38 85 39 36 40 90 41 84 42 86 43
REMARK SMILES IDX 37 44 89 45 83 46 82 47 38 49 70 50 50 51 69 52 51 53 54 54
REMARK SMILES IDX 68 55 87 56 52 57 53 58 67 60 88 61 55 62 39 63 40 64 48 65
REMARK SMILES IDX 41 66 42 67 46 68 49 69 43 70 44 71 47 72 45 73 71 74 72 75
REMARK SMILES IDX 80 76 73 77 74 78 78 79 81 80 75 81 76 82 79 83 77 84 56 85
REMARK SMILES IDX 57 86 65 87 58 88 59 89 63 90 66 91 60 92 61 93 64 94 62 95
REMARK H PARENT 86 48 54 59
REMARK Flexibility Score: inf
ROOT
ATOM      1  C   UNL A   1      32.154  29.487  25.305  1.00  0.00     0.188 C 
ENDROOT
BRANCH   1   2
ATOM      2  C   UNL A   1      31.680  28.750  24.035  1.00  0.00     0.188 C 
BRANCH   2   3
ATOM      3  O   UNL A   1      31.985  27.386  23.870  1.00  0.00    -0.376 OA
BRANCH   3   4
ATOM      4  C   UNL A   1      31.296  26.384  24.596  1.00  0.00     0.202 C 
BRANCH   4   5
ATOM      5  C   UNL A   1      31.827  25.685  25.860  1.00  0.00     0.261 C 
BRANCH   5   6
ATOM      6  O   UNL A   1      31.786  24.255  25.873  1.00  0.00    -0.460 OA
BRANCH   6   7
ATOM      7  C   UNL A   1      32.962  23.642  25.599  1.00  0.00     0.338 C 
ATOM      8  O   UNL A   1      34.066  23.961  26.009  1.00  0.00    -0.246 OA
BRANCH   7   9
ATOM      9  C   UNL A   1      32.707  22.400  24.843  1.00  0.00     0.087 C 
ATOM     10  C   UNL A   1      32.165  18.842  21.201  1.00  0.00     0.048 C 
ATOM     11  C   UNL A   1      32.372  18.839  22.690  1.00  0.00    -0.007 A 
ATOM     12  C   UNL A   1      32.540  17.619  23.362  1.00  0.00     0.023 A 
ATOM     13  C   UNL A   1      32.387  20.035  23.427  1.00  0.00     0.130 A 
ATOM     14  C   UNL A   1      32.733  17.600  24.742  1.00  0.00     0.019 A 
ATOM     15  C   UNL A   1      32.627  20.010  24.806  1.00  0.00     0.019 A 
ATOM     16  O   UNL A   1      32.159  21.190  22.734  1.00  0.00    -0.475 OA
ATOM     17  Br  UNL A   1      32.971  15.950  25.634  1.00  0.00    -0.051 Br
ATOM     18  C   UNL A   1      32.777  18.787  25.468  1.00  0.00     0.027 A 
ATOM     19  C   UNL A   1      32.791  21.256  25.535  1.00  0.00     0.027 C 
ATOM     20  C   UNL A   1      32.366  22.474  23.381  1.00  0.00     0.316 C 
BRANCH  20  21
ATOM     21  C   UNL A   1      33.416  23.253  22.579  1.00  0.00     0.430 C 
ATOM     22  F   UNL A   1      33.341  22.965  21.258  1.00  0.00    -0.167 F 
ATOM     23  F   UNL A   1      33.243  24.591  22.695  1.00  0.00    -0.167 F 
ATOM     24  F   UNL A   1      34.673  22.970  22.986  1.00  0.00    -0.167 F 
ENDBRANCH  20  21
ENDBRANCH   7   9
ENDBRANCH   6   7
ENDBRANCH   5   6
ENDBRANCH   4   5
ENDBRANCH   3   4
ENDBRANCH   2   3
ENDBRANCH   1   2
BRANCH   1  25
ATOM     25  O   UNL A   1      31.499  30.662  25.729  1.00  0.00    -0.376 OA
BRANCH  25  26
ATOM     26  C   UNL A   1      31.994  31.375  26.851  1.00  0.00     0.202 C 
BRANCH  26  27
ATOM     27  C   UNL A   1      32.140  32.909  26.899  1.00  0.00     0.261 C 
BRANCH  27  28
ATOM     28  O   UNL A   1      32.486  33.490  28.162  1.00  0.00    -0.460 OA
BRANCH  28  29
ATOM     29  C   UNL A   1      33.583  34.295  28.157  1.00  0.00     0.338 C 
ATOM     30  O   UNL A   1      33.627  35.489  27.948  1.00  0.00    -0.246 OA
BRANCH  29  31
ATOM     31  C   UNL A   1      34.734  33.514  28.655  1.00  0.00     0.060 A 
ATOM     32  C   UNL A   1      34.492  32.371  29.430  1.00  0.00     0.016 A 
ATOM     33  C   UNL A   1      36.039  33.909  28.360  1.00  0.00     0.016 A 
ATOM     34  C   UNL A   1      35.561  31.605  29.896  1.00  0.00     0.010 A 
ATOM     35  C   UNL A   1      37.109  33.157  28.854  1.00  0.00     0.010 A 
ATOM     36  C   UNL A   1      36.876  32.010  29.634  1.00  0.00    -0.014 A 
BRANCH  36  37
ATOM     37  C   UNL A   1      38.003  31.315  30.301  1.00  0.00     0.031 A 
ATOM     38  C   UNL A   1      38.297  31.635  31.739  1.00  0.00     0.074 A 
ATOM     39  C   UNL A   1      38.734  30.391  29.651  1.00  0.00     0.049 A 
ATOM     40  N   UNL A   1      39.221  31.148  32.526  1.00  0.00    -0.248 NA
ATOM     41  C   UNL A   1      37.428  32.638  32.377  1.00  0.00     0.031 C 
ATOM     42  C   UNL A   1      38.525  29.971  28.268  1.00  0.00     0.029 A 
ATOM     43  N   UNL A   1      39.802  29.637  30.075  1.00  0.00    -0.354 N 
ATOM     44  C   UNL A   1      39.038  31.774  33.751  1.00  0.00     0.074 A 
ATOM     45  C   UNL A   1      37.948  32.712  33.594  1.00  0.00     0.031 C 
ATOM     46  C   UNL A   1      39.434  29.030  27.957  1.00  0.00     0.029 A 
ATOM     47  C   UNL A   1      40.306  28.800  29.109  1.00  0.00     0.049 A 
ATOM     48  H   UNL A   1      40.171  29.692  30.986  1.00  0.00     0.167 HD
ATOM     49  C   UNL A   1      39.705  31.569  34.910  1.00  0.00     0.037 A 
ATOM     50  C   UNL A   1      41.355  27.953  29.152  1.00  0.00     0.037 A 
ATOM     51  C   UNL A   1      40.795  30.642  35.063  1.00  0.00     0.049 A 
ATOM     52  C   UNL A   1      42.147  27.816  30.429  1.00  0.00     0.074 A 
ATOM     53  C   UNL A   1      41.530  30.363  36.201  1.00  0.00     0.029 A 
ATOM     54  N   UNL A   1      41.309  29.851  34.047  1.00  0.00    -0.354 N 
ATOM     55  N   UNL A   1      41.945  28.384  31.593  1.00  0.00    -0.248 NA
ATOM     56  C   UNL A   1      43.313  26.917  30.401  1.00  0.00     0.031 C 
ATOM     57  C   UNL A   1      42.527  29.447  35.860  1.00  0.00     0.029 A 
ATOM     58  C   UNL A   1      42.372  29.104  34.526  1.00  0.00     0.049 A 
ATOM     59  H   UNL A   1      40.969  29.824  33.124  1.00  0.00     0.167 HD
ATOM     60  C   UNL A   1      42.929  27.888  32.440  1.00  0.00     0.074 A 
ATOM     61  C   UNL A   1      43.728  26.968  31.660  1.00  0.00     0.031 C 
ATOM     62  C   UNL A   1      43.145  28.170  33.747  1.00  0.00     0.037 A 
BRANCH  49  63
ATOM     63  C   UNL A   1      39.280  32.359  36.112  1.00  0.00     0.064 A 
ATOM     64  C   UNL A   1      38.354  31.846  37.031  1.00  0.00     0.173 A 
ATOM     65  C   UNL A   1      39.862  33.604  36.390  1.00  0.00     0.173 A 
ATOM     66  F   UNL A   1      37.760  30.664  36.806  1.00  0.00    -0.203 F 
ATOM     67  C   UNL A   1      38.015  32.558  38.178  1.00  0.00     0.198 A 
ATOM     68  C   UNL A   1      39.544  34.300  37.553  1.00  0.00     0.198 A 
ATOM     69  F   UNL A   1      40.759  34.136  35.546  1.00  0.00    -0.203 F 
ATOM     70  F   UNL A   1      37.101  32.064  39.025  1.00  0.00    -0.200 F 
ATOM     71  C   UNL A   1      38.618  33.778  38.444  1.00  0.00     0.200 A 
ATOM     72  F   UNL A   1      40.141  35.470  37.817  1.00  0.00    -0.200 F 
ATOM     73  F   UNL A   1      38.307  34.453  39.559  1.00  0.00    -0.200 F 
ENDBRANCH  49  63
BRANCH  50  74
ATOM     74  C   UNL A   1      41.705  27.148  27.951  1.00  0.00     0.064 A 
ATOM     75  C   UNL A   1      41.134  25.885  27.739  1.00  0.00     0.173 A 
ATOM     76  C   UNL A   1      42.613  27.620  26.991  1.00  0.00     0.173 A 
ATOM     77  F   UNL A   1      40.282  25.377  28.642  1.00  0.00    -0.203 F 
ATOM     78  C   UNL A   1      41.463  25.122  26.620  1.00  0.00     0.198 A 
ATOM     79  C   UNL A   1      42.919  26.869  25.857  1.00  0.00     0.198 A 
ATOM     80  F   UNL A   1      43.193  28.819  27.147  1.00  0.00    -0.203 F 
ATOM     81  F   UNL A   1      40.932  23.902  26.464  1.00  0.00    -0.200 F 
ATOM     82  C   UNL A   1      42.348  25.618  25.676  1.00  0.00     0.200 A 
ATOM     83  F   UNL A   1      43.767  27.358  24.942  1.00  0.00    -0.200 F 
ATOM     84  F   UNL A   1      42.656  24.889  24.595  1.00  0.00    -0.200 F 
ENDBRANCH  50  74
BRANCH  62  85
ATOM     85  C   UNL A   1      44.264  27.462  34.458  1.00  0.00     0.064 A 
ATOM     86  C   UNL A   1      44.093  26.182  35.001  1.00  0.00     0.173 A 
ATOM     87  C   UNL A   1      45.555  28.014  34.468  1.00  0.00     0.173 A 
ATOM     88  F   UNL A   1      42.878  25.614  35.025  1.00  0.00    -0.203 F 
ATOM     89  C   UNL A   1      45.175  25.477  35.523  1.00  0.00     0.198 A 
ATOM     90  C   UNL A   1      46.640  27.295  34.962  1.00  0.00     0.198 A 
ATOM     91  F   UNL A   1      45.774  29.232  33.949  1.00  0.00    -0.203 F 
ATOM     92  F   UNL A   1      44.988  24.258  36.048  1.00  0.00    -0.200 F 
ATOM     93  C   UNL A   1      46.449  26.027  35.487  1.00  0.00     0.200 A 
ATOM     94  F   UNL A   1      47.872  27.819  34.907  1.00  0.00    -0.200 F 
ATOM     95  F   UNL A   1      47.495  25.330  35.955  1.00  0.00    -0.200 F 
ENDBRANCH  62  85
ENDBRANCH  36  37
ENDBRANCH  29  31
ENDBRANCH  28  29
ENDBRANCH  27  28
ENDBRANCH  26  27
ENDBRANCH  25  26
ENDBRANCH   1  25
TORSDOF 18
ENDMDL
