MODEL 1
REMARK VINA RESULT:      -9.6      0.000      0.000
REMARK SMILES O=C(CCCN1C(=O)c2ccc3c4c(ccc(c24)C1=O)C(=O)NC3=O)OCCOCCOCCOC(=O)c1ccc(-c2c3nc(c(-c4c(F)c(F)c(F)c(F)c4F)c4ccc([nH]4)c(-c4c(F)c(F)c(F)c(F)c4F)c4nc(c(-c5c(F)c(F)c(F)c(F)c5F)c5ccc2[nH]5)C=C4)C=C3)cc1
REMARK SMILES IDX 30 1 29 2 28 3 27 4 26 5 2 6 1 7 3 8 4 9 5 10 6 11 19 12
REMARK SMILES IDX 7 13 20 14 17 15 9 16 8 17 16 18 18 19 10 20 15 21 13 22
REMARK SMILES IDX 11 23 14 24 12 25 21 26 24 27 23 28 22 29 25 30 31 32 32 33
REMARK SMILES IDX 33 34 34 35 35 36 36 37 37 38 38 39 39 40 100 41 40 42 99 43
REMARK SMILES IDX 41 44 42 45 43 46 93 47 44 48 98 49 92 50 94 51 45 52 97 53
REMARK SMILES IDX 91 54 90 55 46 57 78 58 58 59 77 60 59 61 62 62 76 63 95 64
REMARK SMILES IDX 60 65 61 66 75 68 96 69 63 70 47 71 48 72 56 73 49 74 50 75
REMARK SMILES IDX 54 76 57 77 51 78 52 79 55 80 53 81 79 82 80 83 88 84 81 85
REMARK SMILES IDX 82 86 86 87 89 88 83 89 84 90 87 91 85 92 64 93 65 94 73 95
REMARK SMILES IDX 66 96 67 97 71 98 74 99 68 100 69 101 72 102 70 103
REMARK H PARENT 23 31 94 56 62 67
REMARK Flexibility Score: inf
ROOT
ATOM      1  C   UNL A   1      48.000  25.750  24.436  1.00  0.00     0.188 C 
ENDROOT
BRANCH   1   2
ATOM      2  O   UNL A   1      46.664  26.180  24.699  1.00  0.00    -0.376 OA
BRANCH   2   3
ATOM      3  C   UNL A   1      46.460  27.588  24.610  1.00  0.00     0.202 C 
BRANCH   3   4
ATOM      4  C   UNL A   1      45.334  28.045  25.528  1.00  0.00     0.261 C 
BRANCH   4   5
ATOM      5  O   UNL A   1      44.080  27.431  25.188  1.00  0.00    -0.463 OA
BRANCH   5   6
ATOM      6  C   UNL A   1      42.904  28.029  25.500  1.00  0.00     0.305 C 
ATOM      7  O   UNL A   1      42.219  28.554  24.626  1.00  0.00    -0.252 OA
BRANCH   6   8
ATOM      8  C   UNL A   1      42.552  28.172  26.961  1.00  0.00     0.124 C 
BRANCH   8   9
ATOM      9  C   UNL A   1      41.738  27.030  27.556  1.00  0.00     0.034 C 
BRANCH   9  10
ATOM     10  C   UNL A   1      42.497  26.010  28.421  1.00  0.00     0.130 C 
BRANCH  10  11
ATOM     11  N   UNL A   1      42.769  24.653  27.915  1.00  0.00    -0.274 N 
ATOM     12  C   UNL A   1      41.756  23.701  27.827  1.00  0.00     0.261 C 
ATOM     13  C   UNL A   1      44.041  24.465  27.354  1.00  0.00     0.261 C 
ATOM     14  O   UNL A   1      40.577  23.905  28.101  1.00  0.00    -0.269 OA
ATOM     15  C   UNL A   1      42.129  22.353  27.327  1.00  0.00     0.049 A 
ATOM     16  C   UNL A   1      44.308  23.187  26.654  1.00  0.00     0.049 A 
ATOM     17  O   UNL A   1      44.938  25.304  27.398  1.00  0.00    -0.269 OA
ATOM     18  C   UNL A   1      41.210  21.300  27.415  1.00  0.00     0.015 A 
ATOM     19  C   UNL A   1      43.365  22.160  26.707  1.00  0.00     0.009 A 
ATOM     20  C   UNL A   1      45.512  23.009  25.954  1.00  0.00     0.015 A 
ATOM     21  C   UNL A   1      41.516  20.054  26.871  1.00  0.00     0.015 A 
ATOM     22  C   UNL A   1      43.659  20.910  26.102  1.00  0.00     0.009 A 
ATOM     23  C   UNL A   1      45.782  21.800  25.311  1.00  0.00     0.015 A 
ATOM     24  C   UNL A   1      42.731  19.865  26.209  1.00  0.00     0.048 A 
ATOM     25  C   UNL A   1      44.862  20.752  25.397  1.00  0.00     0.048 A 
ATOM     26  C   UNL A   1      43.043  18.547  25.609  1.00  0.00     0.258 C 
ATOM     27  C   UNL A   1      45.147  19.463  24.723  1.00  0.00     0.258 C 
ATOM     28  N   UNL A   1      44.216  18.467  24.897  1.00  0.00    -0.288 N 
ATOM     29  O   UNL A   1      42.294  17.589  25.750  1.00  0.00    -0.269 OA
ATOM     30  O   UNL A   1      46.157  19.300  24.051  1.00  0.00    -0.269 OA
ATOM     31  H   UNL A   1      44.410  17.603  24.467  1.00  0.00     0.173 HD
ENDBRANCH  10  11
ENDBRANCH   9  10
ENDBRANCH   8   9
ENDBRANCH   6   8
ENDBRANCH   5   6
ENDBRANCH   4   5
ENDBRANCH   3   4
ENDBRANCH   2   3
ENDBRANCH   1   2
BRANCH   1  32
ATOM     32  C   UNL A   1      49.082  26.836  24.499  1.00  0.00     0.188 C 
BRANCH  32  33
ATOM     33  O   UNL A   1      50.428  26.449  24.246  1.00  0.00    -0.376 OA
BRANCH  33  34
ATOM     34  C   UNL A   1      51.423  27.455  24.105  1.00  0.00     0.202 C 
BRANCH  34  35
ATOM     35  C   UNL A   1      52.428  27.578  25.249  1.00  0.00     0.261 C 
BRANCH  35  36
ATOM     36  O   UNL A   1      52.511  26.367  26.023  1.00  0.00    -0.460 OA
BRANCH  36  37
ATOM     37  C   UNL A   1      52.871  26.535  27.315  1.00  0.00     0.338 C 
ATOM     38  O   UNL A   1      53.995  26.668  27.764  1.00  0.00    -0.246 OA
BRANCH  37  39
ATOM     39  C   UNL A   1      51.674  26.631  28.169  1.00  0.00     0.060 A 
ATOM     40  C   UNL A   1      50.535  25.918  27.786  1.00  0.00     0.016 A 
ATOM     41  C   UNL A   1      51.625  27.539  29.229  1.00  0.00     0.016 A 
ATOM     42  C   UNL A   1      49.318  26.167  28.422  1.00  0.00     0.010 A 
ATOM     43  C   UNL A   1      50.409  27.774  29.878  1.00  0.00     0.010 A 
ATOM     44  C   UNL A   1      49.239  27.132  29.437  1.00  0.00    -0.014 A 
BRANCH  44  45
ATOM     45  C   UNL A   1      47.905  27.605  29.887  1.00  0.00     0.031 A 
ATOM     46  C   UNL A   1      47.201  26.864  30.995  1.00  0.00     0.074 A 
ATOM     47  C   UNL A   1      47.348  28.708  29.358  1.00  0.00     0.049 A 
ATOM     48  N   UNL A   1      46.049  27.114  31.565  1.00  0.00    -0.248 NA
ATOM     49  C   UNL A   1      47.888  25.677  31.530  1.00  0.00     0.031 C 
ATOM     50  C   UNL A   1      47.928  29.520  28.291  1.00  0.00     0.029 A 
ATOM     51  N   UNL A   1      46.163  29.335  29.655  1.00  0.00    -0.354 N 
ATOM     52  C   UNL A   1      45.880  26.125  32.526  1.00  0.00     0.074 A 
ATOM     53  C   UNL A   1      47.019  25.240  32.429  1.00  0.00     0.031 C 
ATOM     54  C   UNL A   1      47.095  30.539  28.018  1.00  0.00     0.029 A 
ATOM     55  C   UNL A   1      45.917  30.441  28.880  1.00  0.00     0.049 A 
ATOM     56  H   UNL A   1      45.547  29.021  30.357  1.00  0.00     0.167 HD
ATOM     57  C   UNL A   1      44.879  25.981  33.428  1.00  0.00     0.037 A 
ATOM     58  C   UNL A   1      44.858  31.273  28.864  1.00  0.00     0.037 A 
ATOM     59  C   UNL A   1      43.742  26.857  33.530  1.00  0.00     0.049 A 
ATOM     60  C   UNL A   1      43.736  31.066  29.849  1.00  0.00     0.074 A 
ATOM     61  C   UNL A   1      42.677  26.791  34.410  1.00  0.00     0.029 A 
ATOM     62  N   UNL A   1      43.527  27.962  32.721  1.00  0.00    -0.354 N 
ATOM     63  N   UNL A   1      43.602  30.147  30.776  1.00  0.00    -0.248 NA
ATOM     64  C   UNL A   1      42.622  32.024  29.795  1.00  0.00     0.031 C 
ATOM     65  C   UNL A   1      41.796  27.837  34.110  1.00  0.00     0.029 A 
ATOM     66  C   UNL A   1      42.338  28.580  33.073  1.00  0.00     0.049 A 
ATOM     67  H   UNL A   1      44.129  28.263  32.003  1.00  0.00     0.167 HD
ATOM     68  C   UNL A   1      42.409  30.431  31.427  1.00  0.00     0.074 A 
ATOM     69  C   UNL A   1      41.866  31.620  30.805  1.00  0.00     0.031 C 
ATOM     70  C   UNL A   1      41.813  29.767  32.449  1.00  0.00     0.037 A 
BRANCH  57  71
ATOM     71  C   UNL A   1      44.971  24.824  34.380  1.00  0.00     0.064 A 
ATOM     72  C   UNL A   1      44.563  23.535  34.006  1.00  0.00     0.173 A 
ATOM     73  C   UNL A   1      45.505  24.996  35.666  1.00  0.00     0.173 A 
ATOM     74  F   UNL A   1      44.031  23.321  32.792  1.00  0.00    -0.203 F 
ATOM     75  C   UNL A   1      44.664  22.465  34.892  1.00  0.00     0.198 A 
ATOM     76  C   UNL A   1      45.631  23.919  36.539  1.00  0.00     0.198 A 
ATOM     77  F   UNL A   1      45.914  26.208  36.072  1.00  0.00    -0.203 F 
ATOM     78  F   UNL A   1      44.228  21.251  34.527  1.00  0.00    -0.200 F 
ATOM     79  C   UNL A   1      45.205  22.657  36.154  1.00  0.00     0.200 A 
ATOM     80  F   UNL A   1      46.163  24.103  37.755  1.00  0.00    -0.200 F 
ATOM     81  F   UNL A   1      45.309  21.625  37.004  1.00  0.00    -0.200 F 
ENDBRANCH  57  71
BRANCH  58  82
ATOM     82  C   UNL A   1      44.803  32.386  27.882  1.00  0.00     0.064 A 
ATOM     83  C   UNL A   1      44.155  32.236  26.648  1.00  0.00     0.173 A 
ATOM     84  C   UNL A   1      45.430  33.613  28.144  1.00  0.00     0.173 A 
ATOM     85  F   UNL A   1      43.566  31.072  26.339  1.00  0.00    -0.203 F 
ATOM     86  C   UNL A   1      44.158  33.262  25.704  1.00  0.00     0.198 A 
ATOM     87  C   UNL A   1      45.407  34.648  27.213  1.00  0.00     0.198 A 
ATOM     88  F   UNL A   1      46.067  33.806  29.309  1.00  0.00    -0.203 F 
ATOM     89  F   UNL A   1      43.580  33.072  24.511  1.00  0.00    -0.200 F 
ATOM     90  C   UNL A   1      44.779  34.468  25.989  1.00  0.00     0.200 A 
ATOM     91  F   UNL A   1      46.002  35.815  27.495  1.00  0.00    -0.200 F 
ATOM     92  F   UNL A   1      44.786  35.452  25.080  1.00  0.00    -0.200 F 
ENDBRANCH  58  82
BRANCH  70  93
ATOM     93  C   UNL A   1      40.525  30.328  32.977  1.00  0.00     0.064 A 
ATOM     94  C   UNL A   1      40.505  31.321  33.967  1.00  0.00     0.173 A 
ATOM     95  C   UNL A   1      39.295  29.883  32.467  1.00  0.00     0.173 A 
ATOM     96  F   UNL A   1      41.653  31.770  34.496  1.00  0.00    -0.203 F 
ATOM     97  C   UNL A   1      39.301  31.826  34.449  1.00  0.00     0.198 A 
ATOM     98  C   UNL A   1      38.094  30.412  32.931  1.00  0.00     0.198 A 
ATOM     99  F   UNL A   1      39.258  28.941  31.513  1.00  0.00    -0.203 F 
ATOM    100  F   UNL A   1      39.305  32.737  35.433  1.00  0.00    -0.200 F 
ATOM    101  C   UNL A   1      38.097  31.376  33.928  1.00  0.00     0.200 A 
ATOM    102  F   UNL A   1      36.932  29.986  32.417  1.00  0.00    -0.200 F 
ATOM    103  F   UNL A   1      36.939  31.864  34.394  1.00  0.00    -0.200 F 
ENDBRANCH  70  93
ENDBRANCH  44  45
ENDBRANCH  37  39
ENDBRANCH  36  37
ENDBRANCH  35  36
ENDBRANCH  34  35
ENDBRANCH  33  34
ENDBRANCH  32  33
ENDBRANCH   1  32
TORSDOF 20
ENDMDL
MODEL 2
REMARK VINA RESULT:      -9.5      6.034     10.909
REMARK SMILES O=C(CCCN1C(=O)c2ccc3c4c(ccc(c24)C1=O)C(=O)NC3=O)OCCOCCOCCOC(=O)c1ccc(-c2c3nc(c(-c4c(F)c(F)c(F)c(F)c4F)c4ccc([nH]4)c(-c4c(F)c(F)c(F)c(F)c4F)c4nc(c(-c5c(F)c(F)c(F)c(F)c5F)c5ccc2[nH]5)C=C4)C=C3)cc1
REMARK SMILES IDX 30 1 29 2 28 3 27 4 26 5 2 6 1 7 3 8 4 9 5 10 6 11 19 12
REMARK SMILES IDX 7 13 20 14 17 15 9 16 8 17 16 18 18 19 10 20 15 21 13 22
REMARK SMILES IDX 11 23 14 24 12 25 21 26 24 27 23 28 22 29 25 30 31 32 32 33
REMARK SMILES IDX 33 34 34 35 35 36 36 37 37 38 38 39 39 40 100 41 40 42 99 43
REMARK SMILES IDX 41 44 42 45 43 46 93 47 44 48 98 49 92 50 94 51 45 52 97 53
REMARK SMILES IDX 91 54 90 55 46 57 78 58 58 59 77 60 59 61 62 62 76 63 95 64
REMARK SMILES IDX 60 65 61 66 75 68 96 69 63 70 47 71 48 72 56 73 49 74 50 75
REMARK SMILES IDX 54 76 57 77 51 78 52 79 55 80 53 81 79 82 80 83 88 84 81 85
REMARK SMILES IDX 82 86 86 87 89 88 83 89 84 90 87 91 85 92 64 93 65 94 73 95
REMARK SMILES IDX 66 96 67 97 71 98 74 99 68 100 69 101 72 102 70 103
REMARK H PARENT 23 31 94 56 62 67
REMARK Flexibility Score: inf
ROOT
ATOM      1  C   UNL A   1      34.340  33.352  28.162  1.00  0.00     0.188 C 
ENDROOT
BRANCH   1   2
ATOM      2  O   UNL A   1      35.557  32.642  27.929  1.00  0.00    -0.376 OA
BRANCH   2   3
ATOM      3  C   UNL A   1      35.413  31.229  27.812  1.00  0.00     0.202 C 
BRANCH   3   4
ATOM      4  C   UNL A   1      33.977  30.842  27.487  1.00  0.00     0.261 C 
BRANCH   4   5
ATOM      5  O   UNL A   1      33.908  29.648  26.690  1.00  0.00    -0.463 OA
BRANCH   5   6
ATOM      6  C   UNL A   1      32.717  29.063  26.412  1.00  0.00     0.305 C 
ATOM      7  O   UNL A   1      31.762  29.197  27.173  1.00  0.00    -0.252 OA
BRANCH   6   8
ATOM      8  C   UNL A   1      32.654  28.118  25.236  1.00  0.00     0.124 C 
BRANCH   8   9
ATOM      9  C   UNL A   1      32.209  26.696  25.558  1.00  0.00     0.034 C 
BRANCH   9  10
ATOM     10  C   UNL A   1      33.313  25.632  25.676  1.00  0.00     0.130 C 
BRANCH  10  11
ATOM     11  N   UNL A   1      33.062  24.242  25.257  1.00  0.00    -0.274 N 
ATOM     12  C   UNL A   1      32.943  23.905  23.911  1.00  0.00     0.261 C 
ATOM     13  C   UNL A   1      33.157  23.283  26.277  1.00  0.00     0.261 C 
ATOM     14  O   UNL A   1      33.080  24.691  22.977  1.00  0.00    -0.269 OA
ATOM     15  C   UNL A   1      32.667  22.483  23.586  1.00  0.00     0.049 A 
ATOM     16  C   UNL A   1      33.109  21.853  25.889  1.00  0.00     0.049 A 
ATOM     17  O   UNL A   1      33.290  23.560  27.467  1.00  0.00    -0.269 OA
ATOM     18  C   UNL A   1      32.328  22.123  22.276  1.00  0.00     0.015 A 
ATOM     19  C   UNL A   1      32.818  21.504  24.570  1.00  0.00     0.009 A 
ATOM     20  C   UNL A   1      33.343  20.858  26.851  1.00  0.00     0.015 A 
ATOM     21  C   UNL A   1      32.153  20.780  21.940  1.00  0.00     0.015 A 
ATOM     22  C   UNL A   1      32.697  20.134  24.221  1.00  0.00     0.009 A 
ATOM     23  C   UNL A   1      33.278  19.510  26.501  1.00  0.00     0.015 A 
ATOM     24  C   UNL A   1      32.346  19.792  22.908  1.00  0.00     0.048 A 
ATOM     25  C   UNL A   1      32.943  19.151  25.192  1.00  0.00     0.048 A 
ATOM     26  C   UNL A   1      32.185  18.366  22.542  1.00  0.00     0.258 C 
ATOM     27  C   UNL A   1      32.865  17.719  24.816  1.00  0.00     0.258 C 
ATOM     28  N   UNL A   1      32.481  17.451  23.524  1.00  0.00    -0.288 N 
ATOM     29  O   UNL A   1      31.803  18.033  21.427  1.00  0.00    -0.269 OA
ATOM     30  O   UNL A   1      33.128  16.831  25.615  1.00  0.00    -0.269 OA
ATOM     31  H   UNL A   1      32.410  16.502  23.274  1.00  0.00     0.173 HD
ENDBRANCH  10  11
ENDBRANCH   9  10
ENDBRANCH   8   9
ENDBRANCH   6   8
ENDBRANCH   5   6
ENDBRANCH   4   5
ENDBRANCH   3   4
ENDBRANCH   2   3
ENDBRANCH   1   2
BRANCH   1  32
ATOM     32  C   UNL A   1      34.201  34.018  29.537  1.00  0.00     0.188 C 
BRANCH  32  33
ATOM     33  O   UNL A   1      34.896  33.431  30.632  1.00  0.00    -0.376 OA
BRANCH  33  34
ATOM     34  C   UNL A   1      34.167  33.060  31.796  1.00  0.00     0.202 C 
BRANCH  34  35
ATOM     35  C   UNL A   1      34.937  33.089  33.114  1.00  0.00     0.261 C 
BRANCH  35  36
ATOM     36  O   UNL A   1      35.965  32.081  33.158  1.00  0.00    -0.460 OA
BRANCH  36  37
ATOM     37  C   UNL A   1      37.232  32.551  33.112  1.00  0.00     0.338 C 
ATOM     38  O   UNL A   1      37.702  33.486  33.735  1.00  0.00    -0.246 OA
BRANCH  37  39
ATOM     39  C   UNL A   1      38.057  31.705  32.233  1.00  0.00     0.060 A 
ATOM     40  C   UNL A   1      39.021  30.885  32.824  1.00  0.00     0.016 A 
ATOM     41  C   UNL A   1      37.997  31.848  30.845  1.00  0.00     0.016 A 
ATOM     42  C   UNL A   1      39.979  30.258  32.027  1.00  0.00     0.010 A 
ATOM     43  C   UNL A   1      38.945  31.203  30.045  1.00  0.00     0.010 A 
ATOM     44  C   UNL A   1      39.976  30.453  30.638  1.00  0.00    -0.014 A 
BRANCH  44  45
ATOM     45  C   UNL A   1      41.161  30.041  29.844  1.00  0.00     0.031 A 
ATOM     46  C   UNL A   1      41.192  28.662  29.238  1.00  0.00     0.074 A 
ATOM     47  C   UNL A   1      42.173  30.896  29.617  1.00  0.00     0.049 A 
ATOM     48  N   UNL A   1      42.106  28.101  28.486  1.00  0.00    -0.248 NA
ATOM     49  C   UNL A   1      40.036  27.795  29.520  1.00  0.00     0.031 C 
ATOM     50  C   UNL A   1      42.261  32.259  30.136  1.00  0.00     0.029 A 
ATOM     51  N   UNL A   1      43.324  30.738  28.886  1.00  0.00    -0.354 N 
ATOM     52  C   UNL A   1      41.633  26.826  28.202  1.00  0.00     0.074 A 
ATOM     53  C   UNL A   1      40.377  26.674  28.902  1.00  0.00     0.031 C 
ATOM     54  C   UNL A   1      43.408  32.814  29.709  1.00  0.00     0.029 A 
ATOM     55  C   UNL A   1      44.142  31.840  28.901  1.00  0.00     0.049 A 
ATOM     56  H   UNL A   1      43.543  29.911  28.396  1.00  0.00     0.167 HD
ATOM     57  C   UNL A   1      42.182  25.875  27.407  1.00  0.00     0.037 A 
ATOM     58  C   UNL A   1      45.347  32.036  28.333  1.00  0.00     0.037 A 
ATOM     59  C   UNL A   1      43.430  26.019  26.709  1.00  0.00     0.049 A 
ATOM     60  C   UNL A   1      45.956  30.946  27.488  1.00  0.00     0.074 A 
ATOM     61  C   UNL A   1      44.068  25.112  25.881  1.00  0.00     0.029 A 
ATOM     62  N   UNL A   1      44.232  27.149  26.756  1.00  0.00    -0.354 N 
ATOM     63  N   UNL A   1      45.484  29.757  27.199  1.00  0.00    -0.248 NA
ATOM     64  C   UNL A   1      47.262  31.234  26.877  1.00  0.00     0.031 C 
ATOM     65  C   UNL A   1      45.275  25.678  25.456  1.00  0.00     0.029 A 
ATOM     66  C   UNL A   1      45.365  26.958  25.983  1.00  0.00     0.049 A 
ATOM     67  H   UNL A   1      44.027  27.967  27.264  1.00  0.00     0.167 HD
ATOM     68  C   UNL A   1      46.419  29.169  26.357  1.00  0.00     0.074 A 
ATOM     69  C   UNL A   1      47.476  30.139  26.164  1.00  0.00     0.031 C 
ATOM     70  C   UNL A   1      46.406  27.935  25.794  1.00  0.00     0.037 A 
BRANCH  57  71
ATOM     71  C   UNL A   1      41.426  24.587  27.253  1.00  0.00     0.064 A 
ATOM     72  C   UNL A   1      41.849  23.411  27.891  1.00  0.00     0.173 A 
ATOM     73  C   UNL A   1      40.250  24.533  26.490  1.00  0.00     0.173 A 
ATOM     74  F   UNL A   1      42.976  23.406  28.620  1.00  0.00    -0.203 F 
ATOM     75  C   UNL A   1      41.135  22.223  27.753  1.00  0.00     0.198 A 
ATOM     76  C   UNL A   1      39.523  23.351  26.377  1.00  0.00     0.198 A 
ATOM     77  F   UNL A   1      39.801  25.631  25.863  1.00  0.00    -0.203 F 
ATOM     78  F   UNL A   1      41.581  21.103  28.337  1.00  0.00    -0.200 F 
ATOM     79  C   UNL A   1      39.969  22.197  27.003  1.00  0.00     0.200 A 
ATOM     80  F   UNL A   1      38.391  23.329  25.661  1.00  0.00    -0.200 F 
ATOM     81  F   UNL A   1      39.278  21.055  26.876  1.00  0.00    -0.200 F 
ENDBRANCH  57  71
BRANCH  58  82
ATOM     82  C   UNL A   1      46.065  33.320  28.540  1.00  0.00     0.064 A 
ATOM     83  C   UNL A   1      46.924  33.505  29.633  1.00  0.00     0.173 A 
ATOM     84  C   UNL A   1      45.879  34.401  27.667  1.00  0.00     0.173 A 
ATOM     85  F   UNL A   1      47.112  32.509  30.512  1.00  0.00    -0.203 F 
ATOM     86  C   UNL A   1      47.549  34.730  29.857  1.00  0.00     0.198 A 
ATOM     87  C   UNL A   1      46.526  35.617  27.876  1.00  0.00     0.198 A 
ATOM     88  F   UNL A   1      45.064  34.276  26.608  1.00  0.00    -0.203 F 
ATOM     89  F   UNL A   1      48.320  34.897  30.940  1.00  0.00    -0.200 F 
ATOM     90  C   UNL A   1      47.354  35.783  28.976  1.00  0.00     0.200 A 
ATOM     91  F   UNL A   1      46.341  36.629  27.018  1.00  0.00    -0.200 F 
ATOM     92  F   UNL A   1      47.950  36.962  29.195  1.00  0.00    -0.200 F 
ENDBRANCH  58  82
BRANCH  70  93
ATOM     93  C   UNL A   1      47.552  27.576  24.893  1.00  0.00     0.064 A 
ATOM     94  C   UNL A   1      48.702  26.938  25.382  1.00  0.00     0.173 A 
ATOM     95  C   UNL A   1      47.487  27.852  23.518  1.00  0.00     0.173 A 
ATOM     96  F   UNL A   1      48.817  26.666  26.690  1.00  0.00    -0.203 F 
ATOM     97  C   UNL A   1      49.757  26.618  24.533  1.00  0.00     0.198 A 
ATOM     98  C   UNL A   1      48.533  27.503  22.668  1.00  0.00     0.198 A 
ATOM     99  F   UNL A   1      46.406  28.452  22.998  1.00  0.00    -0.203 F 
ATOM    100  F   UNL A   1      50.868  26.056  25.031  1.00  0.00    -0.200 F 
ATOM    101  C   UNL A   1      49.670  26.895  23.177  1.00  0.00     0.200 A 
ATOM    102  F   UNL A   1      48.442  27.759  21.355  1.00  0.00    -0.200 F 
ATOM    103  F   UNL A   1      50.688  26.585  22.362  1.00  0.00    -0.200 F 
ENDBRANCH  70  93
ENDBRANCH  44  45
ENDBRANCH  37  39
ENDBRANCH  36  37
ENDBRANCH  35  36
ENDBRANCH  34  35
ENDBRANCH  33  34
ENDBRANCH  32  33
ENDBRANCH   1  32
TORSDOF 20
ENDMDL
MODEL 3
REMARK VINA RESULT:      -9.4      0.896      2.127
REMARK SMILES O=C(CCCN1C(=O)c2ccc3c4c(ccc(c24)C1=O)C(=O)NC3=O)OCCOCCOCCOC(=O)c1ccc(-c2c3nc(c(-c4c(F)c(F)c(F)c(F)c4F)c4ccc([nH]4)c(-c4c(F)c(F)c(F)c(F)c4F)c4nc(c(-c5c(F)c(F)c(F)c(F)c5F)c5ccc2[nH]5)C=C4)C=C3)cc1
REMARK SMILES IDX 30 1 29 2 28 3 27 4 26 5 2 6 1 7 3 8 4 9 5 10 6 11 19 12
REMARK SMILES IDX 7 13 20 14 17 15 9 16 8 17 16 18 18 19 10 20 15 21 13 22
REMARK SMILES IDX 11 23 14 24 12 25 21 26 24 27 23 28 22 29 25 30 31 32 32 33
REMARK SMILES IDX 33 34 34 35 35 36 36 37 37 38 38 39 39 40 100 41 40 42 99 43
REMARK SMILES IDX 41 44 42 45 43 46 93 47 44 48 98 49 92 50 94 51 45 52 97 53
REMARK SMILES IDX 91 54 90 55 46 57 78 58 58 59 77 60 59 61 62 62 76 63 95 64
REMARK SMILES IDX 60 65 61 66 75 68 96 69 63 70 47 71 48 72 56 73 49 74 50 75
REMARK SMILES IDX 54 76 57 77 51 78 52 79 55 80 53 81 79 82 80 83 88 84 81 85
REMARK SMILES IDX 82 86 86 87 89 88 83 89 84 90 87 91 85 92 64 93 65 94 73 95
REMARK SMILES IDX 66 96 67 97 71 98 74 99 68 100 69 101 72 102 70 103
REMARK H PARENT 23 31 94 56 62 67
REMARK Flexibility Score: inf
ROOT
ATOM      1  C   UNL A   1      47.965  25.803  25.205  1.00  0.00     0.188 C 
ENDROOT
BRANCH   1   2
ATOM      2  O   UNL A   1      46.583  26.082  25.435  1.00  0.00    -0.376 OA
BRANCH   2   3
ATOM      3  C   UNL A   1      46.326  26.998  26.497  1.00  0.00     0.202 C 
BRANCH   3   4
ATOM      4  C   UNL A   1      45.387  26.397  27.534  1.00  0.00     0.261 C 
BRANCH   4   5
ATOM      5  O   UNL A   1      44.429  27.356  28.012  1.00  0.00    -0.463 OA
BRANCH   5   6
ATOM      6  C   UNL A   1      43.486  27.004  28.921  1.00  0.00     0.305 C 
ATOM      7  O   UNL A   1      43.631  27.277  30.109  1.00  0.00    -0.252 OA
BRANCH   6   8
ATOM      8  C   UNL A   1      42.346  26.132  28.451  1.00  0.00     0.124 C 
BRANCH   8   9
ATOM      9  C   UNL A   1      41.384  26.782  27.465  1.00  0.00     0.034 C 
BRANCH   9  10
ATOM     10  C   UNL A   1      40.870  25.903  26.312  1.00  0.00     0.130 C 
BRANCH  10  11
ATOM     11  N   UNL A   1      41.490  24.597  26.031  1.00  0.00    -0.274 N 
ATOM     12  C   UNL A   1      42.716  24.507  25.375  1.00  0.00     0.261 C 
ATOM     13  C   UNL A   1      40.870  23.495  26.640  1.00  0.00     0.261 C 
ATOM     14  O   UNL A   1      43.396  25.469  25.027  1.00  0.00    -0.269 OA
ATOM     15  C   UNL A   1      43.251  23.147  25.115  1.00  0.00     0.049 A 
ATOM     16  C   UNL A   1      41.554  22.183  26.558  1.00  0.00     0.049 A 
ATOM     17  O   UNL A   1      39.803  23.560  27.247  1.00  0.00    -0.269 OA
ATOM     18  C   UNL A   1      44.363  22.987  24.279  1.00  0.00     0.015 A 
ATOM     19  C   UNL A   1      42.690  22.044  25.761  1.00  0.00     0.009 A 
ATOM     20  C   UNL A   1      41.049  21.084  27.271  1.00  0.00     0.015 A 
ATOM     21  C   UNL A   1      44.929  21.725  24.097  1.00  0.00     0.015 A 
ATOM     22  C   UNL A   1      43.295  20.768  25.624  1.00  0.00     0.009 A 
ATOM     23  C   UNL A   1      41.673  19.839  27.182  1.00  0.00     0.015 A 
ATOM     24  C   UNL A   1      44.401  20.624  24.775  1.00  0.00     0.048 A 
ATOM     25  C   UNL A   1      42.784  19.681  26.350  1.00  0.00     0.048 A 
ATOM     26  C   UNL A   1      45.020  19.290  24.600  1.00  0.00     0.258 C 
ATOM     27  C   UNL A   1      43.446  18.359  26.246  1.00  0.00     0.258 C 
ATOM     28  N   UNL A   1      44.502  18.276  25.369  1.00  0.00    -0.288 N 
ATOM     29  O   UNL A   1      45.936  19.110  23.807  1.00  0.00    -0.269 OA
ATOM     30  O   UNL A   1      43.070  17.399  26.906  1.00  0.00    -0.269 OA
ATOM     31  H   UNL A   1      44.933  17.395  25.283  1.00  0.00     0.173 HD
ENDBRANCH  10  11
ENDBRANCH   9  10
ENDBRANCH   8   9
ENDBRANCH   6   8
ENDBRANCH   5   6
ENDBRANCH   4   5
ENDBRANCH   3   4
ENDBRANCH   2   3
ENDBRANCH   1   2
BRANCH   1  32
ATOM     32  C   UNL A   1      48.835  27.001  24.803  1.00  0.00     0.188 C 
BRANCH  32  33
ATOM     33  O   UNL A   1      50.209  26.760  24.526  1.00  0.00    -0.376 OA
BRANCH  33  34
ATOM     34  C   UNL A   1      51.116  27.857  24.514  1.00  0.00     0.202 C 
BRANCH  34  35
ATOM     35  C   UNL A   1      52.299  27.767  25.476  1.00  0.00     0.261 C 
BRANCH  35  36
ATOM     36  O   UNL A   1      52.406  26.462  26.075  1.00  0.00    -0.460 OA
BRANCH  36  37
ATOM     37  C   UNL A   1      52.818  26.454  27.363  1.00  0.00     0.338 C 
ATOM     38  O   UNL A   1      53.963  26.423  27.778  1.00  0.00    -0.246 OA
BRANCH  37  39
ATOM     39  C   UNL A   1      51.663  26.576  28.268  1.00  0.00     0.060 A 
ATOM     40  C   UNL A   1      50.531  25.804  27.999  1.00  0.00     0.016 A 
ATOM     41  C   UNL A   1      51.637  27.559  29.261  1.00  0.00     0.016 A 
ATOM     42  C   UNL A   1      49.340  26.063  28.677  1.00  0.00     0.010 A 
ATOM     43  C   UNL A   1      50.447  27.805  29.954  1.00  0.00     0.010 A 
ATOM     44  C   UNL A   1      49.278  27.098  29.622  1.00  0.00    -0.014 A 
BRANCH  44  45
ATOM     45  C   UNL A   1      47.953  27.562  30.105  1.00  0.00     0.031 A 
ATOM     46  C   UNL A   1      47.277  26.811  31.223  1.00  0.00     0.074 A 
ATOM     47  C   UNL A   1      47.381  28.668  29.598  1.00  0.00     0.049 A 
ATOM     48  N   UNL A   1      46.137  27.053  31.821  1.00  0.00    -0.248 NA
ATOM     49  C   UNL A   1      47.980  25.622  31.733  1.00  0.00     0.031 C 
ATOM     50  C   UNL A   1      47.935  29.490  28.525  1.00  0.00     0.029 A 
ATOM     51  N   UNL A   1      46.201  29.289  29.925  1.00  0.00    -0.354 N 
ATOM     52  C   UNL A   1      45.992  26.056  32.778  1.00  0.00     0.074 A 
ATOM     53  C   UNL A   1      47.133  25.175  32.648  1.00  0.00     0.031 C 
ATOM     54  C   UNL A   1      47.092  30.509  28.278  1.00  0.00     0.029 A 
ATOM     55  C   UNL A   1      45.934  30.399  29.165  1.00  0.00     0.049 A 
ATOM     56  H   UNL A   1      45.602  28.968  30.639  1.00  0.00     0.167 HD
ATOM     57  C   UNL A   1      45.012  25.901  33.700  1.00  0.00     0.037 A 
ATOM     58  C   UNL A   1      44.872  31.228  29.179  1.00  0.00     0.037 A 
ATOM     59  C   UNL A   1      43.876  26.772  33.834  1.00  0.00     0.049 A 
ATOM     60  C   UNL A   1      43.773  31.010  30.188  1.00  0.00     0.074 A 
ATOM     61  C   UNL A   1      42.830  26.697  34.737  1.00  0.00     0.029 A 
ATOM     62  N   UNL A   1      43.639  27.883  33.039  1.00  0.00    -0.354 N 
ATOM     63  N   UNL A   1      43.664  30.083  31.110  1.00  0.00    -0.248 NA
ATOM     64  C   UNL A   1      42.656  31.965  30.166  1.00  0.00     0.031 C 
ATOM     65  C   UNL A   1      41.939  27.742  34.465  1.00  0.00     0.029 A 
ATOM     66  C   UNL A   1      42.456  28.494  33.422  1.00  0.00     0.049 A 
ATOM     67  H   UNL A   1      44.223  28.192  32.310  1.00  0.00     0.167 HD
ATOM     68  C   UNL A   1      42.484  30.359  31.790  1.00  0.00     0.074 A 
ATOM     69  C   UNL A   1      41.924  31.550  31.189  1.00  0.00     0.031 C 
ATOM     70  C   UNL A   1      41.914  29.684  32.820  1.00  0.00     0.037 A 
BRANCH  57  71
ATOM     71  C   UNL A   1      45.130  24.737  34.641  1.00  0.00     0.064 A 
ATOM     72  C   UNL A   1      44.704  23.452  34.272  1.00  0.00     0.173 A 
ATOM     73  C   UNL A   1      45.705  24.899  35.911  1.00  0.00     0.173 A 
ATOM     74  F   UNL A   1      44.132  23.249  33.074  1.00  0.00    -0.203 F 
ATOM     75  C   UNL A   1      44.828  22.377  35.147  1.00  0.00     0.198 A 
ATOM     76  C   UNL A   1      45.854  23.815  36.772  1.00  0.00     0.198 A 
ATOM     77  F   UNL A   1      46.133  26.106  36.311  1.00  0.00    -0.203 F 
ATOM     78  F   UNL A   1      44.375  21.167  34.788  1.00  0.00    -0.200 F 
ATOM     79  C   UNL A   1      45.410  22.557  36.392  1.00  0.00     0.200 A 
ATOM     80  F   UNL A   1      46.426  23.988  37.971  1.00  0.00    -0.200 F 
ATOM     81  F   UNL A   1      45.536  21.519  37.231  1.00  0.00    -0.200 F 
ENDBRANCH  57  71
BRANCH  58  82
ATOM     82  C   UNL A   1      44.793  32.349  28.207  1.00  0.00     0.064 A 
ATOM     83  C   UNL A   1      44.248  32.165  26.929  1.00  0.00     0.173 A 
ATOM     84  C   UNL A   1      45.293  33.620  28.526  1.00  0.00     0.173 A 
ATOM     85  F   UNL A   1      43.782  30.960  26.567  1.00  0.00    -0.203 F 
ATOM     86  C   UNL A   1      44.229  33.203  25.999  1.00  0.00     0.198 A 
ATOM     87  C   UNL A   1      45.248  34.664  27.606  1.00  0.00     0.198 A 
ATOM     88  F   UNL A   1      45.828  33.846  29.736  1.00  0.00    -0.203 F 
ATOM     89  F   UNL A   1      43.754  32.984  24.765  1.00  0.00    -0.200 F 
ATOM     90  C   UNL A   1      44.724  34.452  26.339  1.00  0.00     0.200 A 
ATOM     91  F   UNL A   1      45.720  35.872  27.942  1.00  0.00    -0.200 F 
ATOM     92  F   UNL A   1      44.711  35.448  25.443  1.00  0.00    -0.200 F 
ENDBRANCH  58  82
BRANCH  70  93
ATOM     93  C   UNL A   1      40.635  30.237  33.381  1.00  0.00     0.064 A 
ATOM     94  C   UNL A   1      39.382  29.791  32.935  1.00  0.00     0.173 A 
ATOM     95  C   UNL A   1      40.666  31.205  34.395  1.00  0.00     0.173 A 
ATOM     96  F   UNL A   1      39.300  28.877  31.957  1.00  0.00    -0.203 F 
ATOM     97  C   UNL A   1      38.207  30.318  33.462  1.00  0.00     0.198 A 
ATOM     98  C   UNL A   1      39.488  31.708  34.941  1.00  0.00     0.198 A 
ATOM     99  F   UNL A   1      41.838  31.659  34.864  1.00  0.00    -0.203 F 
ATOM    100  F   UNL A   1      37.021  29.916  32.984  1.00  0.00    -0.200 F 
ATOM    101  C   UNL A   1      38.260  31.271  34.468  1.00  0.00     0.200 A 
ATOM    102  F   UNL A   1      39.540  32.620  35.922  1.00  0.00    -0.200 F 
ATOM    103  F   UNL A   1      37.126  31.777  34.974  1.00  0.00    -0.200 F 
ENDBRANCH  70  93
ENDBRANCH  44  45
ENDBRANCH  37  39
ENDBRANCH  36  37
ENDBRANCH  35  36
ENDBRANCH  34  35
ENDBRANCH  33  34
ENDBRANCH  32  33
ENDBRANCH   1  32
TORSDOF 20
ENDMDL
