MODEL 1
REMARK VINA RESULT:     -12.3      0.000      0.000
REMARK SMILES Cc1cc(=O)n2cc(-c3ccccc3)nc2n1[C@H](C)C(=O)OCCOCCOCCOC(=O)c1ccc(-c2c3nc(c(-c4c(F)c(F)c(F)c(F)c4F)c4ccc([nH]4)c(-c4c(F)c(F)c(F)c(F)c4F)c4nc(c(-c5c(F)c(F)c(F)c(F)c5F)c5ccc2[nH]5)C=C4)C=C3)cc1
REMARK SMILES IDX 26 1 25 2 24 3 23 4 22 5 20 6 21 7 18 8 19 9 17 10 1 11 2 12
REMARK SMILES IDX 3 13 4 14 16 15 5 16 6 17 15 18 7 19 8 20 9 21 10 22 14 23
REMARK SMILES IDX 11 24 13 25 12 26 27 27 28 28 29 29 30 30 31 31 32 32 33 33
REMARK SMILES IDX 34 34 35 35 96 36 36 37 95 38 37 39 38 40 39 41 89 42 40 43
REMARK SMILES IDX 94 44 88 45 90 46 41 47 93 48 87 49 86 50 42 52 74 53 54 54
REMARK SMILES IDX 73 55 55 56 58 57 72 58 91 59 56 60 57 61 71 63 92 64 59 65
REMARK SMILES IDX 43 66 44 67 52 68 45 69 46 70 50 71 53 72 47 73 48 74 51 75
REMARK SMILES IDX 49 76 75 77 76 78 84 79 77 80 78 81 82 82 85 83 79 84 80 85
REMARK SMILES IDX 83 86 81 87 60 88 61 89 69 90 62 91 63 92 67 93 70 94 64 95
REMARK SMILES IDX 65 96 68 97 66 98
REMARK H PARENT 90 51 58 62
REMARK Flexibility Score: inf
ROOT
ATOM      1  C   UNL A   1      40.003  21.917  27.067  1.00  0.00     0.188 C 
ENDROOT
BRANCH   1   2
ATOM      2  O   UNL A   1      39.245  22.402  25.989  1.00  0.00    -0.376 OA
BRANCH   2   3
ATOM      3  C   UNL A   1      38.063  21.710  25.607  1.00  0.00     0.202 C 
BRANCH   3   4
ATOM      4  C   UNL A   1      36.641  22.306  25.678  1.00  0.00     0.261 C 
BRANCH   4   5
ATOM      5  O   UNL A   1      36.438  23.615  25.128  1.00  0.00    -0.462 OA
BRANCH   5   6
ATOM      6  C   UNL A   1      35.855  23.656  23.895  1.00  0.00     0.329 C 
ATOM      7  O   UNL A   1      36.266  23.017  22.923  1.00  0.00    -0.250 OA
BRANCH   6   8
ATOM      8  C   UNL A   1      34.601  24.566  23.797  1.00  0.00     0.197 C 
ATOM      9  C   UNL A   1      33.842  24.683  22.477  1.00  0.00     0.044 C 
BRANCH   8  10
ATOM     10  N   UNL A   1      33.618  24.270  24.876  1.00  0.00    -0.301 N 
ATOM     11  C   UNL A   1      33.508  26.680  25.637  1.00  0.00     0.065 C 
ATOM     12  C   UNL A   1      33.066  25.238  25.733  1.00  0.00     0.024 A 
ATOM     13  C   UNL A   1      32.123  24.906  26.636  1.00  0.00     0.093 A 
ATOM     14  C   UNL A   1      31.630  23.510  26.736  1.00  0.00     0.259 A 
ATOM     15  C   UNL A   1      33.149  22.985  24.904  1.00  0.00     0.218 A 
ATOM     16  O   UNL A   1      30.780  23.135  27.529  1.00  0.00    -0.269 OA
ATOM     17  N   UNL A   1      32.200  22.622  25.830  1.00  0.00    -0.251 N 
ATOM     18  N   UNL A   1      33.490  21.968  24.150  1.00  0.00    -0.212 NA
ATOM     19  C   UNL A   1      31.975  21.268  25.660  1.00  0.00     0.127 A 
ATOM     20  C   UNL A   1      32.812  20.891  24.635  1.00  0.00     0.091 A 
BRANCH  20  21
ATOM     21  C   UNL A   1      33.032  19.567  24.105  1.00  0.00     0.002 A 
ATOM     22  C   UNL A   1      32.249  19.073  23.059  1.00  0.00     0.010 A 
ATOM     23  C   UNL A   1      34.111  18.807  24.579  1.00  0.00     0.010 A 
ATOM     24  C   UNL A   1      32.537  17.824  22.502  1.00  0.00     0.001 A 
ATOM     25  C   UNL A   1      34.393  17.556  24.025  1.00  0.00     0.001 A 
ATOM     26  C   UNL A   1      33.603  17.065  22.987  1.00  0.00     0.000 A 
ENDBRANCH  20  21
ENDBRANCH   8  10
ENDBRANCH   6   8
ENDBRANCH   5   6
ENDBRANCH   4   5
ENDBRANCH   3   4
ENDBRANCH   2   3
ENDBRANCH   1   2
BRANCH   1  27
ATOM     27  C   UNL A   1      40.870  20.673  26.809  1.00  0.00     0.188 C 
BRANCH  27  28
ATOM     28  O   UNL A   1      41.747  20.488  25.709  1.00  0.00    -0.376 OA
BRANCH  28  29
ATOM     29  C   UNL A   1      43.148  20.287  25.751  1.00  0.00     0.202 C 
BRANCH  29  30
ATOM     30  C   UNL A   1      44.127  21.439  25.571  1.00  0.00     0.261 C 
BRANCH  30  31
ATOM     31  O   UNL A   1      43.835  22.527  26.407  1.00  0.00    -0.460 OA
BRANCH  31  32
ATOM     32  C   UNL A   1      43.412  23.613  25.743  1.00  0.00     0.338 C 
ATOM     33  O   UNL A   1      43.716  23.987  24.616  1.00  0.00    -0.246 OA
BRANCH  32  34
ATOM     34  C   UNL A   1      42.478  24.309  26.620  1.00  0.00     0.060 A 
ATOM     35  C   UNL A   1      41.563  25.179  26.023  1.00  0.00     0.016 A 
ATOM     36  C   UNL A   1      42.731  24.290  27.996  1.00  0.00     0.016 A 
ATOM     37  C   UNL A   1      41.160  26.262  26.758  1.00  0.00     0.010 A 
ATOM     38  C   UNL A   1      42.355  25.379  28.718  1.00  0.00     0.010 A 
ATOM     39  C   UNL A   1      41.700  26.401  28.038  1.00  0.00    -0.014 A 
BRANCH  39  40
ATOM     40  C   UNL A   1      41.624  27.682  28.685  1.00  0.00     0.031 A 
ATOM     41  C   UNL A   1      42.758  28.543  28.327  1.00  0.00     0.074 A 
ATOM     42  C   UNL A   1      40.542  28.009  29.416  1.00  0.00     0.049 A 
ATOM     43  N   UNL A   1      43.751  28.870  29.082  1.00  0.00    -0.248 NA
ATOM     44  C   UNL A   1      42.939  28.882  26.906  1.00  0.00     0.031 C 
ATOM     45  C   UNL A   1      39.284  27.269  29.574  1.00  0.00     0.029 A 
ATOM     46  N   UNL A   1      40.309  29.154  30.109  1.00  0.00    -0.354 N 
ATOM     47  C   UNL A   1      44.558  29.661  28.278  1.00  0.00     0.074 A 
ATOM     48  C   UNL A   1      44.162  29.408  26.920  1.00  0.00     0.031 C 
ATOM     49  C   UNL A   1      38.350  28.084  30.120  1.00  0.00     0.029 A 
ATOM     50  C   UNL A   1      38.975  29.346  30.464  1.00  0.00     0.049 A 
ATOM     51  H   UNL A   1      41.021  29.794  30.341  1.00  0.00     0.167 HD
ATOM     52  C   UNL A   1      45.240  30.706  28.812  1.00  0.00     0.037 A 
ATOM     53  C   UNL A   1      38.457  30.521  30.906  1.00  0.00     0.037 A 
ATOM     54  C   UNL A   1      45.348  30.577  30.243  1.00  0.00     0.049 A 
ATOM     55  C   UNL A   1      39.607  31.338  31.391  1.00  0.00     0.074 A 
ATOM     56  C   UNL A   1      45.909  29.633  31.081  1.00  0.00     0.029 A 
ATOM     57  N   UNL A   1      44.466  31.294  31.015  1.00  0.00    -0.354 N 
ATOM     58  N   UNL A   1      40.328  31.019  32.433  1.00  0.00    -0.248 NA
ATOM     59  C   UNL A   1      40.261  32.207  30.422  1.00  0.00     0.031 C 
ATOM     60  C   UNL A   1      45.010  29.531  32.181  1.00  0.00     0.029 A 
ATOM     61  C   UNL A   1      43.992  30.467  32.001  1.00  0.00     0.049 A 
ATOM     62  H   UNL A   1      44.218  32.237  30.883  1.00  0.00     0.167 HD
ATOM     63  C   UNL A   1      41.637  31.287  32.054  1.00  0.00     0.074 A 
ATOM     64  C   UNL A   1      41.528  32.068  30.825  1.00  0.00     0.031 C 
ATOM     65  C   UNL A   1      42.681  30.596  32.597  1.00  0.00     0.037 A 
BRANCH  52  66
ATOM     66  C   UNL A   1      45.435  32.014  28.093  1.00  0.00     0.064 A 
ATOM     67  C   UNL A   1      44.310  32.810  27.822  1.00  0.00     0.173 A 
ATOM     68  C   UNL A   1      46.624  32.387  27.424  1.00  0.00     0.173 A 
ATOM     69  F   UNL A   1      43.123  32.521  28.375  1.00  0.00    -0.203 F 
ATOM     70  C   UNL A   1      44.360  33.864  26.907  1.00  0.00     0.198 A 
ATOM     71  C   UNL A   1      46.685  33.478  26.563  1.00  0.00     0.198 A 
ATOM     72  F   UNL A   1      47.743  31.657  27.476  1.00  0.00    -0.203 F 
ATOM     73  F   UNL A   1      43.235  34.517  26.588  1.00  0.00    -0.200 F 
ATOM     74  C   UNL A   1      45.547  34.197  26.280  1.00  0.00     0.200 A 
ATOM     75  F   UNL A   1      47.842  33.766  25.948  1.00  0.00    -0.200 F 
ATOM     76  F   UNL A   1      45.584  35.175  25.366  1.00  0.00    -0.200 F 
ENDBRANCH  52  66
BRANCH  53  77
ATOM     77  C   UNL A   1      37.144  31.124  30.559  1.00  0.00     0.064 A 
ATOM     78  C   UNL A   1      36.202  31.430  31.557  1.00  0.00     0.173 A 
ATOM     79  C   UNL A   1      36.899  31.672  29.285  1.00  0.00     0.173 A 
ATOM     80  F   UNL A   1      36.383  30.990  32.810  1.00  0.00    -0.203 F 
ATOM     81  C   UNL A   1      35.098  32.253  31.300  1.00  0.00     0.198 A 
ATOM     82  C   UNL A   1      35.795  32.489  29.028  1.00  0.00     0.198 A 
ATOM     83  F   UNL A   1      37.777  31.512  28.284  1.00  0.00    -0.203 F 
ATOM     84  F   UNL A   1      34.255  32.572  32.292  1.00  0.00    -0.200 F 
ATOM     85  C   UNL A   1      34.902  32.790  30.038  1.00  0.00     0.200 A 
ATOM     86  F   UNL A   1      35.640  33.034  27.813  1.00  0.00    -0.200 F 
ATOM     87  F   UNL A   1      33.881  33.628  29.806  1.00  0.00    -0.200 F 
ENDBRANCH  53  77
BRANCH  65  88
ATOM     88  C   UNL A   1      42.408  29.712  33.785  1.00  0.00     0.064 A 
ATOM     89  C   UNL A   1      41.987  28.374  33.689  1.00  0.00     0.173 A 
ATOM     90  C   UNL A   1      42.793  30.178  35.049  1.00  0.00     0.173 A 
ATOM     91  F   UNL A   1      41.688  27.830  32.502  1.00  0.00    -0.203 F 
ATOM     92  C   UNL A   1      41.944  27.548  34.813  1.00  0.00     0.198 A 
ATOM     93  C   UNL A   1      42.783  29.343  36.161  1.00  0.00     0.198 A 
ATOM     94  F   UNL A   1      43.250  31.433  35.189  1.00  0.00    -0.203 F 
ATOM     95  F   UNL A   1      41.551  26.271  34.696  1.00  0.00    -0.200 F 
ATOM     96  C   UNL A   1      42.355  28.030  36.045  1.00  0.00     0.200 A 
ATOM     97  F   UNL A   1      43.230  29.799  37.339  1.00  0.00    -0.200 F 
ATOM     98  F   UNL A   1      42.375  27.220  37.114  1.00  0.00    -0.200 F 
ENDBRANCH  65  88
ENDBRANCH  39  40
ENDBRANCH  32  34
ENDBRANCH  31  32
ENDBRANCH  30  31
ENDBRANCH  29  30
ENDBRANCH  28  29
ENDBRANCH  27  28
ENDBRANCH   1  27
TORSDOF 19
ENDMDL
MODEL 2
REMARK VINA RESULT:     -12.2      2.459      4.501
REMARK SMILES Cc1cc(=O)n2cc(-c3ccccc3)nc2n1[C@H](C)C(=O)OCCOCCOCCOC(=O)c1ccc(-c2c3nc(c(-c4c(F)c(F)c(F)c(F)c4F)c4ccc([nH]4)c(-c4c(F)c(F)c(F)c(F)c4F)c4nc(c(-c5c(F)c(F)c(F)c(F)c5F)c5ccc2[nH]5)C=C4)C=C3)cc1
REMARK SMILES IDX 26 1 25 2 24 3 23 4 22 5 20 6 21 7 18 8 19 9 17 10 1 11 2 12
REMARK SMILES IDX 3 13 4 14 16 15 5 16 6 17 15 18 7 19 8 20 9 21 10 22 14 23
REMARK SMILES IDX 11 24 13 25 12 26 27 27 28 28 29 29 30 30 31 31 32 32 33 33
REMARK SMILES IDX 34 34 35 35 96 36 36 37 95 38 37 39 38 40 39 41 89 42 40 43
REMARK SMILES IDX 94 44 88 45 90 46 41 47 93 48 87 49 86 50 42 52 74 53 54 54
REMARK SMILES IDX 73 55 55 56 58 57 72 58 91 59 56 60 57 61 71 63 92 64 59 65
REMARK SMILES IDX 43 66 44 67 52 68 45 69 46 70 50 71 53 72 47 73 48 74 51 75
REMARK SMILES IDX 49 76 75 77 76 78 84 79 77 80 78 81 82 82 85 83 79 84 80 85
REMARK SMILES IDX 83 86 81 87 60 88 61 89 69 90 62 91 63 92 67 93 70 94 64 95
REMARK SMILES IDX 65 96 68 97 66 98
REMARK H PARENT 90 51 58 62
REMARK Flexibility Score: inf
ROOT
ATOM      1  C   UNL A   1      33.887  21.044  25.983  1.00  0.00     0.188 C 
ENDROOT
BRANCH   1   2
ATOM      2  O   UNL A   1      33.425  20.687  24.706  1.00  0.00    -0.376 OA
BRANCH   2   3
ATOM      3  C   UNL A   1      32.534  21.559  24.023  1.00  0.00     0.202 C 
BRANCH   3   4
ATOM      4  C   UNL A   1      32.965  22.585  22.954  1.00  0.00     0.261 C 
BRANCH   4   5
ATOM      5  O   UNL A   1      32.037  23.624  22.613  1.00  0.00    -0.462 OA
BRANCH   5   6
ATOM      6  C   UNL A   1      32.349  24.871  23.071  1.00  0.00     0.329 C 
ATOM      7  O   UNL A   1      33.323  25.518  22.679  1.00  0.00    -0.250 OA
BRANCH   6   8
ATOM      8  C   UNL A   1      31.365  25.442  24.126  1.00  0.00     0.197 C 
ATOM      9  C   UNL A   1      30.632  24.498  25.077  1.00  0.00     0.044 C 
BRANCH   8  10
ATOM     10  N   UNL A   1      31.989  26.527  24.934  1.00  0.00    -0.301 N 
ATOM     11  C   UNL A   1      33.605  24.948  26.073  1.00  0.00     0.065 C 
ATOM     12  C   UNL A   1      33.055  26.335  25.830  1.00  0.00     0.024 A 
ATOM     13  C   UNL A   1      33.618  27.378  26.469  1.00  0.00     0.093 A 
ATOM     14  C   UNL A   1      33.137  28.761  26.230  1.00  0.00     0.259 A 
ATOM     15  C   UNL A   1      31.556  27.792  24.648  1.00  0.00     0.218 A 
ATOM     16  O   UNL A   1      33.597  29.755  26.772  1.00  0.00    -0.269 OA
ATOM     17  N   UNL A   1      32.105  28.869  25.303  1.00  0.00    -0.251 N 
ATOM     18  N   UNL A   1      30.628  28.174  23.804  1.00  0.00    -0.212 NA
ATOM     19  C   UNL A   1      31.431  29.992  24.859  1.00  0.00     0.127 A 
ATOM     20  C   UNL A   1      30.505  29.521  23.957  1.00  0.00     0.091 A 
BRANCH  20  21
ATOM     21  C   UNL A   1      29.488  30.264  23.253  1.00  0.00     0.002 A 
ATOM     22  C   UNL A   1      28.929  31.418  23.806  1.00  0.00     0.010 A 
ATOM     23  C   UNL A   1      29.129  29.878  21.953  1.00  0.00     0.010 A 
ATOM     24  C   UNL A   1      28.011  32.172  23.070  1.00  0.00     0.001 A 
ATOM     25  C   UNL A   1      28.205  30.628  21.221  1.00  0.00     0.001 A 
ATOM     26  C   UNL A   1      27.646  31.775  21.782  1.00  0.00     0.000 A 
ENDBRANCH  20  21
ENDBRANCH   8  10
ENDBRANCH   6   8
ENDBRANCH   5   6
ENDBRANCH   4   5
ENDBRANCH   3   4
ENDBRANCH   2   3
ENDBRANCH   1   2
BRANCH   1  27
ATOM     27  C   UNL A   1      35.343  21.524  26.092  1.00  0.00     0.188 C 
BRANCH  27  28
ATOM     28  O   UNL A   1      36.460  20.937  25.444  1.00  0.00    -0.376 OA
BRANCH  28  29
ATOM     29  C   UNL A   1      37.631  21.590  24.986  1.00  0.00     0.202 C 
BRANCH  29  30
ATOM     30  C   UNL A   1      38.927  21.560  25.785  1.00  0.00     0.261 C 
BRANCH  30  31
ATOM     31  O   UNL A   1      39.178  22.772  26.446  1.00  0.00    -0.460 OA
BRANCH  31  32
ATOM     32  C   UNL A   1      40.180  22.700  27.334  1.00  0.00     0.338 C 
ATOM     33  O   UNL A   1      40.470  21.776  28.087  1.00  0.00    -0.246 OA
BRANCH  32  34
ATOM     34  C   UNL A   1      40.913  23.957  27.251  1.00  0.00     0.060 A 
ATOM     35  C   UNL A   1      41.976  24.141  28.137  1.00  0.00     0.016 A 
ATOM     36  C   UNL A   1      40.346  24.999  26.508  1.00  0.00     0.016 A 
ATOM     37  C   UNL A   1      42.242  25.423  28.536  1.00  0.00     0.010 A 
ATOM     38  C   UNL A   1      40.588  26.270  26.925  1.00  0.00     0.010 A 
ATOM     39  C   UNL A   1      41.425  26.433  28.024  1.00  0.00    -0.014 A 
BRANCH  39  40
ATOM     40  C   UNL A   1      41.401  27.707  28.689  1.00  0.00     0.031 A 
ATOM     41  C   UNL A   1      42.558  28.534  28.326  1.00  0.00     0.074 A 
ATOM     42  C   UNL A   1      40.341  28.060  29.442  1.00  0.00     0.049 A 
ATOM     43  N   UNL A   1      43.573  28.818  29.069  1.00  0.00    -0.248 NA
ATOM     44  C   UNL A   1      42.729  28.886  26.906  1.00  0.00     0.031 C 
ATOM     45  C   UNL A   1      39.062  27.361  29.609  1.00  0.00     0.029 A 
ATOM     46  N   UNL A   1      40.157  29.202  30.153  1.00  0.00    -0.354 N 
ATOM     47  C   UNL A   1      44.393  29.593  28.264  1.00  0.00     0.074 A 
ATOM     48  C   UNL A   1      43.969  29.371  26.909  1.00  0.00     0.031 C 
ATOM     49  C   UNL A   1      38.164  28.198  30.179  1.00  0.00     0.029 A 
ATOM     50  C   UNL A   1      38.836  29.434  30.531  1.00  0.00     0.049 A 
ATOM     51  H   UNL A   1      40.894  29.815  30.382  1.00  0.00     0.167 HD
ATOM     52  C   UNL A   1      45.118  30.607  28.801  1.00  0.00     0.037 A 
ATOM     53  C   UNL A   1      38.365  30.620  30.996  1.00  0.00     0.037 A 
ATOM     54  C   UNL A   1      45.243  30.455  30.228  1.00  0.00     0.049 A 
ATOM     55  C   UNL A   1      39.548  31.391  31.473  1.00  0.00     0.074 A 
ATOM     56  C   UNL A   1      45.784  29.481  31.045  1.00  0.00     0.029 A 
ATOM     57  N   UNL A   1      44.397  31.190  31.023  1.00  0.00    -0.354 N 
ATOM     58  N   UNL A   1      40.274  31.034  32.501  1.00  0.00    -0.248 NA
ATOM     59  C   UNL A   1      40.217  32.251  30.506  1.00  0.00     0.031 C 
ATOM     60  C   UNL A   1      44.899  29.394  32.157  1.00  0.00     0.029 A 
ATOM     61  C   UNL A   1      43.911  30.366  32.006  1.00  0.00     0.049 A 
ATOM     62  H   UNL A   1      44.179  32.143  30.907  1.00  0.00     0.167 HD
ATOM     63  C   UNL A   1      41.585  31.263  32.105  1.00  0.00     0.074 A 
ATOM     64  C   UNL A   1      41.484  32.064  30.888  1.00  0.00     0.031 C 
ATOM     65  C   UNL A   1      42.613  30.530  32.623  1.00  0.00     0.037 A 
BRANCH  52  66
ATOM     66  C   UNL A   1      45.346  31.917  28.097  1.00  0.00     0.064 A 
ATOM     67  C   UNL A   1      44.245  32.754  27.854  1.00  0.00     0.173 A 
ATOM     68  C   UNL A   1      46.537  32.259  27.413  1.00  0.00     0.173 A 
ATOM     69  F   UNL A   1      43.057  32.498  28.422  1.00  0.00    -0.203 F 
ATOM     70  C   UNL A   1      44.316  33.818  26.953  1.00  0.00     0.198 A 
ATOM     71  C   UNL A   1      46.621  33.358  26.566  1.00  0.00     0.198 A 
ATOM     72  F   UNL A   1      47.631  31.490  27.437  1.00  0.00    -0.203 F 
ATOM     73  F   UNL A   1      43.210  34.513  26.660  1.00  0.00    -0.200 F 
ATOM     74  C   UNL A   1      45.504  34.120  26.311  1.00  0.00     0.200 A 
ATOM     75  F   UNL A   1      47.778  33.616  25.936  1.00  0.00    -0.200 F 
ATOM     76  F   UNL A   1      45.560  35.108  25.409  1.00  0.00    -0.200 F 
ENDBRANCH  52  66
BRANCH  53  77
ATOM     77  C   UNL A   1      37.067  31.271  30.677  1.00  0.00     0.064 A 
ATOM     78  C   UNL A   1      36.140  31.571  31.690  1.00  0.00     0.173 A 
ATOM     79  C   UNL A   1      36.832  31.867  29.422  1.00  0.00     0.173 A 
ATOM     80  F   UNL A   1      36.315  31.086  32.928  1.00  0.00    -0.203 F 
ATOM     81  C   UNL A   1      35.059  32.433  31.467  1.00  0.00     0.198 A 
ATOM     82  C   UNL A   1      35.750  32.723  29.199  1.00  0.00     0.198 A 
ATOM     83  F   UNL A   1      37.699  31.714  28.412  1.00  0.00    -0.203 F 
ATOM     84  F   UNL A   1      34.231  32.744  32.474  1.00  0.00    -0.200 F 
ATOM     85  C   UNL A   1      34.872  33.016  30.224  1.00  0.00     0.200 A 
ATOM     86  F   UNL A   1      35.604  33.311  28.003  1.00  0.00    -0.200 F 
ATOM     87  F   UNL A   1      33.874  33.890  30.026  1.00  0.00    -0.200 F 
ENDBRANCH  53  77
BRANCH  65  88
ATOM     88  C   UNL A   1      42.329  29.641  33.803  1.00  0.00     0.064 A 
ATOM     89  C   UNL A   1      41.846  28.324  33.696  1.00  0.00     0.173 A 
ATOM     90  C   UNL A   1      42.763  30.068  35.065  1.00  0.00     0.173 A 
ATOM     91  F   UNL A   1      41.495  27.814  32.509  1.00  0.00    -0.203 F 
ATOM     92  C   UNL A   1      41.791  27.483  34.808  1.00  0.00     0.198 A 
ATOM     93  C   UNL A   1      42.741  29.216  36.164  1.00  0.00     0.198 A 
ATOM     94  F   UNL A   1      43.280  31.298  35.213  1.00  0.00    -0.203 F 
ATOM     95  F   UNL A   1      41.338  26.226  34.681  1.00  0.00    -0.200 F 
ATOM     96  C   UNL A   1      42.253  27.925  36.038  1.00  0.00     0.200 A 
ATOM     97  F   UNL A   1      43.236  29.631  37.338  1.00  0.00    -0.200 F 
ATOM     98  F   UNL A   1      42.260  27.098  37.093  1.00  0.00    -0.200 F 
ENDBRANCH  65  88
ENDBRANCH  39  40
ENDBRANCH  32  34
ENDBRANCH  31  32
ENDBRANCH  30  31
ENDBRANCH  29  30
ENDBRANCH  28  29
ENDBRANCH  27  28
ENDBRANCH   1  27
TORSDOF 19
ENDMDL
MODEL 3
REMARK VINA RESULT:     -12.0      3.027      8.453
REMARK SMILES Cc1cc(=O)n2cc(-c3ccccc3)nc2n1[C@H](C)C(=O)OCCOCCOCCOC(=O)c1ccc(-c2c3nc(c(-c4c(F)c(F)c(F)c(F)c4F)c4ccc([nH]4)c(-c4c(F)c(F)c(F)c(F)c4F)c4nc(c(-c5c(F)c(F)c(F)c(F)c5F)c5ccc2[nH]5)C=C4)C=C3)cc1
REMARK SMILES IDX 26 1 25 2 24 3 23 4 22 5 20 6 21 7 18 8 19 9 17 10 1 11 2 12
REMARK SMILES IDX 3 13 4 14 16 15 5 16 6 17 15 18 7 19 8 20 9 21 10 22 14 23
REMARK SMILES IDX 11 24 13 25 12 26 27 27 28 28 29 29 30 30 31 31 32 32 33 33
REMARK SMILES IDX 34 34 35 35 96 36 36 37 95 38 37 39 38 40 39 41 89 42 40 43
REMARK SMILES IDX 94 44 88 45 90 46 41 47 93 48 87 49 86 50 42 52 74 53 54 54
REMARK SMILES IDX 73 55 55 56 58 57 72 58 91 59 56 60 57 61 71 63 92 64 59 65
REMARK SMILES IDX 43 66 44 67 52 68 45 69 46 70 50 71 53 72 47 73 48 74 51 75
REMARK SMILES IDX 49 76 75 77 76 78 84 79 77 80 78 81 82 82 85 83 79 84 80 85
REMARK SMILES IDX 83 86 81 87 60 88 61 89 69 90 62 91 63 92 67 93 70 94 64 95
REMARK SMILES IDX 65 96 68 97 66 98
REMARK H PARENT 90 51 58 62
REMARK Flexibility Score: inf
ROOT
ATOM      1  C   UNL A   1      30.451  29.052  24.002  1.00  0.00     0.188 C 
ENDROOT
BRANCH   1   2
ATOM      2  O   UNL A   1      30.637  27.699  23.678  1.00  0.00    -0.376 OA
BRANCH   2   3
ATOM      3  C   UNL A   1      29.870  26.713  24.357  1.00  0.00     0.202 C 
BRANCH   3   4
ATOM      4  C   UNL A   1      30.295  26.032  25.676  1.00  0.00     0.261 C 
BRANCH   4   5
ATOM      5  O   UNL A   1      30.284  24.598  25.721  1.00  0.00    -0.462 OA
BRANCH   5   6
ATOM      6  C   UNL A   1      31.501  24.001  25.882  1.00  0.00     0.329 C 
ATOM      7  O   UNL A   1      32.078  23.910  26.967  1.00  0.00    -0.250 OA
BRANCH   6   8
ATOM      8  C   UNL A   1      32.115  23.415  24.583  1.00  0.00     0.197 C 
ATOM      9  C   UNL A   1      31.783  24.042  23.230  1.00  0.00     0.044 C 
BRANCH   8  10
ATOM     10  N   UNL A   1      33.594  23.279  24.683  1.00  0.00    -0.301 N 
ATOM     11  C   UNL A   1      33.967  25.781  24.741  1.00  0.00     0.065 C 
ATOM     12  C   UNL A   1      34.485  24.361  24.787  1.00  0.00     0.024 A 
ATOM     13  C   UNL A   1      35.806  24.157  24.952  1.00  0.00     0.093 A 
ATOM     14  C   UNL A   1      36.353  22.781  25.045  1.00  0.00     0.259 A 
ATOM     15  C   UNL A   1      34.056  21.999  24.818  1.00  0.00     0.218 A 
ATOM     16  O   UNL A   1      37.537  22.518  25.193  1.00  0.00    -0.269 OA
ATOM     17  N   UNL A   1      35.403  21.768  24.969  1.00  0.00    -0.251 N 
ATOM     18  N   UNL A   1      33.380  20.875  24.813  1.00  0.00    -0.212 NA
ATOM     19  C   UNL A   1      35.570  20.395  25.014  1.00  0.00     0.127 A 
ATOM     20  C   UNL A   1      34.303  19.876  24.883  1.00  0.00     0.091 A 
BRANCH  20  21
ATOM     21  C   UNL A   1      33.913  18.489  24.790  1.00  0.00     0.002 A 
ATOM     22  C   UNL A   1      34.754  17.545  24.198  1.00  0.00     0.010 A 
ATOM     23  C   UNL A   1      32.717  18.069  25.390  1.00  0.00     0.010 A 
ATOM     24  C   UNL A   1      34.396  16.194  24.197  1.00  0.00     0.001 A 
ATOM     25  C   UNL A   1      32.357  16.719  25.382  1.00  0.00     0.001 A 
ATOM     26  C   UNL A   1      33.198  15.783  24.784  1.00  0.00     0.000 A 
ENDBRANCH  20  21
ENDBRANCH   8  10
ENDBRANCH   6   8
ENDBRANCH   5   6
ENDBRANCH   4   5
ENDBRANCH   3   4
ENDBRANCH   2   3
ENDBRANCH   1   2
BRANCH   1  27
ATOM     27  C   UNL A   1      31.538  29.723  24.857  1.00  0.00     0.188 C 
BRANCH  27  28
ATOM     28  O   UNL A   1      31.684  29.596  26.262  1.00  0.00    -0.376 OA
BRANCH  28  29
ATOM     29  C   UNL A   1      32.891  29.574  27.004  1.00  0.00     0.202 C 
BRANCH  29  30
ATOM     30  C   UNL A   1      33.654  30.851  27.328  1.00  0.00     0.261 C 
BRANCH  30  31
ATOM     31  O   UNL A   1      35.021  30.619  27.543  1.00  0.00    -0.460 OA
BRANCH  31  32
ATOM     32  C   UNL A   1      35.679  31.692  28.008  1.00  0.00     0.338 C 
ATOM     33  O   UNL A   1      35.561  32.866  27.674  1.00  0.00    -0.246 OA
BRANCH  32  34
ATOM     34  C   UNL A   1      36.598  31.213  29.034  1.00  0.00     0.060 A 
ATOM     35  C   UNL A   1      37.706  32.010  29.325  1.00  0.00     0.016 A 
ATOM     36  C   UNL A   1      36.479  29.883  29.452  1.00  0.00     0.016 A 
ATOM     37  C   UNL A   1      38.844  31.371  29.736  1.00  0.00     0.010 A 
ATOM     38  C   UNL A   1      37.616  29.242  29.833  1.00  0.00     0.010 A 
ATOM     39  C   UNL A   1      38.796  29.978  29.827  1.00  0.00    -0.014 A 
BRANCH  39  40
ATOM     40  C   UNL A   1      40.032  29.245  29.870  1.00  0.00     0.031 A 
ATOM     41  C   UNL A   1      40.566  29.154  31.234  1.00  0.00     0.074 A 
ATOM     42  C   UNL A   1      40.503  28.645  28.760  1.00  0.00     0.049 A 
ATOM     43  N   UNL A   1      41.591  29.776  31.708  1.00  0.00    -0.248 NA
ATOM     44  C   UNL A   1      39.734  28.492  32.252  1.00  0.00     0.031 C 
ATOM     45  C   UNL A   1      39.858  28.503  27.449  1.00  0.00     0.029 A 
ATOM     46  N   UNL A   1      41.652  27.936  28.610  1.00  0.00    -0.354 N 
ATOM     47  C   UNL A   1      41.660  29.379  33.035  1.00  0.00     0.074 A 
ATOM     48  C   UNL A   1      40.374  28.832  33.369  1.00  0.00     0.031 C 
ATOM     49  C   UNL A   1      40.516  27.569  26.724  1.00  0.00     0.029 A 
ATOM     50  C   UNL A   1      41.692  27.148  27.461  1.00  0.00     0.049 A 
ATOM     51  H   UNL A   1      42.393  27.975  29.257  1.00  0.00     0.167 HD
ATOM     52  C   UNL A   1      42.865  29.218  33.639  1.00  0.00     0.037 A 
ATOM     53  C   UNL A   1      42.594  26.158  27.238  1.00  0.00     0.037 A 
ATOM     54  C   UNL A   1      43.904  29.902  32.912  1.00  0.00     0.049 A 
ATOM     55  C   UNL A   1      43.746  26.417  28.148  1.00  0.00     0.074 A 
ATOM     56  C   UNL A   1      44.123  31.221  32.565  1.00  0.00     0.029 A 
ATOM     57  N   UNL A   1      44.690  29.151  32.071  1.00  0.00    -0.354 N 
ATOM     58  N   UNL A   1      44.536  27.453  28.033  1.00  0.00    -0.248 NA
ATOM     59  C   UNL A   1      43.697  25.815  29.473  1.00  0.00     0.031 C 
ATOM     60  C   UNL A   1      44.667  31.174  31.249  1.00  0.00     0.029 A 
ATOM     61  C   UNL A   1      44.825  29.835  30.890  1.00  0.00     0.049 A 
ATOM     62  H   UNL A   1      45.088  28.276  32.281  1.00  0.00     0.167 HD
ATOM     63  C   UNL A   1      44.745  27.885  29.336  1.00  0.00     0.074 A 
ATOM     64  C   UNL A   1      44.247  26.804  30.183  1.00  0.00     0.031 C 
ATOM     65  C   UNL A   1      45.016  29.195  29.607  1.00  0.00     0.037 A 
BRANCH  52  66
ATOM     66  C   UNL A   1      43.148  28.122  34.631  1.00  0.00     0.064 A 
ATOM     67  C   UNL A   1      43.543  28.474  35.932  1.00  0.00     0.173 A 
ATOM     68  C   UNL A   1      43.314  26.760  34.289  1.00  0.00     0.173 A 
ATOM     69  F   UNL A   1      43.463  29.747  36.347  1.00  0.00    -0.203 F 
ATOM     70  C   UNL A   1      44.113  27.544  36.803  1.00  0.00     0.198 A 
ATOM     71  C   UNL A   1      43.823  25.823  35.182  1.00  0.00     0.198 A 
ATOM     72  F   UNL A   1      43.107  26.294  33.052  1.00  0.00    -0.203 F 
ATOM     73  F   UNL A   1      44.588  27.950  37.988  1.00  0.00    -0.200 F 
ATOM     74  C   UNL A   1      44.252  26.219  36.428  1.00  0.00     0.200 A 
ATOM     75  F   UNL A   1      43.970  24.550  34.786  1.00  0.00    -0.200 F 
ATOM     76  F   UNL A   1      44.844  25.338  37.243  1.00  0.00    -0.200 F 
ENDBRANCH  52  66
BRANCH  53  77
ATOM     77  C   UNL A   1      42.350  24.827  26.624  1.00  0.00     0.064 A 
ATOM     78  C   UNL A   1      43.202  24.323  25.625  1.00  0.00     0.173 A 
ATOM     79  C   UNL A   1      41.453  23.905  27.198  1.00  0.00     0.173 A 
ATOM     80  F   UNL A   1      44.121  25.119  25.060  1.00  0.00    -0.203 F 
ATOM     81  C   UNL A   1      43.173  22.975  25.243  1.00  0.00     0.198 A 
ATOM     82  C   UNL A   1      41.421  22.562  26.813  1.00  0.00     0.198 A 
ATOM     83  F   UNL A   1      40.655  24.260  28.215  1.00  0.00    -0.203 F 
ATOM     84  F   UNL A   1      44.042  22.519  24.331  1.00  0.00    -0.200 F 
ATOM     85  C   UNL A   1      42.289  22.095  25.845  1.00  0.00     0.200 A 
ATOM     86  F   UNL A   1      40.588  21.713  27.432  1.00  0.00    -0.200 F 
ATOM     87  F   UNL A   1      42.304  20.792  25.526  1.00  0.00    -0.200 F 
ENDBRANCH  53  77
BRANCH  65  88
ATOM     88  C   UNL A   1      45.323  30.111  28.453  1.00  0.00     0.064 A 
ATOM     89  C   UNL A   1      44.348  30.838  27.746  1.00  0.00     0.173 A 
ATOM     90  C   UNL A   1      46.666  30.420  28.202  1.00  0.00     0.173 A 
ATOM     91  F   UNL A   1      43.044  30.663  27.995  1.00  0.00    -0.203 F 
ATOM     92  C   UNL A   1      44.709  31.819  26.822  1.00  0.00     0.198 A 
ATOM     93  C   UNL A   1      47.022  31.423  27.306  1.00  0.00     0.198 A 
ATOM     94  F   UNL A   1      47.636  29.792  28.885  1.00  0.00    -0.203 F 
ATOM     95  F   UNL A   1      43.762  32.509  26.167  1.00  0.00    -0.200 F 
ATOM     96  C   UNL A   1      46.045  32.121  26.614  1.00  0.00     0.200 A 
ATOM     97  F   UNL A   1      48.313  31.746  27.148  1.00  0.00    -0.200 F 
ATOM     98  F   UNL A   1      46.391  33.107  25.774  1.00  0.00    -0.200 F 
ENDBRANCH  65  88
ENDBRANCH  39  40
ENDBRANCH  32  34
ENDBRANCH  31  32
ENDBRANCH  30  31
ENDBRANCH  29  30
ENDBRANCH  28  29
ENDBRANCH  27  28
ENDBRANCH   1  27
TORSDOF 19
ENDMDL
