MODEL 1
REMARK VINA RESULT:     -11.3      0.000      0.000
REMARK SMILES Cc1cc(NC(=O)/C=C/c2ccco2)cc(C(=O)OCCOCCOCCOC(=O)c2ccc(-c3c4nc(c(-c5c(F)c(F)c(F)c(F)c5F)c5ccc([nH]5)c(-c5c(F)c(F)c(F)c(F)c5F)c5nc(c(-c6c(F)c(F)c(F)c(F)c6F)c6ccc3[nH]6)C=C5)C=C4)cc2)c1O
REMARK SMILES IDX 23 1 22 2 21 3 20 4 19 5 17 6 18 7 16 8 1 9 2 10 3 11 94 12
REMARK SMILES IDX 4 13 15 14 95 15 5 17 6 18 7 20 8 21 9 22 10 23 11 24 14 25
REMARK SMILES IDX 12 26 13 27 24 28 25 29 26 30 27 31 28 32 29 33 30 34 31 35
REMARK SMILES IDX 32 36 93 37 33 38 92 39 34 40 35 41 36 42 86 43 37 44 91 45
REMARK SMILES IDX 85 46 87 47 38 48 90 49 84 50 83 51 39 53 71 54 51 55 70 56
REMARK SMILES IDX 52 57 55 58 69 59 88 60 53 61 54 62 68 64 89 65 56 66 40 67
REMARK SMILES IDX 41 68 49 69 42 70 43 71 47 72 50 73 44 74 45 75 48 76 46 77
REMARK SMILES IDX 72 78 73 79 81 80 74 81 75 82 79 83 82 84 76 85 77 86 80 87
REMARK SMILES IDX 78 88 57 89 58 90 66 91 59 92 60 93 64 94 67 95 61 96 62 97
REMARK SMILES IDX 65 98 63 99
REMARK H PARENT 95 16 5 19 87 52 55 63
REMARK Flexibility Score: inf
ROOT
ATOM      1  C   UNL A   1      33.752  29.528  26.342  1.00  0.00     0.188 C 
ENDROOT
BRANCH   1   2
ATOM      2  O   UNL A   1      33.751  28.181  26.802  1.00  0.00    -0.376 OA
BRANCH   2   3
ATOM      3  C   UNL A   1      32.503  27.495  26.865  1.00  0.00     0.202 C 
BRANCH   3   4
ATOM      4  C   UNL A   1      32.517  25.992  26.567  1.00  0.00     0.261 C 
BRANCH   4   5
ATOM      5  O   UNL A   1      31.193  25.453  26.413  1.00  0.00    -0.460 OA
BRANCH   5   6
ATOM      6  C   UNL A   1      31.088  24.102  26.512  1.00  0.00     0.342 C 
ATOM      7  O   UNL A   1      30.306  23.475  27.204  1.00  0.00    -0.246 OA
BRANCH   6   8
ATOM      8  C   UNL A   1      32.035  23.492  25.549  1.00  0.00     0.104 A 
ATOM      9  C   UNL A   1      34.628  20.687  25.368  1.00  0.00     0.048 C 
ATOM     10  C   UNL A   1      33.725  21.835  25.014  1.00  0.00    -0.006 A 
ATOM     11  C   UNL A   1      33.763  22.351  23.706  1.00  0.00     0.033 A 
ATOM     12  C   UNL A   1      32.813  22.388  25.921  1.00  0.00     0.133 A 
ATOM     13  C   UNL A   1      32.935  23.411  23.299  1.00  0.00     0.042 A 
ATOM     14  C   UNL A   1      32.114  24.013  24.250  1.00  0.00     0.045 A 
BRANCH  12  15
ATOM     15  O   UNL A   1      32.625  21.839  27.160  1.00  0.00    -0.507 OA
ATOM     16  H   UNL A   1      31.787  21.496  27.398  1.00  0.00     0.293 HD
ENDBRANCH  12  15
BRANCH  13  17
ATOM     17  N   UNL A   1      33.014  23.769  21.938  1.00  0.00    -0.322 N 
ATOM     18  C   UNL A   1      32.843  24.939  21.257  1.00  0.00     0.248 C 
ATOM     19  H   UNL A   1      33.241  23.011  21.353  1.00  0.00     0.170 HD
ATOM     20  O   UNL A   1      33.052  24.979  20.046  1.00  0.00    -0.270 OA
BRANCH  18  21
ATOM     21  C   UNL A   1      32.418  26.158  21.954  1.00  0.00     0.075 C 
ATOM     22  C   UNL A   1      31.252  26.748  21.652  1.00  0.00     0.053 C 
BRANCH  22  23
ATOM     23  C   UNL A   1      30.799  27.833  22.448  1.00  0.00     0.126 A 
ATOM     24  C   UNL A   1      31.206  28.228  23.715  1.00  0.00     0.050 A 
ATOM     25  O   UNL A   1      29.856  28.739  22.015  1.00  0.00    -0.465 OA
ATOM     26  C   UNL A   1      30.499  29.407  24.051  1.00  0.00     0.042 A 
ATOM     27  C   UNL A   1      29.697  29.682  22.973  1.00  0.00     0.195 A 
ENDBRANCH  22  23
ENDBRANCH  18  21
ENDBRANCH  13  17
ENDBRANCH   6   8
ENDBRANCH   5   6
ENDBRANCH   4   5
ENDBRANCH   3   4
ENDBRANCH   2   3
ENDBRANCH   1   2
BRANCH   1  28
ATOM     28  C   UNL A   1      33.073  30.615  27.204  1.00  0.00     0.188 C 
BRANCH  28  29
ATOM     29  O   UNL A   1      31.772  30.975  26.769  1.00  0.00    -0.376 OA
BRANCH  29  30
ATOM     30  C   UNL A   1      31.435  32.351  26.868  1.00  0.00     0.202 C 
BRANCH  30  31
ATOM     31  C   UNL A   1      32.620  33.285  27.138  1.00  0.00     0.261 C 
BRANCH  31  32
ATOM     32  O   UNL A   1      32.486  34.122  28.296  1.00  0.00    -0.460 OA
BRANCH  32  33
ATOM     33  C   UNL A   1      33.532  34.914  28.621  1.00  0.00     0.338 C 
ATOM     34  O   UNL A   1      33.540  36.130  28.703  1.00  0.00    -0.246 OA
BRANCH  33  35
ATOM     35  C   UNL A   1      34.631  34.031  29.065  1.00  0.00     0.060 A 
ATOM     36  C   UNL A   1      34.329  32.934  29.883  1.00  0.00     0.016 A 
ATOM     37  C   UNL A   1      35.941  34.246  28.627  1.00  0.00     0.016 A 
ATOM     38  C   UNL A   1      35.342  32.055  30.274  1.00  0.00     0.010 A 
ATOM     39  C   UNL A   1      36.957  33.380  29.037  1.00  0.00     0.010 A 
ATOM     40  C   UNL A   1      36.666  32.292  29.878  1.00  0.00    -0.014 A 
BRANCH  40  41
ATOM     41  C   UNL A   1      37.775  31.524  30.496  1.00  0.00     0.031 A 
ATOM     42  C   UNL A   1      38.159  31.852  31.913  1.00  0.00     0.074 A 
ATOM     43  C   UNL A   1      38.431  30.563  29.823  1.00  0.00     0.049 A 
ATOM     44  N   UNL A   1      39.119  31.359  32.652  1.00  0.00    -0.248 NA
ATOM     45  C   UNL A   1      37.347  32.879  32.585  1.00  0.00     0.031 C 
ATOM     46  C   UNL A   1      38.144  30.138  28.455  1.00  0.00     0.029 A 
ATOM     47  N   UNL A   1      39.494  29.779  30.204  1.00  0.00    -0.354 N 
ATOM     48  C   UNL A   1      39.023  32.010  33.874  1.00  0.00     0.074 A 
ATOM     49  C   UNL A   1      37.935  32.957  33.769  1.00  0.00     0.031 C 
ATOM     50  C   UNL A   1      39.022  29.182  28.103  1.00  0.00     0.029 A 
ATOM     51  C   UNL A   1      39.951  28.949  29.209  1.00  0.00     0.049 A 
ATOM     52  H   UNL A   1      39.890  29.809  31.104  1.00  0.00     0.167 HD
ATOM     53  C   UNL A   1      39.770  31.832  34.989  1.00  0.00     0.037 A 
ATOM     54  C   UNL A   1      41.015  28.120  29.191  1.00  0.00     0.037 A 
ATOM     55  C   UNL A   1      40.867  30.908  35.090  1.00  0.00     0.049 A 
ATOM     56  C   UNL A   1      41.882  27.997  30.422  1.00  0.00     0.074 A 
ATOM     57  C   UNL A   1      41.682  30.651  36.178  1.00  0.00     0.029 A 
ATOM     58  N   UNL A   1      41.311  30.097  34.056  1.00  0.00    -0.354 N 
ATOM     59  N   UNL A   1      41.760  28.587  31.586  1.00  0.00    -0.248 NA
ATOM     60  C   UNL A   1      43.036  27.088  30.333  1.00  0.00     0.031 C 
ATOM     61  C   UNL A   1      42.650  29.720  35.789  1.00  0.00     0.029 A 
ATOM     62  C   UNL A   1      42.403  29.355  34.475  1.00  0.00     0.049 A 
ATOM     63  H   UNL A   1      40.909  30.056  33.158  1.00  0.00     0.167 HD
ATOM     64  C   UNL A   1      42.796  28.098  32.375  1.00  0.00     0.074 A 
ATOM     65  C   UNL A   1      43.530  27.153  31.561  1.00  0.00     0.031 C 
ATOM     66  C   UNL A   1      43.112  28.405  33.658  1.00  0.00     0.037 A 
BRANCH  53  67
ATOM     67  C   UNL A   1      39.435  32.670  36.186  1.00  0.00     0.064 A 
ATOM     68  C   UNL A   1      38.497  32.246  37.139  1.00  0.00     0.173 A 
ATOM     69  C   UNL A   1      40.081  33.896  36.401  1.00  0.00     0.173 A 
ATOM     70  F   UNL A   1      37.838  31.089  36.969  1.00  0.00    -0.203 F 
ATOM     71  C   UNL A   1      38.203  33.028  38.252  1.00  0.00     0.198 A 
ATOM     72  C   UNL A   1      39.806  34.662  37.529  1.00  0.00     0.198 A 
ATOM     73  F   UNL A   1      40.986  34.347  35.519  1.00  0.00    -0.203 F 
ATOM     74  F   UNL A   1      37.271  32.623  39.127  1.00  0.00    -0.200 F 
ATOM     75  C   UNL A   1      38.863  34.232  38.451  1.00  0.00     0.200 A 
ATOM     76  F   UNL A   1      40.453  35.820  37.726  1.00  0.00    -0.200 F 
ATOM     77  F   UNL A   1      38.586  34.980  39.527  1.00  0.00    -0.200 F 
ENDBRANCH  53  67
BRANCH  54  78
ATOM     78  C   UNL A   1      41.344  27.347  27.964  1.00  0.00     0.064 A 
ATOM     79  C   UNL A   1      40.910  26.023  27.802  1.00  0.00     0.173 A 
ATOM     80  C   UNL A   1      42.143  27.897  26.950  1.00  0.00     0.173 A 
ATOM     81  F   UNL A   1      40.170  25.440  28.757  1.00  0.00    -0.203 F 
ATOM     82  C   UNL A   1      41.284  25.272  26.689  1.00  0.00     0.198 A 
ATOM     83  C   UNL A   1      42.492  27.155  25.823  1.00  0.00     0.198 A 
ATOM     84  F   UNL A   1      42.593  29.156  27.059  1.00  0.00    -0.203 F 
ATOM     85  F   UNL A   1      40.906  23.990  26.591  1.00  0.00    -0.200 F 
ATOM     86  C   UNL A   1      42.071  25.840  25.698  1.00  0.00     0.200 A 
ATOM     87  F   UNL A   1      43.247  27.710  24.866  1.00  0.00    -0.200 F 
ATOM     88  F   UNL A   1      42.436  25.115  24.632  1.00  0.00    -0.200 F 
ENDBRANCH  54  78
BRANCH  66  89
ATOM     89  C   UNL A   1      44.270  27.678  34.283  1.00  0.00     0.064 A 
ATOM     90  C   UNL A   1      45.580  28.174  34.210  1.00  0.00     0.173 A 
ATOM     91  C   UNL A   1      44.054  26.498  35.011  1.00  0.00     0.173 A 
ATOM     92  F   UNL A   1      45.841  29.291  33.515  1.00  0.00    -0.203 F 
ATOM     93  C   UNL A   1      46.635  27.501  34.821  1.00  0.00     0.198 A 
ATOM     94  C   UNL A   1      45.106  25.844  35.648  1.00  0.00     0.198 A 
ATOM     95  F   UNL A   1      42.819  25.987  35.121  1.00  0.00    -0.203 F 
ATOM     96  F   UNL A   1      47.885  27.967  34.700  1.00  0.00    -0.200 F 
ATOM     97  C   UNL A   1      46.397  26.342  35.546  1.00  0.00     0.200 A 
ATOM     98  F   UNL A   1      44.870  24.735  36.362  1.00  0.00    -0.200 F 
ATOM     99  F   UNL A   1      47.411  25.702  36.143  1.00  0.00    -0.200 F 
ENDBRANCH  66  89
ENDBRANCH  40  41
ENDBRANCH  33  35
ENDBRANCH  32  33
ENDBRANCH  31  32
ENDBRANCH  30  31
ENDBRANCH  29  30
ENDBRANCH  28  29
ENDBRANCH   1  28
TORSDOF 21
ENDMDL
MODEL 2
REMARK VINA RESULT:     -11.3      0.960      7.044
REMARK SMILES Cc1cc(NC(=O)/C=C/c2ccco2)cc(C(=O)OCCOCCOCCOC(=O)c2ccc(-c3c4nc(c(-c5c(F)c(F)c(F)c(F)c5F)c5ccc([nH]5)c(-c5c(F)c(F)c(F)c(F)c5F)c5nc(c(-c6c(F)c(F)c(F)c(F)c6F)c6ccc3[nH]6)C=C5)C=C4)cc2)c1O
REMARK SMILES IDX 23 1 22 2 21 3 20 4 19 5 17 6 18 7 16 8 1 9 2 10 3 11 94 12
REMARK SMILES IDX 4 13 15 14 95 15 5 17 6 18 7 20 8 21 9 22 10 23 11 24 14 25
REMARK SMILES IDX 12 26 13 27 24 28 25 29 26 30 27 31 28 32 29 33 30 34 31 35
REMARK SMILES IDX 32 36 93 37 33 38 92 39 34 40 35 41 36 42 86 43 37 44 91 45
REMARK SMILES IDX 85 46 87 47 38 48 90 49 84 50 83 51 39 53 71 54 51 55 70 56
REMARK SMILES IDX 52 57 55 58 69 59 88 60 53 61 54 62 68 64 89 65 56 66 40 67
REMARK SMILES IDX 41 68 49 69 42 70 43 71 47 72 50 73 44 74 45 75 48 76 46 77
REMARK SMILES IDX 72 78 73 79 81 80 74 81 75 82 79 83 82 84 76 85 77 86 80 87
REMARK SMILES IDX 78 88 57 89 58 90 66 91 59 92 60 93 64 94 67 95 61 96 62 97
REMARK SMILES IDX 65 98 63 99
REMARK H PARENT 95 16 5 19 87 52 55 63
REMARK Flexibility Score: inf
ROOT
ATOM      1  C   UNL A   1      33.864  29.598  26.603  1.00  0.00     0.188 C 
ENDROOT
BRANCH   1   2
ATOM      2  O   UNL A   1      33.626  28.277  27.076  1.00  0.00    -0.376 OA
BRANCH   2   3
ATOM      3  C   UNL A   1      32.384  27.660  26.748  1.00  0.00     0.202 C 
BRANCH   3   4
ATOM      4  C   UNL A   1      32.380  26.136  26.591  1.00  0.00     0.261 C 
BRANCH   4   5
ATOM      5  O   UNL A   1      31.063  25.615  26.342  1.00  0.00    -0.460 OA
BRANCH   5   6
ATOM      6  C   UNL A   1      30.937  24.264  26.414  1.00  0.00     0.342 C 
ATOM      7  O   UNL A   1      30.149  23.636  27.098  1.00  0.00    -0.246 OA
BRANCH   6   8
ATOM      8  C   UNL A   1      31.868  23.658  25.434  1.00  0.00     0.104 A 
ATOM      9  C   UNL A   1      34.196  20.644  25.080  1.00  0.00     0.048 C 
ATOM     10  C   UNL A   1      33.422  21.903  24.804  1.00  0.00    -0.006 A 
ATOM     11  C   UNL A   1      33.570  22.534  23.556  1.00  0.00     0.033 A 
ATOM     12  C   UNL A   1      32.522  22.454  25.725  1.00  0.00     0.133 A 
ATOM     13  C   UNL A   1      32.865  23.702  23.223  1.00  0.00     0.042 A 
ATOM     14  C   UNL A   1      32.059  24.289  24.196  1.00  0.00     0.045 A 
BRANCH  12  15
ATOM     15  O   UNL A   1      32.225  21.812  26.896  1.00  0.00    -0.507 OA
ATOM     16  H   UNL A   1      32.411  22.224  27.717  1.00  0.00     0.293 HD
ENDBRANCH  12  15
BRANCH  13  17
ATOM     17  N   UNL A   1      33.042  24.177  21.908  1.00  0.00    -0.322 N 
ATOM     18  C   UNL A   1      32.580  25.265  21.226  1.00  0.00     0.248 C 
ATOM     19  H   UNL A   1      33.625  23.599  21.365  1.00  0.00     0.170 HD
ATOM     20  O   UNL A   1      32.966  25.477  20.078  1.00  0.00    -0.270 OA
BRANCH  18  21
ATOM     21  C   UNL A   1      31.630  26.194  21.848  1.00  0.00     0.075 C 
ATOM     22  C   UNL A   1      32.006  27.437  22.180  1.00  0.00     0.053 C 
BRANCH  22  23
ATOM     23  C   UNL A   1      31.026  28.357  22.637  1.00  0.00     0.126 A 
ATOM     24  C   UNL A   1      31.011  29.131  23.790  1.00  0.00     0.050 A 
ATOM     25  O   UNL A   1      29.893  28.666  21.917  1.00  0.00    -0.465 OA
ATOM     26  C   UNL A   1      29.845  29.932  23.759  1.00  0.00     0.042 A 
ATOM     27  C   UNL A   1      29.205  29.619  22.589  1.00  0.00     0.195 A 
ENDBRANCH  22  23
ENDBRANCH  18  21
ENDBRANCH  13  17
ENDBRANCH   6   8
ENDBRANCH   5   6
ENDBRANCH   4   5
ENDBRANCH   3   4
ENDBRANCH   2   3
ENDBRANCH   1   2
BRANCH   1  28
ATOM     28  C   UNL A   1      33.131  30.778  27.277  1.00  0.00     0.188 C 
BRANCH  28  29
ATOM     29  O   UNL A   1      31.917  31.150  26.643  1.00  0.00    -0.376 OA
BRANCH  29  30
ATOM     30  C   UNL A   1      31.524  32.507  26.785  1.00  0.00     0.202 C 
BRANCH  30  31
ATOM     31  C   UNL A   1      32.629  33.448  27.279  1.00  0.00     0.261 C 
BRANCH  31  32
ATOM     32  O   UNL A   1      32.247  34.334  28.341  1.00  0.00    -0.460 OA
BRANCH  32  33
ATOM     33  C   UNL A   1      33.151  35.254  28.745  1.00  0.00     0.338 C 
ATOM     34  O   UNL A   1      33.005  36.463  28.790  1.00  0.00    -0.246 OA
BRANCH  33  35
ATOM     35  C   UNL A   1      34.296  34.520  29.325  1.00  0.00     0.060 A 
ATOM     36  C   UNL A   1      34.071  33.669  30.416  1.00  0.00     0.016 A 
ATOM     37  C   UNL A   1      35.570  34.621  28.759  1.00  0.00     0.016 A 
ATOM     38  C   UNL A   1      35.126  32.926  30.950  1.00  0.00     0.010 A 
ATOM     39  C   UNL A   1      36.629  33.894  29.307  1.00  0.00     0.010 A 
ATOM     40  C   UNL A   1      36.417  33.059  30.417  1.00  0.00    -0.014 A 
BRANCH  40  41
ATOM     41  C   UNL A   1      37.580  32.481  31.134  1.00  0.00     0.031 A 
ATOM     42  C   UNL A   1      38.323  31.348  30.481  1.00  0.00     0.074 A 
ATOM     43  C   UNL A   1      37.970  32.942  32.335  1.00  0.00     0.049 A 
ATOM     44  N   UNL A   1      39.335  30.649  30.924  1.00  0.00    -0.248 NA
ATOM     45  C   UNL A   1      37.855  30.952  29.143  1.00  0.00     0.031 C 
ATOM     46  C   UNL A   1      37.348  34.044  33.065  1.00  0.00     0.029 A 
ATOM     47  N   UNL A   1      38.984  32.519  33.162  1.00  0.00    -0.354 N 
ATOM     48  C   UNL A   1      39.627  29.735  29.921  1.00  0.00     0.074 A 
ATOM     49  C   UNL A   1      38.668  29.945  28.859  1.00  0.00     0.031 C 
ATOM     50  C   UNL A   1      37.982  34.200  34.241  1.00  0.00     0.029 A 
ATOM     51  C   UNL A   1      39.034  33.189  34.361  1.00  0.00     0.049 A 
ATOM     52  H   UNL A   1      39.614  31.803  32.919  1.00  0.00     0.167 HD
ATOM     53  C   UNL A   1      40.612  28.808  29.882  1.00  0.00     0.037 A 
ATOM     54  C   UNL A   1      39.822  32.988  35.436  1.00  0.00     0.037 A 
ATOM     55  C   UNL A   1      41.554  28.581  30.944  1.00  0.00     0.049 A 
ATOM     56  C   UNL A   1      40.863  31.893  35.399  1.00  0.00     0.074 A 
ATOM     57  C   UNL A   1      42.592  27.668  30.998  1.00  0.00     0.029 A 
ATOM     58  N   UNL A   1      41.563  29.269  32.149  1.00  0.00    -0.354 N 
ATOM     59  N   UNL A   1      41.159  31.061  34.431  1.00  0.00    -0.248 NA
ATOM     60  C   UNL A   1      41.680  31.713  36.610  1.00  0.00     0.031 C 
ATOM     61  C   UNL A   1      43.199  27.769  32.253  1.00  0.00     0.029 A 
ATOM     62  C   UNL A   1      42.574  28.784  32.961  1.00  0.00     0.049 A 
ATOM     63  H   UNL A   1      40.941  29.993  32.390  1.00  0.00     0.167 HD
ATOM     64  C   UNL A   1      42.214  30.285  34.900  1.00  0.00     0.074 A 
ATOM     65  C   UNL A   1      42.515  30.754  36.236  1.00  0.00     0.031 C 
ATOM     66  C   UNL A   1      42.873  29.274  34.281  1.00  0.00     0.037 A 
BRANCH  53  67
ATOM     67  C   UNL A   1      40.708  27.954  28.653  1.00  0.00     0.064 A 
ATOM     68  C   UNL A   1      40.015  26.738  28.549  1.00  0.00     0.173 A 
ATOM     69  C   UNL A   1      41.475  28.369  27.555  1.00  0.00     0.173 A 
ATOM     70  F   UNL A   1      39.283  26.288  29.580  1.00  0.00    -0.203 F 
ATOM     71  C   UNL A   1      40.103  25.960  27.398  1.00  0.00     0.198 A 
ATOM     72  C   UNL A   1      41.537  27.603  26.395  1.00  0.00     0.198 A 
ATOM     73  F   UNL A   1      42.156  29.524  27.604  1.00  0.00    -0.203 F 
ATOM     74  F   UNL A   1      39.467  24.781  27.337  1.00  0.00    -0.200 F 
ATOM     75  C   UNL A   1      40.857  26.397  26.319  1.00  0.00     0.200 A 
ATOM     76  F   UNL A   1      42.258  28.031  25.348  1.00  0.00    -0.200 F 
ATOM     77  F   UNL A   1      40.934  25.651  25.208  1.00  0.00    -0.200 F 
ENDBRANCH  53  67
BRANCH  54  78
ATOM     78  C   UNL A   1      39.657  33.823  36.656  1.00  0.00     0.064 A 
ATOM     79  C   UNL A   1      38.853  33.397  37.723  1.00  0.00     0.173 A 
ATOM     80  C   UNL A   1      40.258  35.086  36.759  1.00  0.00     0.173 A 
ATOM     81  F   UNL A   1      38.231  32.210  37.659  1.00  0.00    -0.203 F 
ATOM     82  C   UNL A   1      38.635  34.213  38.831  1.00  0.00     0.198 A 
ATOM     83  C   UNL A   1      40.064  35.889  37.881  1.00  0.00     0.198 A 
ATOM     84  F   UNL A   1      41.030  35.546  35.763  1.00  0.00    -0.203 F 
ATOM     85  F   UNL A   1      37.811  33.806  39.808  1.00  0.00    -0.200 F 
ATOM     86  C   UNL A   1      39.244  35.456  38.913  1.00  0.00     0.200 A 
ATOM     87  F   UNL A   1      40.659  37.086  37.958  1.00  0.00    -0.200 F 
ATOM     88  F   UNL A   1      39.027  36.243  39.975  1.00  0.00    -0.200 F 
ENDBRANCH  54  78
BRANCH  66  89
ATOM     89  C   UNL A   1      44.019  28.637  35.016  1.00  0.00     0.064 A 
ATOM     90  C   UNL A   1      45.325  29.141  34.931  1.00  0.00     0.173 A 
ATOM     91  C   UNL A   1      43.794  27.538  35.861  1.00  0.00     0.173 A 
ATOM     92  F   UNL A   1      45.595  30.181  34.129  1.00  0.00    -0.203 F 
ATOM     93  C   UNL A   1      46.367  28.553  35.644  1.00  0.00     0.198 A 
ATOM     94  C   UNL A   1      44.832  26.973  36.597  1.00  0.00     0.198 A 
ATOM     95  F   UNL A   1      42.561  27.023  35.986  1.00  0.00    -0.203 F 
ATOM     96  F   UNL A   1      47.615  29.023  35.512  1.00  0.00    -0.200 F 
ATOM     97  C   UNL A   1      46.119  27.476  36.481  1.00  0.00     0.200 A 
ATOM     98  F   UNL A   1      44.586  25.943  37.418  1.00  0.00    -0.200 F 
ATOM     99  F   UNL A   1      47.121  26.919  37.175  1.00  0.00    -0.200 F 
ENDBRANCH  66  89
ENDBRANCH  40  41
ENDBRANCH  33  35
ENDBRANCH  32  33
ENDBRANCH  31  32
ENDBRANCH  30  31
ENDBRANCH  29  30
ENDBRANCH  28  29
ENDBRANCH   1  28
TORSDOF 21
ENDMDL
MODEL 3
REMARK VINA RESULT:     -11.1      1.345      3.385
REMARK SMILES Cc1cc(NC(=O)/C=C/c2ccco2)cc(C(=O)OCCOCCOCCOC(=O)c2ccc(-c3c4nc(c(-c5c(F)c(F)c(F)c(F)c5F)c5ccc([nH]5)c(-c5c(F)c(F)c(F)c(F)c5F)c5nc(c(-c6c(F)c(F)c(F)c(F)c6F)c6ccc3[nH]6)C=C5)C=C4)cc2)c1O
REMARK SMILES IDX 23 1 22 2 21 3 20 4 19 5 17 6 18 7 16 8 1 9 2 10 3 11 94 12
REMARK SMILES IDX 4 13 15 14 95 15 5 17 6 18 7 20 8 21 9 22 10 23 11 24 14 25
REMARK SMILES IDX 12 26 13 27 24 28 25 29 26 30 27 31 28 32 29 33 30 34 31 35
REMARK SMILES IDX 32 36 93 37 33 38 92 39 34 40 35 41 36 42 86 43 37 44 91 45
REMARK SMILES IDX 85 46 87 47 38 48 90 49 84 50 83 51 39 53 71 54 51 55 70 56
REMARK SMILES IDX 52 57 55 58 69 59 88 60 53 61 54 62 68 64 89 65 56 66 40 67
REMARK SMILES IDX 41 68 49 69 42 70 43 71 47 72 50 73 44 74 45 75 48 76 46 77
REMARK SMILES IDX 72 78 73 79 81 80 74 81 75 82 79 83 82 84 76 85 77 86 80 87
REMARK SMILES IDX 78 88 57 89 58 90 66 91 59 92 60 93 64 94 67 95 61 96 62 97
REMARK SMILES IDX 65 98 63 99
REMARK H PARENT 95 16 5 19 87 52 55 63
REMARK Flexibility Score: inf
ROOT
ATOM      1  C   UNL A   1      33.958  29.962  26.180  1.00  0.00     0.188 C 
ENDROOT
BRANCH   1   2
ATOM      2  O   UNL A   1      34.292  28.578  26.154  1.00  0.00    -0.376 OA
BRANCH   2   3
ATOM      3  C   UNL A   1      33.324  27.664  25.645  1.00  0.00     0.202 C 
BRANCH   3   4
ATOM      4  C   UNL A   1      33.775  26.215  25.434  1.00  0.00     0.261 C 
BRANCH   4   5
ATOM      5  O   UNL A   1      33.511  25.749  24.100  1.00  0.00    -0.460 OA
BRANCH   5   6
ATOM      6  C   UNL A   1      32.216  25.444  23.825  1.00  0.00     0.342 C 
ATOM      7  O   UNL A   1      31.467  26.037  23.070  1.00  0.00    -0.246 OA
BRANCH   6   8
ATOM      8  C   UNL A   1      31.876  24.188  24.533  1.00  0.00     0.104 A 
ATOM      9  C   UNL A   1      29.472  22.894  27.212  1.00  0.00     0.048 C 
ATOM     10  C   UNL A   1      30.538  22.976  26.155  1.00  0.00    -0.006 A 
ATOM     11  C   UNL A   1      31.240  21.808  25.805  1.00  0.00     0.033 A 
ATOM     12  C   UNL A   1      30.835  24.160  25.470  1.00  0.00     0.133 A 
ATOM     13  C   UNL A   1      32.236  21.806  24.815  1.00  0.00     0.042 A 
ATOM     14  C   UNL A   1      32.586  23.019  24.225  1.00  0.00     0.045 A 
BRANCH  12  15
ATOM     15  O   UNL A   1      30.092  25.293  25.661  1.00  0.00    -0.507 OA
ATOM     16  H   UNL A   1      29.727  25.478  26.503  1.00  0.00     0.293 HD
ENDBRANCH  12  15
BRANCH  13  17
ATOM     17  N   UNL A   1      32.795  20.550  24.503  1.00  0.00    -0.322 N 
ATOM     18  C   UNL A   1      34.014  19.978  24.724  1.00  0.00     0.248 C 
ATOM     19  H   UNL A   1      32.172  19.959  24.023  1.00  0.00     0.170 HD
ATOM     20  O   UNL A   1      34.209  18.808  24.399  1.00  0.00    -0.270 OA
BRANCH  18  21
ATOM     21  C   UNL A   1      35.099  20.740  25.351  1.00  0.00     0.075 C 
ATOM     22  C   UNL A   1      35.947  21.464  24.606  1.00  0.00     0.053 C 
BRANCH  22  23
ATOM     23  C   UNL A   1      36.887  22.309  25.252  1.00  0.00     0.126 A 
ATOM     24  C   UNL A   1      36.769  23.644  25.617  1.00  0.00     0.050 A 
ATOM     25  O   UNL A   1      38.120  21.871  25.682  1.00  0.00    -0.465 OA
ATOM     26  C   UNL A   1      37.956  24.017  26.291  1.00  0.00     0.042 A 
ATOM     27  C   UNL A   1      38.742  22.894  26.315  1.00  0.00     0.195 A 
ENDBRANCH  22  23
ENDBRANCH  18  21
ENDBRANCH  13  17
ENDBRANCH   6   8
ENDBRANCH   5   6
ENDBRANCH   4   5
ENDBRANCH   3   4
ENDBRANCH   2   3
ENDBRANCH   1   2
BRANCH   1  28
ATOM     28  C   UNL A   1      33.024  30.486  27.292  1.00  0.00     0.188 C 
BRANCH  28  29
ATOM     29  O   UNL A   1      31.726  30.843  26.844  1.00  0.00    -0.376 OA
BRANCH  29  30
ATOM     30  C   UNL A   1      31.436  32.232  26.800  1.00  0.00     0.202 C 
BRANCH  30  31
ATOM     31  C   UNL A   1      32.633  33.148  27.083  1.00  0.00     0.261 C 
BRANCH  31  32
ATOM     32  O   UNL A   1      32.539  33.921  28.288  1.00  0.00    -0.460 OA
BRANCH  32  33
ATOM     33  C   UNL A   1      33.585  34.718  28.605  1.00  0.00     0.338 C 
ATOM     34  O   UNL A   1      33.588  35.933  28.691  1.00  0.00    -0.246 OA
BRANCH  33  35
ATOM     35  C   UNL A   1      34.692  33.837  29.036  1.00  0.00     0.060 A 
ATOM     36  C   UNL A   1      34.391  32.685  29.775  1.00  0.00     0.016 A 
ATOM     37  C   UNL A   1      36.010  34.113  28.662  1.00  0.00     0.016 A 
ATOM     38  C   UNL A   1      35.414  31.811  30.151  1.00  0.00     0.010 A 
ATOM     39  C   UNL A   1      37.035  33.250  29.057  1.00  0.00     0.010 A 
ATOM     40  C   UNL A   1      36.744  32.106  29.820  1.00  0.00    -0.014 A 
BRANCH  40  41
ATOM     41  C   UNL A   1      37.852  31.331  30.432  1.00  0.00     0.031 A 
ATOM     42  C   UNL A   1      38.203  31.612  31.867  1.00  0.00     0.074 A 
ATOM     43  C   UNL A   1      38.533  30.403  29.738  1.00  0.00     0.049 A 
ATOM     44  N   UNL A   1      39.155  31.105  32.608  1.00  0.00    -0.248 NA
ATOM     45  C   UNL A   1      37.364  32.603  32.559  1.00  0.00     0.031 C 
ATOM     46  C   UNL A   1      38.279  30.024  28.350  1.00  0.00     0.029 A 
ATOM     47  N   UNL A   1      39.599  29.620  30.112  1.00  0.00    -0.354 N 
ATOM     48  C   UNL A   1      39.027  31.711  33.850  1.00  0.00     0.074 A 
ATOM     49  C   UNL A   1      37.928  32.647  33.757  1.00  0.00     0.031 C 
ATOM     50  C   UNL A   1      39.177  29.093  27.982  1.00  0.00     0.029 A 
ATOM     51  C   UNL A   1      40.088  28.832  29.097  1.00  0.00     0.049 A 
ATOM     52  H   UNL A   1      39.977  29.623  31.021  1.00  0.00     0.167 HD
ATOM     53  C   UNL A   1      39.754  31.503  34.972  1.00  0.00     0.037 A 
ATOM     54  C   UNL A   1      41.162  28.018  29.071  1.00  0.00     0.037 A 
ATOM     55  C   UNL A   1      40.861  30.590  35.061  1.00  0.00     0.049 A 
ATOM     56  C   UNL A   1      42.007  27.863  30.314  1.00  0.00     0.074 A 
ATOM     57  C   UNL A   1      41.659  30.305  36.156  1.00  0.00     0.029 A 
ATOM     58  N   UNL A   1      41.336  29.822  34.008  1.00  0.00    -0.354 N 
ATOM     59  N   UNL A   1      41.854  28.408  31.496  1.00  0.00    -0.248 NA
ATOM     60  C   UNL A   1      43.175  26.972  30.216  1.00  0.00     0.031 C 
ATOM     61  C   UNL A   1      42.647  29.401  35.753  1.00  0.00     0.029 A 
ATOM     62  C   UNL A   1      42.430  29.080  34.422  1.00  0.00     0.049 A 
ATOM     63  H   UNL A   1      40.953  29.808  33.102  1.00  0.00     0.167 HD
ATOM     64  C   UNL A   1      42.881  27.905  32.288  1.00  0.00     0.074 A 
ATOM     65  C   UNL A   1      43.644  26.999  31.455  1.00  0.00     0.031 C 
ATOM     66  C   UNL A   1      43.168  28.169  33.586  1.00  0.00     0.037 A 
BRANCH  53  67
ATOM     67  C   UNL A   1      39.384  32.293  36.191  1.00  0.00     0.064 A 
ATOM     68  C   UNL A   1      39.987  33.528  36.475  1.00  0.00     0.173 A 
ATOM     69  C   UNL A   1      38.394  31.828  37.068  1.00  0.00     0.173 A 
ATOM     70  F   UNL A   1      40.953  34.007  35.676  1.00  0.00    -0.203 F 
ATOM     71  C   UNL A   1      39.626  34.258  37.604  1.00  0.00     0.198 A 
ATOM     72  C   UNL A   1      38.015  32.574  38.180  1.00  0.00     0.198 A 
ATOM     73  F   UNL A   1      37.787  30.653  36.841  1.00  0.00    -0.203 F 
ATOM     74  F   UNL A   1      40.246  35.414  37.879  1.00  0.00    -0.200 F 
ATOM     75  C   UNL A   1      38.635  33.784  38.452  1.00  0.00     0.200 A 
ATOM     76  F   UNL A   1      37.050  32.120  38.993  1.00  0.00    -0.200 F 
ATOM     77  F   UNL A   1      38.283  34.492  39.533  1.00  0.00    -0.200 F 
ENDBRANCH  53  67
BRANCH  54  78
ATOM     78  C   UNL A   1      41.526  27.294  27.824  1.00  0.00     0.064 A 
ATOM     79  C   UNL A   1      41.237  25.930  27.666  1.00  0.00     0.173 A 
ATOM     80  C   UNL A   1      42.216  27.936  26.785  1.00  0.00     0.173 A 
ATOM     81  F   UNL A   1      40.607  25.263  28.644  1.00  0.00    -0.203 F 
ATOM     82  C   UNL A   1      41.648  25.233  26.531  1.00  0.00     0.198 A 
ATOM     83  C   UNL A   1      42.600  27.245  25.637  1.00  0.00     0.198 A 
ATOM     84  F   UNL A   1      42.525  29.237  26.888  1.00  0.00    -0.203 F 
ATOM     85  F   UNL A   1      41.413  23.917  26.435  1.00  0.00    -0.200 F 
ATOM     86  C   UNL A   1      42.324  25.891  25.515  1.00  0.00     0.200 A 
ATOM     87  F   UNL A   1      43.247  27.887  24.656  1.00  0.00    -0.200 F 
ATOM     88  F   UNL A   1      42.725  25.219  24.429  1.00  0.00    -0.200 F 
ENDBRANCH  54  78
BRANCH  66  89
ATOM     89  C   UNL A   1      44.323  27.436  34.208  1.00  0.00     0.064 A 
ATOM     90  C   UNL A   1      44.170  26.168  34.786  1.00  0.00     0.173 A 
ATOM     91  C   UNL A   1      45.613  27.990  34.174  1.00  0.00     0.173 A 
ATOM     92  F   UNL A   1      42.956  25.600  34.855  1.00  0.00    -0.203 F 
ATOM     93  C   UNL A   1      45.259  25.492  35.331  1.00  0.00     0.198 A 
ATOM     94  C   UNL A   1      46.706  27.298  34.691  1.00  0.00     0.198 A 
ATOM     95  F   UNL A   1      45.816  29.196  33.624  1.00  0.00    -0.203 F 
ATOM     96  F   UNL A   1      45.081  24.302  35.919  1.00  0.00    -0.200 F 
ATOM     97  C   UNL A   1      46.526  26.054  35.275  1.00  0.00     0.200 A 
ATOM     98  F   UNL A   1      47.931  27.836  34.621  1.00  0.00    -0.200 F 
ATOM     99  F   UNL A   1      47.576  25.397  35.790  1.00  0.00    -0.200 F 
ENDBRANCH  66  89
ENDBRANCH  40  41
ENDBRANCH  33  35
ENDBRANCH  32  33
ENDBRANCH  31  32
ENDBRANCH  30  31
ENDBRANCH  29  30
ENDBRANCH  28  29
ENDBRANCH   1  28
TORSDOF 21
ENDMDL
