MODEL 1
REMARK VINA RESULT:      -8.1      0.000      0.000
REMARK SMILES CCCCCCNC(=O)Oc1cccc(-c2ccc([C@@H](C)C(=O)OCCOCCOCCOC(=O)c3ccc(-c4c5nc(c(-c6c(F)c(F)c(F)c(F)c6F)c6ccc([nH]6)c(-c6c(F)c(F)c(F)c(F)c6F)c6nc(c(-c7c(F)c(F)c(F)c(F)c7F)c7ccc4[nH]7)C=C6)C=C5)cc3)cc2C(F)(F)F)c1
REMARK SMILES IDX 25 1 24 2 22 3 23 4 20 5 21 6 19 7 16 8 17 9 100 10 18 11
REMARK SMILES IDX 99 12 15 13 11 14 12 15 105 16 13 17 14 18 10 19 8 20 7 21
REMARK SMILES IDX 9 23 6 24 5 25 4 26 3 27 2 28 1 29 101 30 102 31 103 32
REMARK SMILES IDX 104 33 26 34 27 35 28 36 29 37 30 38 31 39 32 40 33 41 34 42
REMARK SMILES IDX 35 43 36 44 37 45 98 46 38 47 97 48 39 49 40 50 41 51 91 52
REMARK SMILES IDX 42 53 96 54 90 55 92 56 43 57 95 58 89 59 88 60 44 62 76 63
REMARK SMILES IDX 56 64 75 65 57 66 60 67 74 68 93 69 58 70 59 71 73 73 94 74
REMARK SMILES IDX 61 75 45 76 46 77 54 78 47 79 48 80 52 81 55 82 49 83 50 84
REMARK SMILES IDX 53 85 51 86 77 87 78 88 86 89 79 90 80 91 84 92 87 93 81 94
REMARK SMILES IDX 82 95 85 96 83 97 62 98 63 99 71 100 64 101 65 102 69 103
REMARK SMILES IDX 72 104 66 105 67 106 70 107 68 108
REMARK H PARENT 7 22 92 61 60 72
REMARK Flexibility Score: inf
ROOT
ATOM      1  C   UNL A   1      45.930  25.125  32.168  1.00  0.00     0.261 C 
ENDROOT
BRANCH   1   2
ATOM      2  O   UNL A   1      45.635  24.862  33.558  1.00  0.00    -0.463 OA
BRANCH   2   3
ATOM      3  C   UNL A   1      44.323  24.865  33.903  1.00  0.00     0.313 C 
ATOM      4  O   UNL A   1      43.568  25.810  33.681  1.00  0.00    -0.252 OA
BRANCH   3   5
ATOM      5  C   UNL A   1      43.804  23.611  34.605  1.00  0.00     0.126 C 
ATOM      6  C   UNL A   1      42.607  24.000  35.474  1.00  0.00     0.025 C 
BRANCH   5   7
ATOM      7  C   UNL A   1      44.734  22.674  35.374  1.00  0.00    -0.033 A 
ATOM      8  C   UNL A   1      46.595  21.074  36.877  1.00  0.00    -0.006 A 
ATOM      9  C   UNL A   1      46.112  20.680  35.609  1.00  0.00     0.009 A 
ATOM     10  C   UNL A   1      46.143  22.307  37.391  1.00  0.00     0.064 A 
ATOM     11  C   UNL A   1      45.219  21.470  34.862  1.00  0.00     0.005 A 
ATOM     12  C   UNL A   1      45.208  23.070  36.642  1.00  0.00     0.018 A 
BRANCH   8  13
ATOM     13  C   UNL A   1      47.614  20.240  37.556  1.00  0.00    -0.014 A 
ATOM     14  C   UNL A   1      48.319  18.688  39.290  1.00  0.00     0.133 A 
ATOM     15  C   UNL A   1      49.658  18.858  38.942  1.00  0.00     0.047 A 
ATOM     16  C   UNL A   1      47.295  19.351  38.601  1.00  0.00     0.056 A 
ATOM     17  C   UNL A   1      49.983  19.699  37.883  1.00  0.00     0.004 A 
ATOM     18  C   UNL A   1      48.972  20.387  37.205  1.00  0.00     0.009 A 
BRANCH  14  19
ATOM     19  O   UNL A   1      48.080  17.972  40.480  1.00  0.00    -0.410 OA
BRANCH  19  20
ATOM     20  C   UNL A   1      47.593  18.629  41.600  1.00  0.00     0.412 C 
ATOM     21  N   UNL A   1      46.461  18.048  42.111  1.00  0.00    -0.321 N 
ATOM     22  H   UNL A   1      46.097  18.449  42.932  1.00  0.00     0.167 HD
ATOM     23  O   UNL A   1      48.072  19.636  42.102  1.00  0.00    -0.224 OA
BRANCH  21  24
ATOM     24  C   UNL A   1      45.742  16.906  41.575  1.00  0.00     0.119 C 
BRANCH  24  25
ATOM     25  C   UNL A   1      44.607  17.315  40.633  1.00  0.00     0.021 C 
BRANCH  25  26
ATOM     26  C   UNL A   1      44.502  16.493  39.342  1.00  0.00     0.002 C 
BRANCH  26  27
ATOM     27  C   UNL A   1      43.295  15.553  39.248  1.00  0.00    -0.000 C 
BRANCH  27  28
ATOM     28  C   UNL A   1      42.302  15.632  40.412  1.00  0.00    -0.003 C 
ATOM     29  C   UNL A   1      42.351  14.422  41.332  1.00  0.00     0.004 C 
ENDBRANCH  27  28
ENDBRANCH  26  27
ENDBRANCH  25  26
ENDBRANCH  24  25
ENDBRANCH  21  24
ENDBRANCH  19  20
ENDBRANCH  14  19
ENDBRANCH   8  13
BRANCH  10  30
ATOM     30  C   UNL A   1      46.606  22.877  38.718  1.00  0.00     0.417 C 
ATOM     31  F   UNL A   1      46.207  24.174  38.888  1.00  0.00    -0.166 F 
ATOM     32  F   UNL A   1      46.073  22.203  39.776  1.00  0.00    -0.166 F 
ATOM     33  F   UNL A   1      47.950  22.898  38.917  1.00  0.00    -0.166 F 
ENDBRANCH  10  30
ENDBRANCH   5   7
ENDBRANCH   3   5
ENDBRANCH   2   3
ENDBRANCH   1   2
BRANCH   1  34
ATOM     34  C   UNL A   1      47.413  25.360  31.858  1.00  0.00     0.202 C 
BRANCH  34  35
ATOM     35  O   UNL A   1      47.867  26.706  31.856  1.00  0.00    -0.376 OA
BRANCH  35  36
ATOM     36  C   UNL A   1      48.624  27.190  30.752  1.00  0.00     0.188 C 
BRANCH  36  37
ATOM     37  C   UNL A   1      49.984  27.863  30.986  1.00  0.00     0.188 C 
BRANCH  37  38
ATOM     38  O   UNL A   1      50.843  27.155  31.859  1.00  0.00    -0.376 OA
BRANCH  38  39
ATOM     39  C   UNL A   1      51.876  27.927  32.446  1.00  0.00     0.202 C 
BRANCH  39  40
ATOM     40  C   UNL A   1      51.662  28.058  33.957  1.00  0.00     0.261 C 
BRANCH  40  41
ATOM     41  O   UNL A   1      50.434  28.720  34.324  1.00  0.00    -0.460 OA
BRANCH  41  42
ATOM     42  C   UNL A   1      49.440  27.913  34.759  1.00  0.00     0.338 C 
ATOM     43  O   UNL A   1      49.553  26.912  35.440  1.00  0.00    -0.246 OA
BRANCH  42  44
ATOM     44  C   UNL A   1      48.139  28.551  34.463  1.00  0.00     0.060 A 
ATOM     45  C   UNL A   1      46.979  27.922  34.928  1.00  0.00     0.016 A 
ATOM     46  C   UNL A   1      48.052  29.713  33.697  1.00  0.00     0.016 A 
ATOM     47  C   UNL A   1      45.722  28.412  34.574  1.00  0.00     0.010 A 
ATOM     48  C   UNL A   1      46.791  30.200  33.330  1.00  0.00     0.010 A 
ATOM     49  C   UNL A   1      45.622  29.524  33.727  1.00  0.00    -0.014 A 
BRANCH  49  50
ATOM     50  C   UNL A   1      44.319  29.827  33.083  1.00  0.00     0.031 A 
ATOM     51  C   UNL A   1      44.030  29.215  31.737  1.00  0.00     0.074 A 
ATOM     52  C   UNL A   1      43.389  30.587  33.689  1.00  0.00     0.049 A 
ATOM     53  N   UNL A   1      42.979  29.348  30.968  1.00  0.00    -0.248 NA
ATOM     54  C   UNL A   1      45.071  28.332  31.183  1.00  0.00     0.031 C 
ATOM     55  C   UNL A   1      43.525  31.205  35.006  1.00  0.00     0.029 A 
ATOM     56  N   UNL A   1      42.140  30.970  33.264  1.00  0.00    -0.354 N 
ATOM     57  C   UNL A   1      43.238  28.579  29.840  1.00  0.00     0.074 A 
ATOM     58  C   UNL A   1      44.553  28.003  30.009  1.00  0.00     0.031 C 
ATOM     59  C   UNL A   1      42.407  31.904  35.276  1.00  0.00     0.029 A 
ATOM     60  C   UNL A   1      41.489  31.804  34.142  1.00  0.00     0.049 A 
ATOM     61  H   UNL A   1      41.747  30.675  32.411  1.00  0.00     0.167 HD
ATOM     62  C   UNL A   1      42.446  28.363  28.764  1.00  0.00     0.037 A 
ATOM     63  C   UNL A   1      40.300  32.429  34.028  1.00  0.00     0.037 A 
ATOM     64  C   UNL A   1      41.127  28.915  28.602  1.00  0.00     0.049 A 
ATOM     65  C   UNL A   1      39.462  32.212  32.791  1.00  0.00     0.074 A 
ATOM     66  C   UNL A   1      40.235  28.720  27.561  1.00  0.00     0.029 A 
ATOM     67  N   UNL A   1      40.514  29.771  29.501  1.00  0.00    -0.354 N 
ATOM     68  N   UNL A   1      39.697  31.453  31.748  1.00  0.00    -0.248 NA
ATOM     69  C   UNL A   1      38.185  32.940  32.718  1.00  0.00     0.031 C 
ATOM     70  C   UNL A   1      39.103  29.503  27.805  1.00  0.00     0.029 A 
ATOM     71  C   UNL A   1      39.266  30.138  29.026  1.00  0.00     0.049 A 
ATOM     72  H   UNL A   1      40.906  30.074  30.352  1.00  0.00     0.167 HD
ATOM     73  C   UNL A   1      38.591  31.587  30.917  1.00  0.00     0.074 A 
ATOM     74  C   UNL A   1      37.674  32.484  31.585  1.00  0.00     0.031 C 
ATOM     75  C   UNL A   1      38.356  31.022  29.707  1.00  0.00     0.037 A 
BRANCH  62  76
ATOM     76  C   UNL A   1      42.988  27.507  27.658  1.00  0.00     0.064 A 
ATOM     77  C   UNL A   1      43.838  28.025  26.671  1.00  0.00     0.173 A 
ATOM     78  C   UNL A   1      42.697  26.134  27.623  1.00  0.00     0.173 A 
ATOM     79  F   UNL A   1      44.132  29.334  26.652  1.00  0.00    -0.203 F 
ATOM     80  C   UNL A   1      44.370  27.202  25.683  1.00  0.00     0.198 A 
ATOM     81  C   UNL A   1      43.253  25.310  26.650  1.00  0.00     0.198 A 
ATOM     82  F   UNL A   1      41.889  25.591  28.545  1.00  0.00    -0.203 F 
ATOM     83  F   UNL A   1      45.155  27.724  24.729  1.00  0.00    -0.200 F 
ATOM     84  C   UNL A   1      44.087  25.844  25.679  1.00  0.00     0.200 A 
ATOM     85  F   UNL A   1      42.987  23.996  26.655  1.00  0.00    -0.200 F 
ATOM     86  F   UNL A   1      44.613  25.051  24.737  1.00  0.00    -0.200 F 
ENDBRANCH  62  76
BRANCH  63  87
ATOM     87  C   UNL A   1      39.827  33.350  35.098  1.00  0.00     0.064 A 
ATOM     88  C   UNL A   1      40.238  34.691  35.137  1.00  0.00     0.173 A 
ATOM     89  C   UNL A   1      39.012  32.888  36.141  1.00  0.00     0.173 A 
ATOM     90  F   UNL A   1      41.043  35.173  34.180  1.00  0.00    -0.203 F 
ATOM     91  C   UNL A   1      39.880  35.522  36.198  1.00  0.00     0.198 A 
ATOM     92  C   UNL A   1      38.628  33.729  37.184  1.00  0.00     0.198 A 
ATOM     93  F   UNL A   1      38.596  31.612  36.157  1.00  0.00    -0.203 F 
ATOM     94  F   UNL A   1      40.347  36.777  36.247  1.00  0.00    -0.200 F 
ATOM     95  C   UNL A   1      39.074  35.042  37.218  1.00  0.00     0.200 A 
ATOM     96  F   UNL A   1      37.843  33.263  38.163  1.00  0.00    -0.200 F 
ATOM     97  F   UNL A   1      38.741  35.838  38.243  1.00  0.00    -0.200 F 
ENDBRANCH  63  87
BRANCH  75  98
ATOM     98  C   UNL A   1      37.043  31.324  29.042  1.00  0.00     0.064 A 
ATOM     99  C   UNL A   1      36.036  30.354  28.923  1.00  0.00     0.173 A 
ATOM    100  C   UNL A   1      36.775  32.612  28.553  1.00  0.00     0.173 A 
ATOM    101  F   UNL A   1      36.246  29.106  29.364  1.00  0.00    -0.203 F 
ATOM    102  C   UNL A   1      34.822  30.656  28.311  1.00  0.00     0.198 A 
ATOM    103  C   UNL A   1      35.548  32.918  27.972  1.00  0.00     0.198 A 
ATOM    104  F   UNL A   1      37.699  33.580  28.651  1.00  0.00    -0.203 F 
ATOM    105  F   UNL A   1      33.896  29.699  28.161  1.00  0.00    -0.200 F 
ATOM    106  C   UNL A   1      34.576  31.937  27.842  1.00  0.00     0.200 A 
ATOM    107  F   UNL A   1      35.305  34.161  27.535  1.00  0.00    -0.200 F 
ATOM    108  F   UNL A   1      33.404  32.226  27.259  1.00  0.00    -0.200 F 
ENDBRANCH  75  98
ENDBRANCH  49  50
ENDBRANCH  42  44
ENDBRANCH  41  42
ENDBRANCH  40  41
ENDBRANCH  39  40
ENDBRANCH  38  39
ENDBRANCH  37  38
ENDBRANCH  36  37
ENDBRANCH  35  36
ENDBRANCH  34  35
ENDBRANCH   1  34
TORSDOF 27
ENDMDL
MODEL 2
REMARK VINA RESULT:      -8.0      9.838     14.592
REMARK SMILES CCCCCCNC(=O)Oc1cccc(-c2ccc([C@@H](C)C(=O)OCCOCCOCCOC(=O)c3ccc(-c4c5nc(c(-c6c(F)c(F)c(F)c(F)c6F)c6ccc([nH]6)c(-c6c(F)c(F)c(F)c(F)c6F)c6nc(c(-c7c(F)c(F)c(F)c(F)c7F)c7ccc4[nH]7)C=C6)C=C5)cc3)cc2C(F)(F)F)c1
REMARK SMILES IDX 25 1 24 2 22 3 23 4 20 5 21 6 19 7 16 8 17 9 100 10 18 11
REMARK SMILES IDX 99 12 15 13 11 14 12 15 105 16 13 17 14 18 10 19 8 20 7 21
REMARK SMILES IDX 9 23 6 24 5 25 4 26 3 27 2 28 1 29 101 30 102 31 103 32
REMARK SMILES IDX 104 33 26 34 27 35 28 36 29 37 30 38 31 39 32 40 33 41 34 42
REMARK SMILES IDX 35 43 36 44 37 45 98 46 38 47 97 48 39 49 40 50 41 51 91 52
REMARK SMILES IDX 42 53 96 54 90 55 92 56 43 57 95 58 89 59 88 60 44 62 76 63
REMARK SMILES IDX 56 64 75 65 57 66 60 67 74 68 93 69 58 70 59 71 73 73 94 74
REMARK SMILES IDX 61 75 45 76 46 77 54 78 47 79 48 80 52 81 55 82 49 83 50 84
REMARK SMILES IDX 53 85 51 86 77 87 78 88 86 89 79 90 80 91 84 92 87 93 81 94
REMARK SMILES IDX 82 95 85 96 83 97 62 98 63 99 71 100 64 101 65 102 69 103
REMARK SMILES IDX 72 104 66 105 67 106 70 107 68 108
REMARK H PARENT 7 22 92 61 60 72
REMARK Flexibility Score: inf
ROOT
ATOM      1  C   UNL A   1      36.390  31.584  32.818  1.00  0.00     0.261 C 
ENDROOT
BRANCH   1   2
ATOM      2  O   UNL A   1      36.330  31.504  31.376  1.00  0.00    -0.463 OA
BRANCH   2   3
ATOM      3  C   UNL A   1      35.341  32.214  30.777  1.00  0.00     0.313 C 
ATOM      4  O   UNL A   1      34.417  32.739  31.395  1.00  0.00    -0.252 OA
BRANCH   3   5
ATOM      5  C   UNL A   1      35.421  32.336  29.256  1.00  0.00     0.126 C 
ATOM      6  C   UNL A   1      34.708  33.621  28.833  1.00  0.00     0.025 C 
BRANCH   5   7
ATOM      7  C   UNL A   1      35.028  31.183  28.333  1.00  0.00    -0.033 A 
ATOM      8  C   UNL A   1      34.099  29.021  26.676  1.00  0.00    -0.006 A 
ATOM      9  C   UNL A   1      35.364  29.001  27.305  1.00  0.00     0.009 A 
ATOM     10  C   UNL A   1      33.279  30.146  26.899  1.00  0.00     0.064 A 
ATOM     11  C   UNL A   1      35.812  30.047  28.133  1.00  0.00     0.005 A 
ATOM     12  C   UNL A   1      33.766  31.211  27.703  1.00  0.00     0.018 A 
BRANCH   8  13
ATOM     13  C   UNL A   1      33.654  27.837  25.904  1.00  0.00    -0.014 A 
ATOM     14  C   UNL A   1      32.659  25.626  25.735  1.00  0.00     0.133 A 
ATOM     15  C   UNL A   1      33.047  25.519  24.401  1.00  0.00     0.047 A 
ATOM     16  C   UNL A   1      32.936  26.775  26.487  1.00  0.00     0.056 A 
ATOM     17  C   UNL A   1      33.718  26.579  23.800  1.00  0.00     0.004 A 
ATOM     18  C   UNL A   1      34.024  27.720  24.548  1.00  0.00     0.009 A 
BRANCH  14  19
ATOM     19  O   UNL A   1      32.152  24.450  26.323  1.00  0.00    -0.410 OA
BRANCH  19  20
ATOM     20  C   UNL A   1      30.789  24.196  26.304  1.00  0.00     0.412 C 
ATOM     21  N   UNL A   1      30.492  22.886  26.029  1.00  0.00    -0.321 N 
ATOM     22  H   UNL A   1      29.539  22.641  26.045  1.00  0.00     0.167 HD
ATOM     23  O   UNL A   1      29.905  25.022  26.484  1.00  0.00    -0.224 OA
BRANCH  21  24
ATOM     24  C   UNL A   1      31.428  21.821  25.718  1.00  0.00     0.119 C 
BRANCH  24  25
ATOM     25  C   UNL A   1      32.150  22.042  24.386  1.00  0.00     0.021 C 
BRANCH  25  26
ATOM     26  C   UNL A   1      33.535  21.390  24.278  1.00  0.00     0.002 C 
BRANCH  26  27
ATOM     27  C   UNL A   1      34.704  22.215  24.825  1.00  0.00    -0.000 C 
BRANCH  27  28
ATOM     28  C   UNL A   1      36.081  21.875  24.249  1.00  0.00    -0.003 C 
ATOM     29  C   UNL A   1      36.636  22.953  23.330  1.00  0.00     0.004 C 
ENDBRANCH  27  28
ENDBRANCH  26  27
ENDBRANCH  25  26
ENDBRANCH  24  25
ENDBRANCH  21  24
ENDBRANCH  19  20
ENDBRANCH  14  19
ENDBRANCH   8  13
BRANCH  10  30
ATOM     30  C   UNL A   1      31.883  30.289  26.323  1.00  0.00     0.417 C 
ATOM     31  F   UNL A   1      31.023  29.348  26.819  1.00  0.00    -0.166 F 
ATOM     32  F   UNL A   1      31.319  31.487  26.646  1.00  0.00    -0.166 F 
ATOM     33  F   UNL A   1      31.785  30.172  24.973  1.00  0.00    -0.166 F 
ENDBRANCH  10  30
ENDBRANCH   5   7
ENDBRANCH   3   5
ENDBRANCH   2   3
ENDBRANCH   1   2
BRANCH   1  34
ATOM     34  C   UNL A   1      37.745  32.025  33.382  1.00  0.00     0.202 C 
BRANCH  34  35
ATOM     35  O   UNL A   1      38.033  33.416  33.358  1.00  0.00    -0.376 OA
BRANCH  35  36
ATOM     36  C   UNL A   1      37.476  34.266  34.355  1.00  0.00     0.188 C 
BRANCH  36  37
ATOM     37  C   UNL A   1      36.727  33.663  35.552  1.00  0.00     0.188 C 
BRANCH  37  38
ATOM     38  O   UNL A   1      37.470  33.648  36.756  1.00  0.00    -0.376 OA
BRANCH  38  39
ATOM     39  C   UNL A   1      37.918  32.370  37.173  1.00  0.00     0.202 C 
BRANCH  39  40
ATOM     40  C   UNL A   1      39.338  32.103  36.664  1.00  0.00     0.261 C 
BRANCH  40  41
ATOM     41  O   UNL A   1      40.368  32.301  37.655  1.00  0.00    -0.460 OA
BRANCH  41  42
ATOM     42  C   UNL A   1      40.566  33.580  38.046  1.00  0.00     0.338 C 
ATOM     43  O   UNL A   1      40.400  34.042  39.158  1.00  0.00    -0.246 OA
BRANCH  42  44
ATOM     44  C   UNL A   1      41.237  34.316  36.953  1.00  0.00     0.060 A 
ATOM     45  C   UNL A   1      42.554  33.966  36.637  1.00  0.00     0.016 A 
ATOM     46  C   UNL A   1      40.608  35.367  36.285  1.00  0.00     0.016 A 
ATOM     47  C   UNL A   1      43.275  34.707  35.701  1.00  0.00     0.010 A 
ATOM     48  C   UNL A   1      41.333  36.120  35.354  1.00  0.00     0.010 A 
ATOM     49  C   UNL A   1      42.685  35.823  35.093  1.00  0.00    -0.014 A 
BRANCH  49  50
ATOM     50  C   UNL A   1      43.546  36.796  34.375  1.00  0.00     0.031 A 
ATOM     51  C   UNL A   1      43.729  36.624  32.890  1.00  0.00     0.074 A 
ATOM     52  C   UNL A   1      44.117  37.838  35.006  1.00  0.00     0.049 A 
ATOM     53  N   UNL A   1      44.447  37.327  32.050  1.00  0.00    -0.248 NA
ATOM     54  C   UNL A   1      43.005  35.503  32.266  1.00  0.00     0.031 C 
ATOM     55  C   UNL A   1      43.986  38.142  36.429  1.00  0.00     0.029 A 
ATOM     56  N   UNL A   1      44.929  38.834  34.521  1.00  0.00    -0.354 N 
ATOM     57  C   UNL A   1      44.269  36.728  30.809  1.00  0.00     0.074 A 
ATOM     58  C   UNL A   1      43.399  35.590  31.005  1.00  0.00     0.031 C 
ATOM     59  C   UNL A   1      44.707  39.244  36.705  1.00  0.00     0.029 A 
ATOM     60  C   UNL A   1      45.370  39.707  35.486  1.00  0.00     0.049 A 
ATOM     61  H   UNL A   1      45.173  38.915  33.570  1.00  0.00     0.167 HD
ATOM     62  C   UNL A   1      44.777  37.099  29.611  1.00  0.00     0.037 A 
ATOM     63  C   UNL A   1      46.227  40.743  35.395  1.00  0.00     0.037 A 
ATOM     64  C   UNL A   1      45.625  38.244  29.406  1.00  0.00     0.049 A 
ATOM     65  C   UNL A   1      46.821  41.101  34.054  1.00  0.00     0.074 A 
ATOM     66  C   UNL A   1      46.157  38.720  28.221  1.00  0.00     0.029 A 
ATOM     67  N   UNL A   1      46.066  39.088  30.412  1.00  0.00    -0.354 N 
ATOM     68  N   UNL A   1      46.617  40.554  32.880  1.00  0.00    -0.248 NA
ATOM     69  C   UNL A   1      47.766  42.229  34.026  1.00  0.00     0.031 C 
ATOM     70  C   UNL A   1      46.965  39.822  28.516  1.00  0.00     0.029 A 
ATOM     71  C   UNL A   1      46.889  40.066  29.878  1.00  0.00     0.049 A 
ATOM     72  H   UNL A   1      45.830  39.006  31.364  1.00  0.00     0.167 HD
ATOM     73  C   UNL A   1      47.377  41.287  31.977  1.00  0.00     0.074 A 
ATOM     74  C   UNL A   1      48.033  42.331  32.732  1.00  0.00     0.031 C 
ATOM     75  C   UNL A   1      47.524  41.109  30.640  1.00  0.00     0.037 A 
BRANCH  62  76
ATOM     76  C   UNL A   1      44.451  36.249  28.419  1.00  0.00     0.064 A 
ATOM     77  C   UNL A   1      45.325  35.255  27.959  1.00  0.00     0.173 A 
ATOM     78  C   UNL A   1      43.216  36.393  27.768  1.00  0.00     0.173 A 
ATOM     79  F   UNL A   1      46.524  35.089  28.537  1.00  0.00    -0.203 F 
ATOM     80  C   UNL A   1      44.980  34.442  26.882  1.00  0.00     0.198 A 
ATOM     81  C   UNL A   1      42.863  35.560  26.710  1.00  0.00     0.198 A 
ATOM     82  F   UNL A   1      42.344  37.329  28.172  1.00  0.00    -0.203 F 
ATOM     83  F   UNL A   1      45.845  33.520  26.436  1.00  0.00    -0.200 F 
ATOM     84  C   UNL A   1      43.746  34.588  26.266  1.00  0.00     0.200 A 
ATOM     85  F   UNL A   1      41.665  35.696  26.124  1.00  0.00    -0.200 F 
ATOM     86  F   UNL A   1      43.409  33.794  25.241  1.00  0.00    -0.200 F 
ENDBRANCH  62  76
BRANCH  63  87
ATOM     87  C   UNL A   1      46.611  41.514  36.610  1.00  0.00     0.064 A 
ATOM     88  C   UNL A   1      47.789  41.223  37.314  1.00  0.00     0.173 A 
ATOM     89  C   UNL A   1      45.770  42.508  37.131  1.00  0.00     0.173 A 
ATOM     90  F   UNL A   1      48.611  40.259  36.874  1.00  0.00    -0.203 F 
ATOM     91  C   UNL A   1      48.092  41.872  38.510  1.00  0.00     0.198 A 
ATOM     92  C   UNL A   1      46.090  43.179  38.310  1.00  0.00     0.198 A 
ATOM     93  F   UNL A   1      44.627  42.820  36.503  1.00  0.00    -0.203 F 
ATOM     94  F   UNL A   1      49.188  41.523  39.198  1.00  0.00    -0.200 F 
ATOM     95  C   UNL A   1      47.245  42.851  39.005  1.00  0.00     0.200 A 
ATOM     96  F   UNL A   1      45.273  44.129  38.781  1.00  0.00    -0.200 F 
ATOM     97  F   UNL A   1      47.531  43.466  40.161  1.00  0.00    -0.200 F 
ENDBRANCH  63  87
BRANCH  75  98
ATOM     98  C   UNL A   1      48.396  42.085  29.902  1.00  0.00     0.064 A 
ATOM     99  C   UNL A   1      49.758  41.833  29.677  1.00  0.00     0.173 A 
ATOM    100  C   UNL A   1      47.853  43.268  29.379  1.00  0.00     0.173 A 
ATOM    101  F   UNL A   1      50.329  40.722  30.165  1.00  0.00    -0.203 F 
ATOM    102  C   UNL A   1      50.549  42.745  28.983  1.00  0.00     0.198 A 
ATOM    103  C   UNL A   1      48.639  44.162  28.657  1.00  0.00     0.198 A 
ATOM    104  F   UNL A   1      46.553  43.553  29.555  1.00  0.00    -0.203 F 
ATOM    105  F   UNL A   1      51.859  42.509  28.826  1.00  0.00    -0.200 F 
ATOM    106  C   UNL A   1      49.988  43.905  28.468  1.00  0.00     0.200 A 
ATOM    107  F   UNL A   1      48.092  45.273  28.146  1.00  0.00    -0.200 F 
ATOM    108  F   UNL A   1      50.750  44.778  27.795  1.00  0.00    -0.200 F 
ENDBRANCH  75  98
ENDBRANCH  49  50
ENDBRANCH  42  44
ENDBRANCH  41  42
ENDBRANCH  40  41
ENDBRANCH  39  40
ENDBRANCH  38  39
ENDBRANCH  37  38
ENDBRANCH  36  37
ENDBRANCH  35  36
ENDBRANCH  34  35
ENDBRANCH   1  34
TORSDOF 27
ENDMDL
MODEL 3
REMARK VINA RESULT:      -7.9      4.701     14.429
REMARK SMILES CCCCCCNC(=O)Oc1cccc(-c2ccc([C@@H](C)C(=O)OCCOCCOCCOC(=O)c3ccc(-c4c5nc(c(-c6c(F)c(F)c(F)c(F)c6F)c6ccc([nH]6)c(-c6c(F)c(F)c(F)c(F)c6F)c6nc(c(-c7c(F)c(F)c(F)c(F)c7F)c7ccc4[nH]7)C=C6)C=C5)cc3)cc2C(F)(F)F)c1
REMARK SMILES IDX 25 1 24 2 22 3 23 4 20 5 21 6 19 7 16 8 17 9 100 10 18 11
REMARK SMILES IDX 99 12 15 13 11 14 12 15 105 16 13 17 14 18 10 19 8 20 7 21
REMARK SMILES IDX 9 23 6 24 5 25 4 26 3 27 2 28 1 29 101 30 102 31 103 32
REMARK SMILES IDX 104 33 26 34 27 35 28 36 29 37 30 38 31 39 32 40 33 41 34 42
REMARK SMILES IDX 35 43 36 44 37 45 98 46 38 47 97 48 39 49 40 50 41 51 91 52
REMARK SMILES IDX 42 53 96 54 90 55 92 56 43 57 95 58 89 59 88 60 44 62 76 63
REMARK SMILES IDX 56 64 75 65 57 66 60 67 74 68 93 69 58 70 59 71 73 73 94 74
REMARK SMILES IDX 61 75 45 76 46 77 54 78 47 79 48 80 52 81 55 82 49 83 50 84
REMARK SMILES IDX 53 85 51 86 77 87 78 88 86 89 79 90 80 91 84 92 87 93 81 94
REMARK SMILES IDX 82 95 85 96 83 97 62 98 63 99 71 100 64 101 65 102 69 103
REMARK SMILES IDX 72 104 66 105 67 106 70 107 68 108
REMARK H PARENT 7 22 92 61 60 72
REMARK Flexibility Score: inf
ROOT
ATOM      1  C   UNL A   1      43.908  29.848  29.308  1.00  0.00     0.261 C 
ENDROOT
BRANCH   1   2
ATOM      2  O   UNL A   1      42.500  30.160  29.392  1.00  0.00    -0.463 OA
BRANCH   2   3
ATOM      3  C   UNL A   1      42.121  30.943  30.433  1.00  0.00     0.313 C 
ATOM      4  O   UNL A   1      42.199  30.590  31.609  1.00  0.00    -0.252 OA
BRANCH   3   5
ATOM      5  C   UNL A   1      41.573  32.325  30.078  1.00  0.00     0.126 C 
ATOM      6  C   UNL A   1      42.683  33.356  30.283  1.00  0.00     0.025 C 
BRANCH   5   7
ATOM      7  C   UNL A   1      40.256  32.843  30.653  1.00  0.00    -0.033 A 
ATOM      8  C   UNL A   1      37.682  33.654  31.654  1.00  0.00    -0.006 A 
ATOM      9  C   UNL A   1      38.595  34.570  31.085  1.00  0.00     0.009 A 
ATOM     10  C   UNL A   1      38.068  32.299  31.705  1.00  0.00     0.064 A 
ATOM     11  C   UNL A   1      39.845  34.174  30.575  1.00  0.00     0.005 A 
ATOM     12  C   UNL A   1      39.352  31.924  31.225  1.00  0.00     0.018 A 
BRANCH   8  13
ATOM     13  C   UNL A   1      36.343  34.130  32.074  1.00  0.00    -0.014 A 
ATOM     14  C   UNL A   1      34.026  34.711  31.625  1.00  0.00     0.133 A 
ATOM     15  C   UNL A   1      33.887  35.267  32.896  1.00  0.00     0.047 A 
ATOM     16  C   UNL A   1      35.231  34.128  31.211  1.00  0.00     0.056 A 
ATOM     17  C   UNL A   1      34.965  35.235  33.774  1.00  0.00     0.004 A 
ATOM     18  C   UNL A   1      36.180  34.680  33.362  1.00  0.00     0.009 A 
BRANCH  14  19
ATOM     19  O   UNL A   1      32.960  34.942  30.734  1.00  0.00    -0.410 OA
BRANCH  19  20
ATOM     20  C   UNL A   1      33.082  35.901  29.740  1.00  0.00     0.412 C 
ATOM     21  N   UNL A   1      33.128  35.362  28.480  1.00  0.00    -0.321 N 
ATOM     22  H   UNL A   1      33.172  36.002  27.733  1.00  0.00     0.167 HD
ATOM     23  O   UNL A   1      33.166  37.108  29.917  1.00  0.00    -0.224 OA
BRANCH  21  24
ATOM     24  C   UNL A   1      33.119  33.955  28.126  1.00  0.00     0.119 C 
BRANCH  24  25
ATOM     25  C   UNL A   1      34.527  33.361  28.039  1.00  0.00     0.021 C 
BRANCH  25  26
ATOM     26  C   UNL A   1      34.679  31.952  28.628  1.00  0.00     0.002 C 
BRANCH  26  27
ATOM     27  C   UNL A   1      35.149  30.869  27.651  1.00  0.00    -0.000 C 
BRANCH  27  28
ATOM     28  C   UNL A   1      36.184  29.884  28.203  1.00  0.00    -0.003 C 
ATOM     29  C   UNL A   1      37.571  30.488  28.357  1.00  0.00     0.004 C 
ENDBRANCH  27  28
ENDBRANCH  26  27
ENDBRANCH  25  26
ENDBRANCH  24  25
ENDBRANCH  21  24
ENDBRANCH  19  20
ENDBRANCH  14  19
ENDBRANCH   8  13
BRANCH  10  30
ATOM     30  C   UNL A   1      37.178  31.198  32.250  1.00  0.00     0.417 C 
ATOM     31  F   UNL A   1      36.069  31.001  31.475  1.00  0.00    -0.166 F 
ATOM     32  F   UNL A   1      37.813  29.992  32.269  1.00  0.00    -0.166 F 
ATOM     33  F   UNL A   1      36.696  31.394  33.506  1.00  0.00    -0.166 F 
ENDBRANCH  10  30
ENDBRANCH   5   7
ENDBRANCH   3   5
ENDBRANCH   2   3
ENDBRANCH   1   2
BRANCH   1  34
ATOM     34  C   UNL A   1      44.487  29.867  27.889  1.00  0.00     0.202 C 
BRANCH  34  35
ATOM     35  O   UNL A   1      45.774  29.293  27.708  1.00  0.00    -0.376 OA
BRANCH  35  36
ATOM     36  C   UNL A   1      45.909  27.878  27.643  1.00  0.00     0.188 C 
BRANCH  36  37
ATOM     37  C   UNL A   1      45.861  27.160  26.286  1.00  0.00     0.188 C 
BRANCH  37  38
ATOM     38  O   UNL A   1      44.623  26.540  25.999  1.00  0.00    -0.376 OA
BRANCH  38  39
ATOM     39  C   UNL A   1      44.668  25.128  25.880  1.00  0.00     0.202 C 
BRANCH  39  40
ATOM     40  C   UNL A   1      46.029  24.591  26.333  1.00  0.00     0.261 C 
BRANCH  40  41
ATOM     41  O   UNL A   1      45.949  23.483  27.254  1.00  0.00    -0.460 OA
BRANCH  41  42
ATOM     42  C   UNL A   1      44.712  23.195  27.717  1.00  0.00     0.338 C 
ATOM     43  O   UNL A   1      43.896  22.447  27.214  1.00  0.00    -0.246 OA
BRANCH  42  44
ATOM     44  C   UNL A   1      44.563  23.765  29.073  1.00  0.00     0.060 A 
ATOM     45  C   UNL A   1      45.059  25.054  29.302  1.00  0.00     0.016 A 
ATOM     46  C   UNL A   1      43.996  23.034  30.116  1.00  0.00     0.016 A 
ATOM     47  C   UNL A   1      45.056  25.592  30.587  1.00  0.00     0.010 A 
ATOM     48  C   UNL A   1      44.003  23.568  31.411  1.00  0.00     0.010 A 
ATOM     49  C   UNL A   1      44.576  24.829  31.660  1.00  0.00    -0.014 A 
BRANCH  49  50
ATOM     50  C   UNL A   1      44.886  25.257  33.048  1.00  0.00     0.031 A 
ATOM     51  C   UNL A   1      44.413  26.615  33.498  1.00  0.00     0.074 A 
ATOM     52  C   UNL A   1      45.528  24.449  33.911  1.00  0.00     0.049 A 
ATOM     53  N   UNL A   1      44.580  27.218  34.647  1.00  0.00    -0.248 NA
ATOM     54  C   UNL A   1      43.650  27.401  32.513  1.00  0.00     0.031 C 
ATOM     55  C   UNL A   1      46.001  23.099  33.617  1.00  0.00     0.029 A 
ATOM     56  N   UNL A   1      45.895  24.658  35.219  1.00  0.00    -0.354 N 
ATOM     57  C   UNL A   1      43.955  28.452  34.519  1.00  0.00     0.074 A 
ATOM     58  C   UNL A   1      43.428  28.527  33.174  1.00  0.00     0.031 C 
ATOM     59  C   UNL A   1      46.610  22.604  34.711  1.00  0.00     0.029 A 
ATOM     60  C   UNL A   1      46.592  23.611  35.771  1.00  0.00     0.049 A 
ATOM     61  H   UNL A   1      45.678  25.481  35.714  1.00  0.00     0.167 HD
ATOM     62  C   UNL A   1      43.822  29.432  35.442  1.00  0.00     0.037 A 
ATOM     63  C   UNL A   1      47.168  23.494  36.985  1.00  0.00     0.037 A 
ATOM     64  C   UNL A   1      44.323  29.354  36.789  1.00  0.00     0.049 A 
ATOM     65  C   UNL A   1      47.050  24.627  37.976  1.00  0.00     0.074 A 
ATOM     66  C   UNL A   1      44.203  30.284  37.807  1.00  0.00     0.029 A 
ATOM     67  N   UNL A   1      45.044  28.288  37.302  1.00  0.00    -0.354 N 
ATOM     68  N   UNL A   1      46.424  25.773  37.860  1.00  0.00    -0.248 NA
ATOM     69  C   UNL A   1      47.718  24.445  39.275  1.00  0.00     0.031 C 
ATOM     70  C   UNL A   1      44.898  29.803  38.921  1.00  0.00     0.029 A 
ATOM     71  C   UNL A   1      45.401  28.549  38.614  1.00  0.00     0.049 A 
ATOM     72  H   UNL A   1      45.268  27.467  36.807  1.00  0.00     0.167 HD
ATOM     73  C   UNL A   1      46.596  26.429  39.073  1.00  0.00     0.074 A 
ATOM     74  C   UNL A   1      47.367  25.547  39.920  1.00  0.00     0.031 C 
ATOM     75  C   UNL A   1      46.157  27.655  39.452  1.00  0.00     0.037 A 
BRANCH  62  76
ATOM     76  C   UNL A   1      43.122  30.693  35.029  1.00  0.00     0.064 A 
ATOM     77  C   UNL A   1      43.822  31.794  34.517  1.00  0.00     0.173 A 
ATOM     78  C   UNL A   1      41.722  30.773  35.091  1.00  0.00     0.173 A 
ATOM     79  F   UNL A   1      45.162  31.771  34.453  1.00  0.00    -0.203 F 
ATOM     80  C   UNL A   1      43.148  32.935  34.091  1.00  0.00     0.198 A 
ATOM     81  C   UNL A   1      41.050  31.905  34.638  1.00  0.00     0.198 A 
ATOM     82  F   UNL A   1      41.006  29.746  35.572  1.00  0.00    -0.203 F 
ATOM     83  F   UNL A   1      43.839  33.989  33.636  1.00  0.00    -0.200 F 
ATOM     84  C   UNL A   1      41.762  32.985  34.142  1.00  0.00     0.200 A 
ATOM     85  F   UNL A   1      39.711  31.947  34.678  1.00  0.00    -0.200 F 
ATOM     86  F   UNL A   1      41.114  34.078  33.716  1.00  0.00    -0.200 F 
ENDBRANCH  62  76
BRANCH  63  87
ATOM     87  C   UNL A   1      47.940  22.271  37.338  1.00  0.00     0.064 A 
ATOM     88  C   UNL A   1      49.326  22.202  37.133  1.00  0.00     0.173 A 
ATOM     89  C   UNL A   1      47.295  21.123  37.820  1.00  0.00     0.173 A 
ATOM     90  F   UNL A   1      49.985  23.263  36.645  1.00  0.00    -0.203 F 
ATOM     91  C   UNL A   1      50.030  21.020  37.364  1.00  0.00     0.198 A 
ATOM     92  C   UNL A   1      48.005  19.952  38.081  1.00  0.00     0.198 A 
ATOM     93  F   UNL A   1      45.970  21.131  38.025  1.00  0.00    -0.203 F 
ATOM     94  F   UNL A   1      51.341  20.961  37.092  1.00  0.00    -0.200 F 
ATOM     95  C   UNL A   1      49.370  19.898  37.840  1.00  0.00     0.200 A 
ATOM     96  F   UNL A   1      47.365  18.873  38.547  1.00  0.00    -0.200 F 
ATOM     97  F   UNL A   1      50.045  18.760  38.049  1.00  0.00    -0.200 F 
ENDBRANCH  63  87
BRANCH  75  98
ATOM     98  C   UNL A   1      46.468  28.102  40.852  1.00  0.00     0.064 A 
ATOM     99  C   UNL A   1      47.600  28.876  41.146  1.00  0.00     0.173 A 
ATOM    100  C   UNL A   1      45.599  27.782  41.908  1.00  0.00     0.173 A 
ATOM    101  F   UNL A   1      48.467  29.199  40.176  1.00  0.00    -0.203 F 
ATOM    102  C   UNL A   1      47.866  29.288  42.450  1.00  0.00     0.198 A 
ATOM    103  C   UNL A   1      45.852  28.223  43.204  1.00  0.00     0.198 A 
ATOM    104  F   UNL A   1      44.497  27.053  41.681  1.00  0.00    -0.203 F 
ATOM    105  F   UNL A   1      48.981  29.982  42.715  1.00  0.00    -0.200 F 
ATOM    106  C   UNL A   1      46.990  28.967  43.476  1.00  0.00     0.200 A 
ATOM    107  F   UNL A   1      44.995  27.927  44.191  1.00  0.00    -0.200 F 
ATOM    108  F   UNL A   1      47.246  29.370  44.728  1.00  0.00    -0.200 F 
ENDBRANCH  75  98
ENDBRANCH  49  50
ENDBRANCH  42  44
ENDBRANCH  41  42
ENDBRANCH  40  41
ENDBRANCH  39  40
ENDBRANCH  38  39
ENDBRANCH  37  38
ENDBRANCH  36  37
ENDBRANCH  35  36
ENDBRANCH  34  35
ENDBRANCH   1  34
TORSDOF 27
ENDMDL
