MODEL 1
REMARK VINA RESULT:     -11.4      0.000      0.000
REMARK SMILES C[C@]1(Cn2c(=O)[nH]c3cc(C(=O)OCCOCCOCCOC(=O)c4ccc(-c5c6nc(c(-c7c(F)c(F)c(F)c(F)c7F)c7ccc([nH]7)c(-c7c(F)c(F)c(F)c(F)c7F)c7nc(c(-c8c(F)c(F)c(F)c(F)c8F)c8ccc5[nH]8)C=C7)C=C6)cc4)ccc32)CCCO1
REMARK SMILES IDX 17 1 16 2 15 3 14 4 13 5 11 6 12 7 10 8 4 9 5 10 90 11 6 12
REMARK SMILES IDX 7 13 8 14 89 15 9 17 88 18 3 19 2 20 1 21 91 22 94 23 92 24
REMARK SMILES IDX 93 25 18 26 19 27 20 28 21 29 22 30 23 31 24 32 25 33 26 34
REMARK SMILES IDX 87 35 27 36 86 37 28 38 29 39 30 40 80 41 31 42 85 43 79 44
REMARK SMILES IDX 81 45 32 46 84 47 78 48 77 49 33 51 65 52 45 53 64 54 46 55
REMARK SMILES IDX 49 56 63 57 82 58 47 59 48 60 62 62 83 63 50 64 34 65 35 66
REMARK SMILES IDX 43 67 36 68 37 69 41 70 44 71 38 72 39 73 42 74 40 75 66 76
REMARK SMILES IDX 67 77 75 78 68 79 69 80 73 81 76 82 70 83 71 84 74 85 72 86
REMARK SMILES IDX 51 87 52 88 60 89 53 90 54 91 58 92 61 93 55 94 56 95 59 96
REMARK SMILES IDX 57 97
REMARK H PARENT 7 16 81 50 49 61
REMARK Flexibility Score: inf
ROOT
ATOM      1  C   UNL A   1      35.087  33.024  28.345  1.00  0.00     0.188 C 
ENDROOT
BRANCH   1   2
ATOM      2  O   UNL A   1      34.809  31.671  28.599  1.00  0.00    -0.376 OA
BRANCH   2   3
ATOM      3  C   UNL A   1      34.258  30.886  27.563  1.00  0.00     0.202 C 
BRANCH   3   4
ATOM      4  C   UNL A   1      32.758  30.924  27.222  1.00  0.00     0.261 C 
BRANCH   4   5
ATOM      5  O   UNL A   1      32.098  29.636  27.156  1.00  0.00    -0.460 OA
BRANCH   5   6
ATOM      6  C   UNL A   1      31.746  29.245  25.903  1.00  0.00     0.338 C 
ATOM      7  O   UNL A   1      31.313  29.984  25.031  1.00  0.00    -0.246 OA
BRANCH   6   8
ATOM      8  C   UNL A   1      32.123  27.835  25.575  1.00  0.00     0.062 A 
ATOM      9  N   UNL A   1      33.349  23.968  26.381  1.00  0.00    -0.289 N 
ATOM     10  C   UNL A   1      32.218  23.496  27.080  1.00  0.00     0.326 A 
ATOM     11  C   UNL A   1      33.043  25.216  25.796  1.00  0.00     0.069 A 
ATOM     12  O   UNL A   1      32.091  22.494  27.747  1.00  0.00    -0.248 OA
ATOM     13  N   UNL A   1      31.248  24.479  26.924  1.00  0.00    -0.306 N 
ATOM     14  C   UNL A   1      31.765  25.543  26.185  1.00  0.00     0.067 A 
ATOM     15  C   UNL A   1      33.790  26.137  25.082  1.00  0.00     0.029 A 
ATOM     16  H   UNL A   1      30.332  24.432  27.282  1.00  0.00     0.171 HD
ATOM     17  C   UNL A   1      31.261  26.813  25.990  1.00  0.00     0.044 A 
ATOM     18  C   UNL A   1      33.358  27.482  25.038  1.00  0.00     0.018 A 
BRANCH   9  19
ATOM     19  C   UNL A   1      34.651  23.390  26.579  1.00  0.00     0.162 C 
BRANCH  19  20
ATOM     20  C   UNL A   1      35.235  22.645  25.353  1.00  0.00     0.083 C 
ATOM     21  C   UNL A   1      34.147  22.007  24.481  1.00  0.00     0.044 C 
ATOM     22  C   UNL A   1      36.195  23.469  24.496  1.00  0.00     0.039 C 
ATOM     23  O   UNL A   1      36.063  21.553  25.818  1.00  0.00    -0.373 OA
ATOM     24  C   UNL A   1      36.930  22.372  23.757  1.00  0.00     0.031 C 
ATOM     25  C   UNL A   1      37.085  21.316  24.834  1.00  0.00     0.161 C 
ENDBRANCH  19  20
ENDBRANCH   9  19
ENDBRANCH   6   8
ENDBRANCH   5   6
ENDBRANCH   4   5
ENDBRANCH   3   4
ENDBRANCH   2   3
ENDBRANCH   1   2
BRANCH   1  26
ATOM     26  C   UNL A   1      33.901  34.015  28.289  1.00  0.00     0.188 C 
BRANCH  26  27
ATOM     27  O   UNL A   1      33.219  34.333  29.483  1.00  0.00    -0.376 OA
BRANCH  27  28
ATOM     28  C   UNL A   1      33.235  35.703  29.856  1.00  0.00     0.202 C 
BRANCH  28  29
ATOM     29  C   UNL A   1      32.568  36.090  31.198  1.00  0.00     0.261 C 
BRANCH  29  30
ATOM     30  O   UNL A   1      32.938  35.235  32.318  1.00  0.00    -0.460 OA
BRANCH  30  31
ATOM     31  C   UNL A   1      33.955  35.661  33.131  1.00  0.00     0.338 C 
ATOM     32  O   UNL A   1      33.868  36.529  33.982  1.00  0.00    -0.246 OA
BRANCH  31  33
ATOM     33  C   UNL A   1      35.072  34.647  33.109  1.00  0.00     0.060 A 
ATOM     34  C   UNL A   1      36.412  34.926  33.407  1.00  0.00     0.016 A 
ATOM     35  C   UNL A   1      34.784  33.420  32.512  1.00  0.00     0.016 A 
ATOM     36  C   UNL A   1      37.455  34.090  32.907  1.00  0.00     0.010 A 
ATOM     37  C   UNL A   1      35.825  32.583  32.069  1.00  0.00     0.010 A 
ATOM     38  C   UNL A   1      37.187  32.947  32.130  1.00  0.00    -0.014 A 
BRANCH  38  39
ATOM     39  C   UNL A   1      38.278  31.954  31.747  1.00  0.00     0.031 A 
ATOM     40  C   UNL A   1      38.911  31.519  32.997  1.00  0.00     0.074 A 
ATOM     41  C   UNL A   1      38.783  31.356  30.611  1.00  0.00     0.049 A 
ATOM     42  N   UNL A   1      40.040  31.993  33.400  1.00  0.00    -0.248 NA
ATOM     43  C   UNL A   1      38.176  30.729  33.984  1.00  0.00     0.031 C 
ATOM     44  C   UNL A   1      38.481  31.602  29.210  1.00  0.00     0.029 A 
ATOM     45  N   UNL A   1      39.646  30.263  30.462  1.00  0.00    -0.354 N 
ATOM     46  C   UNL A   1      40.286  31.346  34.589  1.00  0.00     0.074 A 
ATOM     47  C   UNL A   1      39.025  30.791  35.013  1.00  0.00     0.031 C 
ATOM     48  C   UNL A   1      38.789  30.554  28.411  1.00  0.00     0.029 A 
ATOM     49  C   UNL A   1      39.612  29.637  29.185  1.00  0.00     0.049 A 
ATOM     50  H   UNL A   1      40.233  29.952  31.188  1.00  0.00     0.167 HD
ATOM     51  C   UNL A   1      41.568  31.034  34.900  1.00  0.00     0.037 A 
ATOM     52  C   UNL A   1      40.510  28.836  28.531  1.00  0.00     0.037 A 
ATOM     53  C   UNL A   1      42.504  31.825  34.123  1.00  0.00     0.049 A 
ATOM     54  C   UNL A   1      41.818  29.033  29.154  1.00  0.00     0.074 A 
ATOM     55  C   UNL A   1      42.742  33.175  33.939  1.00  0.00     0.029 A 
ATOM     56  N   UNL A   1      43.114  31.191  33.071  1.00  0.00    -0.354 N 
ATOM     57  N   UNL A   1      42.542  30.096  28.975  1.00  0.00    -0.248 NA
ATOM     58  C   UNL A   1      42.146  28.209  30.301  1.00  0.00     0.031 C 
ATOM     59  C   UNL A   1      43.179  33.320  32.587  1.00  0.00     0.029 A 
ATOM     60  C   UNL A   1      43.248  32.053  32.013  1.00  0.00     0.049 A 
ATOM     61  H   UNL A   1      43.411  30.252  33.074  1.00  0.00     0.167 HD
ATOM     62  C   UNL A   1      43.066  30.336  30.230  1.00  0.00     0.074 A 
ATOM     63  C   UNL A   1      42.909  29.080  30.959  1.00  0.00     0.031 C 
ATOM     64  C   UNL A   1      43.284  31.617  30.636  1.00  0.00     0.037 A 
BRANCH  51  65
ATOM     65  C   UNL A   1      41.936  29.721  35.544  1.00  0.00     0.064 A 
ATOM     66  C   UNL A   1      42.904  29.719  36.563  1.00  0.00     0.173 A 
ATOM     67  C   UNL A   1      41.589  28.448  35.033  1.00  0.00     0.173 A 
ATOM     68  F   UNL A   1      43.351  30.874  37.078  1.00  0.00    -0.203 F 
ATOM     69  C   UNL A   1      43.504  28.537  37.004  1.00  0.00     0.198 A 
ATOM     70  C   UNL A   1      42.141  27.268  35.520  1.00  0.00     0.198 A 
ATOM     71  F   UNL A   1      40.797  28.289  33.967  1.00  0.00    -0.203 F 
ATOM     72  F   UNL A   1      44.508  28.596  37.888  1.00  0.00    -0.200 F 
ATOM     73  C   UNL A   1      43.118  27.314  36.487  1.00  0.00     0.200 A 
ATOM     74  F   UNL A   1      41.773  26.098  34.981  1.00  0.00    -0.200 F 
ATOM     75  F   UNL A   1      43.724  26.186  36.878  1.00  0.00    -0.200 F 
ENDBRANCH  51  65
BRANCH  52  76
ATOM     76  C   UNL A   1      40.279  27.579  27.764  1.00  0.00     0.064 A 
ATOM     77  C   UNL A   1      41.001  27.243  26.603  1.00  0.00     0.173 A 
ATOM     78  C   UNL A   1      39.532  26.544  28.348  1.00  0.00     0.173 A 
ATOM     79  F   UNL A   1      41.808  28.146  26.027  1.00  0.00    -0.203 F 
ATOM     80  C   UNL A   1      40.940  25.957  26.041  1.00  0.00     0.198 A 
ATOM     81  C   UNL A   1      39.478  25.259  27.795  1.00  0.00     0.198 A 
ATOM     82  F   UNL A   1      38.882  26.764  29.499  1.00  0.00    -0.203 F 
ATOM     83  F   UNL A   1      41.644  25.668  24.935  1.00  0.00    -0.200 F 
ATOM     84  C   UNL A   1      40.179  24.966  26.638  1.00  0.00     0.200 A 
ATOM     85  F   UNL A   1      38.724  24.315  28.373  1.00  0.00    -0.200 F 
ATOM     86  F   UNL A   1      40.103  23.742  26.095  1.00  0.00    -0.200 F 
ENDBRANCH  52  76
BRANCH  64  87
ATOM     87  C   UNL A   1      43.377  32.673  29.566  1.00  0.00     0.064 A 
ATOM     88  C   UNL A   1      42.370  33.607  29.269  1.00  0.00     0.173 A 
ATOM     89  C   UNL A   1      44.594  32.807  28.887  1.00  0.00     0.173 A 
ATOM     90  F   UNL A   1      41.198  33.575  29.908  1.00  0.00    -0.203 F 
ATOM     91  C   UNL A   1      42.575  34.627  28.338  1.00  0.00     0.198 A 
ATOM     92  C   UNL A   1      44.807  33.840  27.979  1.00  0.00     0.198 A 
ATOM     93  F   UNL A   1      45.598  31.953  29.141  1.00  0.00    -0.203 F 
ATOM     94  F   UNL A   1      41.601  35.514  28.081  1.00  0.00    -0.200 F 
ATOM     95  C   UNL A   1      43.799  34.751  27.704  1.00  0.00     0.200 A 
ATOM     96  F   UNL A   1      46.005  33.972  27.393  1.00  0.00    -0.200 F 
ATOM     97  F   UNL A   1      44.019  35.759  26.849  1.00  0.00    -0.200 F 
ENDBRANCH  64  87
ENDBRANCH  38  39
ENDBRANCH  31  33
ENDBRANCH  30  31
ENDBRANCH  29  30
ENDBRANCH  28  29
ENDBRANCH  27  28
ENDBRANCH  26  27
ENDBRANCH   1  26
TORSDOF 19
ENDMDL
MODEL 2
REMARK VINA RESULT:     -11.0      4.404     10.230
REMARK SMILES C[C@]1(Cn2c(=O)[nH]c3cc(C(=O)OCCOCCOCCOC(=O)c4ccc(-c5c6nc(c(-c7c(F)c(F)c(F)c(F)c7F)c7ccc([nH]7)c(-c7c(F)c(F)c(F)c(F)c7F)c7nc(c(-c8c(F)c(F)c(F)c(F)c8F)c8ccc5[nH]8)C=C7)C=C6)cc4)ccc32)CCCO1
REMARK SMILES IDX 17 1 16 2 15 3 14 4 13 5 11 6 12 7 10 8 4 9 5 10 90 11 6 12
REMARK SMILES IDX 7 13 8 14 89 15 9 17 88 18 3 19 2 20 1 21 91 22 94 23 92 24
REMARK SMILES IDX 93 25 18 26 19 27 20 28 21 29 22 30 23 31 24 32 25 33 26 34
REMARK SMILES IDX 87 35 27 36 86 37 28 38 29 39 30 40 80 41 31 42 85 43 79 44
REMARK SMILES IDX 81 45 32 46 84 47 78 48 77 49 33 51 65 52 45 53 64 54 46 55
REMARK SMILES IDX 49 56 63 57 82 58 47 59 48 60 62 62 83 63 50 64 34 65 35 66
REMARK SMILES IDX 43 67 36 68 37 69 41 70 44 71 38 72 39 73 42 74 40 75 66 76
REMARK SMILES IDX 67 77 75 78 68 79 69 80 73 81 76 82 70 83 71 84 74 85 72 86
REMARK SMILES IDX 51 87 52 88 60 89 53 90 54 91 58 92 61 93 55 94 56 95 59 96
REMARK SMILES IDX 57 97
REMARK H PARENT 7 16 81 50 49 61
REMARK Flexibility Score: inf
ROOT
ATOM      1  C   UNL A   1      41.817  19.161  26.799  1.00  0.00     0.188 C 
ENDROOT
BRANCH   1   2
ATOM      2  O   UNL A   1      40.813  20.142  26.859  1.00  0.00    -0.376 OA
BRANCH   2   3
ATOM      3  C   UNL A   1      40.993  21.244  27.723  1.00  0.00     0.202 C 
BRANCH   3   4
ATOM      4  C   UNL A   1      40.300  22.595  27.474  1.00  0.00     0.261 C 
BRANCH   4   5
ATOM      5  O   UNL A   1      39.734  22.774  26.152  1.00  0.00    -0.460 OA
BRANCH   5   6
ATOM      6  C   UNL A   1      38.490  23.322  26.139  1.00  0.00     0.338 C 
ATOM      7  O   UNL A   1      38.215  24.453  26.509  1.00  0.00    -0.246 OA
BRANCH   6   8
ATOM      8  C   UNL A   1      37.466  22.493  25.430  1.00  0.00     0.062 A 
ATOM      9  N   UNL A   1      33.747  20.785  24.826  1.00  0.00    -0.289 N 
ATOM     10  C   UNL A   1      32.991  21.944  24.550  1.00  0.00     0.326 A 
ATOM     11  C   UNL A   1      35.119  21.119  24.829  1.00  0.00     0.069 A 
ATOM     12  O   UNL A   1      31.789  22.083  24.505  1.00  0.00    -0.248 OA
ATOM     13  N   UNL A   1      33.919  22.969  24.410  1.00  0.00    -0.306 N 
ATOM     14  C   UNL A   1      35.206  22.477  24.626  1.00  0.00     0.067 A 
ATOM     15  C   UNL A   1      36.269  20.402  25.111  1.00  0.00     0.029 A 
ATOM     16  H   UNL A   1      33.701  23.904  24.192  1.00  0.00     0.171 HD
ATOM     17  C   UNL A   1      36.391  23.155  24.825  1.00  0.00     0.044 A 
ATOM     18  C   UNL A   1      37.436  21.102  25.490  1.00  0.00     0.018 A 
BRANCH   9  19
ATOM     19  C   UNL A   1      33.136  19.595  25.351  1.00  0.00     0.162 C 
BRANCH  19  20
ATOM     20  C   UNL A   1      33.149  18.372  24.400  1.00  0.00     0.083 C 
ATOM     21  C   UNL A   1      32.454  18.660  23.064  1.00  0.00     0.044 C 
ATOM     22  C   UNL A   1      34.526  17.752  24.167  1.00  0.00     0.039 C 
ATOM     23  O   UNL A   1      32.402  17.293  25.012  1.00  0.00    -0.373 OA
ATOM     24  C   UNL A   1      34.140  16.378  23.664  1.00  0.00     0.031 C 
ATOM     25  C   UNL A   1      32.946  16.048  24.539  1.00  0.00     0.161 C 
ENDBRANCH  19  20
ENDBRANCH   9  19
ENDBRANCH   6   8
ENDBRANCH   5   6
ENDBRANCH   4   5
ENDBRANCH   3   4
ENDBRANCH   2   3
ENDBRANCH   1   2
BRANCH   1  26
ATOM     26  C   UNL A   1      42.916  19.309  25.721  1.00  0.00     0.188 C 
BRANCH  26  27
ATOM     27  O   UNL A   1      43.745  18.203  25.434  1.00  0.00    -0.376 OA
BRANCH  27  28
ATOM     28  C   UNL A   1      45.092  18.314  25.868  1.00  0.00     0.202 C 
BRANCH  28  29
ATOM     29  C   UNL A   1      46.107  18.971  24.901  1.00  0.00     0.261 C 
BRANCH  29  30
ATOM     30  O   UNL A   1      46.191  20.421  25.018  1.00  0.00    -0.460 OA
BRANCH  30  31
ATOM     31  C   UNL A   1      45.314  21.168  24.277  1.00  0.00     0.338 C 
ATOM     32  O   UNL A   1      44.863  20.860  23.187  1.00  0.00    -0.246 OA
BRANCH  31  33
ATOM     33  C   UNL A   1      44.680  22.217  25.157  1.00  0.00     0.060 A 
ATOM     34  C   UNL A   1      43.444  22.828  24.911  1.00  0.00     0.016 A 
ATOM     35  C   UNL A   1      45.498  22.782  26.135  1.00  0.00     0.016 A 
ATOM     36  C   UNL A   1      43.142  24.105  25.472  1.00  0.00     0.010 A 
ATOM     37  C   UNL A   1      45.161  24.020  26.715  1.00  0.00     0.010 A 
ATOM     38  C   UNL A   1      44.047  24.784  26.310  1.00  0.00    -0.014 A 
BRANCH  38  39
ATOM     39  C   UNL A   1      43.661  26.057  27.054  1.00  0.00     0.031 A 
ATOM     40  C   UNL A   1      44.630  27.087  26.661  1.00  0.00     0.074 A 
ATOM     41  C   UNL A   1      42.681  26.495  27.921  1.00  0.00     0.049 A 
ATOM     42  N   UNL A   1      45.621  27.424  27.413  1.00  0.00    -0.248 NA
ATOM     43  C   UNL A   1      44.683  27.594  25.290  1.00  0.00     0.031 C 
ATOM     44  C   UNL A   1      41.627  25.752  28.594  1.00  0.00     0.029 A 
ATOM     45  N   UNL A   1      42.333  27.789  28.326  1.00  0.00    -0.354 N 
ATOM     46  C   UNL A   1      46.282  28.398  26.701  1.00  0.00     0.074 A 
ATOM     47  C   UNL A   1      45.826  28.281  25.339  1.00  0.00     0.031 C 
ATOM     48  C   UNL A   1      40.593  26.536  28.979  1.00  0.00     0.029 A 
ATOM     49  C   UNL A   1      41.022  27.920  28.864  1.00  0.00     0.049 A 
ATOM     50  H   UNL A   1      42.950  28.551  28.245  1.00  0.00     0.167 HD
ATOM     51  C   UNL A   1      46.854  29.420  27.385  1.00  0.00     0.037 A 
ATOM     52  C   UNL A   1      40.455  28.862  29.681  1.00  0.00     0.037 A 
ATOM     53  C   UNL A   1      47.038  29.078  28.784  1.00  0.00     0.049 A 
ATOM     54  C   UNL A   1      41.539  29.577  30.354  1.00  0.00     0.074 A 
ATOM     55  C   UNL A   1      47.695  28.078  29.477  1.00  0.00     0.029 A 
ATOM     56  N   UNL A   1      46.144  29.623  29.669  1.00  0.00    -0.354 N 
ATOM     57  N   UNL A   1      42.238  29.069  31.323  1.00  0.00    -0.248 NA
ATOM     58  C   UNL A   1      42.109  30.725  29.676  1.00  0.00     0.031 C 
ATOM     59  C   UNL A   1      46.911  27.826  30.645  1.00  0.00     0.029 A 
ATOM     60  C   UNL A   1      45.841  28.717  30.653  1.00  0.00     0.049 A 
ATOM     61  H   UNL A   1      45.773  30.532  29.607  1.00  0.00     0.167 HD
ATOM     62  C   UNL A   1      43.520  29.501  31.049  1.00  0.00     0.074 A 
ATOM     63  C   UNL A   1      43.359  30.619  30.123  1.00  0.00     0.031 C 
ATOM     64  C   UNL A   1      44.581  28.707  31.359  1.00  0.00     0.037 A 
BRANCH  51  65
ATOM     65  C   UNL A   1      46.802  30.842  26.886  1.00  0.00     0.064 A 
ATOM     66  C   UNL A   1      47.987  31.597  26.878  1.00  0.00     0.173 A 
ATOM     67  C   UNL A   1      45.612  31.577  26.672  1.00  0.00     0.173 A 
ATOM     68  F   UNL A   1      49.167  31.011  27.129  1.00  0.00    -0.203 F 
ATOM     69  C   UNL A   1      47.974  32.983  26.709  1.00  0.00     0.198 A 
ATOM     70  C   UNL A   1      45.609  32.948  26.440  1.00  0.00     0.198 A 
ATOM     71  F   UNL A   1      44.395  31.035  26.796  1.00  0.00    -0.203 F 
ATOM     72  F   UNL A   1      49.115  33.674  26.832  1.00  0.00    -0.200 F 
ATOM     73  C   UNL A   1      46.788  33.657  26.484  1.00  0.00     0.200 A 
ATOM     74  F   UNL A   1      44.442  33.582  26.256  1.00  0.00    -0.200 F 
ATOM     75  F   UNL A   1      46.771  34.989  26.367  1.00  0.00    -0.200 F 
ENDBRANCH  51  65
BRANCH  52  76
ATOM     76  C   UNL A   1      39.127  29.532  29.581  1.00  0.00     0.064 A 
ATOM     77  C   UNL A   1      38.507  29.827  28.352  1.00  0.00     0.173 A 
ATOM     78  C   UNL A   1      38.315  29.623  30.721  1.00  0.00     0.173 A 
ATOM     79  F   UNL A   1      39.183  29.684  27.204  1.00  0.00    -0.203 F 
ATOM     80  C   UNL A   1      37.163  30.231  28.281  1.00  0.00     0.198 A 
ATOM     81  C   UNL A   1      36.973  30.015  30.652  1.00  0.00     0.198 A 
ATOM     82  F   UNL A   1      38.811  29.279  31.918  1.00  0.00    -0.203 F 
ATOM     83  F   UNL A   1      36.599  30.502  27.094  1.00  0.00    -0.200 F 
ATOM     84  C   UNL A   1      36.398  30.324  29.432  1.00  0.00     0.200 A 
ATOM     85  F   UNL A   1      36.249  30.118  31.775  1.00  0.00    -0.200 F 
ATOM     86  F   UNL A   1      35.120  30.727  29.372  1.00  0.00    -0.200 F 
ENDBRANCH  52  76
BRANCH  64  87
ATOM     87  C   UNL A   1      44.354  27.621  32.378  1.00  0.00     0.064 A 
ATOM     88  C   UNL A   1      44.165  26.262  32.075  1.00  0.00     0.173 A 
ATOM     89  C   UNL A   1      44.443  27.967  33.731  1.00  0.00     0.173 A 
ATOM     90  F   UNL A   1      44.117  25.844  30.807  1.00  0.00    -0.203 F 
ATOM     91  C   UNL A   1      44.073  25.297  33.080  1.00  0.00     0.198 A 
ATOM     92  C   UNL A   1      44.378  27.003  34.732  1.00  0.00     0.198 A 
ATOM     93  F   UNL A   1      44.640  29.248  34.080  1.00  0.00    -0.203 F 
ATOM     94  F   UNL A   1      43.904  24.005  32.764  1.00  0.00    -0.200 F 
ATOM     95  C   UNL A   1      44.193  25.668  34.409  1.00  0.00     0.200 A 
ATOM     96  F   UNL A   1      44.527  27.365  36.014  1.00  0.00    -0.200 F 
ATOM     97  F   UNL A   1      44.158  24.740  35.375  1.00  0.00    -0.200 F 
ENDBRANCH  64  87
ENDBRANCH  38  39
ENDBRANCH  31  33
ENDBRANCH  30  31
ENDBRANCH  29  30
ENDBRANCH  28  29
ENDBRANCH  27  28
ENDBRANCH  26  27
ENDBRANCH   1  26
TORSDOF 19
ENDMDL
MODEL 3
REMARK VINA RESULT:     -10.9      3.819      9.785
REMARK SMILES C[C@]1(Cn2c(=O)[nH]c3cc(C(=O)OCCOCCOCCOC(=O)c4ccc(-c5c6nc(c(-c7c(F)c(F)c(F)c(F)c7F)c7ccc([nH]7)c(-c7c(F)c(F)c(F)c(F)c7F)c7nc(c(-c8c(F)c(F)c(F)c(F)c8F)c8ccc5[nH]8)C=C7)C=C6)cc4)ccc32)CCCO1
REMARK SMILES IDX 17 1 16 2 15 3 14 4 13 5 11 6 12 7 10 8 4 9 5 10 90 11 6 12
REMARK SMILES IDX 7 13 8 14 89 15 9 17 88 18 3 19 2 20 1 21 91 22 94 23 92 24
REMARK SMILES IDX 93 25 18 26 19 27 20 28 21 29 22 30 23 31 24 32 25 33 26 34
REMARK SMILES IDX 87 35 27 36 86 37 28 38 29 39 30 40 80 41 31 42 85 43 79 44
REMARK SMILES IDX 81 45 32 46 84 47 78 48 77 49 33 51 65 52 45 53 64 54 46 55
REMARK SMILES IDX 49 56 63 57 82 58 47 59 48 60 62 62 83 63 50 64 34 65 35 66
REMARK SMILES IDX 43 67 36 68 37 69 41 70 44 71 38 72 39 73 42 74 40 75 66 76
REMARK SMILES IDX 67 77 75 78 68 79 69 80 73 81 76 82 70 83 71 84 74 85 72 86
REMARK SMILES IDX 51 87 52 88 60 89 53 90 54 91 58 92 61 93 55 94 56 95 59 96
REMARK SMILES IDX 57 97
REMARK H PARENT 7 16 81 50 49 61
REMARK Flexibility Score: inf
ROOT
ATOM      1  C   UNL A   1      41.023  19.053  26.135  1.00  0.00     0.188 C 
ENDROOT
BRANCH   1   2
ATOM      2  O   UNL A   1      39.890  19.810  25.795  1.00  0.00    -0.376 OA
BRANCH   2   3
ATOM      3  C   UNL A   1      39.794  21.136  26.273  1.00  0.00     0.202 C 
BRANCH   3   4
ATOM      4  C   UNL A   1      38.619  22.055  25.892  1.00  0.00     0.261 C 
BRANCH   4   5
ATOM      5  O   UNL A   1      37.853  21.644  24.733  1.00  0.00    -0.460 OA
BRANCH   5   6
ATOM      6  C   UNL A   1      36.547  21.368  24.988  1.00  0.00     0.338 C 
ATOM      7  O   UNL A   1      36.050  20.253  24.985  1.00  0.00    -0.246 OA
BRANCH   6   8
ATOM      8  C   UNL A   1      35.763  22.540  25.490  1.00  0.00     0.062 A 
ATOM      9  N   UNL A   1      32.397  24.883  26.023  1.00  0.00    -0.289 N 
ATOM     10  C   UNL A   1      31.635  24.029  26.847  1.00  0.00     0.326 A 
ATOM     11  C   UNL A   1      33.708  24.371  25.912  1.00  0.00     0.069 A 
ATOM     12  O   UNL A   1      30.463  24.096  27.148  1.00  0.00    -0.248 OA
ATOM     13  N   UNL A   1      32.493  22.997  27.207  1.00  0.00    -0.306 N 
ATOM     14  C   UNL A   1      33.736  23.181  26.602  1.00  0.00     0.067 A 
ATOM     15  C   UNL A   1      34.819  24.758  25.185  1.00  0.00     0.029 A 
ATOM     16  H   UNL A   1      32.260  22.247  27.802  1.00  0.00     0.171 HD
ATOM     17  C   UNL A   1      34.798  22.308  26.478  1.00  0.00     0.044 A 
ATOM     18  C   UNL A   1      35.823  23.803  24.907  1.00  0.00     0.018 A 
BRANCH   9  19
ATOM     19  C   UNL A   1      31.775  25.881  25.195  1.00  0.00     0.162 C 
BRANCH  19  20
ATOM     20  C   UNL A   1      31.957  27.343  25.675  1.00  0.00     0.083 C 
ATOM     21  C   UNL A   1      31.298  28.356  24.730  1.00  0.00     0.044 C 
ATOM     22  C   UNL A   1      31.536  27.604  27.120  1.00  0.00     0.039 C 
ATOM     23  O   UNL A   1      33.368  27.664  25.678  1.00  0.00    -0.373 OA
ATOM     24  C   UNL A   1      32.280  28.890  27.406  1.00  0.00     0.031 C 
ATOM     25  C   UNL A   1      33.598  28.657  26.694  1.00  0.00     0.161 C 
ENDBRANCH  19  20
ENDBRANCH   9  19
ENDBRANCH   6   8
ENDBRANCH   5   6
ENDBRANCH   4   5
ENDBRANCH   3   4
ENDBRANCH   2   3
ENDBRANCH   1   2
BRANCH   1  26
ATOM     26  C   UNL A   1      42.417  19.637  25.806  1.00  0.00     0.188 C 
BRANCH  26  27
ATOM     27  O   UNL A   1      43.180  19.046  24.777  1.00  0.00    -0.376 OA
BRANCH  27  28
ATOM     28  C   UNL A   1      44.540  18.782  25.091  1.00  0.00     0.202 C 
BRANCH  28  29
ATOM     29  C   UNL A   1      45.624  19.557  24.303  1.00  0.00     0.261 C 
BRANCH  29  30
ATOM     30  O   UNL A   1      45.762  20.954  24.692  1.00  0.00    -0.460 OA
BRANCH  30  31
ATOM     31  C   UNL A   1      44.938  21.865  24.087  1.00  0.00     0.338 C 
ATOM     32  O   UNL A   1      44.523  21.797  22.943  1.00  0.00    -0.246 OA
BRANCH  31  33
ATOM     33  C   UNL A   1      44.301  22.740  25.138  1.00  0.00     0.060 A 
ATOM     34  C   UNL A   1      43.984  24.094  24.966  1.00  0.00     0.016 A 
ATOM     35  C   UNL A   1      44.259  22.225  26.432  1.00  0.00     0.016 A 
ATOM     36  C   UNL A   1      43.855  24.956  26.096  1.00  0.00     0.010 A 
ATOM     37  C   UNL A   1      44.081  23.082  27.534  1.00  0.00     0.010 A 
ATOM     38  C   UNL A   1      44.007  24.487  27.415  1.00  0.00    -0.014 A 
BRANCH  38  39
ATOM     39  C   UNL A   1      43.693  25.357  28.625  1.00  0.00     0.031 A 
ATOM     40  C   UNL A   1      42.370  25.946  28.392  1.00  0.00     0.074 A 
ATOM     41  C   UNL A   1      44.266  25.697  29.834  1.00  0.00     0.049 A 
ATOM     42  N   UNL A   1      42.216  27.158  27.982  1.00  0.00    -0.248 NA
ATOM     43  C   UNL A   1      41.167  25.114  28.352  1.00  0.00     0.031 C 
ATOM     44  C   UNL A   1      45.586  25.392  30.364  1.00  0.00     0.029 A 
ATOM     45  N   UNL A   1      43.720  26.334  30.955  1.00  0.00    -0.354 N 
ATOM     46  C   UNL A   1      40.854  27.324  27.887  1.00  0.00     0.074 A 
ATOM     47  C   UNL A   1      40.287  25.999  27.877  1.00  0.00     0.031 C 
ATOM     48  C   UNL A   1      45.643  25.468  31.713  1.00  0.00     0.029 A 
ATOM     49  C   UNL A   1      44.434  26.134  32.170  1.00  0.00     0.049 A 
ATOM     50  H   UNL A   1      42.903  26.880  30.906  1.00  0.00     0.167 HD
ATOM     51  C   UNL A   1      40.329  28.536  28.191  1.00  0.00     0.037 A 
ATOM     52  C   UNL A   1      44.466  26.840  33.343  1.00  0.00     0.037 A 
ATOM     53  C   UNL A   1      41.344  29.573  28.149  1.00  0.00     0.049 A 
ATOM     54  C   UNL A   1      43.963  28.185  33.065  1.00  0.00     0.074 A 
ATOM     55  C   UNL A   1      42.228  30.052  27.200  1.00  0.00     0.029 A 
ATOM     56  N   UNL A   1      41.819  30.012  29.358  1.00  0.00    -0.354 N 
ATOM     57  N   UNL A   1      44.648  29.088  32.432  1.00  0.00    -0.248 NA
ATOM     58  C   UNL A   1      42.531  28.398  33.151  1.00  0.00     0.031 C 
ATOM     59  C   UNL A   1      43.397  30.456  27.914  1.00  0.00     0.029 A 
ATOM     60  C   UNL A   1      43.165  30.264  29.274  1.00  0.00     0.049 A 
ATOM     61  H   UNL A   1      41.274  30.128  30.169  1.00  0.00     0.167 HD
ATOM     62  C   UNL A   1      43.703  29.696  31.629  1.00  0.00     0.074 A 
ATOM     63  C   UNL A   1      42.414  29.335  32.212  1.00  0.00     0.031 C 
ATOM     64  C   UNL A   1      44.061  30.165  30.402  1.00  0.00     0.037 A 
BRANCH  51  65
ATOM     65  C   UNL A   1      39.040  28.677  28.961  1.00  0.00     0.064 A 
ATOM     66  C   UNL A   1      38.009  29.456  28.410  1.00  0.00     0.173 A 
ATOM     67  C   UNL A   1      38.869  28.314  30.318  1.00  0.00     0.173 A 
ATOM     68  F   UNL A   1      38.096  29.906  27.149  1.00  0.00    -0.203 F 
ATOM     69  C   UNL A   1      36.913  29.869  29.171  1.00  0.00     0.198 A 
ATOM     70  C   UNL A   1      37.745  28.673  31.054  1.00  0.00     0.198 A 
ATOM     71  F   UNL A   1      39.823  27.703  31.028  1.00  0.00    -0.203 F 
ATOM     72  F   UNL A   1      36.019  30.711  28.639  1.00  0.00    -0.200 F 
ATOM     73  C   UNL A   1      36.779  29.473  30.490  1.00  0.00     0.200 A 
ATOM     74  F   UNL A   1      37.654  28.302  32.339  1.00  0.00    -0.200 F 
ATOM     75  F   UNL A   1      35.753  29.906  31.231  1.00  0.00    -0.200 F 
ENDBRANCH  51  65
BRANCH  52  76
ATOM     76  C   UNL A   1      44.421  26.349  34.749  1.00  0.00     0.064 A 
ATOM     77  C   UNL A   1      43.259  25.818  35.341  1.00  0.00     0.173 A 
ATOM     78  C   UNL A   1      45.623  26.127  35.439  1.00  0.00     0.173 A 
ATOM     79  F   UNL A   1      42.080  25.909  34.710  1.00  0.00    -0.203 F 
ATOM     80  C   UNL A   1      43.299  25.143  36.572  1.00  0.00     0.198 A 
ATOM     81  C   UNL A   1      45.666  25.445  36.661  1.00  0.00     0.198 A 
ATOM     82  F   UNL A   1      46.781  26.532  34.900  1.00  0.00    -0.203 F 
ATOM     83  F   UNL A   1      42.174  24.645  37.108  1.00  0.00    -0.200 F 
ATOM     84  C   UNL A   1      44.504  24.957  37.231  1.00  0.00     0.200 A 
ATOM     85  F   UNL A   1      46.836  25.288  37.296  1.00  0.00    -0.200 F 
ATOM     86  F   UNL A   1      44.545  24.330  38.415  1.00  0.00    -0.200 F 
ENDBRANCH  52  76
BRANCH  64  87
ATOM     87  C   UNL A   1      45.527  30.413  30.160  1.00  0.00     0.064 A 
ATOM     88  C   UNL A   1      46.239  31.535  30.618  1.00  0.00     0.173 A 
ATOM     89  C   UNL A   1      46.262  29.404  29.525  1.00  0.00     0.173 A 
ATOM     90  F   UNL A   1      45.618  32.518  31.274  1.00  0.00    -0.203 F 
ATOM     91  C   UNL A   1      47.621  31.638  30.449  1.00  0.00     0.198 A 
ATOM     92  C   UNL A   1      47.643  29.496  29.381  1.00  0.00     0.198 A 
ATOM     93  F   UNL A   1      45.638  28.303  29.082  1.00  0.00    -0.203 F 
ATOM     94  F   UNL A   1      48.280  32.714  30.906  1.00  0.00    -0.200 F 
ATOM     95  C   UNL A   1      48.324  30.611  29.843  1.00  0.00     0.200 A 
ATOM     96  F   UNL A   1      48.320  28.484  28.821  1.00  0.00    -0.200 F 
ATOM     97  F   UNL A   1      49.658  30.681  29.725  1.00  0.00    -0.200 F 
ENDBRANCH  64  87
ENDBRANCH  38  39
ENDBRANCH  31  33
ENDBRANCH  30  31
ENDBRANCH  29  30
ENDBRANCH  28  29
ENDBRANCH  27  28
ENDBRANCH  26  27
ENDBRANCH   1  26
TORSDOF 19
ENDMDL
