MODEL 1
REMARK VINA RESULT:     -10.4      0.000      0.000
REMARK SMILES C[C@@H]1C[N@@H+](CC(C)(C)C(=O)OCCOCCOCCOC(=O)c2ccc(-c3c4nc(c(-c5c(F)c(F)c(F)c(F)c5F)c5ccc([nH]5)c(-c5c(F)c(F)c(F)c(F)c5F)c5nc(c(-c6c(F)c(F)c(F)c(F)c6F)c6ccc3[nH]6)C=C5)C=C4)cc2)CC[C@@H]1[NH3+]
REMARK SMILES IDX 15 1 14 2 13 3 12 4 11 5 9 6 10 7 6 8 7 9 8 10 5 11 4 12
REMARK SMILES IDX 1 13 2 14 3 15 88 16 87 17 86 18 89 20 16 24 17 25 18 26
REMARK SMILES IDX 19 27 20 28 21 29 22 30 23 31 24 32 85 33 25 34 84 35 26 36
REMARK SMILES IDX 27 37 28 38 78 39 29 40 83 41 77 42 79 43 30 44 82 45 76 46
REMARK SMILES IDX 75 47 31 49 63 50 43 51 62 52 44 53 47 54 61 55 80 56 45 57
REMARK SMILES IDX 46 58 60 60 81 61 48 62 32 63 33 64 41 65 34 66 35 67 39 68
REMARK SMILES IDX 42 69 36 70 37 71 40 72 38 73 64 74 65 75 73 76 66 77 67 78
REMARK SMILES IDX 71 79 74 80 68 81 69 82 72 83 70 84 49 85 50 86 58 87 51 88
REMARK SMILES IDX 52 89 56 90 59 91 53 92 54 93 57 94 55 95
REMARK H PARENT 4 19 89 21 89 22 89 23 79 48 47 59
REMARK Flexibility Score: inf
ROOT
ATOM      1  C   UNL A   1      33.791  31.304  27.671  1.00  0.00     0.188 C 
ENDROOT
BRANCH   1   2
ATOM      2  O   UNL A   1      32.811  30.319  27.418  1.00  0.00    -0.376 OA
BRANCH   2   3
ATOM      3  C   UNL A   1      32.201  30.328  26.137  1.00  0.00     0.202 C 
BRANCH   3   4
ATOM      4  C   UNL A   1      32.533  29.229  25.108  1.00  0.00     0.261 C 
BRANCH   4   5
ATOM      5  O   UNL A   1      31.984  27.931  25.412  1.00  0.00    -0.463 OA
BRANCH   5   6
ATOM      6  C   UNL A   1      32.017  26.963  24.465  1.00  0.00     0.317 C 
ATOM      7  O   UNL A   1      32.911  26.869  23.632  1.00  0.00    -0.251 OA
BRANCH   6   8
ATOM      8  C   UNL A   1      30.849  25.961  24.597  1.00  0.00     0.111 C 
ATOM      9  C   UNL A   1      29.737  26.429  23.631  1.00  0.00     0.029 C 
ATOM     10  C   UNL A   1      30.164  25.997  25.995  1.00  0.00     0.029 C 
BRANCH   8  11
ATOM     11  C   UNL A   1      31.349  24.485  24.344  1.00  0.00     0.280 C 
BRANCH  11  12
ATOM     12  N   UNL A   1      32.719  23.999  24.633  1.00  0.00    -0.333 N 
ATOM     13  C   UNL A   1      35.726  23.142  23.678  1.00  0.00     0.020 C 
ATOM     14  C   UNL A   1      34.512  22.272  24.031  1.00  0.00     0.099 C 
ATOM     15  C   UNL A   1      33.182  22.975  23.687  1.00  0.00     0.271 C 
ATOM     16  C   UNL A   1      34.462  21.835  25.504  1.00  0.00     0.194 C 
ATOM     17  C   UNL A   1      34.273  23.062  26.391  1.00  0.00     0.126 C 
ATOM     18  C   UNL A   1      32.935  23.705  26.048  1.00  0.00     0.268 C 
ATOM     19  H   UNL A   1      33.351  24.780  24.457  1.00  0.00     0.348 HD
BRANCH  16  20
ATOM     20  N   UNL A   1      35.642  21.069  25.908  1.00  0.00    -0.355 N 
ATOM     21  H   UNL A   1      35.348  20.182  26.315  1.00  0.00     0.344 HD
ATOM     22  H   UNL A   1      36.172  21.601  26.597  1.00  0.00     0.344 HD
ATOM     23  H   UNL A   1      36.227  20.891  25.091  1.00  0.00     0.344 HD
ENDBRANCH  16  20
ENDBRANCH  11  12
ENDBRANCH   8  11
ENDBRANCH   6   8
ENDBRANCH   5   6
ENDBRANCH   4   5
ENDBRANCH   3   4
ENDBRANCH   2   3
ENDBRANCH   1   2
BRANCH   1  24
ATOM     24  C   UNL A   1      33.219  32.730  27.728  1.00  0.00     0.188 C 
BRANCH  24  25
ATOM     25  O   UNL A   1      34.012  33.807  28.199  1.00  0.00    -0.376 OA
BRANCH  25  26
ATOM     26  C   UNL A   1      33.635  34.434  29.418  1.00  0.00     0.202 C 
BRANCH  26  27
ATOM     27  C   UNL A   1      34.382  34.076  30.714  1.00  0.00     0.261 C 
BRANCH  27  28
ATOM     28  O   UNL A   1      34.414  32.676  31.046  1.00  0.00    -0.460 OA
BRANCH  28  29
ATOM     29  C   UNL A   1      35.290  32.322  32.014  1.00  0.00     0.338 C 
ATOM     30  O   UNL A   1      35.175  32.508  33.228  1.00  0.00    -0.246 OA
BRANCH  29  31
ATOM     31  C   UNL A   1      36.359  31.478  31.452  1.00  0.00     0.060 A 
ATOM     32  C   UNL A   1      37.332  30.955  32.321  1.00  0.00     0.016 A 
ATOM     33  C   UNL A   1      36.450  31.257  30.079  1.00  0.00     0.016 A 
ATOM     34  C   UNL A   1      38.406  30.223  31.820  1.00  0.00     0.010 A 
ATOM     35  C   UNL A   1      37.549  30.555  29.573  1.00  0.00     0.010 A 
ATOM     36  C   UNL A   1      38.545  30.062  30.437  1.00  0.00    -0.014 A 
BRANCH  36  37
ATOM     37  C   UNL A   1      39.829  29.573  29.881  1.00  0.00     0.031 A 
ATOM     38  C   UNL A   1      40.974  30.544  29.773  1.00  0.00     0.074 A 
ATOM     39  C   UNL A   1      39.985  28.298  29.486  1.00  0.00     0.049 A 
ATOM     40  N   UNL A   1      42.153  30.387  29.226  1.00  0.00    -0.248 NA
ATOM     41  C   UNL A   1      40.755  31.875  30.363  1.00  0.00     0.031 C 
ATOM     42  C   UNL A   1      38.979  27.247  29.602  1.00  0.00     0.029 A 
ATOM     43  N   UNL A   1      41.056  27.680  28.889  1.00  0.00    -0.354 N 
ATOM     44  C   UNL A   1      42.809  31.599  29.397  1.00  0.00     0.074 A 
ATOM     45  C   UNL A   1      41.892  32.488  30.076  1.00  0.00     0.031 C 
ATOM     46  C   UNL A   1      39.472  26.115  29.069  1.00  0.00     0.029 A 
ATOM     47  C   UNL A   1      40.810  26.376  28.540  1.00  0.00     0.049 A 
ATOM     48  H   UNL A   1      41.917  28.130  28.727  1.00  0.00     0.167 HD
ATOM     49  C   UNL A   1      44.066  31.938  29.024  1.00  0.00     0.037 A 
ATOM     50  C   UNL A   1      41.571  25.507  27.844  1.00  0.00     0.037 A 
ATOM     51  C   UNL A   1      44.974  31.054  28.344  1.00  0.00     0.049 A 
ATOM     52  C   UNL A   1      42.930  25.940  27.351  1.00  0.00     0.074 A 
ATOM     53  C   UNL A   1      46.269  31.301  27.926  1.00  0.00     0.029 A 
ATOM     54  N   UNL A   1      44.676  29.750  27.974  1.00  0.00    -0.354 N 
ATOM     55  N   UNL A   1      43.550  27.084  27.519  1.00  0.00    -0.248 NA
ATOM     56  C   UNL A   1      43.696  24.957  26.570  1.00  0.00     0.031 C 
ATOM     57  C   UNL A   1      46.737  30.166  27.256  1.00  0.00     0.029 A 
ATOM     58  C   UNL A   1      45.755  29.190  27.309  1.00  0.00     0.049 A 
ATOM     59  H   UNL A   1      43.825  29.292  28.157  1.00  0.00     0.167 HD
ATOM     60  C   UNL A   1      44.786  26.945  26.898  1.00  0.00     0.074 A 
ATOM     61  C   UNL A   1      44.832  25.603  26.356  1.00  0.00     0.031 C 
ATOM     62  C   UNL A   1      45.793  27.846  26.788  1.00  0.00     0.037 A 
BRANCH  49  63
ATOM     63  C   UNL A   1      44.518  33.339  29.314  1.00  0.00     0.064 A 
ATOM     64  C   UNL A   1      44.293  34.389  28.411  1.00  0.00     0.173 A 
ATOM     65  C   UNL A   1      45.160  33.640  30.525  1.00  0.00     0.173 A 
ATOM     66  F   UNL A   1      43.699  34.150  27.232  1.00  0.00    -0.203 F 
ATOM     67  C   UNL A   1      44.718  35.683  28.699  1.00  0.00     0.198 A 
ATOM     68  C   UNL A   1      45.556  34.940  30.822  1.00  0.00     0.198 A 
ATOM     69  F   UNL A   1      45.397  32.673  31.423  1.00  0.00    -0.203 F 
ATOM     70  F   UNL A   1      44.538  36.661  27.801  1.00  0.00    -0.200 F 
ATOM     71  C   UNL A   1      45.342  35.959  29.906  1.00  0.00     0.200 A 
ATOM     72  F   UNL A   1      46.149  35.207  31.994  1.00  0.00    -0.200 F 
ATOM     73  F   UNL A   1      45.745  37.207  30.184  1.00  0.00    -0.200 F 
ENDBRANCH  49  63
BRANCH  50  74
ATOM     74  C   UNL A   1      41.058  24.145  27.543  1.00  0.00     0.064 A 
ATOM     75  C   UNL A   1      41.638  23.009  28.128  1.00  0.00     0.173 A 
ATOM     76  C   UNL A   1      40.006  23.946  26.637  1.00  0.00     0.173 A 
ATOM     77  F   UNL A   1      42.668  23.145  28.975  1.00  0.00    -0.203 F 
ATOM     78  C   UNL A   1      41.198  21.728  27.801  1.00  0.00     0.198 A 
ATOM     79  C   UNL A   1      39.547  22.666  26.334  1.00  0.00     0.198 A 
ATOM     80  F   UNL A   1      39.423  24.998  26.043  1.00  0.00    -0.203 F 
ATOM     81  F   UNL A   1      41.808  20.658  28.330  1.00  0.00    -0.200 F 
ATOM     82  C   UNL A   1      40.150  21.557  26.909  1.00  0.00     0.200 A 
ATOM     83  F   UNL A   1      38.531  22.506  25.475  1.00  0.00    -0.200 F 
ATOM     84  F   UNL A   1      39.732  20.324  26.591  1.00  0.00    -0.200 F 
ENDBRANCH  50  74
BRANCH  62  85
ATOM     85  C   UNL A   1      47.053  27.402  26.101  1.00  0.00     0.064 A 
ATOM     86  C   UNL A   1      47.244  27.574  24.723  1.00  0.00     0.173 A 
ATOM     87  C   UNL A   1      48.104  26.841  26.844  1.00  0.00     0.173 A 
ATOM     88  F   UNL A   1      46.266  28.094  23.965  1.00  0.00    -0.203 F 
ATOM     89  C   UNL A   1      48.429  27.176  24.109  1.00  0.00     0.198 A 
ATOM     90  C   UNL A   1      49.300  26.474  26.232  1.00  0.00     0.198 A 
ATOM     91  F   UNL A   1      47.977  26.664  28.167  1.00  0.00    -0.203 F 
ATOM     92  F   UNL A   1      48.572  27.306  22.783  1.00  0.00    -0.200 F 
ATOM     93  C   UNL A   1      49.458  26.635  24.864  1.00  0.00     0.200 A 
ATOM     94  F   UNL A   1      50.298  25.966  26.968  1.00  0.00    -0.200 F 
ATOM     95  F   UNL A   1      50.603  26.262  24.274  1.00  0.00    -0.200 F 
ENDBRANCH  62  85
ENDBRANCH  36  37
ENDBRANCH  29  31
ENDBRANCH  28  29
ENDBRANCH  27  28
ENDBRANCH  26  27
ENDBRANCH  25  26
ENDBRANCH  24  25
ENDBRANCH   1  24
TORSDOF 20
ENDMDL
MODEL 2
REMARK VINA RESULT:     -10.3      3.502      8.750
REMARK SMILES C[C@@H]1C[N@@H+](CC(C)(C)C(=O)OCCOCCOCCOC(=O)c2ccc(-c3c4nc(c(-c5c(F)c(F)c(F)c(F)c5F)c5ccc([nH]5)c(-c5c(F)c(F)c(F)c(F)c5F)c5nc(c(-c6c(F)c(F)c(F)c(F)c6F)c6ccc3[nH]6)C=C5)C=C4)cc2)CC[C@@H]1[NH3+]
REMARK SMILES IDX 15 1 14 2 13 3 12 4 11 5 9 6 10 7 6 8 7 9 8 10 5 11 4 12
REMARK SMILES IDX 1 13 2 14 3 15 88 16 87 17 86 18 89 20 16 24 17 25 18 26
REMARK SMILES IDX 19 27 20 28 21 29 22 30 23 31 24 32 85 33 25 34 84 35 26 36
REMARK SMILES IDX 27 37 28 38 78 39 29 40 83 41 77 42 79 43 30 44 82 45 76 46
REMARK SMILES IDX 75 47 31 49 63 50 43 51 62 52 44 53 47 54 61 55 80 56 45 57
REMARK SMILES IDX 46 58 60 60 81 61 48 62 32 63 33 64 41 65 34 66 35 67 39 68
REMARK SMILES IDX 42 69 36 70 37 71 40 72 38 73 64 74 65 75 73 76 66 77 67 78
REMARK SMILES IDX 71 79 74 80 68 81 69 82 72 83 70 84 49 85 50 86 58 87 51 88
REMARK SMILES IDX 52 89 56 90 59 91 53 92 54 93 57 94 55 95
REMARK H PARENT 4 19 89 21 89 22 89 23 79 48 47 59
REMARK Flexibility Score: inf
ROOT
ATOM      1  C   UNL A   1      35.578  21.522  26.013  1.00  0.00     0.188 C 
ENDROOT
BRANCH   1   2
ATOM      2  O   UNL A   1      34.433  20.723  25.801  1.00  0.00    -0.376 OA
BRANCH   2   3
ATOM      3  C   UNL A   1      33.715  20.930  24.594  1.00  0.00     0.202 C 
BRANCH   3   4
ATOM      4  C   UNL A   1      32.177  21.032  24.611  1.00  0.00     0.261 C 
BRANCH   4   5
ATOM      5  O   UNL A   1      31.655  22.343  24.312  1.00  0.00    -0.463 OA
BRANCH   5   6
ATOM      6  C   UNL A   1      32.476  23.416  24.406  1.00  0.00     0.317 C 
ATOM      7  O   UNL A   1      33.273  23.730  23.529  1.00  0.00    -0.251 OA
BRANCH   6   8
ATOM      8  C   UNL A   1      32.248  24.230  25.698  1.00  0.00     0.111 C 
ATOM      9  C   UNL A   1      33.632  24.435  26.356  1.00  0.00     0.029 C 
ATOM     10  C   UNL A   1      31.436  23.454  26.778  1.00  0.00     0.029 C 
BRANCH   8  11
ATOM     11  C   UNL A   1      31.474  25.570  25.385  1.00  0.00     0.280 C 
BRANCH  11  12
ATOM     12  N   UNL A   1      31.730  26.435  24.209  1.00  0.00    -0.333 N 
ATOM     13  C   UNL A   1      33.672  28.383  22.441  1.00  0.00     0.020 C 
ATOM     14  C   UNL A   1      32.544  28.732  23.421  1.00  0.00     0.099 C 
ATOM     15  C   UNL A   1      32.418  27.687  24.550  1.00  0.00     0.271 C 
ATOM     16  C   UNL A   1      31.167  28.897  22.759  1.00  0.00     0.194 C 
ATOM     17  C   UNL A   1      30.717  27.556  22.185  1.00  0.00     0.126 C 
ATOM     18  C   UNL A   1      30.570  26.564  23.331  1.00  0.00     0.268 C 
ATOM     19  H   UNL A   1      32.411  25.946  23.628  1.00  0.00     0.348 HD
BRANCH  16  20
ATOM     20  N   UNL A   1      31.153  29.940  21.733  1.00  0.00    -0.355 N 
ATOM     21  H   UNL A   1      31.619  29.598  20.893  1.00  0.00     0.344 HD
ATOM     22  H   UNL A   1      31.640  30.765  22.081  1.00  0.00     0.344 HD
ATOM     23  H   UNL A   1      30.187  30.184  21.510  1.00  0.00     0.344 HD
ENDBRANCH  16  20
ENDBRANCH  11  12
ENDBRANCH   8  11
ENDBRANCH   6   8
ENDBRANCH   5   6
ENDBRANCH   4   5
ENDBRANCH   3   4
ENDBRANCH   2   3
ENDBRANCH   1   2
BRANCH   1  24
ATOM     24  C   UNL A   1      36.454  21.675  24.758  1.00  0.00     0.188 C 
BRANCH  24  25
ATOM     25  O   UNL A   1      37.785  21.187  24.745  1.00  0.00    -0.376 OA
BRANCH  25  26
ATOM     26  C   UNL A   1      37.991  19.796  24.955  1.00  0.00     0.202 C 
BRANCH  26  27
ATOM     27  C   UNL A   1      39.237  19.325  25.725  1.00  0.00     0.261 C 
BRANCH  27  28
ATOM     28  O   UNL A   1      40.301  20.289  25.833  1.00  0.00    -0.460 OA
BRANCH  28  29
ATOM     29  C   UNL A   1      40.883  20.386  27.050  1.00  0.00     0.338 C 
ATOM     30  O   UNL A   1      41.389  19.474  27.710  1.00  0.00    -0.246 OA
BRANCH  29  31
ATOM     31  C   UNL A   1      41.025  21.800  27.439  1.00  0.00     0.060 A 
ATOM     32  C   UNL A   1      40.292  22.770  26.734  1.00  0.00     0.016 A 
ATOM     33  C   UNL A   1      41.919  22.182  28.438  1.00  0.00     0.016 A 
ATOM     34  C   UNL A   1      40.462  24.124  27.013  1.00  0.00     0.010 A 
ATOM     35  C   UNL A   1      42.117  23.543  28.691  1.00  0.00     0.010 A 
ATOM     36  C   UNL A   1      41.413  24.518  27.961  1.00  0.00    -0.014 A 
BRANCH  36  37
ATOM     37  C   UNL A   1      41.827  25.940  28.036  1.00  0.00     0.031 A 
ATOM     38  C   UNL A   1      43.163  26.323  27.460  1.00  0.00     0.074 A 
ATOM     39  C   UNL A   1      41.039  26.873  28.596  1.00  0.00     0.049 A 
ATOM     40  N   UNL A   1      43.791  27.471  27.499  1.00  0.00    -0.248 NA
ATOM     41  C   UNL A   1      43.889  25.263  26.741  1.00  0.00     0.031 C 
ATOM     42  C   UNL A   1      39.699  26.644  29.126  1.00  0.00     0.029 A 
ATOM     43  N   UNL A   1      41.271  28.208  28.822  1.00  0.00    -0.354 N 
ATOM     44  C   UNL A   1      44.986  27.268  26.822  1.00  0.00     0.074 A 
ATOM     45  C   UNL A   1      45.008  25.883  26.403  1.00  0.00     0.031 C 
ATOM     46  C   UNL A   1      39.233  27.796  29.640  1.00  0.00     0.029 A 
ATOM     47  C   UNL A   1      40.259  28.830  29.509  1.00  0.00     0.049 A 
ATOM     48  H   UNL A   1      42.084  28.674  28.519  1.00  0.00     0.167 HD
ATOM     49  C   UNL A   1      45.975  28.158  26.569  1.00  0.00     0.037 A 
ATOM     50  C   UNL A   1      40.189  30.082  30.003  1.00  0.00     0.037 A 
ATOM     51  C   UNL A   1      45.954  29.532  26.992  1.00  0.00     0.049 A 
ATOM     52  C   UNL A   1      41.347  31.028  29.795  1.00  0.00     0.074 A 
ATOM     53  C   UNL A   1      46.905  30.515  26.784  1.00  0.00     0.029 A 
ATOM     54  N   UNL A   1      44.927  30.117  27.720  1.00  0.00    -0.354 N 
ATOM     55  N   UNL A   1      42.473  30.834  29.151  1.00  0.00    -0.248 NA
ATOM     56  C   UNL A   1      41.222  32.369  30.387  1.00  0.00     0.031 C 
ATOM     57  C   UNL A   1      46.480  31.679  27.430  1.00  0.00     0.029 A 
ATOM     58  C   UNL A   1      45.236  31.441  27.991  1.00  0.00     0.049 A 
ATOM     59  H   UNL A   1      44.103  29.660  28.001  1.00  0.00     0.167 HD
ATOM     60  C   UNL A   1      43.170  32.035  29.229  1.00  0.00     0.074 A 
ATOM     61  C   UNL A   1      42.338  32.953  29.976  1.00  0.00     0.031 C 
ATOM     62  C   UNL A   1      44.389  32.349  28.724  1.00  0.00     0.037 A 
BRANCH  49  63
ATOM     63  C   UNL A   1      47.181  27.658  25.829  1.00  0.00     0.064 A 
ATOM     64  C   UNL A   1      47.262  27.711  24.430  1.00  0.00     0.173 A 
ATOM     65  C   UNL A   1      48.280  27.143  26.533  1.00  0.00     0.173 A 
ATOM     66  F   UNL A   1      46.231  28.178  23.710  1.00  0.00    -0.203 F 
ATOM     67  C   UNL A   1      48.391  27.244  23.761  1.00  0.00     0.198 A 
ATOM     68  C   UNL A   1      49.419  26.706  25.863  1.00  0.00     0.198 A 
ATOM     69  F   UNL A   1      48.254  27.073  27.872  1.00  0.00    -0.203 F 
ATOM     70  F   UNL A   1      48.429  27.258  22.422  1.00  0.00    -0.200 F 
ATOM     71  C   UNL A   1      49.470  26.748  24.478  1.00  0.00     0.200 A 
ATOM     72  F   UNL A   1      50.465  26.238  26.558  1.00  0.00    -0.200 F 
ATOM     73  F   UNL A   1      50.558  26.305  23.833  1.00  0.00    -0.200 F 
ENDBRANCH  49  63
BRANCH  50  74
ATOM     74  C   UNL A   1      38.990  30.515  30.769  1.00  0.00     0.064 A 
ATOM     75  C   UNL A   1      38.969  30.457  32.170  1.00  0.00     0.173 A 
ATOM     76  C   UNL A   1      37.830  30.956  30.117  1.00  0.00     0.173 A 
ATOM     77  F   UNL A   1      40.043  30.010  32.837  1.00  0.00    -0.203 F 
ATOM     78  C   UNL A   1      37.826  30.805  32.887  1.00  0.00     0.198 A 
ATOM     79  C   UNL A   1      36.698  31.332  30.837  1.00  0.00     0.198 A 
ATOM     80  F   UNL A   1      37.794  31.021  28.778  1.00  0.00    -0.203 F 
ATOM     81  F   UNL A   1      37.813  30.685  34.222  1.00  0.00    -0.200 F 
ATOM     82  C   UNL A   1      36.693  31.247  32.221  1.00  0.00     0.200 A 
ATOM     83  F   UNL A   1      35.606  31.763  30.189  1.00  0.00    -0.200 F 
ATOM     84  F   UNL A   1      35.592  31.575  32.911  1.00  0.00    -0.200 F 
ENDBRANCH  50  74
BRANCH  62  85
ATOM     85  C   UNL A   1      44.881  33.756  28.916  1.00  0.00     0.064 A 
ATOM     86  C   UNL A   1      45.665  34.121  30.019  1.00  0.00     0.173 A 
ATOM     87  C   UNL A   1      44.603  34.740  27.954  1.00  0.00     0.173 A 
ATOM     88  F   UNL A   1      45.950  33.221  30.973  1.00  0.00    -0.203 F 
ATOM     89  C   UNL A   1      46.130  35.425  30.167  1.00  0.00     0.198 A 
ATOM     90  C   UNL A   1      45.096  36.035  28.089  1.00  0.00     0.198 A 
ATOM     91  F   UNL A   1      43.864  34.441  26.875  1.00  0.00    -0.203 F 
ATOM     92  F   UNL A   1      46.839  35.764  31.252  1.00  0.00    -0.200 F 
ATOM     93  C   UNL A   1      45.852  36.378  29.198  1.00  0.00     0.200 A 
ATOM     94  F   UNL A   1      44.839  36.949  27.143  1.00  0.00    -0.200 F 
ATOM     95  F   UNL A   1      46.310  37.631  29.336  1.00  0.00    -0.200 F 
ENDBRANCH  62  85
ENDBRANCH  36  37
ENDBRANCH  29  31
ENDBRANCH  28  29
ENDBRANCH  27  28
ENDBRANCH  26  27
ENDBRANCH  25  26
ENDBRANCH  24  25
ENDBRANCH   1  24
TORSDOF 20
ENDMDL
MODEL 3
REMARK VINA RESULT:     -10.0      2.939      4.514
REMARK SMILES C[C@@H]1C[N@@H+](CC(C)(C)C(=O)OCCOCCOCCOC(=O)c2ccc(-c3c4nc(c(-c5c(F)c(F)c(F)c(F)c5F)c5ccc([nH]5)c(-c5c(F)c(F)c(F)c(F)c5F)c5nc(c(-c6c(F)c(F)c(F)c(F)c6F)c6ccc3[nH]6)C=C5)C=C4)cc2)CC[C@@H]1[NH3+]
REMARK SMILES IDX 15 1 14 2 13 3 12 4 11 5 9 6 10 7 6 8 7 9 8 10 5 11 4 12
REMARK SMILES IDX 1 13 2 14 3 15 88 16 87 17 86 18 89 20 16 24 17 25 18 26
REMARK SMILES IDX 19 27 20 28 21 29 22 30 23 31 24 32 85 33 25 34 84 35 26 36
REMARK SMILES IDX 27 37 28 38 78 39 29 40 83 41 77 42 79 43 30 44 82 45 76 46
REMARK SMILES IDX 75 47 31 49 63 50 43 51 62 52 44 53 47 54 61 55 80 56 45 57
REMARK SMILES IDX 46 58 60 60 81 61 48 62 32 63 33 64 41 65 34 66 35 67 39 68
REMARK SMILES IDX 42 69 36 70 37 71 40 72 38 73 64 74 65 75 73 76 66 77 67 78
REMARK SMILES IDX 71 79 74 80 68 81 69 82 72 83 70 84 49 85 50 86 58 87 51 88
REMARK SMILES IDX 52 89 56 90 59 91 53 92 54 93 57 94 55 95
REMARK H PARENT 4 19 89 21 89 22 89 23 79 48 47 59
REMARK Flexibility Score: inf
ROOT
ATOM      1  C   UNL A   1      31.834  25.537  26.381  1.00  0.00     0.188 C 
ENDROOT
BRANCH   1   2
ATOM      2  O   UNL A   1      31.300  24.522  27.206  1.00  0.00    -0.376 OA
BRANCH   2   3
ATOM      3  C   UNL A   1      30.285  23.701  26.646  1.00  0.00     0.202 C 
BRANCH   3   4
ATOM      4  C   UNL A   1      30.626  22.291  26.123  1.00  0.00     0.261 C 
BRANCH   4   5
ATOM      5  O   UNL A   1      31.662  22.253  25.121  1.00  0.00    -0.463 OA
BRANCH   5   6
ATOM      6  C   UNL A   1      32.442  21.150  25.021  1.00  0.00     0.317 C 
ATOM      7  O   UNL A   1      31.990  20.016  24.914  1.00  0.00    -0.251 OA
BRANCH   6   8
ATOM      8  C   UNL A   1      33.949  21.486  24.988  1.00  0.00     0.111 C 
ATOM      9  C   UNL A   1      34.712  20.144  24.908  1.00  0.00     0.029 C 
ATOM     10  C   UNL A   1      34.464  22.125  26.312  1.00  0.00     0.029 C 
BRANCH   8  11
ATOM     11  C   UNL A   1      34.273  22.488  23.812  1.00  0.00     0.280 C 
BRANCH  11  12
ATOM     12  N   UNL A   1      33.615  23.802  23.622  1.00  0.00    -0.333 N 
ATOM     13  C   UNL A   1      31.076  25.638  22.685  1.00  0.00     0.020 C 
ATOM     14  C   UNL A   1      32.394  25.326  21.963  1.00  0.00     0.099 C 
ATOM     15  C   UNL A   1      32.931  23.926  22.327  1.00  0.00     0.271 C 
ATOM     16  C   UNL A   1      33.507  26.353  22.221  1.00  0.00     0.194 C 
ATOM     17  C   UNL A   1      33.906  26.311  23.693  1.00  0.00     0.126 C 
ATOM     18  C   UNL A   1      34.464  24.928  24.003  1.00  0.00     0.268 C 
ATOM     19  H   UNL A   1      32.849  23.848  24.294  1.00  0.00     0.348 HD
BRANCH  16  20
ATOM     20  N   UNL A   1      33.133  27.708  21.815  1.00  0.00    -0.355 N 
ATOM     21  H   UNL A   1      32.771  28.217  22.622  1.00  0.00     0.344 HD
ATOM     22  H   UNL A   1      32.415  27.660  21.093  1.00  0.00     0.344 HD
ATOM     23  H   UNL A   1      33.953  28.192  21.449  1.00  0.00     0.344 HD
ENDBRANCH  16  20
ENDBRANCH  11  12
ENDBRANCH   8  11
ENDBRANCH   6   8
ENDBRANCH   5   6
ENDBRANCH   4   5
ENDBRANCH   3   4
ENDBRANCH   2   3
ENDBRANCH   1   2
BRANCH   1  24
ATOM     24  C   UNL A   1      30.996  26.826  26.385  1.00  0.00     0.188 C 
BRANCH  24  25
ATOM     25  O   UNL A   1      31.596  28.076  26.088  1.00  0.00    -0.376 OA
BRANCH  25  26
ATOM     26  C   UNL A   1      32.105  28.848  27.168  1.00  0.00     0.202 C 
BRANCH  26  27
ATOM     27  C   UNL A   1      33.622  29.083  27.279  1.00  0.00     0.261 C 
BRANCH  27  28
ATOM     28  O   UNL A   1      34.051  30.449  27.133  1.00  0.00    -0.460 OA
BRANCH  28  29
ATOM     29  C   UNL A   1      34.755  30.957  28.171  1.00  0.00     0.338 C 
ATOM     30  O   UNL A   1      34.379  31.808  28.981  1.00  0.00    -0.246 OA
BRANCH  29  31
ATOM     31  C   UNL A   1      36.010  30.207  28.353  1.00  0.00     0.060 A 
ATOM     32  C   UNL A   1      36.268  29.617  29.602  1.00  0.00     0.016 A 
ATOM     33  C   UNL A   1      36.958  30.139  27.334  1.00  0.00     0.016 A 
ATOM     34  C   UNL A   1      37.479  28.973  29.842  1.00  0.00     0.010 A 
ATOM     35  C   UNL A   1      38.189  29.526  27.588  1.00  0.00     0.010 A 
ATOM     36  C   UNL A   1      38.465  28.967  28.850  1.00  0.00    -0.014 A 
BRANCH  36  37
ATOM     37  C   UNL A   1      39.852  28.575  29.196  1.00  0.00     0.031 A 
ATOM     38  C   UNL A   1      40.678  29.528  30.016  1.00  0.00     0.074 A 
ATOM     39  C   UNL A   1      40.371  27.400  28.801  1.00  0.00     0.049 A 
ATOM     40  N   UNL A   1      41.940  29.462  30.355  1.00  0.00    -0.248 NA
ATOM     41  C   UNL A   1      39.980  30.721  30.524  1.00  0.00     0.031 C 
ATOM     42  C   UNL A   1      39.654  26.363  28.064  1.00  0.00     0.029 A 
ATOM     43  N   UNL A   1      41.637  26.893  28.957  1.00  0.00    -0.354 N 
ATOM     44  C   UNL A   1      42.189  30.605  31.102  1.00  0.00     0.074 A 
ATOM     45  C   UNL A   1      40.956  31.360  31.150  1.00  0.00     0.031 C 
ATOM     46  C   UNL A   1      40.501  25.350  27.809  1.00  0.00     0.029 A 
ATOM     47  C   UNL A   1      41.825  25.687  28.331  1.00  0.00     0.049 A 
ATOM     48  H   UNL A   1      42.342  27.351  29.470  1.00  0.00     0.167 HD
ATOM     49  C   UNL A   1      43.342  30.990  31.699  1.00  0.00     0.037 A 
ATOM     50  C   UNL A   1      42.948  24.959  28.171  1.00  0.00     0.037 A 
ATOM     51  C   UNL A   1      44.569  30.241  31.645  1.00  0.00     0.049 A 
ATOM     52  C   UNL A   1      44.246  25.457  28.761  1.00  0.00     0.074 A 
ATOM     53  C   UNL A   1      45.792  30.544  32.218  1.00  0.00     0.029 A 
ATOM     54  N   UNL A   1      44.731  29.040  30.968  1.00  0.00    -0.354 N 
ATOM     55  N   UNL A   1      44.476  26.535  29.471  1.00  0.00    -0.248 NA
ATOM     56  C   UNL A   1      45.441  24.633  28.523  1.00  0.00     0.031 C 
ATOM     57  C   UNL A   1      46.706  29.555  31.845  1.00  0.00     0.029 A 
ATOM     58  C   UNL A   1      46.041  28.604  31.089  1.00  0.00     0.049 A 
ATOM     59  H   UNL A   1      44.021  28.570  30.476  1.00  0.00     0.167 HD
ATOM     60  C   UNL A   1      45.828  26.499  29.794  1.00  0.00     0.074 A 
ATOM     61  C   UNL A   1      46.365  25.289  29.209  1.00  0.00     0.031 C 
ATOM     62  C   UNL A   1      46.558  27.388  30.513  1.00  0.00     0.037 A 
BRANCH  49  63
ATOM     63  C   UNL A   1      43.337  32.299  32.432  1.00  0.00     0.064 A 
ATOM     64  C   UNL A   1      43.613  33.510  31.780  1.00  0.00     0.173 A 
ATOM     65  C   UNL A   1      43.026  32.344  33.799  1.00  0.00     0.173 A 
ATOM     66  F   UNL A   1      43.933  33.520  30.477  1.00  0.00    -0.203 F 
ATOM     67  C   UNL A   1      43.602  34.716  32.477  1.00  0.00     0.198 A 
ATOM     68  C   UNL A   1      42.985  33.554  34.485  1.00  0.00     0.198 A 
ATOM     69  F   UNL A   1      42.753  31.214  34.468  1.00  0.00    -0.203 F 
ATOM     70  F   UNL A   1      43.916  35.856  31.847  1.00  0.00    -0.200 F 
ATOM     71  C   UNL A   1      43.281  34.738  33.827  1.00  0.00     0.200 A 
ATOM     72  F   UNL A   1      42.665  33.574  35.787  1.00  0.00    -0.200 F 
ATOM     73  F   UNL A   1      43.265  35.899  34.495  1.00  0.00    -0.200 F 
ENDBRANCH  49  63
BRANCH  50  74
ATOM     74  C   UNL A   1      42.909  23.690  27.397  1.00  0.00     0.064 A 
ATOM     75  C   UNL A   1      42.469  22.497  27.987  1.00  0.00     0.173 A 
ATOM     76  C   UNL A   1      43.348  23.636  26.066  1.00  0.00     0.173 A 
ATOM     77  F   UNL A   1      42.072  22.490  29.267  1.00  0.00    -0.203 F 
ATOM     78  C   UNL A   1      42.489  21.295  27.280  1.00  0.00     0.198 A 
ATOM     79  C   UNL A   1      43.338  22.440  25.351  1.00  0.00     0.198 A 
ATOM     80  F   UNL A   1      43.788  24.748  25.457  1.00  0.00    -0.203 F 
ATOM     81  F   UNL A   1      42.117  20.159  27.887  1.00  0.00    -0.200 F 
ATOM     82  C   UNL A   1      42.917  21.269  25.962  1.00  0.00     0.200 A 
ATOM     83  F   UNL A   1      43.750  22.420  24.076  1.00  0.00    -0.200 F 
ATOM     84  F   UNL A   1      42.942  20.112  25.286  1.00  0.00    -0.200 F 
ENDBRANCH  50  74
BRANCH  62  85
ATOM     85  C   UNL A   1      48.006  27.065  30.754  1.00  0.00     0.064 A 
ATOM     86  C   UNL A   1      48.412  26.218  31.794  1.00  0.00     0.173 A 
ATOM     87  C   UNL A   1      48.996  27.574  29.898  1.00  0.00     0.173 A 
ATOM     88  F   UNL A   1      47.507  25.715  32.648  1.00  0.00    -0.203 F 
ATOM     89  C   UNL A   1      49.758  25.913  31.986  1.00  0.00     0.198 A 
ATOM     90  C   UNL A   1      50.336  27.241  30.073  1.00  0.00     0.198 A 
ATOM     91  F   UNL A   1      48.660  28.381  28.881  1.00  0.00    -0.203 F 
ATOM     92  F   UNL A   1      50.128  25.139  33.015  1.00  0.00    -0.200 F 
ATOM     93  C   UNL A   1      50.717  26.418  31.121  1.00  0.00     0.200 A 
ATOM     94  F   UNL A   1      51.259  27.718  29.225  1.00  0.00    -0.200 F 
ATOM     95  F   UNL A   1      52.010  26.115  31.300  1.00  0.00    -0.200 F 
ENDBRANCH  62  85
ENDBRANCH  36  37
ENDBRANCH  29  31
ENDBRANCH  28  29
ENDBRANCH  27  28
ENDBRANCH  26  27
ENDBRANCH  25  26
ENDBRANCH  24  25
ENDBRANCH   1  24
TORSDOF 20
ENDMDL
