MODEL 1
REMARK VINA RESULT:     -10.7      0.000      0.000
REMARK SMILES CC[C@H](C)[C@H](NC(=O)[C@@H]1CCC[NH2+]1)C(=O)OCCOCCOCCOC(=O)c1ccc(-c2c3nc(c(-c4c(F)c(F)c(F)c(F)c4F)c4ccc([nH]4)c(-c4c(F)c(F)c(F)c(F)c4F)c4nc(c(-c5c(F)c(F)c(F)c(F)c5F)c5ccc2[nH]5)C=C4)C=C3)cc1
REMARK SMILES IDX 20 1 19 2 18 3 17 4 16 5 14 6 15 7 5 8 3 9 4 10 2 11 1 12
REMARK SMILES IDX 6 13 7 14 8 16 9 17 10 18 13 19 11 20 12 21 21 24 22 25
REMARK SMILES IDX 23 26 24 27 25 28 26 29 27 30 28 31 29 32 90 33 30 34 89 35
REMARK SMILES IDX 31 36 32 37 33 38 83 39 34 40 88 41 82 42 84 43 35 44 87 45
REMARK SMILES IDX 81 46 80 47 36 49 68 50 48 51 67 52 49 53 52 54 66 55 85 56
REMARK SMILES IDX 50 57 51 58 65 60 86 61 53 62 37 63 38 64 46 65 39 66 40 67
REMARK SMILES IDX 44 68 47 69 41 70 42 71 45 72 43 73 69 74 70 75 78 76 71 77
REMARK SMILES IDX 72 78 76 79 79 80 73 81 74 82 77 83 75 84 54 85 55 86 63 87
REMARK SMILES IDX 56 88 57 89 61 90 64 91 58 92 59 93 62 94 60 95
REMARK H PARENT 6 15 13 22 13 23 84 48 52 59
REMARK Flexibility Score: inf
ROOT
ATOM      1  C   UNL A   1      39.687  21.652  26.534  1.00  0.00     0.188 C 
ENDROOT
BRANCH   1   2
ATOM      2  O   UNL A   1      38.822  21.571  25.411  1.00  0.00    -0.376 OA
BRANCH   2   3
ATOM      3  C   UNL A   1      37.560  22.219  25.594  1.00  0.00     0.202 C 
BRANCH   3   4
ATOM      4  C   UNL A   1      36.331  21.316  25.360  1.00  0.00     0.261 C 
BRANCH   4   5
ATOM      5  O   UNL A   1      35.071  22.028  25.452  1.00  0.00    -0.462 OA
BRANCH   5   6
ATOM      6  C   UNL A   1      34.238  21.751  26.487  1.00  0.00     0.328 C 
ATOM      7  O   UNL A   1      34.626  21.542  27.637  1.00  0.00    -0.250 OA
BRANCH   6   8
ATOM      8  C   UNL A   1      32.727  21.731  26.113  1.00  0.00     0.195 C 
BRANCH   8   9
ATOM      9  C   UNL A   1      32.368  21.358  24.634  1.00  0.00     0.019 C 
ATOM     10  C   UNL A   1      32.760  22.431  23.611  1.00  0.00     0.010 C 
BRANCH   9  11
ATOM     11  C   UNL A   1      32.845  19.965  24.180  1.00  0.00     0.002 C 
ATOM     12  C   UNL A   1      32.601  18.891  25.234  1.00  0.00     0.004 C 
ENDBRANCH   9  11
ENDBRANCH   8   9
BRANCH   8  13
ATOM     13  N   UNL A   1      31.663  22.427  26.883  1.00  0.00    -0.337 N 
ATOM     14  C   UNL A   1      30.915  23.550  26.735  1.00  0.00     0.278 C 
ATOM     15  H   UNL A   1      31.446  21.951  27.717  1.00  0.00     0.164 HD
ATOM     16  O   UNL A   1      29.801  23.514  27.278  1.00  0.00    -0.268 OA
BRANCH  14  17
ATOM     17  C   UNL A   1      31.341  24.831  26.018  1.00  0.00     0.272 C 
ATOM     18  C   UNL A   1      32.814  25.191  26.137  1.00  0.00     0.081 C 
ATOM     19  N   UNL A   1      30.620  26.014  26.466  1.00  0.00    -0.336 N 
ATOM     20  C   UNL A   1      32.854  26.712  26.213  1.00  0.00     0.068 C 
ATOM     21  C   UNL A   1      31.420  27.161  26.055  1.00  0.00     0.261 C 
ATOM     22  H   UNL A   1      30.517  26.002  27.480  1.00  0.00     0.346 HD
ATOM     23  H   UNL A   1      29.684  26.053  26.063  1.00  0.00     0.346 HD
ENDBRANCH  14  17
ENDBRANCH   8  13
ENDBRANCH   6   8
ENDBRANCH   5   6
ENDBRANCH   4   5
ENDBRANCH   3   4
ENDBRANCH   2   3
ENDBRANCH   1   2
BRANCH   1  24
ATOM     24  C   UNL A   1      40.766  20.589  26.547  1.00  0.00     0.188 C 
BRANCH  24  25
ATOM     25  O   UNL A   1      42.059  21.132  26.840  1.00  0.00    -0.376 OA
BRANCH  25  26
ATOM     26  C   UNL A   1      43.073  20.678  25.936  1.00  0.00     0.202 C 
BRANCH  26  27
ATOM     27  C   UNL A   1      43.718  21.768  25.062  1.00  0.00     0.261 C 
BRANCH  27  28
ATOM     28  O   UNL A   1      42.968  22.989  25.099  1.00  0.00    -0.460 OA
BRANCH  28  29
ATOM     29  C   UNL A   1      43.718  24.123  25.172  1.00  0.00     0.338 C 
ATOM     30  O   UNL A   1      44.651  24.428  24.458  1.00  0.00    -0.246 OA
BRANCH  29  31
ATOM     31  C   UNL A   1      43.078  25.058  26.136  1.00  0.00     0.060 A 
ATOM     32  C   UNL A   1      43.465  26.408  26.095  1.00  0.00     0.016 A 
ATOM     33  C   UNL A   1      42.024  24.659  26.967  1.00  0.00     0.016 A 
ATOM     34  C   UNL A   1      42.830  27.348  26.909  1.00  0.00     0.010 A 
ATOM     35  C   UNL A   1      41.388  25.599  27.779  1.00  0.00     0.010 A 
ATOM     36  C   UNL A   1      41.816  26.937  27.783  1.00  0.00    -0.014 A 
BRANCH  36  37
ATOM     37  C   UNL A   1      41.391  27.815  28.898  1.00  0.00     0.031 A 
ATOM     38  C   UNL A   1      42.166  27.711  30.182  1.00  0.00     0.074 A 
ATOM     39  C   UNL A   1      40.345  28.654  28.799  1.00  0.00     0.049 A 
ATOM     40  N   UNL A   1      41.942  28.267  31.344  1.00  0.00    -0.248 NA
ATOM     41  C   UNL A   1      43.354  26.839  30.150  1.00  0.00     0.031 C 
ATOM     42  C   UNL A   1      39.535  28.868  27.603  1.00  0.00     0.029 A 
ATOM     43  N   UNL A   1      39.776  29.472  29.746  1.00  0.00    -0.354 N 
ATOM     44  C   UNL A   1      42.951  27.805  32.177  1.00  0.00     0.074 A 
ATOM     45  C   UNL A   1      43.763  26.891  31.406  1.00  0.00     0.031 C 
ATOM     46  C   UNL A   1      38.556  29.745  27.894  1.00  0.00     0.029 A 
ATOM     47  C   UNL A   1      38.655  30.129  29.302  1.00  0.00     0.049 A 
ATOM     48  H   UNL A   1      40.137  29.577  30.655  1.00  0.00     0.167 HD
ATOM     49  C   UNL A   1      43.191  28.123  33.471  1.00  0.00     0.037 A 
ATOM     50  C   UNL A   1      37.798  30.925  29.972  1.00  0.00     0.037 A 
ATOM     51  C   UNL A   1      42.380  29.026  34.237  1.00  0.00     0.049 A 
ATOM     52  C   UNL A   1      38.044  31.214  31.434  1.00  0.00     0.074 A 
ATOM     53  C   UNL A   1      42.538  29.424  35.552  1.00  0.00     0.029 A 
ATOM     54  N   UNL A   1      41.250  29.669  33.755  1.00  0.00    -0.354 N 
ATOM     55  N   UNL A   1      39.014  30.796  32.212  1.00  0.00    -0.248 NA
ATOM     56  C   UNL A   1      37.076  32.090  32.111  1.00  0.00     0.031 C 
ATOM     57  C   UNL A   1      41.476  30.270  35.881  1.00  0.00     0.029 A 
ATOM     58  C   UNL A   1      40.687  30.445  34.754  1.00  0.00     0.049 A 
ATOM     59  H   UNL A   1      40.899  29.586  32.839  1.00  0.00     0.167 HD
ATOM     60  C   UNL A   1      38.792  31.381  33.453  1.00  0.00     0.074 A 
ATOM     61  C   UNL A   1      37.601  32.194  33.324  1.00  0.00     0.031 C 
ATOM     62  C   UNL A   1      39.509  31.259  34.598  1.00  0.00     0.037 A 
BRANCH  49  63
ATOM     63  C   UNL A   1      44.363  27.463  34.133  1.00  0.00     0.064 A 
ATOM     64  C   UNL A   1      45.638  28.052  34.130  1.00  0.00     0.173 A 
ATOM     65  C   UNL A   1      44.211  26.230  34.781  1.00  0.00     0.173 A 
ATOM     66  F   UNL A   1      45.839  29.221  33.503  1.00  0.00    -0.203 F 
ATOM     67  C   UNL A   1      46.721  27.415  34.728  1.00  0.00     0.198 A 
ATOM     68  C   UNL A   1      45.291  25.612  35.406  1.00  0.00     0.198 A 
ATOM     69  F   UNL A   1      43.016  25.622  34.809  1.00  0.00    -0.203 F 
ATOM     70  F   UNL A   1      47.940  27.969  34.663  1.00  0.00    -0.200 F 
ATOM     71  C   UNL A   1      46.546  26.200  35.370  1.00  0.00     0.200 A 
ATOM     72  F   UNL A   1      45.118  24.440  36.035  1.00  0.00    -0.200 F 
ATOM     73  F   UNL A   1      47.589  25.589  35.949  1.00  0.00    -0.200 F 
ENDBRANCH  49  63
BRANCH  50  74
ATOM     74  C   UNL A   1      36.614  31.503  29.279  1.00  0.00     0.064 A 
ATOM     75  C   UNL A   1      35.527  30.698  28.909  1.00  0.00     0.173 A 
ATOM     76  C   UNL A   1      36.561  32.862  28.939  1.00  0.00     0.173 A 
ATOM     77  F   UNL A   1      35.543  29.384  29.182  1.00  0.00    -0.203 F 
ATOM     78  C   UNL A   1      34.444  31.225  28.209  1.00  0.00     0.198 A 
ATOM     79  C   UNL A   1      35.463  33.396  28.265  1.00  0.00     0.198 A 
ATOM     80  F   UNL A   1      37.577  33.676  29.261  1.00  0.00    -0.203 F 
ATOM     81  F   UNL A   1      33.445  30.422  27.819  1.00  0.00    -0.200 F 
ATOM     82  C   UNL A   1      34.410  32.575  27.892  1.00  0.00     0.200 A 
ATOM     83  F   UNL A   1      35.432  34.701  27.966  1.00  0.00    -0.200 F 
ATOM     84  F   UNL A   1      33.370  33.081  27.216  1.00  0.00    -0.200 F 
ENDBRANCH  50  74
BRANCH  62  85
ATOM     85  C   UNL A   1      39.058  32.055  35.791  1.00  0.00     0.064 A 
ATOM     86  C   UNL A   1      38.238  31.498  36.783  1.00  0.00     0.173 A 
ATOM     87  C   UNL A   1      39.503  33.373  35.970  1.00  0.00     0.173 A 
ATOM     88  F   UNL A   1      37.776  30.245  36.654  1.00  0.00    -0.203 F 
ATOM     89  C   UNL A   1      37.860  32.242  37.899  1.00  0.00     0.198 A 
ATOM     90  C   UNL A   1      39.151  34.102  37.101  1.00  0.00     0.198 A 
ATOM     91  F   UNL A   1      40.300  33.949  35.055  1.00  0.00    -0.203 F 
ATOM     92  F   UNL A   1      37.040  31.706  38.813  1.00  0.00    -0.200 F 
ATOM     93  C   UNL A   1      38.324  33.540  38.061  1.00  0.00     0.200 A 
ATOM     94  F   UNL A   1      39.614  35.350  37.265  1.00  0.00    -0.200 F 
ATOM     95  F   UNL A   1      37.969  34.249  39.141  1.00  0.00    -0.200 F 
ENDBRANCH  62  85
ENDBRANCH  36  37
ENDBRANCH  29  31
ENDBRANCH  28  29
ENDBRANCH  27  28
ENDBRANCH  26  27
ENDBRANCH  25  26
ENDBRANCH  24  25
ENDBRANCH   1  24
TORSDOF 21
ENDMDL
MODEL 2
REMARK VINA RESULT:     -10.3      0.927      2.786
REMARK SMILES CC[C@H](C)[C@H](NC(=O)[C@@H]1CCC[NH2+]1)C(=O)OCCOCCOCCOC(=O)c1ccc(-c2c3nc(c(-c4c(F)c(F)c(F)c(F)c4F)c4ccc([nH]4)c(-c4c(F)c(F)c(F)c(F)c4F)c4nc(c(-c5c(F)c(F)c(F)c(F)c5F)c5ccc2[nH]5)C=C4)C=C3)cc1
REMARK SMILES IDX 20 1 19 2 18 3 17 4 16 5 14 6 15 7 5 8 3 9 4 10 2 11 1 12
REMARK SMILES IDX 6 13 7 14 8 16 9 17 10 18 13 19 11 20 12 21 21 24 22 25
REMARK SMILES IDX 23 26 24 27 25 28 26 29 27 30 28 31 29 32 90 33 30 34 89 35
REMARK SMILES IDX 31 36 32 37 33 38 83 39 34 40 88 41 82 42 84 43 35 44 87 45
REMARK SMILES IDX 81 46 80 47 36 49 68 50 48 51 67 52 49 53 52 54 66 55 85 56
REMARK SMILES IDX 50 57 51 58 65 60 86 61 53 62 37 63 38 64 46 65 39 66 40 67
REMARK SMILES IDX 44 68 47 69 41 70 42 71 45 72 43 73 69 74 70 75 78 76 71 77
REMARK SMILES IDX 72 78 76 79 79 80 73 81 74 82 77 83 75 84 54 85 55 86 63 87
REMARK SMILES IDX 56 88 57 89 61 90 64 91 58 92 59 93 62 94 60 95
REMARK H PARENT 6 15 13 22 13 23 84 48 52 59
REMARK Flexibility Score: inf
ROOT
ATOM      1  C   UNL A   1      39.834  21.550  26.592  1.00  0.00     0.188 C 
ENDROOT
BRANCH   1   2
ATOM      2  O   UNL A   1      38.863  21.351  25.575  1.00  0.00    -0.376 OA
BRANCH   2   3
ATOM      3  C   UNL A   1      37.832  22.342  25.545  1.00  0.00     0.202 C 
BRANCH   3   4
ATOM      4  C   UNL A   1      36.398  21.786  25.677  1.00  0.00     0.261 C 
BRANCH   4   5
ATOM      5  O   UNL A   1      35.400  22.620  25.036  1.00  0.00    -0.462 OA
BRANCH   5   6
ATOM      6  C   UNL A   1      34.323  23.021  25.758  1.00  0.00     0.328 C 
ATOM      7  O   UNL A   1      34.356  23.238  26.970  1.00  0.00    -0.250 OA
BRANCH   6   8
ATOM      8  C   UNL A   1      33.019  23.203  24.927  1.00  0.00     0.195 C 
BRANCH   8   9
ATOM      9  C   UNL A   1      31.790  23.837  25.664  1.00  0.00     0.019 C 
ATOM     10  C   UNL A   1      31.096  22.884  26.644  1.00  0.00     0.010 C 
BRANCH   9  11
ATOM     11  C   UNL A   1      32.062  25.203  26.324  1.00  0.00     0.002 C 
ATOM     12  C   UNL A   1      32.672  26.210  25.356  1.00  0.00     0.004 C 
ENDBRANCH   9  11
ENDBRANCH   8   9
BRANCH   8  13
ATOM     13  N   UNL A   1      32.713  22.462  23.676  1.00  0.00    -0.337 N 
ATOM     14  C   UNL A   1      32.444  21.175  23.334  1.00  0.00     0.278 C 
ATOM     15  H   UNL A   1      32.703  23.057  22.892  1.00  0.00     0.164 HD
ATOM     16  O   UNL A   1      31.731  21.037  22.329  1.00  0.00    -0.268 OA
BRANCH  14  17
ATOM     17  C   UNL A   1      32.973  19.925  24.037  1.00  0.00     0.272 C 
ATOM     18  C   UNL A   1      32.631  18.603  23.369  1.00  0.00     0.081 C 
ATOM     19  N   UNL A   1      32.511  19.792  25.411  1.00  0.00    -0.336 N 
ATOM     20  C   UNL A   1      32.405  17.620  24.511  1.00  0.00     0.068 C 
ATOM     21  C   UNL A   1      32.703  18.394  25.774  1.00  0.00     0.261 C 
ATOM     22  H   UNL A   1      31.524  20.041  25.477  1.00  0.00     0.346 HD
ATOM     23  H   UNL A   1      33.025  20.411  26.038  1.00  0.00     0.346 HD
ENDBRANCH  14  17
ENDBRANCH   8  13
ENDBRANCH   6   8
ENDBRANCH   5   6
ENDBRANCH   4   5
ENDBRANCH   3   4
ENDBRANCH   2   3
ENDBRANCH   1   2
BRANCH   1  24
ATOM     24  C   UNL A   1      40.947  20.523  26.577  1.00  0.00     0.188 C 
BRANCH  24  25
ATOM     25  O   UNL A   1      42.219  21.095  26.907  1.00  0.00    -0.376 OA
BRANCH  25  26
ATOM     26  C   UNL A   1      43.259  20.700  26.006  1.00  0.00     0.202 C 
BRANCH  26  27
ATOM     27  C   UNL A   1      43.731  21.784  25.022  1.00  0.00     0.261 C 
BRANCH  27  28
ATOM     28  O   UNL A   1      42.966  22.990  25.155  1.00  0.00    -0.460 OA
BRANCH  28  29
ATOM     29  C   UNL A   1      43.701  24.136  25.195  1.00  0.00     0.338 C 
ATOM     30  O   UNL A   1      44.606  24.449  24.449  1.00  0.00    -0.246 OA
BRANCH  29  31
ATOM     31  C   UNL A   1      43.077  25.070  26.171  1.00  0.00     0.060 A 
ATOM     32  C   UNL A   1      43.482  26.414  26.141  1.00  0.00     0.016 A 
ATOM     33  C   UNL A   1      42.022  24.676  27.002  1.00  0.00     0.016 A 
ATOM     34  C   UNL A   1      42.863  27.354  26.968  1.00  0.00     0.010 A 
ATOM     35  C   UNL A   1      41.402  25.616  27.826  1.00  0.00     0.010 A 
ATOM     36  C   UNL A   1      41.847  26.948  27.842  1.00  0.00    -0.014 A 
BRANCH  36  37
ATOM     37  C   UNL A   1      41.438  27.821  28.967  1.00  0.00     0.031 A 
ATOM     38  C   UNL A   1      42.213  27.689  30.249  1.00  0.00     0.074 A 
ATOM     39  C   UNL A   1      40.407  28.679  28.879  1.00  0.00     0.049 A 
ATOM     40  N   UNL A   1      42.000  28.236  31.417  1.00  0.00    -0.248 NA
ATOM     41  C   UNL A   1      43.385  26.797  30.206  1.00  0.00     0.031 C 
ATOM     42  C   UNL A   1      39.599  28.920  27.687  1.00  0.00     0.029 A 
ATOM     43  N   UNL A   1      39.853  29.495  29.836  1.00  0.00    -0.354 N 
ATOM     44  C   UNL A   1      43.002  27.746  32.244  1.00  0.00     0.074 A 
ATOM     45  C   UNL A   1      43.797  26.828  31.461  1.00  0.00     0.031 C 
ATOM     46  C   UNL A   1      38.636  29.810  27.989  1.00  0.00     0.029 A 
ATOM     47  C   UNL A   1      38.742  30.176  29.401  1.00  0.00     0.049 A 
ATOM     48  H   UNL A   1      40.217  29.583  30.745  1.00  0.00     0.167 HD
ATOM     49  C   UNL A   1      43.248  28.045  33.540  1.00  0.00     0.037 A 
ATOM     50  C   UNL A   1      37.900  30.979  30.080  1.00  0.00     0.037 A 
ATOM     51  C   UNL A   1      42.454  28.954  34.318  1.00  0.00     0.049 A 
ATOM     52  C   UNL A   1      38.153  31.247  31.546  1.00  0.00     0.074 A 
ATOM     53  C   UNL A   1      42.620  29.333  35.637  1.00  0.00     0.029 A 
ATOM     54  N   UNL A   1      41.334  29.621  33.845  1.00  0.00    -0.354 N 
ATOM     55  N   UNL A   1      39.116  30.804  32.318  1.00  0.00    -0.248 NA
ATOM     56  C   UNL A   1      37.200  32.132  32.234  1.00  0.00     0.031 C 
ATOM     57  C   UNL A   1      41.572  30.194  35.977  1.00  0.00     0.029 A 
ATOM     58  C   UNL A   1      40.786  30.395  34.853  1.00  0.00     0.049 A 
ATOM     59  H   UNL A   1      40.981  29.555  32.929  1.00  0.00     0.167 HD
ATOM     60  C   UNL A   1      38.905  31.378  33.566  1.00  0.00     0.074 A 
ATOM     61  C   UNL A   1      37.728  32.212  33.447  1.00  0.00     0.031 C 
ATOM     62  C   UNL A   1      39.621  31.231  34.709  1.00  0.00     0.037 A 
BRANCH  49  63
ATOM     63  C   UNL A   1      44.410  27.359  34.194  1.00  0.00     0.064 A 
ATOM     64  C   UNL A   1      44.269  26.112  34.825  1.00  0.00     0.173 A 
ATOM     65  C   UNL A   1      45.680  27.951  34.187  1.00  0.00     0.173 A 
ATOM     66  F   UNL A   1      43.068  25.515  34.878  1.00  0.00    -0.203 F 
ATOM     67  C   UNL A   1      45.351  25.499  35.449  1.00  0.00     0.198 A 
ATOM     68  C   UNL A   1      46.768  27.319  34.784  1.00  0.00     0.198 A 
ATOM     69  F   UNL A   1      45.869  29.143  33.602  1.00  0.00    -0.203 F 
ATOM     70  F   UNL A   1      45.180  24.338  36.094  1.00  0.00    -0.200 F 
ATOM     71  C   UNL A   1      46.600  26.099  35.422  1.00  0.00     0.200 A 
ATOM     72  F   UNL A   1      47.977  27.896  34.750  1.00  0.00    -0.200 F 
ATOM     73  F   UNL A   1      47.643  25.507  36.020  1.00  0.00    -0.200 F 
ENDBRANCH  49  63
BRANCH  50  74
ATOM     74  C   UNL A   1      36.726  31.584  29.396  1.00  0.00     0.064 A 
ATOM     75  C   UNL A   1      35.631  30.800  29.006  1.00  0.00     0.173 A 
ATOM     76  C   UNL A   1      36.689  32.951  29.085  1.00  0.00     0.173 A 
ATOM     77  F   UNL A   1      35.631  29.481  29.251  1.00  0.00    -0.203 F 
ATOM     78  C   UNL A   1      34.556  31.355  28.313  1.00  0.00     0.198 A 
ATOM     79  C   UNL A   1      35.600  33.511  28.418  1.00  0.00     0.198 A 
ATOM     80  F   UNL A   1      37.713  33.746  29.427  1.00  0.00    -0.203 F 
ATOM     81  F   UNL A   1      33.550  30.571  27.903  1.00  0.00    -0.200 F 
ATOM     82  C   UNL A   1      34.538  32.710  28.024  1.00  0.00     0.200 A 
ATOM     83  F   UNL A   1      35.585  34.823  28.146  1.00  0.00    -0.200 F 
ATOM     84  F   UNL A   1      33.507  33.243  27.356  1.00  0.00    -0.200 F 
ENDBRANCH  50  74
BRANCH  62  85
ATOM     85  C   UNL A   1      39.185  32.020  35.911  1.00  0.00     0.064 A 
ATOM     86  C   UNL A   1      39.616  33.337  36.126  1.00  0.00     0.173 A 
ATOM     87  C   UNL A   1      38.275  31.469  36.825  1.00  0.00     0.173 A 
ATOM     88  F   UNL A   1      40.494  33.907  35.286  1.00  0.00    -0.203 F 
ATOM     89  C   UNL A   1      39.171  34.064  37.228  1.00  0.00     0.198 A 
ATOM     90  C   UNL A   1      37.808  32.209  37.907  1.00  0.00     0.198 A 
ATOM     91  F   UNL A   1      37.822  30.216  36.658  1.00  0.00    -0.203 F 
ATOM     92  F   UNL A   1      39.630  35.305  37.439  1.00  0.00    -0.200 F 
ATOM     93  C   UNL A   1      38.261  33.503  38.112  1.00  0.00     0.200 A 
ATOM     94  F   UNL A   1      36.915  31.671  38.750  1.00  0.00    -0.200 F 
ATOM     95  F   UNL A   1      37.825  34.208  39.164  1.00  0.00    -0.200 F 
ENDBRANCH  62  85
ENDBRANCH  36  37
ENDBRANCH  29  31
ENDBRANCH  28  29
ENDBRANCH  27  28
ENDBRANCH  26  27
ENDBRANCH  25  26
ENDBRANCH  24  25
ENDBRANCH   1  24
TORSDOF 21
ENDMDL
MODEL 3
REMARK VINA RESULT:     -10.1      3.248      8.619
REMARK SMILES CC[C@H](C)[C@H](NC(=O)[C@@H]1CCC[NH2+]1)C(=O)OCCOCCOCCOC(=O)c1ccc(-c2c3nc(c(-c4c(F)c(F)c(F)c(F)c4F)c4ccc([nH]4)c(-c4c(F)c(F)c(F)c(F)c4F)c4nc(c(-c5c(F)c(F)c(F)c(F)c5F)c5ccc2[nH]5)C=C4)C=C3)cc1
REMARK SMILES IDX 20 1 19 2 18 3 17 4 16 5 14 6 15 7 5 8 3 9 4 10 2 11 1 12
REMARK SMILES IDX 6 13 7 14 8 16 9 17 10 18 13 19 11 20 12 21 21 24 22 25
REMARK SMILES IDX 23 26 24 27 25 28 26 29 27 30 28 31 29 32 90 33 30 34 89 35
REMARK SMILES IDX 31 36 32 37 33 38 83 39 34 40 88 41 82 42 84 43 35 44 87 45
REMARK SMILES IDX 81 46 80 47 36 49 68 50 48 51 67 52 49 53 52 54 66 55 85 56
REMARK SMILES IDX 50 57 51 58 65 60 86 61 53 62 37 63 38 64 46 65 39 66 40 67
REMARK SMILES IDX 44 68 47 69 41 70 42 71 45 72 43 73 69 74 70 75 78 76 71 77
REMARK SMILES IDX 72 78 76 79 79 80 73 81 74 82 77 83 75 84 54 85 55 86 63 87
REMARK SMILES IDX 56 88 57 89 61 90 64 91 58 92 59 93 62 94 60 95
REMARK H PARENT 6 15 13 22 13 23 84 48 52 59
REMARK Flexibility Score: inf
ROOT
ATOM      1  C   UNL A   1      33.331  29.865  26.409  1.00  0.00     0.188 C 
ENDROOT
BRANCH   1   2
ATOM      2  O   UNL A   1      34.187  28.820  25.970  1.00  0.00    -0.376 OA
BRANCH   2   3
ATOM      3  C   UNL A   1      33.521  27.778  25.251  1.00  0.00     0.202 C 
BRANCH   3   4
ATOM      4  C   UNL A   1      33.171  26.534  26.095  1.00  0.00     0.261 C 
BRANCH   4   5
ATOM      5  O   UNL A   1      33.843  25.330  25.646  1.00  0.00    -0.462 OA
BRANCH   5   6
ATOM      6  C   UNL A   1      33.101  24.218  25.409  1.00  0.00     0.328 C 
ATOM      7  O   UNL A   1      32.278  23.765  26.205  1.00  0.00    -0.250 OA
BRANCH   6   8
ATOM      8  C   UNL A   1      33.360  23.552  24.026  1.00  0.00     0.195 C 
BRANCH   8   9
ATOM      9  C   UNL A   1      33.999  22.121  24.038  1.00  0.00     0.019 C 
ATOM     10  C   UNL A   1      35.011  21.902  25.169  1.00  0.00     0.010 C 
BRANCH   9  11
ATOM     11  C   UNL A   1      32.991  20.957  23.969  1.00  0.00     0.002 C 
ATOM     12  C   UNL A   1      32.800  20.268  25.315  1.00  0.00     0.004 C 
ENDBRANCH   9  11
ENDBRANCH   8   9
BRANCH   8  13
ATOM     13  N   UNL A   1      33.456  24.295  22.743  1.00  0.00    -0.337 N 
ATOM     14  C   UNL A   1      32.834  25.358  22.172  1.00  0.00     0.278 C 
ATOM     15  H   UNL A   1      34.149  23.918  22.154  1.00  0.00     0.164 HD
ATOM     16  O   UNL A   1      33.524  25.998  21.364  1.00  0.00    -0.268 OA
BRANCH  14  17
ATOM     17  C   UNL A   1      31.384  25.786  22.400  1.00  0.00     0.272 C 
ATOM     18  C   UNL A   1      31.151  27.285  22.507  1.00  0.00     0.081 C 
ATOM     19  N   UNL A   1      30.795  25.219  23.605  1.00  0.00    -0.336 N 
ATOM     20  C   UNL A   1      30.044  27.449  23.540  1.00  0.00     0.068 C 
ATOM     21  C   UNL A   1      29.637  26.044  23.921  1.00  0.00     0.261 C 
ATOM     22  H   UNL A   1      31.466  25.245  24.372  1.00  0.00     0.346 HD
ATOM     23  H   UNL A   1      30.528  24.245  23.465  1.00  0.00     0.346 HD
ENDBRANCH  14  17
ENDBRANCH   8  13
ENDBRANCH   6   8
ENDBRANCH   5   6
ENDBRANCH   4   5
ENDBRANCH   3   4
ENDBRANCH   2   3
ENDBRANCH   1   2
BRANCH   1  24
ATOM     24  C   UNL A   1      32.085  30.024  25.564  1.00  0.00     0.188 C 
BRANCH  24  25
ATOM     25  O   UNL A   1      31.411  31.263  25.816  1.00  0.00    -0.376 OA
BRANCH  25  26
ATOM     26  C   UNL A   1      31.696  31.800  27.113  1.00  0.00     0.202 C 
BRANCH  26  27
ATOM     27  C   UNL A   1      32.260  33.231  27.127  1.00  0.00     0.261 C 
BRANCH  27  28
ATOM     28  O   UNL A   1      33.078  33.467  28.281  1.00  0.00    -0.460 OA
BRANCH  28  29
ATOM     29  C   UNL A   1      34.255  34.105  28.032  1.00  0.00     0.338 C 
ATOM     30  O   UNL A   1      34.400  35.248  27.652  1.00  0.00    -0.246 OA
BRANCH  29  31
ATOM     31  C   UNL A   1      35.373  33.248  28.511  1.00  0.00     0.060 A 
ATOM     32  C   UNL A   1      35.094  31.898  28.781  1.00  0.00     0.016 A 
ATOM     33  C   UNL A   1      36.693  33.711  28.562  1.00  0.00     0.016 A 
ATOM     34  C   UNL A   1      36.122  31.024  29.141  1.00  0.00     0.010 A 
ATOM     35  C   UNL A   1      37.721  32.838  28.920  1.00  0.00     0.010 A 
ATOM     36  C   UNL A   1      37.433  31.503  29.250  1.00  0.00    -0.014 A 
BRANCH  36  37
ATOM     37  C   UNL A   1      38.458  30.713  29.972  1.00  0.00     0.031 A 
ATOM     38  C   UNL A   1      38.674  31.041  31.423  1.00  0.00     0.074 A 
ATOM     39  C   UNL A   1      39.193  29.761  29.371  1.00  0.00     0.049 A 
ATOM     40  N   UNL A   1      39.578  30.596  32.257  1.00  0.00    -0.248 NA
ATOM     41  C   UNL A   1      37.747  32.026  32.008  1.00  0.00     0.031 C 
ATOM     42  C   UNL A   1      39.059  29.331  27.982  1.00  0.00     0.029 A 
ATOM     43  N   UNL A   1      40.224  28.998  29.865  1.00  0.00    -0.354 N 
ATOM     44  C   UNL A   1      39.332  31.254  33.455  1.00  0.00     0.074 A 
ATOM     45  C   UNL A   1      38.226  32.158  33.233  1.00  0.00     0.031 C 
ATOM     46  C   UNL A   1      39.989  28.392  27.727  1.00  0.00     0.029 A 
ATOM     47  C   UNL A   1      40.801  28.180  28.925  1.00  0.00     0.049 A 
ATOM     48  H   UNL A   1      40.519  29.034  30.802  1.00  0.00     0.167 HD
ATOM     49  C   UNL A   1      39.963  31.108  34.643  1.00  0.00     0.037 A 
ATOM     50  C   UNL A   1      41.878  27.375  29.023  1.00  0.00     0.037 A 
ATOM     51  C   UNL A   1      41.065  30.214  34.862  1.00  0.00     0.049 A 
ATOM     52  C   UNL A   1      42.611  27.278  30.341  1.00  0.00     0.074 A 
ATOM     53  C   UNL A   1      41.771  29.984  36.028  1.00  0.00     0.029 A 
ATOM     54  N   UNL A   1      41.625  29.405  33.884  1.00  0.00    -0.354 N 
ATOM     55  N   UNL A   1      42.360  27.881  31.479  1.00  0.00    -0.248 NA
ATOM     56  C   UNL A   1      43.778  26.384  30.388  1.00  0.00     0.031 C 
ATOM     57  C   UNL A   1      42.791  29.071  35.744  1.00  0.00     0.029 A 
ATOM     58  C   UNL A   1      42.683  28.688  34.416  1.00  0.00     0.049 A 
ATOM     59  H   UNL A   1      41.316  29.348  32.952  1.00  0.00     0.167 HD
ATOM     60  C   UNL A   1      43.312  27.417  32.379  1.00  0.00     0.074 A 
ATOM     61  C   UNL A   1      44.140  26.473  31.660  1.00  0.00     0.031 C 
ATOM     62  C   UNL A   1      43.485  27.741  33.685  1.00  0.00     0.037 A 
BRANCH  49  63
ATOM     63  C   UNL A   1      39.485  31.959  35.782  1.00  0.00     0.064 A 
ATOM     64  C   UNL A   1      38.489  31.514  36.666  1.00  0.00     0.173 A 
ATOM     65  C   UNL A   1      40.031  33.232  35.995  1.00  0.00     0.173 A 
ATOM     66  F   UNL A   1      37.919  30.311  36.490  1.00  0.00    -0.203 F 
ATOM     67  C   UNL A   1      38.038  32.325  37.703  1.00  0.00     0.198 A 
ATOM     68  C   UNL A   1      39.600  34.027  37.053  1.00  0.00     0.198 A 
ATOM     69  F   UNL A   1      40.982  33.707  35.177  1.00  0.00    -0.203 F 
ATOM     70  F   UNL A   1      37.046  31.902  38.499  1.00  0.00    -0.200 F 
ATOM     71  C   UNL A   1      38.598  33.577  37.900  1.00  0.00     0.200 A 
ATOM     72  F   UNL A   1      40.149  35.235  37.248  1.00  0.00    -0.200 F 
ATOM     73  F   UNL A   1      38.166  34.356  38.901  1.00  0.00    -0.200 F 
ENDBRANCH  49  63
BRANCH  50  74
ATOM     74  C   UNL A   1      42.346  26.602  27.842  1.00  0.00     0.064 A 
ATOM     75  C   UNL A   1      43.304  27.129  26.964  1.00  0.00     0.173 A 
ATOM     76  C   UNL A   1      41.820  25.336  27.545  1.00  0.00     0.173 A 
ATOM     77  F   UNL A   1      43.816  28.349  27.186  1.00  0.00    -0.203 F 
ATOM     78  C   UNL A   1      43.702  26.431  25.825  1.00  0.00     0.198 A 
ATOM     79  C   UNL A   1      42.240  24.625  26.421  1.00  0.00     0.198 A 
ATOM     80  F   UNL A   1      40.895  24.789  28.346  1.00  0.00    -0.203 F 
ATOM     81  F   UNL A   1      44.577  26.983  24.974  1.00  0.00    -0.200 F 
ATOM     82  C   UNL A   1      43.173  25.177  25.557  1.00  0.00     0.200 A 
ATOM     83  F   UNL A   1      41.730  23.412  26.170  1.00  0.00    -0.200 F 
ATOM     84  F   UNL A   1      43.552  24.507  24.461  1.00  0.00    -0.200 F 
ENDBRANCH  50  74
BRANCH  62  85
ATOM     85  C   UNL A   1      44.581  27.039  34.437  1.00  0.00     0.064 A 
ATOM     86  C   UNL A   1      44.374  25.798  35.057  1.00  0.00     0.173 A 
ATOM     87  C   UNL A   1      45.870  27.590  34.484  1.00  0.00     0.173 A 
ATOM     88  F   UNL A   1      43.157  25.233  35.049  1.00  0.00    -0.203 F 
ATOM     89  C   UNL A   1      45.412  25.147  35.718  1.00  0.00     0.198 A 
ATOM     90  C   UNL A   1      46.913  26.922  35.118  1.00  0.00     0.198 A 
ATOM     91  F   UNL A   1      46.124  28.769  33.897  1.00  0.00    -0.203 F 
ATOM     92  F   UNL A   1      45.181  23.984  36.342  1.00  0.00    -0.200 F 
ATOM     93  C   UNL A   1      46.683  25.705  35.741  1.00  0.00     0.200 A 
ATOM     94  F   UNL A   1      48.144  27.453  35.124  1.00  0.00    -0.200 F 
ATOM     95  F   UNL A   1      47.683  25.071  36.368  1.00  0.00    -0.200 F 
ENDBRANCH  62  85
ENDBRANCH  36  37
ENDBRANCH  29  31
ENDBRANCH  28  29
ENDBRANCH  27  28
ENDBRANCH  26  27
ENDBRANCH  25  26
ENDBRANCH  24  25
ENDBRANCH   1  24
TORSDOF 21
ENDMDL
