MODEL 1
REMARK VINA RESULT:     -10.5      0.000      0.000
REMARK SMILES O=C(OCCOCCOCCOC(=O)C(F)(F)[C@H](O)c1ccccc1C1CC1)c1ccc(-c2c3nc(c(-c4c(F)c(F)c(F)c(F)c4F)c4ccc([nH]4)c(-c4c(F)c(F)c(F)c(F)c4F)c4nc(c(-c5c(F)c(F)c(F)c(F)c5F)c5ccc2[nH]5)C=C4)C=C3)cc1
REMARK SMILES IDX 8 1 7 2 6 3 5 4 4 5 3 6 2 7 1 8 29 9 30 10 91 11 31 12 90 13
REMARK SMILES IDX 32 14 33 15 34 16 84 17 35 18 89 19 83 20 85 21 36 22 88 23
REMARK SMILES IDX 82 24 81 25 37 27 69 28 49 29 68 30 50 31 53 32 67 33 86 34
REMARK SMILES IDX 51 35 52 36 66 38 87 39 54 40 38 41 39 42 47 43 40 44 41 45
REMARK SMILES IDX 45 46 48 47 42 48 43 49 46 50 44 51 70 52 71 53 79 54 72 55
REMARK SMILES IDX 73 56 77 57 80 58 74 59 75 60 78 61 76 62 55 63 56 64 64 65
REMARK SMILES IDX 57 66 58 67 62 68 65 69 59 70 60 71 63 72 61 73 9 74 10 75
REMARK SMILES IDX 11 76 12 77 13 78 14 79 15 80 16 81 17 82 18 83 20 84 21 85
REMARK SMILES IDX 25 86 22 87 24 88 23 89 26 90 27 91 28 92 19 93
REMARK H PARENT 85 26 53 37 19 94
REMARK Flexibility Score: inf
ROOT
ATOM      1  C   UNL A   1      35.551  22.495  25.483  1.00  0.00     0.188 C 
ENDROOT
BRANCH   1   2
ATOM      2  C   UNL A   1      36.533  21.664  24.653  1.00  0.00     0.188 C 
BRANCH   2   3
ATOM      3  O   UNL A   1      36.530  20.276  25.003  1.00  0.00    -0.376 OA
BRANCH   3   4
ATOM      4  C   UNL A   1      37.784  19.628  24.751  1.00  0.00     0.202 C 
BRANCH   4   5
ATOM      5  C   UNL A   1      38.964  20.112  25.613  1.00  0.00     0.261 C 
BRANCH   5   6
ATOM      6  O   UNL A   1      40.028  19.151  25.711  1.00  0.00    -0.460 OA
BRANCH   6   7
ATOM      7  C   UNL A   1      41.333  19.365  26.011  1.00  0.00     0.338 C 
ATOM      8  O   UNL A   1      42.102  18.405  25.964  1.00  0.00    -0.246 OA
BRANCH   7   9
ATOM      9  C   UNL A   1      41.899  20.690  26.429  1.00  0.00     0.060 A 
ATOM     10  C   UNL A   1      42.181  21.071  27.740  1.00  0.00     0.016 A 
ATOM     11  C   UNL A   1      42.224  21.603  25.405  1.00  0.00     0.016 A 
ATOM     12  C   UNL A   1      42.671  22.332  28.045  1.00  0.00     0.010 A 
ATOM     13  C   UNL A   1      42.763  22.863  25.697  1.00  0.00     0.010 A 
ATOM     14  C   UNL A   1      42.951  23.241  27.028  1.00  0.00    -0.014 A 
BRANCH  14  15
ATOM     15  C   UNL A   1      43.301  24.615  27.430  1.00  0.00     0.031 A 
ATOM     16  C   UNL A   1      44.685  25.105  27.136  1.00  0.00     0.074 A 
ATOM     17  C   UNL A   1      42.341  25.445  27.874  1.00  0.00     0.049 A 
ATOM     18  N   UNL A   1      45.210  26.282  27.349  1.00  0.00    -0.248 NA
ATOM     19  C   UNL A   1      45.598  24.146  26.491  1.00  0.00     0.031 C 
ATOM     20  C   UNL A   1      40.942  25.070  28.069  1.00  0.00     0.029 A 
ATOM     21  N   UNL A   1      42.378  26.774  28.200  1.00  0.00    -0.354 N 
ATOM     22  C   UNL A   1      46.513  26.198  26.882  1.00  0.00     0.074 A 
ATOM     23  C   UNL A   1      46.708  24.859  26.376  1.00  0.00     0.031 C 
ATOM     24  C   UNL A   1      40.244  26.150  28.453  1.00  0.00     0.029 A 
ATOM     25  C   UNL A   1      41.162  27.272  28.603  1.00  0.00     0.049 A 
ATOM     26  H   UNL A   1      43.195  27.319  28.151  1.00  0.00     0.167 HD
ATOM     27  C   UNL A   1      47.460  27.162  26.889  1.00  0.00     0.037 A 
ATOM     28  C   UNL A   1      40.849  28.492  29.076  1.00  0.00     0.037 A 
ATOM     29  C   UNL A   1      47.236  28.486  27.401  1.00  0.00     0.049 A 
ATOM     30  C   UNL A   1      41.954  29.513  29.170  1.00  0.00     0.074 A 
ATOM     31  C   UNL A   1      48.130  29.533  27.515  1.00  0.00     0.029 A 
ATOM     32  N   UNL A   1      46.016  28.939  27.889  1.00  0.00    -0.354 N 
ATOM     33  N   UNL A   1      43.202  29.417  28.775  1.00  0.00    -0.248 NA
ATOM     34  C   UNL A   1      41.617  30.801  29.786  1.00  0.00     0.031 C 
ATOM     35  C   UNL A   1      47.464  30.603  28.122  1.00  0.00     0.029 A 
ATOM     36  C   UNL A   1      46.141  30.242  28.333  1.00  0.00     0.049 A 
ATOM     37  H   UNL A   1      45.187  28.409  27.916  1.00  0.00     0.167 HD
ATOM     38  C   UNL A   1      43.795  30.634  29.079  1.00  0.00     0.074 A 
ATOM     39  C   UNL A   1      42.760  31.462  29.666  1.00  0.00     0.031 C 
ATOM     40  C   UNL A   1      45.078  31.033  28.901  1.00  0.00     0.037 A 
BRANCH  27  41
ATOM     41  C   UNL A   1      48.826  26.789  26.398  1.00  0.00     0.064 A 
ATOM     42  C   UNL A   1      49.799  26.241  27.245  1.00  0.00     0.173 A 
ATOM     43  C   UNL A   1      49.166  26.995  25.052  1.00  0.00     0.173 A 
ATOM     44  F   UNL A   1      49.535  26.054  28.547  1.00  0.00    -0.203 F 
ATOM     45  C   UNL A   1      51.070  25.927  26.765  1.00  0.00     0.198 A 
ATOM     46  C   UNL A   1      50.428  26.658  24.571  1.00  0.00     0.198 A 
ATOM     47  F   UNL A   1      48.274  27.528  24.204  1.00  0.00    -0.203 F 
ATOM     48  F   UNL A   1      52.002  25.449  27.602  1.00  0.00    -0.200 F 
ATOM     49  C   UNL A   1      51.381  26.131  25.429  1.00  0.00     0.200 A 
ATOM     50  F   UNL A   1      50.724  26.853  23.279  1.00  0.00    -0.200 F 
ATOM     51  F   UNL A   1      52.603  25.828  24.970  1.00  0.00    -0.200 F 
ENDBRANCH  27  41
BRANCH  28  52
ATOM     52  C   UNL A   1      39.471  28.790  29.559  1.00  0.00     0.064 A 
ATOM     53  C   UNL A   1      38.512  29.377  28.723  1.00  0.00     0.173 A 
ATOM     54  C   UNL A   1      39.100  28.536  30.890  1.00  0.00     0.173 A 
ATOM     55  F   UNL A   1      38.817  29.665  27.449  1.00  0.00    -0.203 F 
ATOM     56  C   UNL A   1      37.249  29.725  29.205  1.00  0.00     0.198 A 
ATOM     57  C   UNL A   1      37.826  28.849  31.361  1.00  0.00     0.198 A 
ATOM     58  F   UNL A   1      39.976  27.984  31.742  1.00  0.00    -0.203 F 
ATOM     59  F   UNL A   1      36.376  30.347  28.401  1.00  0.00    -0.200 F 
ATOM     60  C   UNL A   1      36.906  29.457  30.522  1.00  0.00     0.200 A 
ATOM     61  F   UNL A   1      37.500  28.577  32.632  1.00  0.00    -0.200 F 
ATOM     62  F   UNL A   1      35.698  29.802  30.987  1.00  0.00    -0.200 F 
ENDBRANCH  28  52
BRANCH  40  63
ATOM     63  C   UNL A   1      45.416  32.433  29.318  1.00  0.00     0.064 A 
ATOM     64  C   UNL A   1      45.243  33.519  28.450  1.00  0.00     0.173 A 
ATOM     65  C   UNL A   1      45.869  32.691  30.621  1.00  0.00     0.173 A 
ATOM     66  F   UNL A   1      44.826  33.317  27.190  1.00  0.00    -0.203 F 
ATOM     67  C   UNL A   1      45.535  34.814  28.862  1.00  0.00     0.198 A 
ATOM     68  C   UNL A   1      46.129  33.992  31.040  1.00  0.00     0.198 A 
ATOM     69  F   UNL A   1      46.042  31.684  31.490  1.00  0.00    -0.203 F 
ATOM     70  F   UNL A   1      45.408  35.834  28.002  1.00  0.00    -0.200 F 
ATOM     71  C   UNL A   1      45.969  35.050  30.159  1.00  0.00     0.200 A 
ATOM     72  F   UNL A   1      46.531  34.219  32.298  1.00  0.00    -0.200 F 
ATOM     73  F   UNL A   1      46.238  36.301  30.559  1.00  0.00    -0.200 F 
ENDBRANCH  40  63
ENDBRANCH  14  15
ENDBRANCH   7   9
ENDBRANCH   6   7
ENDBRANCH   5   6
ENDBRANCH   4   5
ENDBRANCH   3   4
ENDBRANCH   2   3
ENDBRANCH   1   2
BRANCH   1  74
ATOM     74  O   UNL A   1      34.268  22.732  24.908  1.00  0.00    -0.376 OA
BRANCH  74  75
ATOM     75  C   UNL A   1      33.319  21.671  24.954  1.00  0.00     0.202 C 
BRANCH  75  76
ATOM     76  C   UNL A   1      31.996  21.956  25.677  1.00  0.00     0.261 C 
BRANCH  76  77
ATOM     77  O   UNL A   1      31.260  23.048  25.104  1.00  0.00    -0.459 OA
BRANCH  77  78
ATOM     78  C   UNL A   1      30.867  24.043  25.964  1.00  0.00     0.380 C 
ATOM     79  O   UNL A   1      30.712  23.876  27.170  1.00  0.00    -0.245 OA
BRANCH  78  80
ATOM     80  C   UNL A   1      30.581  25.348  25.207  1.00  0.00     0.372 C 
ATOM     81  F   UNL A   1      29.926  25.103  24.025  1.00  0.00    -0.190 F 
ATOM     82  F   UNL A   1      29.717  26.117  25.937  1.00  0.00    -0.190 F 
BRANCH  80  83
ATOM     83  C   UNL A   1      31.889  26.128  24.856  1.00  0.00     0.227 C 
BRANCH  83  84
ATOM     84  C   UNL A   1      31.992  27.537  25.445  1.00  0.00    -0.009 A 
ATOM     85  C   UNL A   1      32.699  27.639  26.674  1.00  0.00     0.007 A 
ATOM     86  C   UNL A   1      31.495  28.723  24.838  1.00  0.00    -0.039 A 
ATOM     87  C   UNL A   1      32.840  28.841  27.361  1.00  0.00     0.000 A 
ATOM     88  C   UNL A   1      31.654  29.924  25.588  1.00  0.00     0.004 A 
ATOM     89  C   UNL A   1      32.298  29.989  26.823  1.00  0.00     0.000 A 
BRANCH  86  90
ATOM     90  C   UNL A   1      30.821  28.929  23.482  1.00  0.00     0.019 C 
ATOM     91  C   UNL A   1      29.587  28.264  22.945  1.00  0.00     0.009 C 
ATOM     92  C   UNL A   1      29.536  29.704  23.379  1.00  0.00     0.009 C 
ENDBRANCH  86  90
ENDBRANCH  83  84
BRANCH  83  93
ATOM     93  O   UNL A   1      33.092  25.428  25.202  1.00  0.00    -0.381 OA
ATOM     94  H   UNL A   1      33.696  26.031  25.663  1.00  0.00     0.211 HD
ENDBRANCH  83  93
ENDBRANCH  80  83
ENDBRANCH  78  80
ENDBRANCH  77  78
ENDBRANCH  76  77
ENDBRANCH  75  76
ENDBRANCH  74  75
ENDBRANCH   1  74
TORSDOF 21
ENDMDL
MODEL 2
REMARK VINA RESULT:     -10.5      4.712     10.440
REMARK SMILES O=C(OCCOCCOCCOC(=O)C(F)(F)[C@H](O)c1ccccc1C1CC1)c1ccc(-c2c3nc(c(-c4c(F)c(F)c(F)c(F)c4F)c4ccc([nH]4)c(-c4c(F)c(F)c(F)c(F)c4F)c4nc(c(-c5c(F)c(F)c(F)c(F)c5F)c5ccc2[nH]5)C=C4)C=C3)cc1
REMARK SMILES IDX 8 1 7 2 6 3 5 4 4 5 3 6 2 7 1 8 29 9 30 10 91 11 31 12 90 13
REMARK SMILES IDX 32 14 33 15 34 16 84 17 35 18 89 19 83 20 85 21 36 22 88 23
REMARK SMILES IDX 82 24 81 25 37 27 69 28 49 29 68 30 50 31 53 32 67 33 86 34
REMARK SMILES IDX 51 35 52 36 66 38 87 39 54 40 38 41 39 42 47 43 40 44 41 45
REMARK SMILES IDX 45 46 48 47 42 48 43 49 46 50 44 51 70 52 71 53 79 54 72 55
REMARK SMILES IDX 73 56 77 57 80 58 74 59 75 60 78 61 76 62 55 63 56 64 64 65
REMARK SMILES IDX 57 66 58 67 62 68 65 69 59 70 60 71 63 72 61 73 9 74 10 75
REMARK SMILES IDX 11 76 12 77 13 78 14 79 15 80 16 81 17 82 18 83 20 84 21 85
REMARK SMILES IDX 25 86 22 87 24 88 23 89 26 90 27 91 28 92 19 93
REMARK H PARENT 85 26 53 37 19 94
REMARK Flexibility Score: inf
ROOT
ATOM      1  C   UNL A   1      32.651  29.393  25.888  1.00  0.00     0.188 C 
ENDROOT
BRANCH   1   2
ATOM      2  C   UNL A   1      31.406  29.731  25.064  1.00  0.00     0.188 C 
BRANCH   2   3
ATOM      3  O   UNL A   1      30.917  31.055  25.302  1.00  0.00    -0.376 OA
BRANCH   3   4
ATOM      4  C   UNL A   1      31.281  31.569  26.591  1.00  0.00     0.202 C 
BRANCH   4   5
ATOM      5  C   UNL A   1      31.802  33.016  26.603  1.00  0.00     0.261 C 
BRANCH   5   6
ATOM      6  O   UNL A   1      32.460  33.373  27.830  1.00  0.00    -0.460 OA
BRANCH   6   7
ATOM      7  C   UNL A   1      33.708  33.874  28.003  1.00  0.00     0.338 C 
ATOM      8  O   UNL A   1      33.909  35.048  27.691  1.00  0.00    -0.246 OA
BRANCH   7   9
ATOM      9  C   UNL A   1      34.874  33.084  28.520  1.00  0.00     0.060 A 
ATOM     10  C   UNL A   1      34.798  31.823  29.109  1.00  0.00     0.016 A 
ATOM     11  C   UNL A   1      36.157  33.641  28.347  1.00  0.00     0.016 A 
ATOM     12  C   UNL A   1      35.923  31.174  29.596  1.00  0.00     0.010 A 
ATOM     13  C   UNL A   1      37.307  32.975  28.792  1.00  0.00     0.010 A 
ATOM     14  C   UNL A   1      37.181  31.751  29.454  1.00  0.00    -0.014 A 
BRANCH  14  15
ATOM     15  C   UNL A   1      38.306  31.094  30.145  1.00  0.00     0.031 A 
ATOM     16  C   UNL A   1      38.498  31.373  31.603  1.00  0.00     0.074 A 
ATOM     17  C   UNL A   1      39.007  30.137  29.514  1.00  0.00     0.049 A 
ATOM     18  N   UNL A   1      39.378  30.881  32.432  1.00  0.00    -0.248 NA
ATOM     19  C   UNL A   1      37.552  32.320  32.221  1.00  0.00     0.031 C 
ATOM     20  C   UNL A   1      38.794  29.724  28.129  1.00  0.00     0.029 A 
ATOM     21  N   UNL A   1      40.005  29.311  29.957  1.00  0.00    -0.354 N 
ATOM     22  C   UNL A   1      39.105  31.469  33.658  1.00  0.00     0.074 A 
ATOM     23  C   UNL A   1      37.980  32.357  33.473  1.00  0.00     0.031 C 
ATOM     24  C   UNL A   1      39.615  28.703  27.839  1.00  0.00     0.029 A 
ATOM     25  C   UNL A   1      40.462  28.441  28.996  1.00  0.00     0.049 A 
ATOM     26  H   UNL A   1      40.361  29.338  30.874  1.00  0.00     0.167 HD
ATOM     27  C   UNL A   1      39.750  31.282  34.831  1.00  0.00     0.037 A 
ATOM     28  C   UNL A   1      41.480  27.562  29.048  1.00  0.00     0.037 A 
ATOM     29  C   UNL A   1      40.868  30.391  34.983  1.00  0.00     0.049 A 
ATOM     30  C   UNL A   1      42.248  27.454  30.340  1.00  0.00     0.074 A 
ATOM     31  C   UNL A   1      41.642  30.157  36.103  1.00  0.00     0.029 A 
ATOM     32  N   UNL A   1      41.370  29.587  33.968  1.00  0.00    -0.354 N 
ATOM     33  N   UNL A   1      42.021  28.050  31.489  1.00  0.00    -0.248 NA
ATOM     34  C   UNL A   1      43.419  26.570  30.345  1.00  0.00     0.031 C 
ATOM     35  C   UNL A   1      42.646  29.250  35.751  1.00  0.00     0.029 A 
ATOM     36  C   UNL A   1      42.463  28.875  34.427  1.00  0.00     0.049 A 
ATOM     37  H   UNL A   1      41.003  29.533  33.055  1.00  0.00     0.167 HD
ATOM     38  C   UNL A   1      43.008  27.602  32.355  1.00  0.00     0.074 A 
ATOM     39  C   UNL A   1      43.819  26.662  31.605  1.00  0.00     0.031 C 
ATOM     40  C   UNL A   1      43.234  27.940  33.647  1.00  0.00     0.037 A 
BRANCH  27  41
ATOM     41  C   UNL A   1      39.308  32.107  36.000  1.00  0.00     0.064 A 
ATOM     42  C   UNL A   1      39.854  33.368  36.274  1.00  0.00     0.173 A 
ATOM     43  C   UNL A   1      38.321  31.616  36.869  1.00  0.00     0.173 A 
ATOM     44  F   UNL A   1      40.823  33.869  35.492  1.00  0.00    -0.203 F 
ATOM     45  C   UNL A   1      39.440  34.102  37.384  1.00  0.00     0.198 A 
ATOM     46  C   UNL A   1      37.892  32.361  37.963  1.00  0.00     0.198 A 
ATOM     47  F   UNL A   1      37.775  30.409  36.658  1.00  0.00    -0.203 F 
ATOM     48  F   UNL A   1      40.010  35.285  37.655  1.00  0.00    -0.200 F 
ATOM     49  C   UNL A   1      38.456  33.601  38.224  1.00  0.00     0.200 A 
ATOM     50  F   UNL A   1      36.940  31.876  38.771  1.00  0.00    -0.200 F 
ATOM     51  F   UNL A   1      38.059  34.307  39.291  1.00  0.00    -0.200 F 
ENDBRANCH  27  41
BRANCH  28  52
ATOM     52  C   UNL A   1      41.875  26.783  27.841  1.00  0.00     0.064 A 
ATOM     53  C   UNL A   1      41.332  25.518  27.575  1.00  0.00     0.173 A 
ATOM     54  C   UNL A   1      42.844  27.271  26.950  1.00  0.00     0.173 A 
ATOM     55  F   UNL A   1      40.419  24.991  28.405  1.00  0.00    -0.203 F 
ATOM     56  C   UNL A   1      41.764  24.761  26.486  1.00  0.00     0.198 A 
ATOM     57  C   UNL A   1      43.248  26.530  25.841  1.00  0.00     0.198 A 
ATOM     58  F   UNL A   1      43.407  28.470  27.154  1.00  0.00    -0.203 F 
ATOM     59  F   UNL A   1      41.277  23.527  26.295  1.00  0.00    -0.200 F 
ATOM     60  C   UNL A   1      42.719  25.269  25.617  1.00  0.00     0.200 A 
ATOM     61  F   UNL A   1      44.163  27.033  25.001  1.00  0.00    -0.200 F 
ATOM     62  F   UNL A   1      43.142  24.537  24.577  1.00  0.00    -0.200 F 
ENDBRANCH  28  52
BRANCH  40  63
ATOM     63  C   UNL A   1      44.383  27.263  34.333  1.00  0.00     0.064 A 
ATOM     64  C   UNL A   1      45.669  27.822  34.332  1.00  0.00     0.173 A 
ATOM     65  C   UNL A   1      44.180  26.069  35.041  1.00  0.00     0.173 A 
ATOM     66  F   UNL A   1      45.913  28.954  33.655  1.00  0.00    -0.203 F 
ATOM     67  C   UNL A   1      46.718  27.195  34.996  1.00  0.00     0.198 A 
ATOM     68  C   UNL A   1      45.224  25.463  35.731  1.00  0.00     0.198 A 
ATOM     69  F   UNL A   1      42.964  25.502  35.077  1.00  0.00    -0.203 F 
ATOM     70  F   UNL A   1      47.950  27.719  34.944  1.00  0.00    -0.200 F 
ATOM     71  C   UNL A   1      46.492  26.022  35.702  1.00  0.00     0.200 A 
ATOM     72  F   UNL A   1      45.000  24.340  36.427  1.00  0.00    -0.200 F 
ATOM     73  F   UNL A   1      47.502  25.426  36.352  1.00  0.00    -0.200 F 
ENDBRANCH  40  63
ENDBRANCH  14  15
ENDBRANCH   7   9
ENDBRANCH   6   7
ENDBRANCH   5   6
ENDBRANCH   4   5
ENDBRANCH   3   4
ENDBRANCH   2   3
ENDBRANCH   1   2
BRANCH   1  74
ATOM     74  O   UNL A   1      32.674  28.114  26.517  1.00  0.00    -0.376 OA
BRANCH  74  75
ATOM     75  C   UNL A   1      32.468  26.970  25.693  1.00  0.00     0.202 C 
BRANCH  75  76
ATOM     76  C   UNL A   1      31.482  25.914  26.209  1.00  0.00     0.261 C 
BRANCH  76  77
ATOM     77  O   UNL A   1      31.817  24.578  25.805  1.00  0.00    -0.459 OA
BRANCH  77  78
ATOM     78  C   UNL A   1      31.634  23.589  26.738  1.00  0.00     0.380 C 
ATOM     79  O   UNL A   1      30.549  23.333  27.252  1.00  0.00    -0.245 OA
BRANCH  78  80
ATOM     80  C   UNL A   1      32.966  22.913  27.097  1.00  0.00     0.372 C 
ATOM     81  F   UNL A   1      34.010  23.801  27.016  1.00  0.00    -0.190 F 
ATOM     82  F   UNL A   1      32.937  22.520  28.407  1.00  0.00    -0.190 F 
BRANCH  80  83
ATOM     83  C   UNL A   1      33.299  21.719  26.145  1.00  0.00     0.227 C 
BRANCH  83  84
ATOM     84  C   UNL A   1      34.545  21.902  25.275  1.00  0.00    -0.009 A 
ATOM     85  C   UNL A   1      35.718  21.243  25.735  1.00  0.00     0.007 A 
ATOM     86  C   UNL A   1      34.595  22.613  24.045  1.00  0.00    -0.039 A 
ATOM     87  C   UNL A   1      36.942  21.348  25.084  1.00  0.00     0.000 A 
ATOM     88  C   UNL A   1      35.875  22.702  23.425  1.00  0.00     0.004 A 
ATOM     89  C   UNL A   1      37.025  22.098  23.930  1.00  0.00     0.000 A 
BRANCH  86  90
ATOM     90  C   UNL A   1      33.480  23.299  23.256  1.00  0.00     0.019 C 
ATOM     91  C   UNL A   1      33.278  23.336  21.770  1.00  0.00     0.009 C 
ATOM     92  C   UNL A   1      32.381  22.487  22.629  1.00  0.00     0.009 C 
ENDBRANCH  86  90
ENDBRANCH  83  84
BRANCH  83  93
ATOM     93  O   UNL A   1      33.423  20.458  26.817  1.00  0.00    -0.381 OA
ATOM     94  H   UNL A   1      32.541  20.086  26.970  1.00  0.00     0.211 HD
ENDBRANCH  83  93
ENDBRANCH  80  83
ENDBRANCH  78  80
ENDBRANCH  77  78
ENDBRANCH  76  77
ENDBRANCH  75  76
ENDBRANCH  74  75
ENDBRANCH   1  74
TORSDOF 21
ENDMDL
MODEL 3
REMARK VINA RESULT:     -10.3      1.582      3.005
REMARK SMILES O=C(OCCOCCOCCOC(=O)C(F)(F)[C@H](O)c1ccccc1C1CC1)c1ccc(-c2c3nc(c(-c4c(F)c(F)c(F)c(F)c4F)c4ccc([nH]4)c(-c4c(F)c(F)c(F)c(F)c4F)c4nc(c(-c5c(F)c(F)c(F)c(F)c5F)c5ccc2[nH]5)C=C4)C=C3)cc1
REMARK SMILES IDX 8 1 7 2 6 3 5 4 4 5 3 6 2 7 1 8 29 9 30 10 91 11 31 12 90 13
REMARK SMILES IDX 32 14 33 15 34 16 84 17 35 18 89 19 83 20 85 21 36 22 88 23
REMARK SMILES IDX 82 24 81 25 37 27 69 28 49 29 68 30 50 31 53 32 67 33 86 34
REMARK SMILES IDX 51 35 52 36 66 38 87 39 54 40 38 41 39 42 47 43 40 44 41 45
REMARK SMILES IDX 45 46 48 47 42 48 43 49 46 50 44 51 70 52 71 53 79 54 72 55
REMARK SMILES IDX 73 56 77 57 80 58 74 59 75 60 78 61 76 62 55 63 56 64 64 65
REMARK SMILES IDX 57 66 58 67 62 68 65 69 59 70 60 71 63 72 61 73 9 74 10 75
REMARK SMILES IDX 11 76 12 77 13 78 14 79 15 80 16 81 17 82 18 83 20 84 21 85
REMARK SMILES IDX 25 86 22 87 24 88 23 89 26 90 27 91 28 92 19 93
REMARK H PARENT 85 26 53 37 19 94
REMARK Flexibility Score: inf
ROOT
ATOM      1  C   UNL A   1      34.886  22.440  24.358  1.00  0.00     0.188 C 
ENDROOT
BRANCH   1   2
ATOM      2  C   UNL A   1      35.699  22.665  25.635  1.00  0.00     0.188 C 
BRANCH   2   3
ATOM      3  O   UNL A   1      36.492  21.531  26.004  1.00  0.00    -0.376 OA
BRANCH   3   4
ATOM      4  C   UNL A   1      37.659  21.368  25.187  1.00  0.00     0.202 C 
BRANCH   4   5
ATOM      5  C   UNL A   1      38.491  20.105  25.467  1.00  0.00     0.261 C 
BRANCH   5   6
ATOM      6  O   UNL A   1      39.880  20.382  25.709  1.00  0.00    -0.460 OA
BRANCH   6   7
ATOM      7  C   UNL A   1      40.475  20.767  26.865  1.00  0.00     0.338 C 
ATOM      8  O   UNL A   1      40.726  19.901  27.704  1.00  0.00    -0.246 OA
BRANCH   7   9
ATOM      9  C   UNL A   1      40.819  22.187  27.208  1.00  0.00     0.060 A 
ATOM     10  C   UNL A   1      40.311  23.317  26.571  1.00  0.00     0.016 A 
ATOM     11  C   UNL A   1      41.686  22.393  28.300  1.00  0.00     0.016 A 
ATOM     12  C   UNL A   1      40.710  24.598  26.926  1.00  0.00     0.010 A 
ATOM     13  C   UNL A   1      42.061  23.683  28.699  1.00  0.00     0.010 A 
ATOM     14  C   UNL A   1      41.597  24.788  27.981  1.00  0.00    -0.014 A 
BRANCH  14  15
ATOM     15  C   UNL A   1      42.112  26.154  28.191  1.00  0.00     0.031 A 
ATOM     16  C   UNL A   1      43.416  26.522  27.554  1.00  0.00     0.074 A 
ATOM     17  C   UNL A   1      41.330  27.077  28.779  1.00  0.00     0.049 A 
ATOM     18  N   UNL A   1      44.044  27.667  27.555  1.00  0.00    -0.248 NA
ATOM     19  C   UNL A   1      44.096  25.461  26.791  1.00  0.00     0.031 C 
ATOM     20  C   UNL A   1      39.995  26.819  29.313  1.00  0.00     0.029 A 
ATOM     21  N   UNL A   1      41.521  28.416  28.989  1.00  0.00    -0.354 N 
ATOM     22  C   UNL A   1      45.196  27.459  26.811  1.00  0.00     0.074 A 
ATOM     23  C   UNL A   1      45.189  26.082  26.375  1.00  0.00     0.031 C 
ATOM     24  C   UNL A   1      39.470  27.969  29.766  1.00  0.00     0.029 A 
ATOM     25  C   UNL A   1      40.463  29.026  29.620  1.00  0.00     0.049 A 
ATOM     26  H   UNL A   1      42.335  28.896  28.715  1.00  0.00     0.167 HD
ATOM     27  C   UNL A   1      46.174  28.349  26.531  1.00  0.00     0.037 A 
ATOM     28  C   UNL A   1      40.340  30.292  30.061  1.00  0.00     0.037 A 
ATOM     29  C   UNL A   1      46.153  29.714  26.982  1.00  0.00     0.049 A 
ATOM     30  C   UNL A   1      41.495  31.231  29.825  1.00  0.00     0.074 A 
ATOM     31  C   UNL A   1      47.109  30.696  26.813  1.00  0.00     0.029 A 
ATOM     32  N   UNL A   1      45.109  30.283  27.700  1.00  0.00    -0.354 N 
ATOM     33  N   UNL A   1      42.610  31.021  29.164  1.00  0.00    -0.248 NA
ATOM     34  C   UNL A   1      41.386  32.575  30.404  1.00  0.00     0.031 C 
ATOM     35  C   UNL A   1      46.667  31.846  27.474  1.00  0.00     0.029 A 
ATOM     36  C   UNL A   1      45.410  31.598  28.006  1.00  0.00     0.049 A 
ATOM     37  H   UNL A   1      44.278  29.819  27.954  1.00  0.00     0.167 HD
ATOM     38  C   UNL A   1      43.328  32.205  29.235  1.00  0.00     0.074 A 
ATOM     39  C   UNL A   1      42.507  33.140  29.980  1.00  0.00     0.031 C 
ATOM     40  C   UNL A   1      44.556  32.497  28.741  1.00  0.00     0.037 A 
BRANCH  27  41
ATOM     41  C   UNL A   1      47.365  27.848  25.772  1.00  0.00     0.064 A 
ATOM     42  C   UNL A   1      47.395  27.808  24.372  1.00  0.00     0.173 A 
ATOM     43  C   UNL A   1      48.495  27.391  26.467  1.00  0.00     0.173 A 
ATOM     44  F   UNL A   1      46.327  28.204  23.661  1.00  0.00    -0.203 F 
ATOM     45  C   UNL A   1      48.507  27.313  23.693  1.00  0.00     0.198 A 
ATOM     46  C   UNL A   1      49.614  26.920  25.787  1.00  0.00     0.198 A 
ATOM     47  F   UNL A   1      48.513  27.397  27.808  1.00  0.00    -0.203 F 
ATOM     48  F   UNL A   1      48.497  27.239  22.355  1.00  0.00    -0.200 F 
ATOM     49  C   UNL A   1      49.617  26.875  24.401  1.00  0.00     0.200 A 
ATOM     50  F   UNL A   1      50.686  26.500  26.473  1.00  0.00    -0.200 F 
ATOM     51  F   UNL A   1      50.686  26.400  23.747  1.00  0.00    -0.200 F 
ENDBRANCH  27  41
BRANCH  28  52
ATOM     52  C   UNL A   1      39.132  30.719  30.821  1.00  0.00     0.064 A 
ATOM     53  C   UNL A   1      39.034  30.533  32.207  1.00  0.00     0.173 A 
ATOM     54  C   UNL A   1      38.026  31.282  30.165  1.00  0.00     0.173 A 
ATOM     55  F   UNL A   1      40.051  29.978  32.884  1.00  0.00    -0.203 F 
ATOM     56  C   UNL A   1      37.869  30.864  32.899  1.00  0.00     0.198 A 
ATOM     57  C   UNL A   1      36.876  31.647  30.863  1.00  0.00     0.198 A 
ATOM     58  F   UNL A   1      38.054  31.477  28.838  1.00  0.00    -0.203 F 
ATOM     59  F   UNL A   1      37.779  30.613  34.213  1.00  0.00    -0.200 F 
ATOM     60  C   UNL A   1      36.793  31.425  32.228  1.00  0.00     0.200 A 
ATOM     61  F   UNL A   1      35.845  32.197  30.207  1.00  0.00    -0.200 F 
ATOM     62  F   UNL A   1      35.670  31.732  32.892  1.00  0.00    -0.200 F 
ENDBRANCH  28  52
BRANCH  40  63
ATOM     63  C   UNL A   1      45.063  33.890  28.967  1.00  0.00     0.064 A 
ATOM     64  C   UNL A   1      45.832  34.216  30.092  1.00  0.00     0.173 A 
ATOM     65  C   UNL A   1      44.818  34.893  28.017  1.00  0.00     0.173 A 
ATOM     66  F   UNL A   1      46.079  33.292  31.033  1.00  0.00    -0.203 F 
ATOM     67  C   UNL A   1      46.318  35.507  30.271  1.00  0.00     0.198 A 
ATOM     68  C   UNL A   1      45.333  36.174  28.184  1.00  0.00     0.198 A 
ATOM     69  F   UNL A   1      44.094  34.624  26.920  1.00  0.00    -0.203 F 
ATOM     70  F   UNL A   1      47.011  35.812  31.377  1.00  0.00    -0.200 F 
ATOM     71  C   UNL A   1      46.076  36.481  29.313  1.00  0.00     0.200 A 
ATOM     72  F   UNL A   1      45.113  37.108  27.249  1.00  0.00    -0.200 F 
ATOM     73  F   UNL A   1      46.556  37.721  29.482  1.00  0.00    -0.200 F 
ENDBRANCH  40  63
ENDBRANCH  14  15
ENDBRANCH   7   9
ENDBRANCH   6   7
ENDBRANCH   5   6
ENDBRANCH   4   5
ENDBRANCH   3   4
ENDBRANCH   2   3
ENDBRANCH   1   2
BRANCH   1  74
ATOM     74  O   UNL A   1      34.229  21.181  24.231  1.00  0.00    -0.376 OA
BRANCH  74  75
ATOM     75  C   UNL A   1      32.806  21.185  24.155  1.00  0.00     0.202 C 
BRANCH  75  76
ATOM     76  C   UNL A   1      32.043  21.362  25.474  1.00  0.00     0.261 C 
BRANCH  76  77
ATOM     77  O   UNL A   1      31.245  22.555  25.513  1.00  0.00    -0.459 OA
BRANCH  77  78
ATOM     78  C   UNL A   1      31.541  23.461  26.501  1.00  0.00     0.380 C 
ATOM     79  O   UNL A   1      31.502  23.195  27.699  1.00  0.00    -0.245 OA
BRANCH  78  80
ATOM     80  C   UNL A   1      31.847  24.845  25.910  1.00  0.00     0.372 C 
ATOM     81  F   UNL A   1      32.980  25.383  26.469  1.00  0.00    -0.190 F 
ATOM     82  F   UNL A   1      32.137  24.717  24.580  1.00  0.00    -0.190 F 
BRANCH  80  83
ATOM     83  C   UNL A   1      30.685  25.861  26.152  1.00  0.00     0.227 C 
BRANCH  83  84
ATOM     84  C   UNL A   1      30.559  26.974  25.108  1.00  0.00    -0.009 A 
ATOM     85  C   UNL A   1      29.485  26.835  24.188  1.00  0.00     0.007 A 
ATOM     86  C   UNL A   1      31.381  28.133  25.034  1.00  0.00    -0.039 A 
ATOM     87  C   UNL A   1      29.264  27.736  23.151  1.00  0.00     0.000 A 
ATOM     88  C   UNL A   1      31.121  29.016  23.948  1.00  0.00     0.004 A 
ATOM     89  C   UNL A   1      30.098  28.825  23.020  1.00  0.00     0.000 A 
BRANCH  86  90
ATOM     90  C   UNL A   1      32.508  28.603  25.954  1.00  0.00     0.019 C 
ATOM     91  C   UNL A   1      33.041  29.993  26.138  1.00  0.00     0.009 C 
ATOM     92  C   UNL A   1      32.196  29.364  27.213  1.00  0.00     0.009 C 
ENDBRANCH  86  90
ENDBRANCH  83  84
BRANCH  83  93
ATOM     93  O   UNL A   1      29.395  25.248  26.285  1.00  0.00    -0.381 OA
ATOM     94  H   UNL A   1      28.706  25.925  26.202  1.00  0.00     0.211 HD
ENDBRANCH  83  93
ENDBRANCH  80  83
ENDBRANCH  78  80
ENDBRANCH  77  78
ENDBRANCH  76  77
ENDBRANCH  75  76
ENDBRANCH  74  75
ENDBRANCH   1  74
TORSDOF 21
ENDMDL
