MODEL 1
REMARK VINA RESULT:     -10.6      0.000      0.000
REMARK SMILES C=CCN(CC(=O)OCCOCCOCCOC(=O)c1ccc(-c2c3nc(c(-c4c(F)c(F)c(F)c(F)c4F)c4ccc([nH]4)c(-c4c(F)c(F)c(F)c(F)c4F)c4nc(c(-c5c(F)c(F)c(F)c(F)c5F)c5ccc2[nH]5)C=C4)C=C3)cc1)c1ccc([N+](=O)[O-])cc1Br
REMARK SMILES IDX 12 1 11 2 10 3 9 4 8 5 6 6 7 7 5 8 4 9 3 10 2 11 1 12 83 13
REMARK SMILES IDX 84 14 91 15 85 16 90 17 92 18 86 19 87 20 88 21 89 22 13 23
REMARK SMILES IDX 14 24 15 25 16 26 17 27 18 28 19 29 20 30 21 31 82 32 22 33
REMARK SMILES IDX 81 34 23 35 24 36 25 37 75 38 26 39 80 40 74 41 76 42 27 43
REMARK SMILES IDX 79 44 73 45 72 46 28 48 60 49 40 50 59 51 41 52 44 53 58 54
REMARK SMILES IDX 77 55 42 56 43 57 57 59 78 60 45 61 29 62 30 63 38 64 31 65
REMARK SMILES IDX 32 66 36 67 39 68 33 69 34 70 37 71 35 72 61 73 62 74 70 75
REMARK SMILES IDX 63 76 64 77 68 78 71 79 65 80 66 81 69 82 67 83 46 84 47 85
REMARK SMILES IDX 55 86 48 87 49 88 53 89 56 90 50 91 51 92 54 93 52 94
REMARK H PARENT 76 47 44 58
REMARK Flexibility Score: inf
ROOT
ATOM      1  C   UNL A   1      32.266  26.270  24.216  1.00  0.00     0.188 C 
ENDROOT
BRANCH   1   2
ATOM      2  O   UNL A   1      31.346  26.043  23.154  1.00  0.00    -0.376 OA
BRANCH   2   3
ATOM      3  C   UNL A   1      31.902  25.835  21.861  1.00  0.00     0.202 C 
BRANCH   3   4
ATOM      4  C   UNL A   1      33.342  25.313  21.864  1.00  0.00     0.261 C 
BRANCH   4   5
ATOM      5  O   UNL A   1      33.477  23.980  21.310  1.00  0.00    -0.462 OA
BRANCH   5   6
ATOM      6  C   UNL A   1      33.165  22.952  22.152  1.00  0.00     0.325 C 
ATOM      7  O   UNL A   1      32.362  22.066  21.868  1.00  0.00    -0.250 OA
BRANCH   6   8
ATOM      8  C   UNL A   1      33.850  22.975  23.527  1.00  0.00     0.239 C 
BRANCH   8   9
ATOM      9  N   UNL A   1      33.274  22.196  24.639  1.00  0.00    -0.356 N 
BRANCH   9  10
ATOM     10  C   UNL A   1      32.705  22.887  25.799  1.00  0.00     0.144 C 
BRANCH  10  11
ATOM     11  C   UNL A   1      33.715  23.015  26.893  1.00  0.00    -0.014 C 
ATOM     12  C   UNL A   1      33.782  22.208  27.963  1.00  0.00     0.006 C 
ENDBRANCH  10  11
ENDBRANCH   9  10
BRANCH   9  13
ATOM     13  C   UNL A   1      33.477  20.820  24.710  1.00  0.00     0.052 A 
ATOM     14  C   UNL A   1      32.356  19.981  24.671  1.00  0.00     0.034 A 
ATOM     15  C   UNL A   1      34.737  20.179  24.755  1.00  0.00     0.048 A 
ATOM     16  C   UNL A   1      32.467  18.594  24.522  1.00  0.00     0.088 A 
ATOM     17  C   UNL A   1      34.869  18.789  24.591  1.00  0.00     0.103 A 
ATOM     18  Br  UNL A   1      36.332  21.084  25.263  1.00  0.00    -0.048 Br
ATOM     19  C   UNL A   1      33.725  18.008  24.457  1.00  0.00     0.270 A 
BRANCH  19  20
ATOM     20  N   UNL A   1      33.835  16.561  24.298  1.00  0.00     0.062 N 
ATOM     21  O   UNL A   1      34.095  16.131  23.164  1.00  0.00    -0.258 OA
ATOM     22  O   UNL A   1      33.658  15.862  25.303  1.00  0.00    -0.258 OA
ENDBRANCH  19  20
ENDBRANCH   9  13
ENDBRANCH   8   9
ENDBRANCH   6   8
ENDBRANCH   5   6
ENDBRANCH   4   5
ENDBRANCH   3   4
ENDBRANCH   2   3
ENDBRANCH   1   2
BRANCH   1  23
ATOM     23  C   UNL A   1      32.760  27.711  24.407  1.00  0.00     0.188 C 
BRANCH  23  24
ATOM     24  O   UNL A   1      32.947  28.032  25.783  1.00  0.00    -0.376 OA
BRANCH  24  25
ATOM     25  C   UNL A   1      31.732  28.385  26.449  1.00  0.00     0.202 C 
BRANCH  25  26
ATOM     26  C   UNL A   1      31.815  29.802  27.019  1.00  0.00     0.261 C 
BRANCH  26  27
ATOM     27  O   UNL A   1      32.906  30.566  26.462  1.00  0.00    -0.460 OA
BRANCH  27  28
ATOM     28  C   UNL A   1      33.452  31.468  27.304  1.00  0.00     0.338 C 
ATOM     29  O   UNL A   1      32.907  32.455  27.768  1.00  0.00    -0.246 OA
BRANCH  28  30
ATOM     30  C   UNL A   1      34.842  31.099  27.635  1.00  0.00     0.060 A 
ATOM     31  C   UNL A   1      35.176  29.771  27.904  1.00  0.00     0.016 A 
ATOM     32  C   UNL A   1      35.766  32.111  27.886  1.00  0.00     0.016 A 
ATOM     33  C   UNL A   1      36.367  29.474  28.574  1.00  0.00     0.010 A 
ATOM     34  C   UNL A   1      37.005  31.795  28.451  1.00  0.00     0.010 A 
ATOM     35  C   UNL A   1      37.296  30.483  28.872  1.00  0.00    -0.014 A 
BRANCH  35  36
ATOM     36  C   UNL A   1      38.510  30.225  29.710  1.00  0.00     0.031 A 
ATOM     37  C   UNL A   1      39.621  29.359  29.163  1.00  0.00     0.074 A 
ATOM     38  C   UNL A   1      38.663  30.747  30.944  1.00  0.00     0.049 A 
ATOM     39  N   UNL A   1      40.586  28.740  29.799  1.00  0.00    -0.248 NA
ATOM     40  C   UNL A   1      39.634  29.148  27.707  1.00  0.00     0.031 C 
ATOM     41  C   UNL A   1      37.746  31.676  31.601  1.00  0.00     0.029 A 
ATOM     42  N   UNL A   1      39.663  30.560  31.871  1.00  0.00    -0.354 N 
ATOM     43  C   UNL A   1      41.257  27.995  28.836  1.00  0.00     0.074 A 
ATOM     44  C   UNL A   1      40.608  28.259  27.570  1.00  0.00     0.031 C 
ATOM     45  C   UNL A   1      38.241  32.007  32.804  1.00  0.00     0.029 A 
ATOM     46  C   UNL A   1      39.452  31.230  33.052  1.00  0.00     0.049 A 
ATOM     47  H   UNL A   1      40.455  29.999  31.704  1.00  0.00     0.167 HD
ATOM     48  C   UNL A   1      42.308  27.156  28.998  1.00  0.00     0.037 A 
ATOM     49  C   UNL A   1      40.113  31.181  34.226  1.00  0.00     0.037 A 
ATOM     50  C   UNL A   1      43.020  26.966  30.235  1.00  0.00     0.049 A 
ATOM     51  C   UNL A   1      41.275  30.240  34.390  1.00  0.00     0.074 A 
ATOM     52  C   UNL A   1      44.095  26.132  30.498  1.00  0.00     0.029 A 
ATOM     53  N   UNL A   1      42.754  27.652  31.409  1.00  0.00    -0.354 N 
ATOM     54  N   UNL A   1      41.812  29.425  33.518  1.00  0.00    -0.248 NA
ATOM     55  C   UNL A   1      41.900  30.189  35.721  1.00  0.00     0.031 C 
ATOM     56  C   UNL A   1      44.469  26.304  31.836  1.00  0.00     0.029 A 
ATOM     57  C   UNL A   1      43.647  27.267  32.396  1.00  0.00     0.049 A 
ATOM     58  H   UNL A   1      42.035  28.316  31.525  1.00  0.00     0.167 HD
ATOM     59  C   UNL A   1      42.835  28.768  34.188  1.00  0.00     0.074 A 
ATOM     60  C   UNL A   1      42.862  29.295  35.536  1.00  0.00     0.031 C 
ATOM     61  C   UNL A   1      43.669  27.802  33.731  1.00  0.00     0.037 A 
BRANCH  48  62
ATOM     62  C   UNL A   1      42.733  26.335  27.817  1.00  0.00     0.064 A 
ATOM     63  C   UNL A   1      42.180  25.078  27.542  1.00  0.00     0.173 A 
ATOM     64  C   UNL A   1      43.679  26.849  26.915  1.00  0.00     0.173 A 
ATOM     65  F   UNL A   1      41.280  24.539  28.378  1.00  0.00    -0.203 F 
ATOM     66  C   UNL A   1      42.572  24.356  26.416  1.00  0.00     0.198 A 
ATOM     67  C   UNL A   1      44.050  26.137  25.778  1.00  0.00     0.198 A 
ATOM     68  F   UNL A   1      44.232  28.053  27.129  1.00  0.00    -0.203 F 
ATOM     69  F   UNL A   1      42.055  23.140  26.189  1.00  0.00    -0.200 F 
ATOM     70  C   UNL A   1      43.500  24.889  25.533  1.00  0.00     0.200 A 
ATOM     71  F   UNL A   1      44.936  26.660  24.920  1.00  0.00    -0.200 F 
ATOM     72  F   UNL A   1      43.867  24.198  24.444  1.00  0.00    -0.200 F 
ENDBRANCH  48  62
BRANCH  49  73
ATOM     73  C   UNL A   1      39.645  32.007  35.369  1.00  0.00     0.064 A 
ATOM     74  C   UNL A   1      38.683  31.519  36.263  1.00  0.00     0.173 A 
ATOM     75  C   UNL A   1      40.148  33.298  35.588  1.00  0.00     0.173 A 
ATOM     76  F   UNL A   1      38.149  30.304  36.075  1.00  0.00    -0.203 F 
ATOM     77  C   UNL A   1      38.240  32.294  37.333  1.00  0.00     0.198 A 
ATOM     78  C   UNL A   1      39.727  34.058  36.675  1.00  0.00     0.198 A 
ATOM     79  F   UNL A   1      41.064  33.812  34.754  1.00  0.00    -0.203 F 
ATOM     80  F   UNL A   1      37.293  31.820  38.154  1.00  0.00    -0.200 F 
ATOM     81  C   UNL A   1      38.770  33.558  37.545  1.00  0.00     0.200 A 
ATOM     82  F   UNL A   1      40.252  35.274  36.882  1.00  0.00    -0.200 F 
ATOM     83  F   UNL A   1      38.353  34.297  38.581  1.00  0.00    -0.200 F 
ENDBRANCH  49  73
BRANCH  61  84
ATOM     84  C   UNL A   1      44.698  27.277  34.685  1.00  0.00     0.064 A 
ATOM     85  C   UNL A   1      44.446  26.156  35.489  1.00  0.00     0.173 A 
ATOM     86  C   UNL A   1      45.957  27.888  34.781  1.00  0.00     0.173 A 
ATOM     87  F   UNL A   1      43.251  25.549  35.445  1.00  0.00    -0.203 F 
ATOM     88  C   UNL A   1      45.410  25.680  36.374  1.00  0.00     0.198 A 
ATOM     89  C   UNL A   1      46.926  27.396  35.651  1.00  0.00     0.198 A 
ATOM     90  F   UNL A   1      46.247  28.961  34.030  1.00  0.00    -0.203 F 
ATOM     91  F   UNL A   1      45.134  24.633  37.164  1.00  0.00    -0.200 F 
ATOM     92  C   UNL A   1      46.650  26.297  36.450  1.00  0.00     0.200 A 
ATOM     93  F   UNL A   1      48.126  27.990  35.720  1.00  0.00    -0.200 F 
ATOM     94  F   UNL A   1      47.576  25.838  37.304  1.00  0.00    -0.200 F 
ENDBRANCH  61  84
ENDBRANCH  35  36
ENDBRANCH  28  30
ENDBRANCH  27  28
ENDBRANCH  26  27
ENDBRANCH  25  26
ENDBRANCH  24  25
ENDBRANCH  23  24
ENDBRANCH   1  23
TORSDOF 22
ENDMDL
MODEL 2
REMARK VINA RESULT:     -10.2      3.293      7.873
REMARK SMILES C=CCN(CC(=O)OCCOCCOCCOC(=O)c1ccc(-c2c3nc(c(-c4c(F)c(F)c(F)c(F)c4F)c4ccc([nH]4)c(-c4c(F)c(F)c(F)c(F)c4F)c4nc(c(-c5c(F)c(F)c(F)c(F)c5F)c5ccc2[nH]5)C=C4)C=C3)cc1)c1ccc([N+](=O)[O-])cc1Br
REMARK SMILES IDX 12 1 11 2 10 3 9 4 8 5 6 6 7 7 5 8 4 9 3 10 2 11 1 12 83 13
REMARK SMILES IDX 84 14 91 15 85 16 90 17 92 18 86 19 87 20 88 21 89 22 13 23
REMARK SMILES IDX 14 24 15 25 16 26 17 27 18 28 19 29 20 30 21 31 82 32 22 33
REMARK SMILES IDX 81 34 23 35 24 36 25 37 75 38 26 39 80 40 74 41 76 42 27 43
REMARK SMILES IDX 79 44 73 45 72 46 28 48 60 49 40 50 59 51 41 52 44 53 58 54
REMARK SMILES IDX 77 55 42 56 43 57 57 59 78 60 45 61 29 62 30 63 38 64 31 65
REMARK SMILES IDX 32 66 36 67 39 68 33 69 34 70 37 71 35 72 61 73 62 74 70 75
REMARK SMILES IDX 63 76 64 77 68 78 71 79 65 80 66 81 69 82 67 83 46 84 47 85
REMARK SMILES IDX 55 86 48 87 49 88 53 89 56 90 50 91 51 92 54 93 52 94
REMARK H PARENT 76 47 44 58
REMARK Flexibility Score: inf
ROOT
ATOM      1  C   UNL A   1      40.235  19.324  26.135  1.00  0.00     0.188 C 
ENDROOT
BRANCH   1   2
ATOM      2  O   UNL A   1      39.402  19.941  25.159  1.00  0.00    -0.376 OA
BRANCH   2   3
ATOM      3  C   UNL A   1      38.773  21.160  25.533  1.00  0.00     0.202 C 
BRANCH   3   4
ATOM      4  C   UNL A   1      37.419  21.410  24.862  1.00  0.00     0.261 C 
BRANCH   4   5
ATOM      5  O   UNL A   1      36.785  22.646  25.277  1.00  0.00    -0.462 OA
BRANCH   5   6
ATOM      6  C   UNL A   1      36.143  23.344  24.296  1.00  0.00     0.325 C 
ATOM      7  O   UNL A   1      36.427  23.250  23.104  1.00  0.00    -0.250 OA
BRANCH   6   8
ATOM      8  C   UNL A   1      35.046  24.312  24.764  1.00  0.00     0.239 C 
BRANCH   8   9
ATOM      9  N   UNL A   1      33.629  23.922  24.634  1.00  0.00    -0.356 N 
BRANCH   9  10
ATOM     10  C   UNL A   1      32.583  24.948  24.646  1.00  0.00     0.144 C 
BRANCH  10  11
ATOM     11  C   UNL A   1      32.458  25.569  25.999  1.00  0.00    -0.014 C 
ATOM     12  C   UNL A   1      31.532  26.480  26.334  1.00  0.00     0.006 C 
ENDBRANCH  10  11
ENDBRANCH   9  10
BRANCH   9  13
ATOM     13  C   UNL A   1      33.258  22.583  24.740  1.00  0.00     0.052 A 
ATOM     14  C   UNL A   1      32.723  21.952  23.610  1.00  0.00     0.034 A 
ATOM     15  C   UNL A   1      33.434  21.773  25.885  1.00  0.00     0.048 A 
ATOM     16  C   UNL A   1      32.520  20.569  23.554  1.00  0.00     0.088 A 
ATOM     17  C   UNL A   1      33.251  20.380  25.843  1.00  0.00     0.103 A 
ATOM     18  Br  UNL A   1      33.705  22.497  27.624  1.00  0.00    -0.048 Br
ATOM     19  C   UNL A   1      32.811  19.786  24.664  1.00  0.00     0.270 A 
BRANCH  19  20
ATOM     20  N   UNL A   1      32.603  18.343  24.599  1.00  0.00     0.062 N 
ATOM     21  O   UNL A   1      32.991  17.667  25.564  1.00  0.00    -0.258 OA
ATOM     22  O   UNL A   1      32.057  17.891  23.585  1.00  0.00    -0.258 OA
ENDBRANCH  19  20
ENDBRANCH   9  13
ENDBRANCH   8   9
ENDBRANCH   6   8
ENDBRANCH   5   6
ENDBRANCH   4   5
ENDBRANCH   3   4
ENDBRANCH   2   3
ENDBRANCH   1   2
BRANCH   1  23
ATOM     23  C   UNL A   1      40.844  20.243  27.203  1.00  0.00     0.188 C 
BRANCH  23  24
ATOM     24  O   UNL A   1      42.261  20.113  27.271  1.00  0.00    -0.376 OA
BRANCH  24  25
ATOM     25  C   UNL A   1      42.871  19.931  25.990  1.00  0.00     0.202 C 
BRANCH  25  26
ATOM     26  C   UNL A   1      43.893  21.035  25.712  1.00  0.00     0.261 C 
BRANCH  26  27
ATOM     27  O   UNL A   1      43.517  22.304  26.288  1.00  0.00    -0.460 OA
BRANCH  27  28
ATOM     28  C   UNL A   1      43.055  23.212  25.404  1.00  0.00     0.338 C 
ATOM     29  O   UNL A   1      43.141  23.156  24.188  1.00  0.00    -0.246 OA
BRANCH  28  30
ATOM     30  C   UNL A   1      42.381  24.324  26.102  1.00  0.00     0.060 A 
ATOM     31  C   UNL A   1      42.700  25.648  25.796  1.00  0.00     0.016 A 
ATOM     32  C   UNL A   1      41.588  24.040  27.211  1.00  0.00     0.016 A 
ATOM     33  C   UNL A   1      42.363  26.670  26.689  1.00  0.00     0.010 A 
ATOM     34  C   UNL A   1      41.155  25.080  28.040  1.00  0.00     0.010 A 
ATOM     35  C   UNL A   1      41.596  26.401  27.834  1.00  0.00    -0.014 A 
BRANCH  35  36
ATOM     36  C   UNL A   1      41.340  27.441  28.881  1.00  0.00     0.031 A 
ATOM     37  C   UNL A   1      42.247  27.522  30.087  1.00  0.00     0.074 A 
ATOM     38  C   UNL A   1      40.327  28.327  28.790  1.00  0.00     0.049 A 
ATOM     39  N   UNL A   1      42.042  28.096  31.247  1.00  0.00    -0.248 NA
ATOM     40  C   UNL A   1      43.552  26.851  29.974  1.00  0.00     0.031 C 
ATOM     41  C   UNL A   1      39.408  28.464  27.662  1.00  0.00     0.029 A 
ATOM     42  N   UNL A   1      39.904  29.289  29.678  1.00  0.00    -0.354 N 
ATOM     43  C   UNL A   1      43.146  27.774  32.030  1.00  0.00     0.074 A 
ATOM     44  C   UNL A   1      44.030  26.979  31.204  1.00  0.00     0.031 C 
ATOM     45  C   UNL A   1      38.556  29.471  27.908  1.00  0.00     0.029 A 
ATOM     46  C   UNL A   1      38.795  29.980  29.256  1.00  0.00     0.049 A 
ATOM     47  H   UNL A   1      40.354  29.465  30.537  1.00  0.00     0.167 HD
ATOM     48  C   UNL A   1      43.391  28.099  33.321  1.00  0.00     0.037 A 
ATOM     49  C   UNL A   1      38.014  30.874  29.895  1.00  0.00     0.037 A 
ATOM     50  C   UNL A   1      42.565  28.972  34.116  1.00  0.00     0.049 A 
ATOM     51  C   UNL A   1      38.297  31.221  31.331  1.00  0.00     0.074 A 
ATOM     52  C   UNL A   1      42.729  29.356  35.436  1.00  0.00     0.029 A 
ATOM     53  N   UNL A   1      41.440  29.630  33.647  1.00  0.00    -0.354 N 
ATOM     54  N   UNL A   1      39.257  30.796  32.113  1.00  0.00    -0.248 NA
ATOM     55  C   UNL A   1      37.359  32.148  31.984  1.00  0.00     0.031 C 
ATOM     56  C   UNL A   1      41.693  30.235  35.771  1.00  0.00     0.029 A 
ATOM     57  C   UNL A   1      40.904  30.422  34.650  1.00  0.00     0.049 A 
ATOM     58  H   UNL A   1      41.074  29.547  32.737  1.00  0.00     0.167 HD
ATOM     59  C   UNL A   1      39.043  31.402  33.344  1.00  0.00     0.074 A 
ATOM     60  C   UNL A   1      37.875  32.244  33.202  1.00  0.00     0.031 C 
ATOM     61  C   UNL A   1      39.745  31.261  34.495  1.00  0.00     0.037 A 
BRANCH  48  62
ATOM     62  C   UNL A   1      44.582  27.473  33.984  1.00  0.00     0.064 A 
ATOM     63  C   UNL A   1      45.850  28.066  33.957  1.00  0.00     0.173 A 
ATOM     64  C   UNL A   1      44.429  26.276  34.703  1.00  0.00     0.173 A 
ATOM     65  F   UNL A   1      46.049  29.203  33.276  1.00  0.00    -0.203 F 
ATOM     66  C   UNL A   1      46.929  27.475  34.613  1.00  0.00     0.198 A 
ATOM     67  C   UNL A   1      45.503  25.701  35.378  1.00  0.00     0.198 A 
ATOM     68  F   UNL A   1      43.232  25.673  34.766  1.00  0.00    -0.203 F 
ATOM     69  F   UNL A   1      48.142  28.041  34.549  1.00  0.00    -0.200 F 
ATOM     70  C   UNL A   1      46.752  26.298  35.327  1.00  0.00     0.200 A 
ATOM     71  F   UNL A   1      45.326  24.573  36.079  1.00  0.00    -0.200 F 
ATOM     72  F   UNL A   1      47.788  25.738  35.968  1.00  0.00    -0.200 F 
ENDBRANCH  48  62
BRANCH  49  73
ATOM     73  C   UNL A   1      36.840  31.458  29.197  1.00  0.00     0.064 A 
ATOM     74  C   UNL A   1      35.705  30.683  28.926  1.00  0.00     0.173 A 
ATOM     75  C   UNL A   1      36.830  32.799  28.785  1.00  0.00     0.173 A 
ATOM     76  F   UNL A   1      35.681  29.387  29.270  1.00  0.00    -0.203 F 
ATOM     77  C   UNL A   1      34.604  31.228  28.267  1.00  0.00     0.198 A 
ATOM     78  C   UNL A   1      35.718  33.350  28.155  1.00  0.00     0.198 A 
ATOM     79  F   UNL A   1      37.897  33.579  29.014  1.00  0.00    -0.203 F 
ATOM     80  F   UNL A   1      33.545  30.456  27.986  1.00  0.00    -0.200 F 
ATOM     81  C   UNL A   1      34.608  32.563  27.892  1.00  0.00     0.200 A 
ATOM     82  F   UNL A   1      35.721  34.644  27.806  1.00  0.00    -0.200 F 
ATOM     83  F   UNL A   1      33.544  33.089  27.271  1.00  0.00    -0.200 F 
ENDBRANCH  49  73
BRANCH  61  84
ATOM     84  C   UNL A   1      39.287  32.057  35.679  1.00  0.00     0.064 A 
ATOM     85  C   UNL A   1      38.444  31.501  36.652  1.00  0.00     0.173 A 
ATOM     86  C   UNL A   1      39.712  33.382  35.854  1.00  0.00     0.173 A 
ATOM     87  F   UNL A   1      37.997  30.243  36.520  1.00  0.00    -0.203 F 
ATOM     88  C   UNL A   1      38.023  32.253  37.747  1.00  0.00     0.198 A 
ATOM     89  C   UNL A   1      39.307  34.123  36.960  1.00  0.00     0.198 A 
ATOM     90  F   UNL A   1      40.522  33.956  34.952  1.00  0.00    -0.203 F 
ATOM     91  F   UNL A   1      37.183  31.716  38.644  1.00  0.00    -0.200 F 
ATOM     92  C   UNL A   1      38.459  33.561  37.902  1.00  0.00     0.200 A 
ATOM     93  F   UNL A   1      39.733  35.385  37.112  1.00  0.00    -0.200 F 
ATOM     94  F   UNL A   1      38.051  34.283  38.955  1.00  0.00    -0.200 F 
ENDBRANCH  61  84
ENDBRANCH  35  36
ENDBRANCH  28  30
ENDBRANCH  27  28
ENDBRANCH  26  27
ENDBRANCH  25  26
ENDBRANCH  24  25
ENDBRANCH  23  24
ENDBRANCH   1  23
TORSDOF 22
ENDMDL
MODEL 3
REMARK VINA RESULT:     -10.0      3.435      8.558
REMARK SMILES C=CCN(CC(=O)OCCOCCOCCOC(=O)c1ccc(-c2c3nc(c(-c4c(F)c(F)c(F)c(F)c4F)c4ccc([nH]4)c(-c4c(F)c(F)c(F)c(F)c4F)c4nc(c(-c5c(F)c(F)c(F)c(F)c5F)c5ccc2[nH]5)C=C4)C=C3)cc1)c1ccc([N+](=O)[O-])cc1Br
REMARK SMILES IDX 12 1 11 2 10 3 9 4 8 5 6 6 7 7 5 8 4 9 3 10 2 11 1 12 83 13
REMARK SMILES IDX 84 14 91 15 85 16 90 17 92 18 86 19 87 20 88 21 89 22 13 23
REMARK SMILES IDX 14 24 15 25 16 26 17 27 18 28 19 29 20 30 21 31 82 32 22 33
REMARK SMILES IDX 81 34 23 35 24 36 25 37 75 38 26 39 80 40 74 41 76 42 27 43
REMARK SMILES IDX 79 44 73 45 72 46 28 48 60 49 40 50 59 51 41 52 44 53 58 54
REMARK SMILES IDX 77 55 42 56 43 57 57 59 78 60 45 61 29 62 30 63 38 64 31 65
REMARK SMILES IDX 32 66 36 67 39 68 33 69 34 70 37 71 35 72 61 73 62 74 70 75
REMARK SMILES IDX 63 76 64 77 68 78 71 79 65 80 66 81 69 82 67 83 46 84 47 85
REMARK SMILES IDX 55 86 48 87 49 88 53 89 56 90 50 91 51 92 54 93 52 94
REMARK H PARENT 76 47 44 58
REMARK Flexibility Score: inf
ROOT
ATOM      1  C   UNL A   1      39.898  19.903  26.090  1.00  0.00     0.188 C 
ENDROOT
BRANCH   1   2
ATOM      2  O   UNL A   1      38.737  20.531  25.554  1.00  0.00    -0.376 OA
BRANCH   2   3
ATOM      3  C   UNL A   1      38.582  21.920  25.820  1.00  0.00     0.202 C 
BRANCH   3   4
ATOM      4  C   UNL A   1      37.132  22.414  25.793  1.00  0.00     0.261 C 
BRANCH   4   5
ATOM      5  O   UNL A   1      36.812  23.210  24.625  1.00  0.00    -0.462 OA
BRANCH   5   6
ATOM      6  C   UNL A   1      35.523  23.131  24.186  1.00  0.00     0.325 C 
ATOM      7  O   UNL A   1      34.961  22.068  23.929  1.00  0.00    -0.250 OA
BRANCH   6   8
ATOM      8  C   UNL A   1      34.796  24.468  23.980  1.00  0.00     0.239 C 
BRANCH   8   9
ATOM      9  N   UNL A   1      33.374  24.589  24.354  1.00  0.00    -0.356 N 
BRANCH   9  10
ATOM     10  C   UNL A   1      32.685  23.462  24.987  1.00  0.00     0.144 C 
BRANCH  10  11
ATOM     11  C   UNL A   1      32.613  23.643  26.469  1.00  0.00    -0.014 C 
ATOM     12  C   UNL A   1      32.986  22.719  27.366  1.00  0.00     0.006 C 
ENDBRANCH  10  11
ENDBRANCH   9  10
BRANCH   9  13
ATOM     13  C   UNL A   1      32.619  25.668  23.900  1.00  0.00     0.052 A 
ATOM     14  C   UNL A   1      31.934  25.535  22.686  1.00  0.00     0.034 A 
ATOM     15  C   UNL A   1      32.427  26.884  24.596  1.00  0.00     0.048 A 
ATOM     16  C   UNL A   1      30.990  26.473  22.255  1.00  0.00     0.088 A 
ATOM     17  C   UNL A   1      31.472  27.831  24.188  1.00  0.00     0.103 A 
ATOM     18  Br  UNL A   1      33.582  27.459  25.997  1.00  0.00    -0.048 Br
ATOM     19  C   UNL A   1      30.745  27.604  23.023  1.00  0.00     0.270 A 
BRANCH  19  20
ATOM     20  N   UNL A   1      29.755  28.578  22.572  1.00  0.00     0.062 N 
ATOM     21  O   UNL A   1      28.619  28.506  23.065  1.00  0.00    -0.258 OA
ATOM     22  O   UNL A   1      30.115  29.405  21.726  1.00  0.00    -0.258 OA
ENDBRANCH  19  20
ENDBRANCH   9  13
ENDBRANCH   8   9
ENDBRANCH   6   8
ENDBRANCH   5   6
ENDBRANCH   4   5
ENDBRANCH   3   4
ENDBRANCH   2   3
ENDBRANCH   1   2
BRANCH   1  23
ATOM     23  C   UNL A   1      40.729  20.723  27.086  1.00  0.00     0.188 C 
BRANCH  23  24
ATOM     24  O   UNL A   1      42.068  20.247  27.180  1.00  0.00    -0.376 OA
BRANCH  24  25
ATOM     25  C   UNL A   1      42.686  20.050  25.905  1.00  0.00     0.202 C 
BRANCH  25  26
ATOM     26  C   UNL A   1      43.885  20.984  25.731  1.00  0.00     0.261 C 
BRANCH  26  27
ATOM     27  O   UNL A   1      43.649  22.303  26.267  1.00  0.00    -0.460 OA
BRANCH  27  28
ATOM     28  C   UNL A   1      43.141  23.190  25.387  1.00  0.00     0.338 C 
ATOM     29  O   UNL A   1      43.202  23.126  24.170  1.00  0.00    -0.246 OA
BRANCH  28  30
ATOM     30  C   UNL A   1      42.450  24.288  26.091  1.00  0.00     0.060 A 
ATOM     31  C   UNL A   1      42.710  25.617  25.757  1.00  0.00     0.016 A 
ATOM     32  C   UNL A   1      41.705  23.992  27.231  1.00  0.00     0.016 A 
ATOM     33  C   UNL A   1      42.365  26.640  26.646  1.00  0.00     0.010 A 
ATOM     34  C   UNL A   1      41.262  25.028  28.059  1.00  0.00     0.010 A 
ATOM     35  C   UNL A   1      41.647  26.361  27.820  1.00  0.00    -0.014 A 
BRANCH  35  36
ATOM     36  C   UNL A   1      41.387  27.406  28.860  1.00  0.00     0.031 A 
ATOM     37  C   UNL A   1      42.302  27.507  30.059  1.00  0.00     0.074 A 
ATOM     38  C   UNL A   1      40.365  28.281  28.768  1.00  0.00     0.049 A 
ATOM     39  N   UNL A   1      42.099  28.088  31.216  1.00  0.00    -0.248 NA
ATOM     40  C   UNL A   1      43.613  26.849  29.942  1.00  0.00     0.031 C 
ATOM     41  C   UNL A   1      39.436  28.399  27.647  1.00  0.00     0.029 A 
ATOM     42  N   UNL A   1      39.938  29.246  29.652  1.00  0.00    -0.354 N 
ATOM     43  C   UNL A   1      43.212  27.783  31.993  1.00  0.00     0.074 A 
ATOM     44  C   UNL A   1      44.098  26.991  31.168  1.00  0.00     0.031 C 
ATOM     45  C   UNL A   1      38.576  29.400  27.890  1.00  0.00     0.029 A 
ATOM     46  C   UNL A   1      38.819  29.923  29.232  1.00  0.00     0.049 A 
ATOM     47  H   UNL A   1      40.392  29.434  30.506  1.00  0.00     0.167 HD
ATOM     48  C   UNL A   1      43.462  28.122  33.280  1.00  0.00     0.037 A 
ATOM     49  C   UNL A   1      38.033  30.814  29.869  1.00  0.00     0.037 A 
ATOM     50  C   UNL A   1      42.633  28.992  34.073  1.00  0.00     0.049 A 
ATOM     51  C   UNL A   1      38.322  31.175  31.301  1.00  0.00     0.074 A 
ATOM     52  C   UNL A   1      42.801  29.389  35.389  1.00  0.00     0.029 A 
ATOM     53  N   UNL A   1      41.497  29.635  33.607  1.00  0.00    -0.354 N 
ATOM     54  N   UNL A   1      39.292  30.766  32.079  1.00  0.00    -0.248 NA
ATOM     55  C   UNL A   1      37.379  32.097  31.953  1.00  0.00     0.031 C 
ATOM     56  C   UNL A   1      41.759  30.261  35.724  1.00  0.00     0.029 A 
ATOM     57  C   UNL A   1      40.960  30.430  34.607  1.00  0.00     0.049 A 
ATOM     58  H   UNL A   1      41.126  29.541  32.700  1.00  0.00     0.167 HD
ATOM     59  C   UNL A   1      39.080  31.380  33.307  1.00  0.00     0.074 A 
ATOM     60  C   UNL A   1      37.902  32.209  33.166  1.00  0.00     0.031 C 
ATOM     61  C   UNL A   1      39.792  31.256  34.453  1.00  0.00     0.037 A 
BRANCH  48  62
ATOM     62  C   UNL A   1      44.664  27.513  33.940  1.00  0.00     0.064 A 
ATOM     63  C   UNL A   1      45.904  28.164  33.980  1.00  0.00     0.173 A 
ATOM     64  C   UNL A   1      44.549  26.273  34.588  1.00  0.00     0.173 A 
ATOM     65  F   UNL A   1      46.067  29.345  33.367  1.00  0.00    -0.203 F 
ATOM     66  C   UNL A   1      46.992  27.585  34.631  1.00  0.00     0.198 A 
ATOM     67  C   UNL A   1      45.631  25.710  35.259  1.00  0.00     0.198 A 
ATOM     68  F   UNL A   1      43.380  25.614  34.585  1.00  0.00    -0.203 F 
ATOM     69  F   UNL A   1      48.179  28.208  34.631  1.00  0.00    -0.200 F 
ATOM     70  C   UNL A   1      46.852  26.364  35.275  1.00  0.00     0.200 A 
ATOM     71  F   UNL A   1      45.489  24.537  35.892  1.00  0.00    -0.200 F 
ATOM     72  F   UNL A   1      47.897  25.815  35.912  1.00  0.00    -0.200 F 
ENDBRANCH  48  62
BRANCH  49  73
ATOM     73  C   UNL A   1      36.848  31.379  29.174  1.00  0.00     0.064 A 
ATOM     74  C   UNL A   1      36.814  32.726  28.790  1.00  0.00     0.173 A 
ATOM     75  C   UNL A   1      35.728  30.587  28.882  1.00  0.00     0.173 A 
ATOM     76  F   UNL A   1      37.846  33.532  29.078  1.00  0.00    -0.203 F 
ATOM     77  C   UNL A   1      35.701  33.259  28.141  1.00  0.00     0.198 A 
ATOM     78  C   UNL A   1      34.631  31.112  28.207  1.00  0.00     0.198 A 
ATOM     79  F   UNL A   1      35.711  29.293  29.238  1.00  0.00    -0.203 F 
ATOM     80  F   UNL A   1      35.676  34.559  27.817  1.00  0.00    -0.200 F 
ATOM     81  C   UNL A   1      34.615  32.449  27.841  1.00  0.00     0.200 A 
ATOM     82  F   UNL A   1      33.590  30.323  27.908  1.00  0.00    -0.200 F 
ATOM     83  F   UNL A   1      33.552  32.959  27.206  1.00  0.00    -0.200 F 
ENDBRANCH  49  73
BRANCH  61  84
ATOM     84  C   UNL A   1      39.333  32.057  35.635  1.00  0.00     0.064 A 
ATOM     85  C   UNL A   1      39.759  33.379  35.832  1.00  0.00     0.173 A 
ATOM     86  C   UNL A   1      38.443  31.505  36.566  1.00  0.00     0.173 A 
ATOM     87  F   UNL A   1      40.623  33.944  34.976  1.00  0.00    -0.203 F 
ATOM     88  C   UNL A   1      39.328  34.111  36.935  1.00  0.00     0.198 A 
ATOM     89  C   UNL A   1      37.997  32.247  37.657  1.00  0.00     0.198 A 
ATOM     90  F   UNL A   1      38.005  30.245  36.419  1.00  0.00    -0.203 F 
ATOM     91  F   UNL A   1      39.780  35.358  37.128  1.00  0.00    -0.200 F 
ATOM     92  C   UNL A   1      38.444  33.546  37.843  1.00  0.00     0.200 A 
ATOM     93  F   UNL A   1      37.140  31.702  38.531  1.00  0.00    -0.200 F 
ATOM     94  F   UNL A   1      38.032  34.252  38.905  1.00  0.00    -0.200 F 
ENDBRANCH  61  84
ENDBRANCH  35  36
ENDBRANCH  28  30
ENDBRANCH  27  28
ENDBRANCH  26  27
ENDBRANCH  25  26
ENDBRANCH  24  25
ENDBRANCH  23  24
ENDBRANCH   1  23
TORSDOF 22
ENDMDL
