MODEL 1
REMARK VINA RESULT:      -9.9      0.000      0.000
REMARK SMILES C[C@@H]1CC[N@H+]1[C@H](C(=O)OCCOCCOCCOC(=O)c1ccc(-c2c3nc(c(-c4c(F)c(F)c(F)c(F)c4F)c4ccc([nH]4)c(-c4c(F)c(F)c(F)c(F)c4F)c4nc(c(-c5c(F)c(F)c(F)c(F)c5F)c5ccc2[nH]5)C=C4)C=C3)cc1)C1CC1
REMARK SMILES IDX 14 1 13 2 12 3 11 4 10 5 9 6 7 7 8 8 6 9 5 10 1 11 2 12 3 13
REMARK SMILES IDX 4 14 84 16 85 17 86 18 15 19 16 20 17 21 18 22 19 23 20 24
REMARK SMILES IDX 21 25 22 26 83 27 23 28 82 29 24 30 25 31 26 32 76 33 27 34
REMARK SMILES IDX 81 35 75 36 77 37 28 38 80 39 74 40 73 41 29 43 61 44 41 45
REMARK SMILES IDX 60 46 42 47 45 48 59 49 78 50 43 51 44 52 58 54 79 55 46 56
REMARK SMILES IDX 30 57 31 58 39 59 32 60 33 61 37 62 40 63 34 64 35 65 38 66
REMARK SMILES IDX 36 67 62 68 63 69 71 70 64 71 65 72 69 73 72 74 66 75 67 76
REMARK SMILES IDX 70 77 68 78 47 79 48 80 56 81 49 82 50 83 54 84 57 85 51 86
REMARK SMILES IDX 52 87 55 88 53 89
REMARK H PARENT 5 15 77 42 45 53
REMARK Flexibility Score: inf
ROOT
ATOM      1  C   UNL A   1      33.910  21.066  24.615  1.00  0.00     0.188 C 
ENDROOT
BRANCH   1   2
ATOM      2  C   UNL A   1      32.424  20.777  24.773  1.00  0.00     0.188 C 
BRANCH   2   3
ATOM      3  O   UNL A   1      31.661  21.599  25.639  1.00  0.00    -0.376 OA
BRANCH   3   4
ATOM      4  C   UNL A   1      32.246  22.800  26.133  1.00  0.00     0.202 C 
BRANCH   4   5
ATOM      5  C   UNL A   1      31.489  24.140  26.003  1.00  0.00     0.261 C 
BRANCH   5   6
ATOM      6  O   UNL A   1      32.196  25.355  26.383  1.00  0.00    -0.459 OA
BRANCH   6   7
ATOM      7  C   UNL A   1      31.489  26.512  26.252  1.00  0.00     0.365 C 
ATOM      8  O   UNL A   1      31.001  27.081  27.233  1.00  0.00    -0.245 OA
BRANCH   7   9
ATOM      9  C   UNL A   1      31.291  27.103  24.820  1.00  0.00     0.298 C 
BRANCH   9  10
ATOM     10  N   UNL A   1      32.659  27.263  24.239  1.00  0.00    -0.320 N 
ATOM     11  C   UNL A   1      33.656  25.601  22.705  1.00  0.00     0.075 C 
ATOM     12  C   UNL A   1      32.824  26.866  22.839  1.00  0.00     0.187 C 
ATOM     13  C   UNL A   1      33.651  28.159  22.619  1.00  0.00     0.126 C 
ATOM     14  C   UNL A   1      33.109  28.629  23.977  1.00  0.00     0.269 C 
ATOM     15  H   UNL A   1      33.137  26.725  24.962  1.00  0.00     0.349 HD
ENDBRANCH   9  10
BRANCH   9  16
ATOM     16  C   UNL A   1      30.190  26.745  23.825  1.00  0.00     0.059 C 
ATOM     17  C   UNL A   1      28.676  26.707  23.896  1.00  0.00     0.011 C 
ATOM     18  C   UNL A   1      29.364  27.796  23.124  1.00  0.00     0.011 C 
ENDBRANCH   9  16
ENDBRANCH   7   9
ENDBRANCH   6   7
ENDBRANCH   5   6
ENDBRANCH   4   5
ENDBRANCH   3   4
ENDBRANCH   2   3
ENDBRANCH   1   2
BRANCH   1  19
ATOM     19  O   UNL A   1      34.751  20.010  25.028  1.00  0.00    -0.376 OA
BRANCH  19  20
ATOM     20  C   UNL A   1      36.153  20.162  24.892  1.00  0.00     0.202 C 
BRANCH  20  21
ATOM     21  C   UNL A   1      36.807  21.255  25.749  1.00  0.00     0.261 C 
BRANCH  21  22
ATOM     22  O   UNL A   1      38.097  21.710  25.293  1.00  0.00    -0.460 OA
BRANCH  22  23
ATOM     23  C   UNL A   1      39.161  21.430  26.083  1.00  0.00     0.338 C 
ATOM     24  O   UNL A   1      39.759  20.368  26.155  1.00  0.00    -0.246 OA
BRANCH  23  25
ATOM     25  C   UNL A   1      39.655  22.702  26.669  1.00  0.00     0.060 A 
ATOM     26  C   UNL A   1      39.051  23.903  26.267  1.00  0.00     0.016 A 
ATOM     27  C   UNL A   1      40.672  22.720  27.626  1.00  0.00     0.016 A 
ATOM     28  C   UNL A   1      39.494  25.122  26.790  1.00  0.00     0.010 A 
ATOM     29  C   UNL A   1      41.127  23.944  28.136  1.00  0.00     0.010 A 
ATOM     30  C   UNL A   1      40.561  25.155  27.700  1.00  0.00    -0.014 A 
BRANCH  30  31
ATOM     31  C   UNL A   1      41.183  26.460  28.050  1.00  0.00     0.031 A 
ATOM     32  C   UNL A   1      42.594  26.731  27.610  1.00  0.00     0.074 A 
ATOM     33  C   UNL A   1      40.502  27.419  28.703  1.00  0.00     0.049 A 
ATOM     34  N   UNL A   1      43.316  27.814  27.749  1.00  0.00    -0.248 NA
ATOM     35  C   UNL A   1      43.285  25.625  26.934  1.00  0.00     0.031 C 
ATOM     36  C   UNL A   1      39.140  27.284  29.197  1.00  0.00     0.029 A 
ATOM     37  N   UNL A   1      40.861  28.698  29.052  1.00  0.00    -0.354 N 
ATOM     38  C   UNL A   1      44.547  27.520  27.181  1.00  0.00     0.074 A 
ATOM     39  C   UNL A   1      44.485  26.146  26.729  1.00  0.00     0.031 C 
ATOM     40  C   UNL A   1      38.750  28.449  29.741  1.00  0.00     0.029 A 
ATOM     41  C   UNL A   1      39.862  29.397  29.687  1.00  0.00     0.049 A 
ATOM     42  H   UNL A   1      41.749  29.079  28.865  1.00  0.00     0.167 HD
ATOM     43  C   UNL A   1      45.632  28.321  27.045  1.00  0.00     0.037 A 
ATOM     44  C   UNL A   1      39.850  30.651  30.182  1.00  0.00     0.037 A 
ATOM     45  C   UNL A   1      45.708  29.678  27.522  1.00  0.00     0.049 A 
ATOM     46  C   UNL A   1      41.089  31.503  30.072  1.00  0.00     0.074 A 
ATOM     47  C   UNL A   1      46.764  30.568  27.426  1.00  0.00     0.029 A 
ATOM     48  N   UNL A   1      44.695  30.338  28.203  1.00  0.00    -0.354 N 
ATOM     49  N   UNL A   1      42.237  31.231  29.502  1.00  0.00    -0.248 NA
ATOM     50  C   UNL A   1      41.029  32.839  30.684  1.00  0.00     0.031 C 
ATOM     51  C   UNL A   1      46.415  31.741  28.105  1.00  0.00     0.029 A 
ATOM     52  C   UNL A   1      45.112  31.613  28.557  1.00  0.00     0.049 A 
ATOM     53  H   UNL A   1      43.810  29.956  28.406  1.00  0.00     0.167 HD
ATOM     54  C   UNL A   1      43.024  32.365  29.660  1.00  0.00     0.074 A 
ATOM     55  C   UNL A   1      42.214  33.338  30.364  1.00  0.00     0.031 C 
ATOM     56  C   UNL A   1      44.302  32.580  29.258  1.00  0.00     0.037 A 
BRANCH  43  57
ATOM     57  C   UNL A   1      46.842  27.721  26.387  1.00  0.00     0.064 A 
ATOM     58  C   UNL A   1      47.003  27.720  24.992  1.00  0.00     0.173 A 
ATOM     59  C   UNL A   1      47.852  27.132  27.163  1.00  0.00     0.173 A 
ATOM     60  F   UNL A   1      46.059  28.257  24.203  1.00  0.00    -0.203 F 
ATOM     61  C   UNL A   1      48.106  27.113  24.398  1.00  0.00     0.198 A 
ATOM     62  C   UNL A   1      48.972  26.559  26.567  1.00  0.00     0.198 A 
ATOM     63  F   UNL A   1      47.751  27.107  28.500  1.00  0.00    -0.203 F 
ATOM     64  F   UNL A   1      48.203  27.062  23.062  1.00  0.00    -0.200 F 
ATOM     65  C   UNL A   1      49.092  26.537  25.186  1.00  0.00     0.200 A 
ATOM     66  F   UNL A   1      49.930  26.016  27.331  1.00  0.00    -0.200 F 
ATOM     67  F   UNL A   1      50.152  25.951  24.613  1.00  0.00    -0.200 F 
ENDBRANCH  43  57
BRANCH  44  68
ATOM     68  C   UNL A   1      38.623  31.186  30.836  1.00  0.00     0.064 A 
ATOM     69  C   UNL A   1      38.451  31.106  32.225  1.00  0.00     0.173 A 
ATOM     70  C   UNL A   1      37.591  31.767  30.085  1.00  0.00     0.173 A 
ATOM     71  F   UNL A   1      39.394  30.529  32.985  1.00  0.00    -0.203 F 
ATOM     72  C   UNL A   1      37.288  31.572  32.836  1.00  0.00     0.198 A 
ATOM     73  C   UNL A   1      36.443  32.263  30.700  1.00  0.00     0.198 A 
ATOM     74  F   UNL A   1      37.700  31.860  28.752  1.00  0.00    -0.203 F 
ATOM     75  F   UNL A   1      37.126  31.433  34.159  1.00  0.00    -0.200 F 
ATOM     76  C   UNL A   1      36.288  32.158  32.074  1.00  0.00     0.200 A 
ATOM     77  F   UNL A   1      35.484  32.837  29.961  1.00  0.00    -0.200 F 
ATOM     78  F   UNL A   1      35.172  32.609  32.662  1.00  0.00    -0.200 F 
ENDBRANCH  44  68
BRANCH  56  79
ATOM     79  C   UNL A   1      44.892  33.941  29.523  1.00  0.00     0.064 A 
ATOM     80  C   UNL A   1      45.616  34.226  30.691  1.00  0.00     0.173 A 
ATOM     81  C   UNL A   1      44.738  34.972  28.583  1.00  0.00     0.173 A 
ATOM     82  F   UNL A   1      45.784  33.283  31.630  1.00  0.00    -0.203 F 
ATOM     83  C   UNL A   1      46.125  35.503  30.926  1.00  0.00     0.198 A 
ATOM     84  C   UNL A   1      45.282  36.235  28.804  1.00  0.00     0.198 A 
ATOM     85  F   UNL A   1      44.064  34.755  27.443  1.00  0.00    -0.203 F 
ATOM     86  F   UNL A   1      46.753  35.769  32.079  1.00  0.00    -0.200 F 
ATOM     87  C   UNL A   1      45.963  36.504  29.981  1.00  0.00     0.200 A 
ATOM     88  F   UNL A   1      45.138  37.195  27.880  1.00  0.00    -0.200 F 
ATOM     89  F   UNL A   1      46.453  37.730  30.208  1.00  0.00    -0.200 F 
ENDBRANCH  56  79
ENDBRANCH  30  31
ENDBRANCH  23  25
ENDBRANCH  22  23
ENDBRANCH  21  22
ENDBRANCH  20  21
ENDBRANCH  19  20
ENDBRANCH   1  19
TORSDOF 19
ENDMDL
MODEL 2
REMARK VINA RESULT:      -9.9      4.453     10.087
REMARK SMILES C[C@@H]1CC[N@H+]1[C@H](C(=O)OCCOCCOCCOC(=O)c1ccc(-c2c3nc(c(-c4c(F)c(F)c(F)c(F)c4F)c4ccc([nH]4)c(-c4c(F)c(F)c(F)c(F)c4F)c4nc(c(-c5c(F)c(F)c(F)c(F)c5F)c5ccc2[nH]5)C=C4)C=C3)cc1)C1CC1
REMARK SMILES IDX 14 1 13 2 12 3 11 4 10 5 9 6 7 7 8 8 6 9 5 10 1 11 2 12 3 13
REMARK SMILES IDX 4 14 84 16 85 17 86 18 15 19 16 20 17 21 18 22 19 23 20 24
REMARK SMILES IDX 21 25 22 26 83 27 23 28 82 29 24 30 25 31 26 32 76 33 27 34
REMARK SMILES IDX 81 35 75 36 77 37 28 38 80 39 74 40 73 41 29 43 61 44 41 45
REMARK SMILES IDX 60 46 42 47 45 48 59 49 78 50 43 51 44 52 58 54 79 55 46 56
REMARK SMILES IDX 30 57 31 58 39 59 32 60 33 61 37 62 40 63 34 64 35 65 38 66
REMARK SMILES IDX 36 67 62 68 63 69 71 70 64 71 65 72 69 73 72 74 66 75 67 76
REMARK SMILES IDX 70 77 68 78 47 79 48 80 56 81 49 82 50 83 54 84 57 85 51 86
REMARK SMILES IDX 52 87 55 88 53 89
REMARK H PARENT 5 15 77 42 45 53
REMARK Flexibility Score: inf
ROOT
ATOM      1  C   UNL A   1      32.231  29.249  26.569  1.00  0.00     0.188 C 
ENDROOT
BRANCH   1   2
ATOM      2  C   UNL A   1      32.665  28.322  25.442  1.00  0.00     0.188 C 
BRANCH   2   3
ATOM      3  O   UNL A   1      31.889  27.166  25.179  1.00  0.00    -0.376 OA
BRANCH   3   4
ATOM      4  C   UNL A   1      30.957  26.729  26.163  1.00  0.00     0.202 C 
BRANCH   4   5
ATOM      5  C   UNL A   1      30.324  25.323  26.059  1.00  0.00     0.261 C 
BRANCH   5   6
ATOM      6  O   UNL A   1      30.837  24.286  26.943  1.00  0.00    -0.459 OA
BRANCH   6   7
ATOM      7  C   UNL A   1      30.983  23.053  26.381  1.00  0.00     0.365 C 
ATOM      8  O   UNL A   1      30.072  22.221  26.411  1.00  0.00    -0.245 OA
BRANCH   7   9
ATOM      9  C   UNL A   1      32.347  22.703  25.706  1.00  0.00     0.298 C 
BRANCH   9  10
ATOM     10  N   UNL A   1      32.126  21.436  24.945  1.00  0.00    -0.320 N 
ATOM     11  C   UNL A   1      32.002  21.369  22.478  1.00  0.00     0.075 C 
ATOM     12  C   UNL A   1      32.892  21.276  23.707  1.00  0.00     0.187 C 
ATOM     13  C   UNL A   1      33.184  19.814  24.131  1.00  0.00     0.126 C 
ATOM     14  C   UNL A   1      32.678  20.213  25.526  1.00  0.00     0.269 C 
ATOM     15  H   UNL A   1      31.112  21.531  24.887  1.00  0.00     0.349 HD
ENDBRANCH   9  10
BRANCH   9  16
ATOM     16  C   UNL A   1      33.339  23.682  25.082  1.00  0.00     0.059 C 
ATOM     17  C   UNL A   1      34.366  24.646  25.645  1.00  0.00     0.011 C 
ATOM     18  C   UNL A   1      34.814  23.378  24.976  1.00  0.00     0.011 C 
ENDBRANCH   9  16
ENDBRANCH   7   9
ENDBRANCH   6   7
ENDBRANCH   5   6
ENDBRANCH   4   5
ENDBRANCH   3   4
ENDBRANCH   2   3
ENDBRANCH   1   2
BRANCH   1  19
ATOM     19  O   UNL A   1      32.443  30.619  26.305  1.00  0.00    -0.376 OA
BRANCH  19  20
ATOM     20  C   UNL A   1      31.359  31.519  26.455  1.00  0.00     0.202 C 
BRANCH  20  21
ATOM     21  C   UNL A   1      31.713  32.946  26.898  1.00  0.00     0.261 C 
BRANCH  21  22
ATOM     22  O   UNL A   1      33.123  33.238  26.977  1.00  0.00    -0.460 OA
BRANCH  22  23
ATOM     23  C   UNL A   1      33.567  33.818  28.118  1.00  0.00     0.338 C 
ATOM     24  O   UNL A   1      32.972  34.634  28.803  1.00  0.00    -0.246 OA
BRANCH  23  25
ATOM     25  C   UNL A   1      34.799  33.111  28.551  1.00  0.00     0.060 A 
ATOM     26  C   UNL A   1      34.690  31.784  28.992  1.00  0.00     0.016 A 
ATOM     27  C   UNL A   1      36.053  33.726  28.494  1.00  0.00     0.016 A 
ATOM     28  C   UNL A   1      35.826  31.088  29.416  1.00  0.00     0.010 A 
ATOM     29  C   UNL A   1      37.188  33.032  28.936  1.00  0.00     0.010 A 
ATOM     30  C   UNL A   1      37.079  31.720  29.427  1.00  0.00    -0.014 A 
BRANCH  30  31
ATOM     31  C   UNL A   1      38.223  31.061  30.112  1.00  0.00     0.031 A 
ATOM     32  C   UNL A   1      38.473  31.366  31.562  1.00  0.00     0.074 A 
ATOM     33  C   UNL A   1      39.007  30.166  29.484  1.00  0.00     0.049 A 
ATOM     34  N   UNL A   1      39.369  30.867  32.375  1.00  0.00    -0.248 NA
ATOM     35  C   UNL A   1      37.599  32.379  32.170  1.00  0.00     0.031 C 
ATOM     36  C   UNL A   1      38.886  29.790  28.083  1.00  0.00     0.029 A 
ATOM     37  N   UNL A   1      40.051  29.403  29.947  1.00  0.00    -0.354 N 
ATOM     38  C   UNL A   1      39.171  31.508  33.590  1.00  0.00     0.074 A 
ATOM     39  C   UNL A   1      38.093  32.455  33.396  1.00  0.00     0.031 C 
ATOM     40  C   UNL A   1      39.783  28.829  27.804  1.00  0.00     0.029 A 
ATOM     41  C   UNL A   1      40.584  28.564  28.998  1.00  0.00     0.049 A 
ATOM     42  H   UNL A   1      40.387  29.452  30.871  1.00  0.00     0.167 HD
ATOM     43  C   UNL A   1      39.824  31.323  34.763  1.00  0.00     0.037 A 
ATOM     44  C   UNL A   1      41.610  27.693  29.076  1.00  0.00     0.037 A 
ATOM     45  C   UNL A   1      40.917  30.404  34.952  1.00  0.00     0.049 A 
ATOM     46  C   UNL A   1      42.361  27.548  30.377  1.00  0.00     0.074 A 
ATOM     47  C   UNL A   1      41.638  30.145  36.105  1.00  0.00     0.029 A 
ATOM     48  N   UNL A   1      41.463  29.605  33.956  1.00  0.00    -0.354 N 
ATOM     49  N   UNL A   1      42.145  28.131  31.530  1.00  0.00    -0.248 NA
ATOM     50  C   UNL A   1      43.507  26.625  30.379  1.00  0.00     0.031 C 
ATOM     51  C   UNL A   1      42.659  29.241  35.793  1.00  0.00     0.029 A 
ATOM     52  C   UNL A   1      42.528  28.875  34.463  1.00  0.00     0.049 A 
ATOM     53  H   UNL A   1      41.141  29.563  33.027  1.00  0.00     0.167 HD
ATOM     54  C   UNL A   1      43.104  27.627  32.401  1.00  0.00     0.074 A 
ATOM     55  C   UNL A   1      43.893  26.676  31.646  1.00  0.00     0.031 C 
ATOM     56  C   UNL A   1      43.312  27.927  33.708  1.00  0.00     0.037 A 
BRANCH  43  57
ATOM     57  C   UNL A   1      39.392  32.174  35.923  1.00  0.00     0.064 A 
ATOM     58  C   UNL A   1      38.386  31.761  36.812  1.00  0.00     0.173 A 
ATOM     59  C   UNL A   1      39.987  33.425  36.146  1.00  0.00     0.173 A 
ATOM     60  F   UNL A   1      37.773  30.579  36.636  1.00  0.00    -0.203 F 
ATOM     61  C   UNL A   1      37.964  32.585  37.850  1.00  0.00     0.198 A 
ATOM     62  C   UNL A   1      39.588  34.231  37.207  1.00  0.00     0.198 A 
ATOM     63  F   UNL A   1      40.955  33.868  35.329  1.00  0.00    -0.203 F 
ATOM     64  F   UNL A   1      36.953  32.200  38.642  1.00  0.00    -0.200 F 
ATOM     65  C   UNL A   1      38.568  33.818  38.050  1.00  0.00     0.200 A 
ATOM     66  F   UNL A   1      40.183  35.415  37.407  1.00  0.00    -0.200 F 
ATOM     67  F   UNL A   1      38.158  34.613  39.049  1.00  0.00    -0.200 F 
ENDBRANCH  43  57
BRANCH  44  68
ATOM     68  C   UNL A   1      42.001  26.886  27.888  1.00  0.00     0.064 A 
ATOM     69  C   UNL A   1      42.929  27.374  26.956  1.00  0.00     0.173 A 
ATOM     70  C   UNL A   1      41.440  25.623  27.647  1.00  0.00     0.173 A 
ATOM     71  F   UNL A   1      43.469  28.590  27.122  1.00  0.00    -0.203 F 
ATOM     72  C   UNL A   1      43.268  26.637  25.822  1.00  0.00     0.198 A 
ATOM     73  C   UNL A   1      41.805  24.873  26.531  1.00  0.00     0.198 A 
ATOM     74  F   UNL A   1      40.541  25.114  28.501  1.00  0.00    -0.203 F 
ATOM     75  F   UNL A   1      44.115  27.151  24.919  1.00  0.00    -0.200 F 
ATOM     76  C   UNL A   1      42.712  25.383  25.615  1.00  0.00     0.200 A 
ATOM     77  F   UNL A   1      41.273  23.658  26.340  1.00  0.00    -0.200 F 
ATOM     78  F   UNL A   1      43.041  24.673  24.527  1.00  0.00    -0.200 F 
ENDBRANCH  44  68
BRANCH  56  79
ATOM     79  C   UNL A   1      44.406  27.180  34.425  1.00  0.00     0.064 A 
ATOM     80  C   UNL A   1      45.713  27.681  34.520  1.00  0.00     0.173 A 
ATOM     81  C   UNL A   1      44.135  25.946  35.037  1.00  0.00     0.173 A 
ATOM     82  F   UNL A   1      46.033  28.850  33.944  1.00  0.00    -0.203 F 
ATOM     83  C   UNL A   1      46.715  26.955  35.162  1.00  0.00     0.198 A 
ATOM     84  C   UNL A   1      45.129  25.242  35.711  1.00  0.00     0.198 A 
ATOM     85  F   UNL A   1      42.900  25.422  34.987  1.00  0.00    -0.203 F 
ATOM     86  F   UNL A   1      47.971  27.423  35.181  1.00  0.00    -0.200 F 
ATOM     87  C   UNL A   1      46.421  25.740  35.762  1.00  0.00     0.200 A 
ATOM     88  F   UNL A   1      44.837  24.077  36.305  1.00  0.00    -0.200 F 
ATOM     89  F   UNL A   1      47.385  25.044  36.380  1.00  0.00    -0.200 F 
ENDBRANCH  56  79
ENDBRANCH  30  31
ENDBRANCH  23  25
ENDBRANCH  22  23
ENDBRANCH  21  22
ENDBRANCH  20  21
ENDBRANCH  19  20
ENDBRANCH   1  19
TORSDOF 19
ENDMDL
MODEL 3
REMARK VINA RESULT:      -9.9      4.186      9.717
REMARK SMILES C[C@@H]1CC[N@H+]1[C@H](C(=O)OCCOCCOCCOC(=O)c1ccc(-c2c3nc(c(-c4c(F)c(F)c(F)c(F)c4F)c4ccc([nH]4)c(-c4c(F)c(F)c(F)c(F)c4F)c4nc(c(-c5c(F)c(F)c(F)c(F)c5F)c5ccc2[nH]5)C=C4)C=C3)cc1)C1CC1
REMARK SMILES IDX 14 1 13 2 12 3 11 4 10 5 9 6 7 7 8 8 6 9 5 10 1 11 2 12 3 13
REMARK SMILES IDX 4 14 84 16 85 17 86 18 15 19 16 20 17 21 18 22 19 23 20 24
REMARK SMILES IDX 21 25 22 26 83 27 23 28 82 29 24 30 25 31 26 32 76 33 27 34
REMARK SMILES IDX 81 35 75 36 77 37 28 38 80 39 74 40 73 41 29 43 61 44 41 45
REMARK SMILES IDX 60 46 42 47 45 48 59 49 78 50 43 51 44 52 58 54 79 55 46 56
REMARK SMILES IDX 30 57 31 58 39 59 32 60 33 61 37 62 40 63 34 64 35 65 38 66
REMARK SMILES IDX 36 67 62 68 63 69 71 70 64 71 65 72 69 73 72 74 66 75 67 76
REMARK SMILES IDX 70 77 68 78 47 79 48 80 56 81 49 82 50 83 54 84 57 85 51 86
REMARK SMILES IDX 52 87 55 88 53 89
REMARK H PARENT 5 15 77 42 45 53
REMARK Flexibility Score: inf
ROOT
ATOM      1  C   UNL A   1      31.541  26.816  26.900  1.00  0.00     0.188 C 
ENDROOT
BRANCH   1   2
ATOM      2  C   UNL A   1      30.655  26.327  25.763  1.00  0.00     0.188 C 
BRANCH   2   3
ATOM      3  O   UNL A   1      30.638  24.942  25.465  1.00  0.00    -0.376 OA
BRANCH   3   4
ATOM      4  C   UNL A   1      31.126  24.026  26.441  1.00  0.00     0.202 C 
BRANCH   4   5
ATOM      5  C   UNL A   1      31.368  22.548  26.061  1.00  0.00     0.261 C 
BRANCH   5   6
ATOM      6  O   UNL A   1      32.719  22.163  25.679  1.00  0.00    -0.459 OA
BRANCH   6   7
ATOM      7  C   UNL A   1      33.688  22.425  26.599  1.00  0.00     0.365 C 
ATOM      8  O   UNL A   1      33.561  22.089  27.780  1.00  0.00    -0.245 OA
BRANCH   7   9
ATOM      9  C   UNL A   1      34.970  23.184  26.131  1.00  0.00     0.298 C 
BRANCH   9  10
ATOM     10  N   UNL A   1      36.071  22.174  26.108  1.00  0.00    -0.320 N 
ATOM     11  C   UNL A   1      35.838  19.976  25.001  1.00  0.00     0.075 C 
ATOM     12  C   UNL A   1      36.251  21.432  24.857  1.00  0.00     0.187 C 
ATOM     13  C   UNL A   1      37.779  21.644  25.005  1.00  0.00     0.126 C 
ATOM     14  C   UNL A   1      37.439  22.689  26.078  1.00  0.00     0.269 C 
ATOM     15  H   UNL A   1      35.760  21.670  26.938  1.00  0.00     0.349 HD
ENDBRANCH   9  10
BRANCH   9  16
ATOM     16  C   UNL A   1      35.052  24.274  25.065  1.00  0.00     0.059 C 
ATOM     17  C   UNL A   1      34.130  24.733  23.952  1.00  0.00     0.011 C 
ATOM     18  C   UNL A   1      34.299  25.577  25.183  1.00  0.00     0.011 C 
ENDBRANCH   9  16
ENDBRANCH   7   9
ENDBRANCH   6   7
ENDBRANCH   5   6
ENDBRANCH   4   5
ENDBRANCH   3   4
ENDBRANCH   2   3
ENDBRANCH   1   2
BRANCH   1  19
ATOM     19  O   UNL A   1      31.401  28.190  27.192  1.00  0.00    -0.376 OA
BRANCH  19  20
ATOM     20  C   UNL A   1      31.749  29.138  26.199  1.00  0.00     0.202 C 
BRANCH  20  21
ATOM     21  C   UNL A   1      31.859  30.599  26.659  1.00  0.00     0.261 C 
BRANCH  21  22
ATOM     22  O   UNL A   1      33.140  31.223  26.437  1.00  0.00    -0.460 OA
BRANCH  22  23
ATOM     23  C   UNL A   1      33.579  32.080  27.390  1.00  0.00     0.338 C 
ATOM     24  O   UNL A   1      32.941  32.981  27.912  1.00  0.00    -0.246 OA
BRANCH  23  25
ATOM     25  C   UNL A   1      34.888  31.590  27.891  1.00  0.00     0.060 A 
ATOM     26  C   UNL A   1      35.032  30.222  28.161  1.00  0.00     0.016 A 
ATOM     27  C   UNL A   1      35.974  32.453  28.063  1.00  0.00     0.016 A 
ATOM     28  C   UNL A   1      36.247  29.724  28.642  1.00  0.00     0.010 A 
ATOM     29  C   UNL A   1      37.185  31.955  28.562  1.00  0.00     0.010 A 
ATOM     30  C   UNL A   1      37.321  30.594  28.882  1.00  0.00    -0.014 A 
BRANCH  30  31
ATOM     31  C   UNL A   1      38.511  30.097  29.626  1.00  0.00     0.031 A 
ATOM     32  C   UNL A   1      38.719  30.549  31.044  1.00  0.00     0.074 A 
ATOM     33  C   UNL A   1      39.374  29.221  29.082  1.00  0.00     0.049 A 
ATOM     34  N   UNL A   1      39.646  30.202  31.901  1.00  0.00    -0.248 NA
ATOM     35  C   UNL A   1      37.757  31.533  31.558  1.00  0.00     0.031 C 
ATOM     36  C   UNL A   1      39.300  28.714  27.720  1.00  0.00     0.029 A 
ATOM     37  N   UNL A   1      40.474  28.593  29.614  1.00  0.00    -0.354 N 
ATOM     38  C   UNL A   1      39.381  30.928  33.053  1.00  0.00     0.074 A 
ATOM     39  C   UNL A   1      38.230  31.759  32.773  1.00  0.00     0.031 C 
ATOM     40  C   UNL A   1      40.277  27.812  27.530  1.00  0.00     0.029 A 
ATOM     41  C   UNL A   1      41.086  27.722  28.744  1.00  0.00     0.049 A 
ATOM     42  H   UNL A   1      40.795  28.752  30.530  1.00  0.00     0.167 HD
ATOM     43  C   UNL A   1      40.036  30.903  34.241  1.00  0.00     0.037 A 
ATOM     44  C   UNL A   1      42.181  26.953  28.902  1.00  0.00     0.037 A 
ATOM     45  C   UNL A   1      41.201  30.101  34.512  1.00  0.00     0.049 A 
ATOM     46  C   UNL A   1      42.928  26.987  30.212  1.00  0.00     0.074 A 
ATOM     47  C   UNL A   1      41.929  30.007  35.686  1.00  0.00     0.029 A 
ATOM     48  N   UNL A   1      41.823  29.267  33.593  1.00  0.00    -0.354 N 
ATOM     49  N   UNL A   1      42.652  27.648  31.309  1.00  0.00    -0.248 NA
ATOM     50  C   UNL A   1      44.148  26.169  30.299  1.00  0.00     0.031 C 
ATOM     51  C   UNL A   1      43.027  29.169  35.458  1.00  0.00     0.029 A 
ATOM     52  C   UNL A   1      42.941  28.678  34.166  1.00  0.00     0.049 A 
ATOM     53  H   UNL A   1      41.515  29.116  32.670  1.00  0.00     0.167 HD
ATOM     54  C   UNL A   1      43.641  27.307  32.223  1.00  0.00     0.074 A 
ATOM     55  C   UNL A   1      44.515  26.364  31.557  1.00  0.00     0.031 C 
ATOM     56  C   UNL A   1      43.809  27.737  33.499  1.00  0.00     0.037 A 
BRANCH  43  57
ATOM     57  C   UNL A   1      39.522  31.813  35.319  1.00  0.00     0.064 A 
ATOM     58  C   UNL A   1      39.947  33.148  35.427  1.00  0.00     0.173 A 
ATOM     59  C   UNL A   1      38.595  31.344  36.262  1.00  0.00     0.173 A 
ATOM     60  F   UNL A   1      40.844  33.643  34.560  1.00  0.00    -0.203 F 
ATOM     61  C   UNL A   1      39.499  33.961  36.464  1.00  0.00     0.198 A 
ATOM     62  C   UNL A   1      38.121  32.171  37.276  1.00  0.00     0.198 A 
ATOM     63  F   UNL A   1      38.153  30.079  36.204  1.00  0.00    -0.203 F 
ATOM     64  F   UNL A   1      39.974  35.208  36.589  1.00  0.00    -0.200 F 
ATOM     65  C   UNL A   1      38.583  33.474  37.384  1.00  0.00     0.200 A 
ATOM     66  F   UNL A   1      37.225  31.703  38.155  1.00  0.00    -0.200 F 
ATOM     67  F   UNL A   1      38.153  34.257  38.384  1.00  0.00    -0.200 F 
ENDBRANCH  43  57
BRANCH  44  68
ATOM     68  C   UNL A   1      42.651  26.080  27.790  1.00  0.00     0.064 A 
ATOM     69  C   UNL A   1      43.638  26.518  26.896  1.00  0.00     0.173 A 
ATOM     70  C   UNL A   1      42.108  24.803  27.586  1.00  0.00     0.173 A 
ATOM     71  F   UNL A   1      44.166  27.744  27.027  1.00  0.00    -0.203 F 
ATOM     72  C   UNL A   1      44.053  25.718  25.832  1.00  0.00     0.198 A 
ATOM     73  C   UNL A   1      42.547  23.992  26.542  1.00  0.00     0.198 A 
ATOM     74  F   UNL A   1      41.154  24.340  28.406  1.00  0.00    -0.203 F 
ATOM     75  F   UNL A   1      44.959  26.183  24.960  1.00  0.00    -0.200 F 
ATOM     76  C   UNL A   1      43.513  24.452  25.660  1.00  0.00     0.200 A 
ATOM     77  F   UNL A   1      42.029  22.765  26.386  1.00  0.00    -0.200 F 
ATOM     78  F   UNL A   1      43.914  23.683  24.639  1.00  0.00    -0.200 F 
ENDBRANCH  44  68
BRANCH  56  79
ATOM     79  C   UNL A   1      44.955  27.152  34.282  1.00  0.00     0.064 A 
ATOM     80  C   UNL A   1      46.218  27.763  34.326  1.00  0.00     0.173 A 
ATOM     81  C   UNL A   1      44.780  25.965  35.011  1.00  0.00     0.173 A 
ATOM     82  F   UNL A   1      46.447  28.893  33.640  1.00  0.00    -0.203 F 
ATOM     83  C   UNL A   1      47.271  27.184  35.033  1.00  0.00     0.198 A 
ATOM     84  C   UNL A   1      45.824  25.411  35.747  1.00  0.00     0.198 A 
ATOM     85  F   UNL A   1      43.592  25.342  35.013  1.00  0.00    -0.203 F 
ATOM     86  F   UNL A   1      48.485  27.750  35.005  1.00  0.00    -0.200 F 
ATOM     87  C   UNL A   1      47.072  26.013  35.748  1.00  0.00     0.200 A 
ATOM     88  F   UNL A   1      45.622  24.288  36.451  1.00  0.00    -0.200 F 
ATOM     89  F   UNL A   1      48.084  25.458  36.427  1.00  0.00    -0.200 F 
ENDBRANCH  56  79
ENDBRANCH  30  31
ENDBRANCH  23  25
ENDBRANCH  22  23
ENDBRANCH  21  22
ENDBRANCH  20  21
ENDBRANCH  19  20
ENDBRANCH   1  19
TORSDOF 19
ENDMDL
