MODEL 1
REMARK VINA RESULT:      -9.4      0.000      0.000
REMARK SMILES CCC[C@H]([NH2+]Cc1nc(C(C)(C)C)cs1)C(=O)OCCOCCOCCOC(=O)c1ccc(-c2c3nc(c(-c4c(F)c(F)c(F)c(F)c4F)c4ccc([nH]4)c(-c4c(F)c(F)c(F)c(F)c4F)c4nc(c(-c5c(F)c(F)c(F)c(F)c5F)c5ccc2[nH]5)C=C4)C=C3)cc1
REMARK SMILES IDX 22 1 21 2 20 3 19 4 18 5 16 6 17 7 4 8 3 9 2 10 1 11 5 12
REMARK SMILES IDX 6 15 7 16 8 17 15 18 9 19 14 20 10 21 11 22 12 23 13 24
REMARK SMILES IDX 23 25 24 26 25 27 26 28 27 29 28 30 29 31 30 32 31 33 92 34
REMARK SMILES IDX 32 35 91 36 33 37 34 38 35 39 85 40 36 41 90 42 84 43 86 44
REMARK SMILES IDX 37 45 89 46 83 47 82 48 38 50 70 51 50 52 69 53 51 54 54 55
REMARK SMILES IDX 68 56 87 57 52 58 53 59 67 61 88 62 55 63 39 64 40 65 48 66
REMARK SMILES IDX 41 67 42 68 46 69 49 70 43 71 44 72 47 73 45 74 71 75 72 76
REMARK SMILES IDX 80 77 73 78 74 79 78 80 81 81 75 82 76 83 79 84 77 85 56 86
REMARK SMILES IDX 57 87 65 88 58 89 59 90 63 91 66 92 60 93 61 94 64 95 62 96
REMARK H PARENT 5 13 5 14 86 49 54 60
REMARK Flexibility Score: inf
ROOT
ATOM      1  C   UNL A   1      34.431  32.104  27.717  1.00  0.00     0.188 C 
ENDROOT
BRANCH   1   2
ATOM      2  O   UNL A   1      35.327  31.001  27.829  1.00  0.00    -0.376 OA
BRANCH   2   3
ATOM      3  C   UNL A   1      34.847  29.705  27.510  1.00  0.00     0.202 C 
BRANCH   3   4
ATOM      4  C   UNL A   1      33.369  29.629  27.119  1.00  0.00     0.261 C 
BRANCH   4   5
ATOM      5  O   UNL A   1      32.973  28.397  26.488  1.00  0.00    -0.459 OA
BRANCH   5   6
ATOM      6  C   UNL A   1      31.973  27.685  27.084  1.00  0.00     0.364 C 
ATOM      7  O   UNL A   1      31.287  28.087  28.018  1.00  0.00    -0.245 OA
BRANCH   6   8
ATOM      8  C   UNL A   1      31.874  26.241  26.541  1.00  0.00     0.293 C 
BRANCH   8   9
ATOM      9  C   UNL A   1      33.216  25.979  25.813  1.00  0.00     0.077 C 
BRANCH   9  10
ATOM     10  C   UNL A   1      33.781  24.555  25.813  1.00  0.00     0.003 C 
ATOM     11  C   UNL A   1      35.271  24.482  25.482  1.00  0.00     0.004 C 
ENDBRANCH   9  10
ENDBRANCH   8   9
BRANCH   8  12
ATOM     12  N   UNL A   1      30.665  26.029  25.722  1.00  0.00    -0.329 N 
ATOM     13  H   UNL A   1      30.031  26.811  25.884  1.00  0.00     0.347 HD
ATOM     14  H   UNL A   1      30.278  25.130  26.011  1.00  0.00     0.347 HD
BRANCH  12  15
ATOM     15  C   UNL A   1      30.908  25.929  24.278  1.00  0.00     0.330 C 
BRANCH  15  16
ATOM     16  C   UNL A   1      30.588  27.243  23.574  1.00  0.00     0.147 A 
ATOM     17  N   UNL A   1      29.405  27.830  23.543  1.00  0.00    -0.240 NA
ATOM     18  S   UNL A   1      31.842  28.119  22.786  1.00  0.00    -0.121 S 
ATOM     19  C   UNL A   1      29.459  29.039  22.853  1.00  0.00     0.057 A 
ATOM     20  C   UNL A   1      30.727  29.359  22.396  1.00  0.00     0.091 A 
BRANCH  19  21
ATOM     21  C   UNL A   1      28.194  29.880  22.694  1.00  0.00     0.005 C 
ATOM     22  C   UNL A   1      28.036  30.329  21.227  1.00  0.00     0.017 C 
ATOM     23  C   UNL A   1      26.942  29.074  23.097  1.00  0.00     0.017 C 
ATOM     24  C   UNL A   1      28.244  31.141  23.581  1.00  0.00     0.017 C 
ENDBRANCH  19  21
ENDBRANCH  15  16
ENDBRANCH  12  15
ENDBRANCH   8  12
ENDBRANCH   6   8
ENDBRANCH   5   6
ENDBRANCH   4   5
ENDBRANCH   3   4
ENDBRANCH   2   3
ENDBRANCH   1   2
BRANCH   1  25
ATOM     25  C   UNL A   1      34.312  33.106  28.873  1.00  0.00     0.188 C 
BRANCH  25  26
ATOM     26  O   UNL A   1      33.169  33.942  28.723  1.00  0.00    -0.376 OA
BRANCH  26  27
ATOM     27  C   UNL A   1      33.480  35.328  28.795  1.00  0.00     0.202 C 
BRANCH  27  28
ATOM     28  C   UNL A   1      32.343  36.058  29.512  1.00  0.00     0.261 C 
BRANCH  28  29
ATOM     29  O   UNL A   1      32.739  36.743  30.720  1.00  0.00    -0.460 OA
BRANCH  29  30
ATOM     30  C   UNL A   1      32.636  36.047  31.875  1.00  0.00     0.338 C 
ATOM     31  O   UNL A   1      31.701  36.052  32.653  1.00  0.00    -0.246 OA
BRANCH  30  32
ATOM     32  C   UNL A   1      33.796  35.134  31.992  1.00  0.00     0.060 A 
ATOM     33  C   UNL A   1      33.606  33.885  32.593  1.00  0.00     0.016 A 
ATOM     34  C   UNL A   1      35.071  35.515  31.572  1.00  0.00     0.016 A 
ATOM     35  C   UNL A   1      34.683  33.017  32.789  1.00  0.00     0.010 A 
ATOM     36  C   UNL A   1      36.157  34.658  31.794  1.00  0.00     0.010 A 
ATOM     37  C   UNL A   1      35.975  33.413  32.426  1.00  0.00    -0.014 A 
BRANCH  37  38
ATOM     38  C   UNL A   1      37.153  32.616  32.867  1.00  0.00     0.031 A 
ATOM     39  C   UNL A   1      37.773  32.926  34.204  1.00  0.00     0.074 A 
ATOM     40  C   UNL A   1      37.655  31.619  32.118  1.00  0.00     0.049 A 
ATOM     41  N   UNL A   1      38.864  32.452  34.750  1.00  0.00    -0.248 NA
ATOM     42  C   UNL A   1      37.059  33.905  35.039  1.00  0.00     0.031 C 
ATOM     43  C   UNL A   1      37.112  31.161  30.842  1.00  0.00     0.029 A 
ATOM     44  N   UNL A   1      38.751  30.814  32.326  1.00  0.00    -0.354 N 
ATOM     45  C   UNL A   1      38.980  33.090  35.979  1.00  0.00     0.074 A 
ATOM     46  C   UNL A   1      37.858  33.997  36.092  1.00  0.00     0.031 C 
ATOM     47  C   UNL A   1      37.883  30.165  30.372  1.00  0.00     0.029 A 
ATOM     48  C   UNL A   1      39.003  29.949  31.287  1.00  0.00     0.049 A 
ATOM     49  H   UNL A   1      39.302  30.853  33.139  1.00  0.00     0.167 HD
ATOM     50  C   UNL A   1      39.932  32.932  36.930  1.00  0.00     0.037 A 
ATOM     51  C   UNL A   1      40.037  29.108  31.084  1.00  0.00     0.037 A 
ATOM     52  C   UNL A   1      41.043  32.022  36.824  1.00  0.00     0.049 A 
ATOM     53  C   UNL A   1      41.138  29.019  32.114  1.00  0.00     0.074 A 
ATOM     54  C   UNL A   1      42.056  31.788  37.737  1.00  0.00     0.029 A 
ATOM     55  N   UNL A   1      41.287  31.195  35.737  1.00  0.00    -0.354 N 
ATOM     56  N   UNL A   1      41.247  29.631  33.269  1.00  0.00    -0.248 NA
ATOM     57  C   UNL A   1      42.264  28.123  31.807  1.00  0.00     0.031 C 
ATOM     58  C   UNL A   1      42.944  30.862  37.180  1.00  0.00     0.029 A 
ATOM     59  C   UNL A   1      42.450  30.472  35.945  1.00  0.00     0.049 A 
ATOM     60  H   UNL A   1      40.718  31.134  34.935  1.00  0.00     0.167 HD
ATOM     61  C   UNL A   1      42.432  29.174  33.835  1.00  0.00     0.074 A 
ATOM     62  C   UNL A   1      42.998  28.220  32.906  1.00  0.00     0.031 C 
ATOM     63  C   UNL A   1      42.999  29.515  35.019  1.00  0.00     0.037 A 
BRANCH  50  64
ATOM     64  C   UNL A   1      39.838  33.793  38.156  1.00  0.00     0.064 A 
ATOM     65  C   UNL A   1      40.470  35.042  38.238  1.00  0.00     0.173 A 
ATOM     66  C   UNL A   1      39.072  33.373  39.256  1.00  0.00     0.173 A 
ATOM     67  F   UNL A   1      41.226  35.483  37.220  1.00  0.00    -0.203 F 
ATOM     68  C   UNL A   1      40.363  35.826  39.383  1.00  0.00     0.198 A 
ATOM     69  C   UNL A   1      38.941  34.174  40.387  1.00  0.00     0.198 A 
ATOM     70  F   UNL A   1      38.442  32.189  39.229  1.00  0.00    -0.203 F 
ATOM     71  F   UNL A   1      41.017  36.993  39.458  1.00  0.00    -0.200 F 
ATOM     72  C   UNL A   1      39.593  35.395  40.453  1.00  0.00     0.200 A 
ATOM     73  F   UNL A   1      38.185  33.761  41.414  1.00  0.00    -0.200 F 
ATOM     74  F   UNL A   1      39.484  36.155  41.551  1.00  0.00    -0.200 F 
ENDBRANCH  50  64
BRANCH  51  75
ATOM     75  C   UNL A   1      40.115  28.303  29.834  1.00  0.00     0.064 A 
ATOM     76  C   UNL A   1      40.813  28.770  28.712  1.00  0.00     0.173 A 
ATOM     77  C   UNL A   1      39.454  27.070  29.721  1.00  0.00     0.173 A 
ATOM     78  F   UNL A   1      41.432  29.959  28.756  1.00  0.00    -0.203 F 
ATOM     79  C   UNL A   1      40.830  28.046  27.520  1.00  0.00     0.198 A 
ATOM     80  C   UNL A   1      39.499  26.332  28.540  1.00  0.00     0.198 A 
ATOM     81  F   UNL A   1      38.760  26.582  30.759  1.00  0.00    -0.203 F 
ATOM     82  F   UNL A   1      41.455  28.546  26.445  1.00  0.00    -0.200 F 
ATOM     83  C   UNL A   1      40.179  26.825  27.437  1.00  0.00     0.200 A 
ATOM     84  F   UNL A   1      38.874  25.149  28.466  1.00  0.00    -0.200 F 
ATOM     85  F   UNL A   1      40.194  26.132  26.290  1.00  0.00    -0.200 F 
ENDBRANCH  51  75
BRANCH  63  86
ATOM     86  C   UNL A   1      44.277  28.822  35.404  1.00  0.00     0.064 A 
ATOM     87  C   UNL A   1      45.534  29.354  35.078  1.00  0.00     0.173 A 
ATOM     88  C   UNL A   1      44.242  27.631  36.147  1.00  0.00     0.173 A 
ATOM     89  F   UNL A   1      45.624  30.483  34.359  1.00  0.00    -0.203 F 
ATOM     90  C   UNL A   1      46.706  28.706  35.460  1.00  0.00     0.198 A 
ATOM     91  C   UNL A   1      45.417  27.004  36.555  1.00  0.00     0.198 A 
ATOM     92  F   UNL A   1      43.067  27.084  36.493  1.00  0.00    -0.203 F 
ATOM     93  F   UNL A   1      47.895  29.207  35.097  1.00  0.00    -0.200 F 
ATOM     94  C   UNL A   1      46.647  27.537  36.204  1.00  0.00     0.200 A 
ATOM     95  F   UNL A   1      45.357  25.884  37.287  1.00  0.00    -0.200 F 
ATOM     96  F   UNL A   1      47.777  26.920  36.578  1.00  0.00    -0.200 F 
ENDBRANCH  63  86
ENDBRANCH  37  38
ENDBRANCH  30  32
ENDBRANCH  29  30
ENDBRANCH  28  29
ENDBRANCH  27  28
ENDBRANCH  26  27
ENDBRANCH  25  26
ENDBRANCH   1  25
TORSDOF 23
ENDMDL
MODEL 2
REMARK VINA RESULT:      -8.7      1.816      2.921
REMARK SMILES CCC[C@H]([NH2+]Cc1nc(C(C)(C)C)cs1)C(=O)OCCOCCOCCOC(=O)c1ccc(-c2c3nc(c(-c4c(F)c(F)c(F)c(F)c4F)c4ccc([nH]4)c(-c4c(F)c(F)c(F)c(F)c4F)c4nc(c(-c5c(F)c(F)c(F)c(F)c5F)c5ccc2[nH]5)C=C4)C=C3)cc1
REMARK SMILES IDX 22 1 21 2 20 3 19 4 18 5 16 6 17 7 4 8 3 9 2 10 1 11 5 12
REMARK SMILES IDX 6 15 7 16 8 17 15 18 9 19 14 20 10 21 11 22 12 23 13 24
REMARK SMILES IDX 23 25 24 26 25 27 26 28 27 29 28 30 29 31 30 32 31 33 92 34
REMARK SMILES IDX 32 35 91 36 33 37 34 38 35 39 85 40 36 41 90 42 84 43 86 44
REMARK SMILES IDX 37 45 89 46 83 47 82 48 38 50 70 51 50 52 69 53 51 54 54 55
REMARK SMILES IDX 68 56 87 57 52 58 53 59 67 61 88 62 55 63 39 64 40 65 48 66
REMARK SMILES IDX 41 67 42 68 46 69 49 70 43 71 44 72 47 73 45 74 71 75 72 76
REMARK SMILES IDX 80 77 73 78 74 79 78 80 81 81 75 82 76 83 79 84 77 85 56 86
REMARK SMILES IDX 57 87 65 88 58 89 59 90 63 91 66 92 60 93 61 94 64 95 62 96
REMARK H PARENT 5 13 5 14 86 49 54 60
REMARK Flexibility Score: inf
ROOT
ATOM      1  C   UNL A   1      34.805  32.112  27.868  1.00  0.00     0.188 C 
ENDROOT
BRANCH   1   2
ATOM      2  O   UNL A   1      35.889  31.217  27.630  1.00  0.00    -0.376 OA
BRANCH   2   3
ATOM      3  C   UNL A   1      35.651  29.823  27.740  1.00  0.00     0.202 C 
BRANCH   3   4
ATOM      4  C   UNL A   1      34.191  29.391  27.584  1.00  0.00     0.261 C 
BRANCH   4   5
ATOM      5  O   UNL A   1      33.999  28.159  26.865  1.00  0.00    -0.459 OA
BRANCH   5   6
ATOM      6  C   UNL A   1      32.718  27.818  26.543  1.00  0.00     0.364 C 
ATOM      7  O   UNL A   1      31.747  28.559  26.655  1.00  0.00    -0.245 OA
BRANCH   6   8
ATOM      8  C   UNL A   1      32.587  26.331  26.139  1.00  0.00     0.293 C 
BRANCH   8   9
ATOM      9  C   UNL A   1      33.801  26.044  25.220  1.00  0.00     0.077 C 
BRANCH   9  10
ATOM     10  C   UNL A   1      34.540  24.712  25.384  1.00  0.00     0.003 C 
ATOM     11  C   UNL A   1      33.869  23.750  26.362  1.00  0.00     0.004 C 
ENDBRANCH   9  10
ENDBRANCH   8   9
BRANCH   8  12
ATOM     12  N   UNL A   1      31.269  26.022  25.551  1.00  0.00    -0.329 N 
ATOM     13  H   UNL A   1      30.617  26.753  25.833  1.00  0.00     0.347 HD
ATOM     14  H   UNL A   1      31.012  25.097  25.898  1.00  0.00     0.347 HD
BRANCH  12  15
ATOM     15  C   UNL A   1      31.253  25.933  24.086  1.00  0.00     0.330 C 
BRANCH  15  16
ATOM     16  C   UNL A   1      30.836  27.260  23.460  1.00  0.00     0.147 A 
ATOM     17  N   UNL A   1      29.612  27.756  23.453  1.00  0.00    -0.240 NA
ATOM     18  S   UNL A   1      32.025  28.275  22.740  1.00  0.00    -0.121 S 
ATOM     19  C   UNL A   1      29.578  29.005  22.837  1.00  0.00     0.057 A 
ATOM     20  C   UNL A   1      30.819  29.449  22.413  1.00  0.00     0.091 A 
BRANCH  19  21
ATOM     21  C   UNL A   1      28.252  29.756  22.717  1.00  0.00     0.005 C 
ATOM     22  C   UNL A   1      28.256  30.991  23.640  1.00  0.00     0.017 C 
ATOM     23  C   UNL A   1      28.018  30.229  21.267  1.00  0.00     0.017 C 
ATOM     24  C   UNL A   1      27.062  28.860  23.114  1.00  0.00     0.017 C 
ENDBRANCH  19  21
ENDBRANCH  15  16
ENDBRANCH  12  15
ENDBRANCH   8  12
ENDBRANCH   6   8
ENDBRANCH   5   6
ENDBRANCH   4   5
ENDBRANCH   3   4
ENDBRANCH   2   3
ENDBRANCH   1   2
BRANCH   1  25
ATOM     25  C   UNL A   1      34.710  32.850  29.210  1.00  0.00     0.188 C 
BRANCH  25  26
ATOM     26  O   UNL A   1      33.516  33.622  29.297  1.00  0.00    -0.376 OA
BRANCH  26  27
ATOM     27  C   UNL A   1      33.745  35.019  29.162  1.00  0.00     0.202 C 
BRANCH  27  28
ATOM     28  C   UNL A   1      32.652  35.780  29.914  1.00  0.00     0.261 C 
BRANCH  28  29
ATOM     29  O   UNL A   1      33.017  36.188  31.250  1.00  0.00    -0.460 OA
BRANCH  29  30
ATOM     30  C   UNL A   1      32.877  35.264  32.227  1.00  0.00     0.338 C 
ATOM     31  O   UNL A   1      31.839  34.891  32.740  1.00  0.00    -0.246 OA
BRANCH  30  32
ATOM     32  C   UNL A   1      34.193  34.641  32.494  1.00  0.00     0.060 A 
ATOM     33  C   UNL A   1      34.228  33.316  32.942  1.00  0.00     0.016 A 
ATOM     34  C   UNL A   1      35.381  35.360  32.364  1.00  0.00     0.016 A 
ATOM     35  C   UNL A   1      35.440  32.706  33.273  1.00  0.00     0.010 A 
ATOM     36  C   UNL A   1      36.595  34.760  32.724  1.00  0.00     0.010 A 
ATOM     37  C   UNL A   1      36.631  33.437  33.204  1.00  0.00    -0.014 A 
BRANCH  37  38
ATOM     38  C   UNL A   1      37.881  32.889  33.800  1.00  0.00     0.031 A 
ATOM     39  C   UNL A   1      38.128  33.095  35.271  1.00  0.00     0.074 A 
ATOM     40  C   UNL A   1      38.772  32.198  33.068  1.00  0.00     0.049 A 
ATOM     41  N   UNL A   1      39.186  32.814  35.989  1.00  0.00    -0.248 NA
ATOM     42  C   UNL A   1      37.027  33.700  36.036  1.00  0.00     0.031 C 
ATOM     43  C   UNL A   1      38.627  31.859  31.655  1.00  0.00     0.029 A 
ATOM     44  N   UNL A   1      39.990  31.664  33.418  1.00  0.00    -0.354 N 
ATOM     45  C   UNL A   1      38.887  33.228  37.281  1.00  0.00     0.074 A 
ATOM     46  C   UNL A   1      37.557  33.795  37.246  1.00  0.00     0.031 C 
ATOM     47  C   UNL A   1      39.719  31.185  31.253  1.00  0.00     0.029 A 
ATOM     48  C   UNL A   1      40.663  31.090  32.366  1.00  0.00     0.049 A 
ATOM     49  H   UNL A   1      40.346  31.690  34.335  1.00  0.00     0.167 HD
ATOM     50  C   UNL A   1      39.651  33.140  38.397  1.00  0.00     0.037 A 
ATOM     51  C   UNL A   1      41.910  30.580  32.302  1.00  0.00     0.037 A 
ATOM     52  C   UNL A   1      40.971  32.566  38.436  1.00  0.00     0.049 A 
ATOM     53  C   UNL A   1      42.779  30.580  33.537  1.00  0.00     0.074 A 
ATOM     54  C   UNL A   1      41.820  32.428  39.520  1.00  0.00     0.029 A 
ATOM     55  N   UNL A   1      41.634  32.035  37.339  1.00  0.00    -0.354 N 
ATOM     56  N   UNL A   1      42.495  30.981  34.753  1.00  0.00    -0.248 NA
ATOM     57  C   UNL A   1      44.146  30.059  33.387  1.00  0.00     0.031 C 
ATOM     58  C   UNL A   1      43.018  31.865  39.070  1.00  0.00     0.029 A 
ATOM     59  C   UNL A   1      42.893  31.595  37.716  1.00  0.00     0.049 A 
ATOM     60  H   UNL A   1      41.266  31.982  36.427  1.00  0.00     0.167 HD
ATOM     61  C   UNL A   1      43.632  30.736  35.513  1.00  0.00     0.074 A 
ATOM     62  C   UNL A   1      44.606  30.135  34.628  1.00  0.00     0.031 C 
ATOM     63  C   UNL A   1      43.850  30.986  36.829  1.00  0.00     0.037 A 
BRANCH  50  64
ATOM     64  C   UNL A   1      39.092  33.715  39.666  1.00  0.00     0.064 A 
ATOM     65  C   UNL A   1      38.286  32.961  40.531  1.00  0.00     0.173 A 
ATOM     66  C   UNL A   1      39.397  35.034  40.039  1.00  0.00     0.173 A 
ATOM     67  F   UNL A   1      37.952  31.700  40.215  1.00  0.00    -0.203 F 
ATOM     68  C   UNL A   1      37.784  33.513  41.707  1.00  0.00     0.198 A 
ATOM     69  C   UNL A   1      38.920  35.573  41.230  1.00  0.00     0.198 A 
ATOM     70  F   UNL A   1      40.169  35.798  39.251  1.00  0.00    -0.203 F 
ATOM     71  F   UNL A   1      36.976  32.790  42.493  1.00  0.00    -0.200 F 
ATOM     72  C   UNL A   1      38.108  34.815  42.060  1.00  0.00     0.200 A 
ATOM     73  F   UNL A   1      39.247  36.826  41.575  1.00  0.00    -0.200 F 
ATOM     74  F   UNL A   1      37.631  35.341  43.195  1.00  0.00    -0.200 F 
ENDBRANCH  50  64
BRANCH  51  75
ATOM     75  C   UNL A   1      42.441  30.058  31.013  1.00  0.00     0.064 A 
ATOM     76  C   UNL A   1      42.392  28.690  30.708  1.00  0.00     0.173 A 
ATOM     77  C   UNL A   1      43.051  30.910  30.079  1.00  0.00     0.173 A 
ATOM     78  F   UNL A   1      41.853  27.829  31.583  1.00  0.00    -0.203 F 
ATOM     79  C   UNL A   1      42.949  28.194  29.530  1.00  0.00     0.198 A 
ATOM     80  C   UNL A   1      43.578  30.417  28.887  1.00  0.00     0.198 A 
ATOM     81  F   UNL A   1      43.137  32.225  30.325  1.00  0.00    -0.203 F 
ATOM     82  F   UNL A   1      42.942  26.874  29.294  1.00  0.00    -0.200 F 
ATOM     83  C   UNL A   1      43.536  29.057  28.618  1.00  0.00     0.200 A 
ATOM     84  F   UNL A   1      44.138  31.256  28.005  1.00  0.00    -0.200 F 
ATOM     85  F   UNL A   1      44.073  28.578  27.488  1.00  0.00    -0.200 F 
ENDBRANCH  51  75
BRANCH  63  86
ATOM     86  C   UNL A   1      45.175  30.572  37.406  1.00  0.00     0.064 A 
ATOM     87  C   UNL A   1      45.406  29.266  37.865  1.00  0.00     0.173 A 
ATOM     88  C   UNL A   1      46.242  31.483  37.461  1.00  0.00     0.173 A 
ATOM     89  F   UNL A   1      44.418  28.360  37.847  1.00  0.00    -0.203 F 
ATOM     90  C   UNL A   1      46.646  28.896  38.380  1.00  0.00     0.198 A 
ATOM     91  C   UNL A   1      47.490  31.101  37.945  1.00  0.00     0.198 A 
ATOM     92  F   UNL A   1      46.078  32.742  37.027  1.00  0.00    -0.203 F 
ATOM     93  F   UNL A   1      46.830  27.658  38.857  1.00  0.00    -0.200 F 
ATOM     94  C   UNL A   1      47.688  29.811  38.412  1.00  0.00     0.200 A 
ATOM     95  F   UNL A   1      48.500  31.981  37.960  1.00  0.00    -0.200 F 
ATOM     96  F   UNL A   1      48.884  29.450  38.900  1.00  0.00    -0.200 F 
ENDBRANCH  63  86
ENDBRANCH  37  38
ENDBRANCH  30  32
ENDBRANCH  29  30
ENDBRANCH  28  29
ENDBRANCH  27  28
ENDBRANCH  26  27
ENDBRANCH  25  26
ENDBRANCH   1  25
TORSDOF 23
ENDMDL
MODEL 3
REMARK VINA RESULT:      -8.6      8.275     12.854
REMARK SMILES CCC[C@H]([NH2+]Cc1nc(C(C)(C)C)cs1)C(=O)OCCOCCOCCOC(=O)c1ccc(-c2c3nc(c(-c4c(F)c(F)c(F)c(F)c4F)c4ccc([nH]4)c(-c4c(F)c(F)c(F)c(F)c4F)c4nc(c(-c5c(F)c(F)c(F)c(F)c5F)c5ccc2[nH]5)C=C4)C=C3)cc1
REMARK SMILES IDX 22 1 21 2 20 3 19 4 18 5 16 6 17 7 4 8 3 9 2 10 1 11 5 12
REMARK SMILES IDX 6 15 7 16 8 17 15 18 9 19 14 20 10 21 11 22 12 23 13 24
REMARK SMILES IDX 23 25 24 26 25 27 26 28 27 29 28 30 29 31 30 32 31 33 92 34
REMARK SMILES IDX 32 35 91 36 33 37 34 38 35 39 85 40 36 41 90 42 84 43 86 44
REMARK SMILES IDX 37 45 89 46 83 47 82 48 38 50 70 51 50 52 69 53 51 54 54 55
REMARK SMILES IDX 68 56 87 57 52 58 53 59 67 61 88 62 55 63 39 64 40 65 48 66
REMARK SMILES IDX 41 67 42 68 46 69 49 70 43 71 44 72 47 73 45 74 71 75 72 76
REMARK SMILES IDX 80 77 73 78 74 79 78 80 81 81 75 82 76 83 79 84 77 85 56 86
REMARK SMILES IDX 57 87 65 88 58 89 59 90 63 91 66 92 60 93 61 94 64 95 62 96
REMARK H PARENT 5 13 5 14 86 49 54 60
REMARK Flexibility Score: inf
ROOT
ATOM      1  C   UNL A   1      38.406  22.661  26.111  1.00  0.00     0.188 C 
ENDROOT
BRANCH   1   2
ATOM      2  O   UNL A   1      37.147  22.245  25.588  1.00  0.00    -0.376 OA
BRANCH   2   3
ATOM      3  C   UNL A   1      36.378  23.182  24.851  1.00  0.00     0.202 C 
BRANCH   3   4
ATOM      4  C   UNL A   1      34.873  23.161  25.128  1.00  0.00     0.261 C 
BRANCH   4   5
ATOM      5  O   UNL A   1      34.066  22.669  24.042  1.00  0.00    -0.459 OA
BRANCH   5   6
ATOM      6  C   UNL A   1      33.706  23.563  23.077  1.00  0.00     0.364 C 
ATOM      7  O   UNL A   1      34.104  23.539  21.917  1.00  0.00    -0.245 OA
BRANCH   6   8
ATOM      8  C   UNL A   1      32.831  24.710  23.632  1.00  0.00     0.293 C 
BRANCH   8   9
ATOM      9  C   UNL A   1      31.404  24.118  23.757  1.00  0.00     0.077 C 
BRANCH   9  10
ATOM     10  C   UNL A   1      30.741  24.099  25.138  1.00  0.00     0.003 C 
ATOM     11  C   UNL A   1      30.374  25.485  25.666  1.00  0.00     0.004 C 
ENDBRANCH   9  10
ENDBRANCH   8   9
BRANCH   8  12
ATOM     12  N   UNL A   1      32.931  25.938  22.820  1.00  0.00    -0.329 N 
ATOM     13  H   UNL A   1      33.686  25.813  22.147  1.00  0.00     0.347 HD
ATOM     14  H   UNL A   1      33.098  26.701  23.477  1.00  0.00     0.347 HD
BRANCH  12  15
ATOM     15  C   UNL A   1      31.712  26.289  22.081  1.00  0.00     0.330 C 
BRANCH  15  16
ATOM     16  C   UNL A   1      31.089  27.571  22.624  1.00  0.00     0.147 A 
ATOM     17  N   UNL A   1      29.908  28.054  22.285  1.00  0.00    -0.240 NA
ATOM     18  S   UNL A   1      31.914  28.478  23.832  1.00  0.00    -0.121 S 
ATOM     19  C   UNL A   1      29.616  29.217  22.995  1.00  0.00     0.057 A 
ATOM     20  C   UNL A   1      30.598  29.573  23.904  1.00  0.00     0.091 A 
BRANCH  19  21
ATOM     21  C   UNL A   1      28.295  29.945  22.750  1.00  0.00     0.005 C 
ATOM     22  C   UNL A   1      28.204  30.400  21.279  1.00  0.00     0.017 C 
ATOM     23  C   UNL A   1      27.094  29.025  23.053  1.00  0.00     0.017 C 
ATOM     24  C   UNL A   1      28.167  31.192  23.648  1.00  0.00     0.017 C 
ENDBRANCH  19  21
ENDBRANCH  15  16
ENDBRANCH  12  15
ENDBRANCH   8  12
ENDBRANCH   6   8
ENDBRANCH   5   6
ENDBRANCH   4   5
ENDBRANCH   3   4
ENDBRANCH   2   3
ENDBRANCH   1   2
BRANCH   1  25
ATOM     25  C   UNL A   1      39.622  21.733  25.991  1.00  0.00     0.188 C 
BRANCH  25  26
ATOM     26  O   UNL A   1      40.041  21.255  27.266  1.00  0.00    -0.376 OA
BRANCH  26  27
ATOM     27  C   UNL A   1      41.349  20.696  27.248  1.00  0.00     0.202 C 
BRANCH  27  28
ATOM     28  C   UNL A   1      42.330  21.699  27.857  1.00  0.00     0.261 C 
BRANCH  28  29
ATOM     29  O   UNL A   1      42.626  22.834  27.015  1.00  0.00    -0.460 OA
BRANCH  29  30
ATOM     30  C   UNL A   1      42.228  24.044  27.465  1.00  0.00     0.338 C 
ATOM     31  O   UNL A   1      41.202  24.302  28.067  1.00  0.00    -0.246 OA
BRANCH  30  32
ATOM     32  C   UNL A   1      43.318  25.023  27.246  1.00  0.00     0.060 A 
ATOM     33  C   UNL A   1      44.013  25.510  28.358  1.00  0.00     0.016 A 
ATOM     34  C   UNL A   1      43.621  25.505  25.972  1.00  0.00     0.016 A 
ATOM     35  C   UNL A   1      45.003  26.485  28.210  1.00  0.00     0.010 A 
ATOM     36  C   UNL A   1      44.592  26.504  25.825  1.00  0.00     0.010 A 
ATOM     37  C   UNL A   1      45.273  27.019  26.945  1.00  0.00    -0.014 A 
BRANCH  37  38
ATOM     38  C   UNL A   1      46.126  28.232  26.812  1.00  0.00     0.031 A 
ATOM     39  C   UNL A   1      47.589  28.054  26.502  1.00  0.00     0.074 A 
ATOM     40  C   UNL A   1      45.620  29.472  26.935  1.00  0.00     0.049 A 
ATOM     41  N   UNL A   1      48.548  28.943  26.453  1.00  0.00    -0.248 NA
ATOM     42  C   UNL A   1      48.027  26.681  26.205  1.00  0.00     0.031 C 
ATOM     43  C   UNL A   1      44.214  29.794  27.159  1.00  0.00     0.029 A 
ATOM     44  N   UNL A   1      46.244  30.696  26.898  1.00  0.00    -0.354 N 
ATOM     45  C   UNL A   1      49.703  28.237  26.143  1.00  0.00     0.074 A 
ATOM     46  C   UNL A   1      49.330  26.844  26.033  1.00  0.00     0.031 C 
ATOM     47  C   UNL A   1      44.082  31.130  27.253  1.00  0.00     0.029 A 
ATOM     48  C   UNL A   1      45.401  31.753  27.147  1.00  0.00     0.049 A 
ATOM     49  H   UNL A   1      47.204  30.807  26.710  1.00  0.00     0.167 HD
ATOM     50  C   UNL A   1      50.961  28.707  25.964  1.00  0.00     0.037 A 
ATOM     51  C   UNL A   1      45.668  33.064  27.306  1.00  0.00     0.037 A 
ATOM     52  C   UNL A   1      51.333  30.095  26.062  1.00  0.00     0.049 A 
ATOM     53  C   UNL A   1      47.093  33.552  27.196  1.00  0.00     0.074 A 
ATOM     54  C   UNL A   1      52.581  30.668  25.891  1.00  0.00     0.029 A 
ATOM     55  N   UNL A   1      50.456  31.128  26.359  1.00  0.00    -0.354 N 
ATOM     56  N   UNL A   1      48.183  32.879  26.913  1.00  0.00    -0.248 NA
ATOM     57  C   UNL A   1      47.325  34.985  27.434  1.00  0.00     0.031 C 
ATOM     58  C   UNL A   1      52.471  32.039  26.140  1.00  0.00     0.029 A 
ATOM     59  C   UNL A   1      51.142  32.331  26.405  1.00  0.00     0.049 A 
ATOM     60  H   UNL A   1      49.489  31.021  26.517  1.00  0.00     0.167 HD
ATOM     61  C   UNL A   1      49.217  33.807  26.910  1.00  0.00     0.074 A 
ATOM     62  C   UNL A   1      48.625  35.095  27.203  1.00  0.00     0.031 C 
ATOM     63  C   UNL A   1      50.541  33.610  26.685  1.00  0.00     0.037 A 
BRANCH  50  64
ATOM     64  C   UNL A   1      52.042  27.705  25.679  1.00  0.00     0.064 A 
ATOM     65  C   UNL A   1      52.437  27.390  24.370  1.00  0.00     0.173 A 
ATOM     66  C   UNL A   1      52.716  27.073  26.736  1.00  0.00     0.173 A 
ATOM     67  F   UNL A   1      51.815  27.954  23.324  1.00  0.00    -0.203 F 
ATOM     68  C   UNL A   1      53.447  26.462  24.130  1.00  0.00     0.198 A 
ATOM     69  C   UNL A   1      53.747  26.169  26.493  1.00  0.00     0.198 A 
ATOM     70  F   UNL A   1      52.382  27.342  28.007  1.00  0.00    -0.203 F 
ATOM     71  F   UNL A   1      53.773  26.140  22.871  1.00  0.00    -0.200 F 
ATOM     72  C   UNL A   1      54.106  25.859  25.191  1.00  0.00     0.200 A 
ATOM     73  F   UNL A   1      54.391  25.599  27.520  1.00  0.00    -0.200 F 
ATOM     74  F   UNL A   1      55.083  24.972  24.958  1.00  0.00    -0.200 F 
ENDBRANCH  50  64
BRANCH  51  75
ATOM     75  C   UNL A   1      44.573  34.020  27.630  1.00  0.00     0.064 A 
ATOM     76  C   UNL A   1      43.893  34.713  26.619  1.00  0.00     0.173 A 
ATOM     77  C   UNL A   1      44.215  34.293  28.959  1.00  0.00     0.173 A 
ATOM     78  F   UNL A   1      44.222  34.515  25.333  1.00  0.00    -0.203 F 
ATOM     79  C   UNL A   1      42.913  35.656  26.925  1.00  0.00     0.198 A 
ATOM     80  C   UNL A   1      43.213  35.212  29.263  1.00  0.00     0.198 A 
ATOM     81  F   UNL A   1      44.842  33.668  29.966  1.00  0.00    -0.203 F 
ATOM     82  F   UNL A   1      42.322  36.348  25.941  1.00  0.00    -0.200 F 
ATOM     83  C   UNL A   1      42.569  35.900  28.246  1.00  0.00     0.200 A 
ATOM     84  F   UNL A   1      42.879  35.440  30.540  1.00  0.00    -0.200 F 
ATOM     85  F   UNL A   1      41.629  36.809  28.538  1.00  0.00    -0.200 F 
ENDBRANCH  51  75
BRANCH  63  86
ATOM     86  C   UNL A   1      51.437  34.816  26.701  1.00  0.00     0.064 A 
ATOM     87  C   UNL A   1      52.152  35.192  27.848  1.00  0.00     0.173 A 
ATOM     88  C   UNL A   1      51.617  35.582  25.537  1.00  0.00     0.173 A 
ATOM     89  F   UNL A   1      52.008  34.502  28.989  1.00  0.00    -0.203 F 
ATOM     90  C   UNL A   1      52.992  36.303  27.837  1.00  0.00     0.198 A 
ATOM     91  C   UNL A   1      52.483  36.673  25.521  1.00  0.00     0.198 A 
ATOM     92  F   UNL A   1      50.964  35.262  24.410  1.00  0.00    -0.203 F 
ATOM     93  F   UNL A   1      53.628  36.672  28.957  1.00  0.00    -0.200 F 
ATOM     94  C   UNL A   1      53.163  37.037  26.672  1.00  0.00     0.200 A 
ATOM     95  F   UNL A   1      52.658  37.370  24.390  1.00  0.00    -0.200 F 
ATOM     96  F   UNL A   1      53.978  38.101  26.661  1.00  0.00    -0.200 F 
ENDBRANCH  63  86
ENDBRANCH  37  38
ENDBRANCH  30  32
ENDBRANCH  29  30
ENDBRANCH  28  29
ENDBRANCH  27  28
ENDBRANCH  26  27
ENDBRANCH  25  26
ENDBRANCH   1  25
TORSDOF 23
ENDMDL
