MODEL 1
REMARK VINA RESULT:     -11.1      0.000      0.000
REMARK SMILES Cc1cc(Br)cc2c1O[C@H](C(F)(F)F)C(C(=O)OCCOCCOCCOC(=O)c1ccc(-c3c4nc(c(-c5c(F)c(F)c(F)c(F)c5F)c5ccc([nH]5)c(-c5c(F)c(F)c(F)c(F)c5F)c5nc(c(-c6c(F)c(F)c(F)c(F)c6F)c6ccc3[nH]6)C=C5)C=C4)cc1)=C2
REMARK SMILES IDX 23 1 22 2 21 3 20 4 19 5 18 6 16 7 17 8 15 9 1 10 2 11 3 12
REMARK SMILES IDX 8 13 4 14 7 15 9 16 5 17 6 18 93 19 10 20 11 21 12 22 13 23
REMARK SMILES IDX 14 24 24 25 25 26 26 27 27 28 28 29 29 30 30 31 31 32 92 33
REMARK SMILES IDX 32 34 91 35 33 36 34 37 35 38 85 39 36 40 90 41 84 42 86 43
REMARK SMILES IDX 37 44 89 45 83 46 82 47 38 49 70 50 50 51 69 52 51 53 54 54
REMARK SMILES IDX 68 55 87 56 52 57 53 58 67 60 88 61 55 62 39 63 40 64 48 65
REMARK SMILES IDX 41 66 42 67 46 68 49 69 43 70 44 71 47 72 45 73 71 74 72 75
REMARK SMILES IDX 80 76 73 77 74 78 78 79 81 80 75 81 76 82 79 83 77 84 56 85
REMARK SMILES IDX 57 86 65 87 58 88 59 89 63 90 66 91 60 92 61 93 64 94 62 95
REMARK H PARENT 86 48 54 59
REMARK Flexibility Score: inf
ROOT
ATOM      1  C   UNL A   1      35.487  32.859  28.197  1.00  0.00     0.188 C 
ENDROOT
BRANCH   1   2
ATOM      2  C   UNL A   1      34.264  31.936  28.013  1.00  0.00     0.188 C 
BRANCH   2   3
ATOM      3  O   UNL A   1      34.215  31.005  26.945  1.00  0.00    -0.376 OA
BRANCH   3   4
ATOM      4  C   UNL A   1      33.820  29.660  27.178  1.00  0.00     0.202 C 
BRANCH   4   5
ATOM      5  C   UNL A   1      34.213  28.535  26.208  1.00  0.00     0.261 C 
BRANCH   5   6
ATOM      6  O   UNL A   1      33.775  28.715  24.853  1.00  0.00    -0.460 OA
BRANCH   6   7
ATOM      7  C   UNL A   1      33.336  27.596  24.230  1.00  0.00     0.338 C 
ATOM      8  O   UNL A   1      33.944  26.549  24.092  1.00  0.00    -0.246 OA
BRANCH   7   9
ATOM      9  C   UNL A   1      31.915  27.760  23.859  1.00  0.00     0.087 C 
ATOM     10  C   UNL A   1      26.791  27.733  23.705  1.00  0.00     0.048 C 
ATOM     11  C   UNL A   1      27.886  28.522  23.044  1.00  0.00    -0.007 A 
ATOM     12  C   UNL A   1      27.553  29.653  22.281  1.00  0.00     0.023 A 
ATOM     13  C   UNL A   1      29.242  28.215  23.257  1.00  0.00     0.130 A 
ATOM     14  C   UNL A   1      28.555  30.437  21.713  1.00  0.00     0.019 A 
ATOM     15  C   UNL A   1      30.241  29.033  22.718  1.00  0.00     0.019 A 
ATOM     16  O   UNL A   1      29.513  27.105  24.007  1.00  0.00    -0.475 OA
ATOM     17  Br  UNL A   1      28.091  31.955  20.686  1.00  0.00    -0.051 Br
ATOM     18  C   UNL A   1      29.896  30.132  21.924  1.00  0.00     0.027 A 
ATOM     19  C   UNL A   1      31.634  28.787  23.049  1.00  0.00     0.027 C 
ATOM     20  C   UNL A   1      30.884  26.801  24.385  1.00  0.00     0.316 C 
BRANCH  20  21
ATOM     21  C   UNL A   1      30.934  26.665  25.913  1.00  0.00     0.430 C 
ATOM     22  F   UNL A   1      29.812  26.074  26.390  1.00  0.00    -0.167 F 
ATOM     23  F   UNL A   1      31.975  25.901  26.317  1.00  0.00    -0.167 F 
ATOM     24  F   UNL A   1      31.051  27.867  26.523  1.00  0.00    -0.167 F 
ENDBRANCH  20  21
ENDBRANCH   7   9
ENDBRANCH   6   7
ENDBRANCH   5   6
ENDBRANCH   4   5
ENDBRANCH   3   4
ENDBRANCH   2   3
ENDBRANCH   1   2
BRANCH   1  25
ATOM     25  O   UNL A   1      35.205  34.173  28.605  1.00  0.00    -0.376 OA
BRANCH  25  26
ATOM     26  C   UNL A   1      33.921  34.731  28.377  1.00  0.00     0.202 C 
BRANCH  26  27
ATOM     27  C   UNL A   1      33.142  35.648  29.345  1.00  0.00     0.261 C 
BRANCH  27  28
ATOM     28  O   UNL A   1      32.502  35.064  30.481  1.00  0.00    -0.460 OA
BRANCH  28  29
ATOM     29  C   UNL A   1      32.751  35.652  31.677  1.00  0.00     0.338 C 
ATOM     30  O   UNL A   1      32.080  36.492  32.245  1.00  0.00    -0.246 OA
BRANCH  29  31
ATOM     31  C   UNL A   1      33.902  34.965  32.297  1.00  0.00     0.060 A 
ATOM     32  C   UNL A   1      35.161  35.582  32.252  1.00  0.00     0.016 A 
ATOM     33  C   UNL A   1      33.744  33.716  32.896  1.00  0.00     0.016 A 
ATOM     34  C   UNL A   1      36.274  34.937  32.791  1.00  0.00     0.010 A 
ATOM     35  C   UNL A   1      34.865  33.058  33.409  1.00  0.00     0.010 A 
ATOM     36  C   UNL A   1      36.137  33.653  33.333  1.00  0.00    -0.014 A 
BRANCH  36  37
ATOM     37  C   UNL A   1      37.340  32.847  33.650  1.00  0.00     0.031 A 
ATOM     38  C   UNL A   1      38.046  33.103  34.952  1.00  0.00     0.074 A 
ATOM     39  C   UNL A   1      37.797  31.908  32.805  1.00  0.00     0.049 A 
ATOM     40  N   UNL A   1      39.174  32.613  35.397  1.00  0.00    -0.248 NA
ATOM     41  C   UNL A   1      37.388  34.040  35.876  1.00  0.00     0.031 C 
ATOM     42  C   UNL A   1      37.163  31.521  31.547  1.00  0.00     0.029 A 
ATOM     43  N   UNL A   1      38.918  31.117  32.878  1.00  0.00    -0.354 N 
ATOM     44  C   UNL A   1      39.362  33.183  36.649  1.00  0.00     0.074 A 
ATOM     45  C   UNL A   1      38.247  34.076  36.883  1.00  0.00     0.031 C 
ATOM     46  C   UNL A   1      37.915  30.575  30.956  1.00  0.00     0.029 A 
ATOM     47  C   UNL A   1      39.101  30.323  31.773  1.00  0.00     0.049 A 
ATOM     48  H   UNL A   1      39.531  31.119  33.649  1.00  0.00     0.167 HD
ATOM     49  C   UNL A   1      40.372  32.976  37.526  1.00  0.00     0.037 A 
ATOM     50  C   UNL A   1      40.128  29.511  31.449  1.00  0.00     0.037 A 
ATOM     51  C   UNL A   1      41.486  32.096  37.284  1.00  0.00     0.049 A 
ATOM     52  C   UNL A   1      41.293  29.374  32.397  1.00  0.00     0.074 A 
ATOM     53  C   UNL A   1      42.569  31.833  38.103  1.00  0.00     0.029 A 
ATOM     54  N   UNL A   1      41.659  31.340  36.134  1.00  0.00    -0.354 N 
ATOM     55  N   UNL A   1      41.477  29.929  33.572  1.00  0.00    -0.248 NA
ATOM     56  C   UNL A   1      42.394  28.496  31.974  1.00  0.00     0.031 C 
ATOM     57  C   UNL A   1      43.424  30.959  37.428  1.00  0.00     0.029 A 
ATOM     58  C   UNL A   1      42.842  30.623  36.216  1.00  0.00     0.049 A 
ATOM     59  H   UNL A   1      41.034  31.316  35.374  1.00  0.00     0.167 HD
ATOM     60  C   UNL A   1      42.691  29.442  34.041  1.00  0.00     0.074 A 
ATOM     61  C   UNL A   1      43.196  28.538  33.028  1.00  0.00     0.031 C 
ATOM     62  C   UNL A   1      43.328  29.717  35.205  1.00  0.00     0.037 A 
BRANCH  49  63
ATOM     63  C   UNL A   1      40.336  33.728  38.824  1.00  0.00     0.064 A 
ATOM     64  C   UNL A   1      39.594  33.265  39.921  1.00  0.00     0.173 A 
ATOM     65  C   UNL A   1      41.103  34.890  38.994  1.00  0.00     0.173 A 
ATOM     66  F   UNL A   1      38.829  32.169  39.805  1.00  0.00    -0.203 F 
ATOM     67  C   UNL A   1      39.614  33.943  41.137  1.00  0.00     0.198 A 
ATOM     68  C   UNL A   1      41.145  35.549  40.219  1.00  0.00     0.198 A 
ATOM     69  F   UNL A   1      41.830  35.375  37.976  1.00  0.00    -0.203 F 
ATOM     70  F   UNL A   1      38.871  33.502  42.161  1.00  0.00    -0.200 F 
ATOM     71  C   UNL A   1      40.398  35.077  41.289  1.00  0.00     0.200 A 
ATOM     72  F   UNL A   1      41.913  36.636  40.368  1.00  0.00    -0.200 F 
ATOM     73  F   UNL A   1      40.433  35.717  42.466  1.00  0.00    -0.200 F 
ENDBRANCH  49  63
BRANCH  50  74
ATOM     74  C   UNL A   1      40.103  28.763  30.164  1.00  0.00     0.064 A 
ATOM     75  C   UNL A   1      39.484  27.509  30.071  1.00  0.00     0.173 A 
ATOM     76  C   UNL A   1      40.701  29.281  29.005  1.00  0.00     0.173 A 
ATOM     77  F   UNL A   1      38.926  26.957  31.159  1.00  0.00    -0.203 F 
ATOM     78  C   UNL A   1      39.471  26.798  28.873  1.00  0.00     0.198 A 
ATOM     79  C   UNL A   1      40.661  28.583  27.799  1.00  0.00     0.198 A 
ATOM     80  F   UNL A   1      41.314  30.474  29.041  1.00  0.00    -0.203 F 
ATOM     81  F   UNL A   1      38.910  25.583  28.824  1.00  0.00    -0.200 F 
ATOM     82  C   UNL A   1      40.052  27.340  27.735  1.00  0.00     0.200 A 
ATOM     83  F   UNL A   1      41.214  29.116  26.701  1.00  0.00    -0.200 F 
ATOM     84  F   UNL A   1      40.029  26.660  26.581  1.00  0.00    -0.200 F 
ENDBRANCH  50  74
BRANCH  62  85
ATOM     85  C   UNL A   1      44.620  29.000  35.482  1.00  0.00     0.064 A 
ATOM     86  C   UNL A   1      45.854  29.497  35.035  1.00  0.00     0.173 A 
ATOM     87  C   UNL A   1      44.628  27.825  36.253  1.00  0.00     0.173 A 
ATOM     88  F   UNL A   1      45.903  30.610  34.289  1.00  0.00    -0.203 F 
ATOM     89  C   UNL A   1      47.043  28.830  35.325  1.00  0.00     0.198 A 
ATOM     90  C   UNL A   1      45.821  27.182  36.570  1.00  0.00     0.198 A 
ATOM     91  F   UNL A   1      43.478  27.312  36.716  1.00  0.00    -0.203 F 
ATOM     92  F   UNL A   1      48.204  29.297  34.846  1.00  0.00    -0.200 F 
ATOM     93  C   UNL A   1      47.026  27.678  36.099  1.00  0.00     0.200 A 
ATOM     94  F   UNL A   1      45.804  26.080  37.334  1.00  0.00    -0.200 F 
ATOM     95  F   UNL A   1      48.172  27.045  36.385  1.00  0.00    -0.200 F 
ENDBRANCH  62  85
ENDBRANCH  36  37
ENDBRANCH  29  31
ENDBRANCH  28  29
ENDBRANCH  27  28
ENDBRANCH  26  27
ENDBRANCH  25  26
ENDBRANCH   1  25
TORSDOF 18
ENDMDL
MODEL 2
REMARK VINA RESULT:     -11.0      4.925      8.886
REMARK SMILES Cc1cc(Br)cc2c1O[C@H](C(F)(F)F)C(C(=O)OCCOCCOCCOC(=O)c1ccc(-c3c4nc(c(-c5c(F)c(F)c(F)c(F)c5F)c5ccc([nH]5)c(-c5c(F)c(F)c(F)c(F)c5F)c5nc(c(-c6c(F)c(F)c(F)c(F)c6F)c6ccc3[nH]6)C=C5)C=C4)cc1)=C2
REMARK SMILES IDX 23 1 22 2 21 3 20 4 19 5 18 6 16 7 17 8 15 9 1 10 2 11 3 12
REMARK SMILES IDX 8 13 4 14 7 15 9 16 5 17 6 18 93 19 10 20 11 21 12 22 13 23
REMARK SMILES IDX 14 24 24 25 25 26 26 27 27 28 28 29 29 30 30 31 31 32 92 33
REMARK SMILES IDX 32 34 91 35 33 36 34 37 35 38 85 39 36 40 90 41 84 42 86 43
REMARK SMILES IDX 37 44 89 45 83 46 82 47 38 49 70 50 50 51 69 52 51 53 54 54
REMARK SMILES IDX 68 55 87 56 52 57 53 58 67 60 88 61 55 62 39 63 40 64 48 65
REMARK SMILES IDX 41 66 42 67 46 68 49 69 43 70 44 71 47 72 45 73 71 74 72 75
REMARK SMILES IDX 80 76 73 77 74 78 78 79 81 80 75 81 76 82 79 83 77 84 56 85
REMARK SMILES IDX 57 86 65 87 58 88 59 89 63 90 66 91 60 92 61 93 64 94 62 95
REMARK H PARENT 86 48 54 59
REMARK Flexibility Score: inf
ROOT
ATOM      1  C   UNL A   1      33.019  35.681  29.660  1.00  0.00     0.188 C 
ENDROOT
BRANCH   1   2
ATOM      2  C   UNL A   1      33.186  37.186  29.957  1.00  0.00     0.188 C 
BRANCH   2   3
ATOM      3  O   UNL A   1      32.929  37.700  31.253  1.00  0.00    -0.376 OA
BRANCH   3   4
ATOM      4  C   UNL A   1      33.116  36.884  32.402  1.00  0.00     0.202 C 
BRANCH   4   5
ATOM      5  C   UNL A   1      34.512  36.379  32.801  1.00  0.00     0.261 C 
BRANCH   5   6
ATOM      6  O   UNL A   1      34.546  35.527  33.956  1.00  0.00    -0.460 OA
BRANCH   6   7
ATOM      7  C   UNL A   1      34.348  34.210  33.713  1.00  0.00     0.338 C 
ATOM      8  O   UNL A   1      33.409  33.708  33.120  1.00  0.00    -0.246 OA
BRANCH   7   9
ATOM      9  C   UNL A   1      35.537  33.443  34.138  1.00  0.00     0.087 C 
ATOM     10  C   UNL A   1      39.739  30.515  34.352  1.00  0.00     0.048 C 
ATOM     11  C   UNL A   1      39.111  31.566  35.224  1.00  0.00    -0.007 A 
ATOM     12  C   UNL A   1      39.825  32.057  36.329  1.00  0.00     0.023 A 
ATOM     13  C   UNL A   1      37.870  32.141  34.900  1.00  0.00     0.130 A 
ATOM     14  C   UNL A   1      39.290  33.077  37.113  1.00  0.00     0.019 A 
ATOM     15  C   UNL A   1      37.361  33.194  35.668  1.00  0.00     0.019 A 
ATOM     16  O   UNL A   1      37.216  31.628  33.814  1.00  0.00    -0.475 OA
ATOM     17  Br  UNL A   1      40.261  33.728  38.599  1.00  0.00    -0.051 Br
ATOM     18  C   UNL A   1      38.061  33.646  36.791  1.00  0.00     0.027 A 
ATOM     19  C   UNL A   1      36.144  33.870  35.252  1.00  0.00     0.027 C 
ATOM     20  C   UNL A   1      35.997  32.259  33.335  1.00  0.00     0.316 C 
BRANCH  20  21
ATOM     21  C   UNL A   1      36.191  32.595  31.850  1.00  0.00     0.430 C 
ATOM     22  F   UNL A   1      35.085  32.292  31.130  1.00  0.00    -0.167 F 
ATOM     23  F   UNL A   1      36.428  33.914  31.660  1.00  0.00    -0.167 F 
ATOM     24  F   UNL A   1      37.227  31.915  31.310  1.00  0.00    -0.167 F 
ENDBRANCH  20  21
ENDBRANCH   7   9
ENDBRANCH   6   7
ENDBRANCH   5   6
ENDBRANCH   4   5
ENDBRANCH   3   4
ENDBRANCH   2   3
ENDBRANCH   1   2
BRANCH   1  25
ATOM     25  O   UNL A   1      34.207  34.933  29.606  1.00  0.00    -0.376 OA
BRANCH  25  26
ATOM     26  C   UNL A   1      34.748  34.541  28.355  1.00  0.00     0.202 C 
BRANCH  26  27
ATOM     27  C   UNL A   1      35.260  33.132  27.984  1.00  0.00     0.261 C 
BRANCH  27  28
ATOM     28  O   UNL A   1      34.675  31.997  28.625  1.00  0.00    -0.460 OA
BRANCH  28  29
ATOM     29  C   UNL A   1      34.694  30.837  27.924  1.00  0.00     0.338 C 
ATOM     30  O   UNL A   1      33.879  30.449  27.109  1.00  0.00    -0.246 OA
BRANCH  29  31
ATOM     31  C   UNL A   1      35.990  30.173  28.167  1.00  0.00     0.060 A 
ATOM     32  C   UNL A   1      36.222  29.582  29.418  1.00  0.00     0.016 A 
ATOM     33  C   UNL A   1      36.975  30.154  27.179  1.00  0.00     0.016 A 
ATOM     34  C   UNL A   1      37.453  28.985  29.691  1.00  0.00     0.010 A 
ATOM     35  C   UNL A   1      38.217  29.582  27.464  1.00  0.00     0.010 A 
ATOM     36  C   UNL A   1      38.470  29.021  28.729  1.00  0.00    -0.014 A 
BRANCH  36  37
ATOM     37  C   UNL A   1      39.857  28.648  29.098  1.00  0.00     0.031 A 
ATOM     38  C   UNL A   1      40.658  29.614  29.925  1.00  0.00     0.074 A 
ATOM     39  C   UNL A   1      40.395  27.480  28.710  1.00  0.00     0.049 A 
ATOM     40  N   UNL A   1      41.918  29.566  30.273  1.00  0.00    -0.248 NA
ATOM     41  C   UNL A   1      39.938  30.795  30.428  1.00  0.00     0.031 C 
ATOM     42  C   UNL A   1      39.699  26.434  27.965  1.00  0.00     0.029 A 
ATOM     43  N   UNL A   1      41.665  26.986  28.883  1.00  0.00    -0.354 N 
ATOM     44  C   UNL A   1      42.142  30.707  31.031  1.00  0.00     0.074 A 
ATOM     45  C   UNL A   1      40.896  31.443  31.071  1.00  0.00     0.031 C 
ATOM     46  C   UNL A   1      40.557  25.426  27.729  1.00  0.00     0.029 A 
ATOM     47  C   UNL A   1      41.871  25.775  28.269  1.00  0.00     0.049 A 
ATOM     48  H   UNL A   1      42.361  27.455  29.397  1.00  0.00     0.167 HD
ATOM     49  C   UNL A   1      43.282  31.103  31.642  1.00  0.00     0.037 A 
ATOM     50  C   UNL A   1      43.000  25.051  28.134  1.00  0.00     0.037 A 
ATOM     51  C   UNL A   1      44.523  30.373  31.589  1.00  0.00     0.049 A 
ATOM     52  C   UNL A   1      44.284  25.562  28.738  1.00  0.00     0.074 A 
ATOM     53  C   UNL A   1      45.740  30.702  32.159  1.00  0.00     0.029 A 
ATOM     54  N   UNL A   1      44.704  29.171  30.922  1.00  0.00    -0.354 N 
ATOM     55  N   UNL A   1      44.497  26.652  29.437  1.00  0.00    -0.248 NA
ATOM     56  C   UNL A   1      45.487  24.742  28.532  1.00  0.00     0.031 C 
ATOM     57  C   UNL A   1      46.670  29.725  31.794  1.00  0.00     0.029 A 
ATOM     58  C   UNL A   1      46.019  28.753  31.052  1.00  0.00     0.049 A 
ATOM     59  H   UNL A   1      44.003  28.687  30.428  1.00  0.00     0.167 HD
ATOM     60  C   UNL A   1      45.843  26.630  29.785  1.00  0.00     0.074 A 
ATOM     61  C   UNL A   1      46.396  25.413  29.226  1.00  0.00     0.031 C 
ATOM     62  C   UNL A   1      46.555  27.533  30.501  1.00  0.00     0.037 A 
BRANCH  49  63
ATOM     63  C   UNL A   1      43.255  32.394  32.406  1.00  0.00     0.064 A 
ATOM     64  C   UNL A   1      43.404  33.631  31.762  1.00  0.00     0.173 A 
ATOM     65  C   UNL A   1      43.013  32.398  33.788  1.00  0.00     0.173 A 
ATOM     66  F   UNL A   1      43.656  33.681  30.445  1.00  0.00    -0.203 F 
ATOM     67  C   UNL A   1      43.321  34.824  32.476  1.00  0.00     0.198 A 
ATOM     68  C   UNL A   1      42.900  33.592  34.492  1.00  0.00     0.198 A 
ATOM     69  F   UNL A   1      42.864  31.241  34.451  1.00  0.00    -0.203 F 
ATOM     70  F   UNL A   1      43.499  35.993  31.846  1.00  0.00    -0.200 F 
ATOM     71  C   UNL A   1      43.058  34.805  33.837  1.00  0.00     0.200 A 
ATOM     72  F   UNL A   1      42.632  33.571  35.805  1.00  0.00    -0.200 F 
ATOM     73  F   UNL A   1      42.957  35.954  34.518  1.00  0.00    -0.200 F 
ENDBRANCH  49  63
BRANCH  50  74
ATOM     74  C   UNL A   1      42.970  23.762  27.393  1.00  0.00     0.064 A 
ATOM     75  C   UNL A   1      42.492  22.593  28.000  1.00  0.00     0.173 A 
ATOM     76  C   UNL A   1      43.421  23.670  26.068  1.00  0.00     0.173 A 
ATOM     77  F   UNL A   1      42.079  22.623  29.276  1.00  0.00    -0.203 F 
ATOM     78  C   UNL A   1      42.475  21.379  27.315  1.00  0.00     0.198 A 
ATOM     79  C   UNL A   1      43.376  22.463  25.373  1.00  0.00     0.198 A 
ATOM     80  F   UNL A   1      43.896  24.758  25.443  1.00  0.00    -0.203 F 
ATOM     81  F   UNL A   1      42.053  20.269  27.934  1.00  0.00    -0.200 F 
ATOM     82  C   UNL A   1      42.909  21.318  25.999  1.00  0.00     0.200 A 
ATOM     83  F   UNL A   1      43.786  22.410  24.099  1.00  0.00    -0.200 F 
ATOM     84  F   UNL A   1      42.882  20.153  25.338  1.00  0.00    -0.200 F 
ENDBRANCH  50  74
BRANCH  62  85
ATOM     85  C   UNL A   1      48.001  27.227  30.773  1.00  0.00     0.064 A 
ATOM     86  C   UNL A   1      49.023  27.658  29.915  1.00  0.00     0.173 A 
ATOM     87  C   UNL A   1      48.373  26.539  31.940  1.00  0.00     0.173 A 
ATOM     88  F   UNL A   1      48.725  28.312  28.782  1.00  0.00    -0.203 F 
ATOM     89  C   UNL A   1      50.361  27.386  30.199  1.00  0.00     0.198 A 
ATOM     90  C   UNL A   1      49.711  26.300  32.239  1.00  0.00     0.198 A 
ATOM     91  F   UNL A   1      47.437  26.115  32.803  1.00  0.00    -0.203 F 
ATOM     92  F   UNL A   1      51.316  27.764  29.340  1.00  0.00    -0.200 F 
ATOM     93  C   UNL A   1      50.703  26.715  31.364  1.00  0.00     0.200 A 
ATOM     94  F   UNL A   1      50.041  25.670  33.375  1.00  0.00    -0.200 F 
ATOM     95  F   UNL A   1      51.990  26.465  31.641  1.00  0.00    -0.200 F 
ENDBRANCH  62  85
ENDBRANCH  36  37
ENDBRANCH  29  31
ENDBRANCH  28  29
ENDBRANCH  27  28
ENDBRANCH  26  27
ENDBRANCH  25  26
ENDBRANCH   1  25
TORSDOF 18
ENDMDL
MODEL 3
REMARK VINA RESULT:     -11.0      7.001     12.389
REMARK SMILES Cc1cc(Br)cc2c1O[C@H](C(F)(F)F)C(C(=O)OCCOCCOCCOC(=O)c1ccc(-c3c4nc(c(-c5c(F)c(F)c(F)c(F)c5F)c5ccc([nH]5)c(-c5c(F)c(F)c(F)c(F)c5F)c5nc(c(-c6c(F)c(F)c(F)c(F)c6F)c6ccc3[nH]6)C=C5)C=C4)cc1)=C2
REMARK SMILES IDX 23 1 22 2 21 3 20 4 19 5 18 6 16 7 17 8 15 9 1 10 2 11 3 12
REMARK SMILES IDX 8 13 4 14 7 15 9 16 5 17 6 18 93 19 10 20 11 21 12 22 13 23
REMARK SMILES IDX 14 24 24 25 25 26 26 27 27 28 28 29 29 30 30 31 31 32 92 33
REMARK SMILES IDX 32 34 91 35 33 36 34 37 35 38 85 39 36 40 90 41 84 42 86 43
REMARK SMILES IDX 37 44 89 45 83 46 82 47 38 49 70 50 50 51 69 52 51 53 54 54
REMARK SMILES IDX 68 55 87 56 52 57 53 58 67 60 88 61 55 62 39 63 40 64 48 65
REMARK SMILES IDX 41 66 42 67 46 68 49 69 43 70 44 71 47 72 45 73 71 74 72 75
REMARK SMILES IDX 80 76 73 77 74 78 78 79 81 80 75 81 76 82 79 83 77 84 56 85
REMARK SMILES IDX 57 86 65 87 58 88 59 89 63 90 66 91 60 92 61 93 64 94 62 95
REMARK H PARENT 86 48 54 59
REMARK Flexibility Score: inf
ROOT
ATOM      1  C   UNL A   1      42.043  21.008  27.481  1.00  0.00     0.188 C 
ENDROOT
BRANCH   1   2
ATOM      2  C   UNL A   1      41.453  21.645  26.205  1.00  0.00     0.188 C 
BRANCH   2   3
ATOM      3  O   UNL A   1      40.055  21.844  26.077  1.00  0.00    -0.376 OA
BRANCH   3   4
ATOM      4  C   UNL A   1      39.388  22.809  26.880  1.00  0.00     0.202 C 
BRANCH   4   5
ATOM      5  C   UNL A   1      38.572  23.946  26.245  1.00  0.00     0.261 C 
BRANCH   5   6
ATOM      6  O   UNL A   1      37.150  23.845  26.412  1.00  0.00    -0.460 OA
BRANCH   6   7
ATOM      7  C   UNL A   1      36.460  23.476  25.307  1.00  0.00     0.338 C 
ATOM      8  O   UNL A   1      36.851  22.753  24.408  1.00  0.00    -0.246 OA
BRANCH   7   9
ATOM      9  C   UNL A   1      35.066  23.953  25.411  1.00  0.00     0.087 C 
ATOM     10  C   UNL A   1      30.070  24.504  26.422  1.00  0.00     0.048 C 
ATOM     11  C   UNL A   1      31.204  25.420  26.056  1.00  0.00    -0.007 A 
ATOM     12  C   UNL A   1      31.009  26.810  26.109  1.00  0.00     0.023 A 
ATOM     13  C   UNL A   1      32.485  24.920  25.762  1.00  0.00     0.130 A 
ATOM     14  C   UNL A   1      32.064  27.678  25.837  1.00  0.00     0.019 A 
ATOM     15  C   UNL A   1      33.548  25.800  25.533  1.00  0.00     0.019 A 
ATOM     16  O   UNL A   1      32.623  23.560  25.724  1.00  0.00    -0.475 OA
ATOM     17  Br  UNL A   1      31.786  29.547  25.910  1.00  0.00    -0.051 Br
ATOM     18  C   UNL A   1      33.331  27.181  25.546  1.00  0.00     0.027 A 
ATOM     19  C   UNL A   1      34.893  25.279  25.359  1.00  0.00     0.027 C 
ATOM     20  C   UNL A   1      33.941  22.967  25.563  1.00  0.00     0.316 C 
BRANCH  20  21
ATOM     21  C   UNL A   1      34.166  21.993  26.726  1.00  0.00     0.430 C 
ATOM     22  F   UNL A   1      33.068  21.232  26.949  1.00  0.00    -0.167 F 
ATOM     23  F   UNL A   1      35.185  21.139  26.477  1.00  0.00    -0.167 F 
ATOM     24  F   UNL A   1      34.452  22.641  27.878  1.00  0.00    -0.167 F 
ENDBRANCH  20  21
ENDBRANCH   7   9
ENDBRANCH   6   7
ENDBRANCH   5   6
ENDBRANCH   4   5
ENDBRANCH   3   4
ENDBRANCH   2   3
ENDBRANCH   1   2
BRANCH   1  25
ATOM     25  O   UNL A   1      42.236  19.617  27.437  1.00  0.00    -0.376 OA
BRANCH  25  26
ATOM     26  C   UNL A   1      42.204  18.930  26.197  1.00  0.00     0.202 C 
BRANCH  26  27
ATOM     27  C   UNL A   1      43.414  18.305  25.470  1.00  0.00     0.261 C 
BRANCH  27  28
ATOM     28  O   UNL A   1      43.854  18.884  24.240  1.00  0.00    -0.460 OA
BRANCH  28  29
ATOM     29  C   UNL A   1      45.076  19.468  24.256  1.00  0.00     0.338 C 
ATOM     30  O   UNL A   1      46.116  19.025  23.808  1.00  0.00    -0.246 OA
BRANCH  29  31
ATOM     31  C   UNL A   1      44.920  20.850  24.752  1.00  0.00     0.060 A 
ATOM     32  C   UNL A   1      44.410  21.826  23.883  1.00  0.00     0.016 A 
ATOM     33  C   UNL A   1      45.294  21.184  26.054  1.00  0.00     0.016 A 
ATOM     34  C   UNL A   1      44.292  23.149  24.310  1.00  0.00     0.010 A 
ATOM     35  C   UNL A   1      45.203  22.514  26.471  1.00  0.00     0.010 A 
ATOM     36  C   UNL A   1      44.729  23.506  25.592  1.00  0.00    -0.014 A 
BRANCH  36  37
ATOM     37  C   UNL A   1      44.872  24.934  25.959  1.00  0.00     0.031 A 
ATOM     38  C   UNL A   1      46.220  25.580  25.798  1.00  0.00     0.074 A 
ATOM     39  C   UNL A   1      43.831  25.647  26.423  1.00  0.00     0.049 A 
ATOM     40  N   UNL A   1      46.620  26.772  26.157  1.00  0.00    -0.248 NA
ATOM     41  C   UNL A   1      47.257  24.766  25.143  1.00  0.00     0.031 C 
ATOM     42  C   UNL A   1      42.463  25.154  26.560  1.00  0.00     0.029 A 
ATOM     43  N   UNL A   1      43.774  26.941  26.880  1.00  0.00    -0.354 N 
ATOM     44  C   UNL A   1      47.952  26.851  25.774  1.00  0.00     0.074 A 
ATOM     45  C   UNL A   1      48.302  25.579  25.181  1.00  0.00     0.031 C 
ATOM     46  C   UNL A   1      41.701  26.131  27.083  1.00  0.00     0.029 A 
ATOM     47  C   UNL A   1      42.537  27.299  27.357  1.00  0.00     0.049 A 
ATOM     48  H   UNL A   1      44.545  27.552  26.867  1.00  0.00     0.167 HD
ATOM     49  C   UNL A   1      48.805  27.894  25.903  1.00  0.00     0.037 A 
ATOM     50  C   UNL A   1      42.139  28.432  27.971  1.00  0.00     0.037 A 
ATOM     51  C   UNL A   1      48.456  29.154  26.506  1.00  0.00     0.049 A 
ATOM     52  C   UNL A   1      43.134  29.543  28.195  1.00  0.00     0.074 A 
ATOM     53  C   UNL A   1      49.256  30.267  26.700  1.00  0.00     0.029 A 
ATOM     54  N   UNL A   1      47.204  29.466  27.015  1.00  0.00    -0.354 N 
ATOM     55  N   UNL A   1      44.398  29.607  27.850  1.00  0.00    -0.248 NA
ATOM     56  C   UNL A   1      42.646  30.740  28.896  1.00  0.00     0.031 C 
ATOM     57  C   UNL A   1      48.503  31.232  27.373  1.00  0.00     0.029 A 
ATOM     58  C   UNL A   1      47.216  30.749  27.540  1.00  0.00     0.049 A 
ATOM     59  H   UNL A   1      46.425  28.866  27.006  1.00  0.00     0.167 HD
ATOM     60  C   UNL A   1      44.845  30.859  28.257  1.00  0.00     0.074 A 
ATOM     61  C   UNL A   1      43.713  31.526  28.867  1.00  0.00     0.031 C 
ATOM     62  C   UNL A   1      46.079  31.407  28.134  1.00  0.00     0.037 A 
BRANCH  49  63
ATOM     63  C   UNL A   1      50.208  27.715  25.403  1.00  0.00     0.064 A 
ATOM     64  C   UNL A   1      50.522  27.825  24.040  1.00  0.00     0.173 A 
ATOM     65  C   UNL A   1      51.261  27.495  26.303  1.00  0.00     0.173 A 
ATOM     66  F   UNL A   1      49.549  28.017  23.136  1.00  0.00    -0.203 F 
ATOM     67  C   UNL A   1      51.837  27.712  23.596  1.00  0.00     0.198 A 
ATOM     68  C   UNL A   1      52.578  27.413  25.860  1.00  0.00     0.198 A 
ATOM     69  F   UNL A   1      51.015  27.382  27.617  1.00  0.00    -0.203 F 
ATOM     70  F   UNL A   1      52.109  27.787  22.287  1.00  0.00    -0.200 F 
ATOM     71  C   UNL A   1      52.865  27.518  24.507  1.00  0.00     0.200 A 
ATOM     72  F   UNL A   1      53.571  27.240  26.743  1.00  0.00    -0.200 F 
ATOM     73  F   UNL A   1      54.132  27.431  24.081  1.00  0.00    -0.200 F 
ENDBRANCH  49  63
BRANCH  50  74
ATOM     74  C   UNL A   1      40.729  28.573  28.422  1.00  0.00     0.064 A 
ATOM     75  C   UNL A   1      40.352  28.233  29.728  1.00  0.00     0.173 A 
ATOM     76  C   UNL A   1      39.728  29.043  27.558  1.00  0.00     0.173 A 
ATOM     77  F   UNL A   1      41.266  27.749  30.583  1.00  0.00    -0.203 F 
ATOM     78  C   UNL A   1      39.030  28.350  30.152  1.00  0.00     0.198 A 
ATOM     79  C   UNL A   1      38.411  29.188  27.990  1.00  0.00     0.198 A 
ATOM     80  F   UNL A   1      40.033  29.375  26.294  1.00  0.00    -0.203 F 
ATOM     81  F   UNL A   1      38.691  27.978  31.393  1.00  0.00    -0.200 F 
ATOM     82  C   UNL A   1      38.062  28.836  29.285  1.00  0.00     0.200 A 
ATOM     83  F   UNL A   1      37.483  29.668  27.152  1.00  0.00    -0.200 F 
ATOM     84  F   UNL A   1      36.793  28.958  29.696  1.00  0.00    -0.200 F 
ENDBRANCH  50  74
BRANCH  62  85
ATOM     85  C   UNL A   1      46.270  32.815  28.623  1.00  0.00     0.064 A 
ATOM     86  C   UNL A   1      46.699  33.095  29.929  1.00  0.00     0.173 A 
ATOM     87  C   UNL A   1      46.074  33.900  27.752  1.00  0.00     0.173 A 
ATOM     88  F   UNL A   1      46.893  32.098  30.805  1.00  0.00    -0.203 F 
ATOM     89  C   UNL A   1      46.895  34.408  30.353  1.00  0.00     0.198 A 
ATOM     90  C   UNL A   1      46.306  35.207  28.168  1.00  0.00     0.198 A 
ATOM     91  F   UNL A   1      45.677  33.689  26.487  1.00  0.00    -0.203 F 
ATOM     92  F   UNL A   1      47.257  34.653  31.620  1.00  0.00    -0.200 F 
ATOM     93  C   UNL A   1      46.707  35.462  29.470  1.00  0.00     0.200 A 
ATOM     94  F   UNL A   1      46.143  36.223  27.308  1.00  0.00    -0.200 F 
ATOM     95  F   UNL A   1      46.908  36.723  29.878  1.00  0.00    -0.200 F 
ENDBRANCH  62  85
ENDBRANCH  36  37
ENDBRANCH  29  31
ENDBRANCH  28  29
ENDBRANCH  27  28
ENDBRANCH  26  27
ENDBRANCH  25  26
ENDBRANCH   1  25
TORSDOF 18
ENDMDL
