MODEL 1
REMARK VINA RESULT:      -9.2      0.000      0.000
REMARK SMILES CC[C@@H](C)C[C@@H](C)NC(=O)NC1(CC(=O)OCCOCCOCCOC(=O)c2ccc(-c3c4nc(c(-c5c(F)c(F)c(F)c(F)c5F)c5ccc([nH]5)c(-c5c(F)c(F)c(F)c(F)c5F)c5nc(c(-c6c(F)c(F)c(F)c(F)c6F)c6ccc3[nH]6)C=C5)C=C4)cc2)CCC1
REMARK SMILES IDX 18 1 17 2 16 3 14 4 15 5 13 6 12 7 91 8 93 9 92 10 11 11
REMARK SMILES IDX 8 12 9 13 10 15 6 17 7 18 5 19 3 20 4 21 2 22 1 23 19 24
REMARK SMILES IDX 20 25 21 26 22 27 23 28 24 29 25 30 26 31 27 32 28 33 29 34
REMARK SMILES IDX 90 35 30 36 89 37 31 38 32 39 33 40 83 41 34 42 88 43 82 44
REMARK SMILES IDX 84 45 35 46 87 47 81 48 80 49 36 51 68 52 48 53 67 54 49 55
REMARK SMILES IDX 52 56 66 57 85 58 50 59 51 60 65 62 86 63 53 64 37 65 38 66
REMARK SMILES IDX 46 67 39 68 40 69 44 70 47 71 41 72 42 73 45 74 43 75 69 76
REMARK SMILES IDX 70 77 78 78 71 79 72 80 76 81 79 82 73 83 74 84 77 85 75 86
REMARK SMILES IDX 54 87 55 88 63 89 56 90 57 91 61 92 64 93 58 94 59 95 62 96
REMARK SMILES IDX 60 97
REMARK H PARENT 8 14 11 16 84 50 52 61
REMARK Flexibility Score: inf
ROOT
ATOM      1  C   UNL A   1      33.935  28.517  26.465  1.00  0.00     0.202 C 
ENDROOT
BRANCH   1   2
ATOM      2  C   UNL A   1      33.519  28.513  24.997  1.00  0.00     0.261 C 
BRANCH   2   3
ATOM      3  O   UNL A   1      34.056  27.422  24.230  1.00  0.00    -0.463 OA
BRANCH   3   4
ATOM      4  C   UNL A   1      33.295  27.004  23.192  1.00  0.00     0.308 C 
ATOM      5  O   UNL A   1      33.497  27.278  22.014  1.00  0.00    -0.252 OA
BRANCH   4   6
ATOM      6  C   UNL A   1      32.067  26.253  23.625  1.00  0.00     0.151 C 
BRANCH   6   7
ATOM      7  C   UNL A   1      32.192  25.101  24.637  1.00  0.00     0.052 C 
ATOM      8  C   UNL A   1      30.937  24.135  24.641  1.00  0.00     0.029 C 
ATOM      9  C   UNL A   1      31.792  25.364  26.126  1.00  0.00     0.029 C 
ATOM     10  C   UNL A   1      30.339  25.016  25.737  1.00  0.00     0.005 C 
BRANCH   7  11
ATOM     11  N   UNL A   1      33.455  24.362  24.324  1.00  0.00    -0.332 N 
ATOM     12  N   UNL A   1      34.646  22.686  25.326  1.00  0.00    -0.336 N 
ATOM     13  C   UNL A   1      34.463  24.048  25.197  1.00  0.00     0.315 C 
ATOM     14  H   UNL A   1      35.522  22.282  25.130  1.00  0.00     0.165 HD
ATOM     15  O   UNL A   1      35.153  24.861  25.794  1.00  0.00    -0.249 OA
ATOM     16  H   UNL A   1      33.574  24.069  23.393  1.00  0.00     0.165 HD
BRANCH  12  17
ATOM     17  C   UNL A   1      33.522  21.847  25.757  1.00  0.00     0.081 C 
ATOM     18  C   UNL A   1      33.158  22.179  27.205  1.00  0.00     0.031 C 
BRANCH  17  19
ATOM     19  C   UNL A   1      33.706  20.338  25.505  1.00  0.00     0.028 C 
BRANCH  19  20
ATOM     20  C   UNL A   1      33.247  19.921  24.073  1.00  0.00    -0.013 C 
ATOM     21  C   UNL A   1      32.194  20.889  23.535  1.00  0.00     0.008 C 
BRANCH  20  22
ATOM     22  C   UNL A   1      32.684  18.486  24.062  1.00  0.00    -0.000 C 
ATOM     23  C   UNL A   1      32.538  17.861  22.683  1.00  0.00     0.004 C 
ENDBRANCH  20  22
ENDBRANCH  19  20
ENDBRANCH  17  19
ENDBRANCH  12  17
ENDBRANCH   7  11
ENDBRANCH   6   7
ENDBRANCH   4   6
ENDBRANCH   3   4
ENDBRANCH   2   3
ENDBRANCH   1   2
BRANCH   1  24
ATOM     24  O   UNL A   1      33.265  29.444  27.304  1.00  0.00    -0.376 OA
BRANCH  24  25
ATOM     25  C   UNL A   1      33.419  30.841  27.066  1.00  0.00     0.188 C 
BRANCH  25  26
ATOM     26  C   UNL A   1      34.471  31.638  27.843  1.00  0.00     0.188 C 
BRANCH  26  27
ATOM     27  O   UNL A   1      33.920  32.757  28.527  1.00  0.00    -0.376 OA
BRANCH  27  28
ATOM     28  C   UNL A   1      34.378  34.004  28.021  1.00  0.00     0.202 C 
BRANCH  28  29
ATOM     29  C   UNL A   1      33.636  35.120  28.756  1.00  0.00     0.261 C 
BRANCH  29  30
ATOM     30  O   UNL A   1      32.847  34.621  29.857  1.00  0.00    -0.460 OA
BRANCH  30  31
ATOM     31  C   UNL A   1      32.977  35.278  31.024  1.00  0.00     0.338 C 
ATOM     32  O   UNL A   1      32.257  36.174  31.449  1.00  0.00    -0.246 OA
BRANCH  31  33
ATOM     33  C   UNL A   1      34.086  34.682  31.794  1.00  0.00     0.060 A 
ATOM     34  C   UNL A   1      35.126  35.508  32.231  1.00  0.00     0.016 A 
ATOM     35  C   UNL A   1      34.146  33.306  32.015  1.00  0.00     0.016 A 
ATOM     36  C   UNL A   1      36.250  34.960  32.854  1.00  0.00     0.010 A 
ATOM     37  C   UNL A   1      35.278  32.754  32.630  1.00  0.00     0.010 A 
ATOM     38  C   UNL A   1      36.354  33.573  33.023  1.00  0.00    -0.014 A 
BRANCH  38  39
ATOM     39  C   UNL A   1      37.638  32.962  33.465  1.00  0.00     0.031 A 
ATOM     40  C   UNL A   1      38.293  31.924  32.592  1.00  0.00     0.074 A 
ATOM     41  C   UNL A   1      38.237  33.331  34.612  1.00  0.00     0.049 A 
ATOM     42  N   UNL A   1      39.349  31.184  32.822  1.00  0.00    -0.248 NA
ATOM     43  C   UNL A   1      37.671  31.690  31.281  1.00  0.00     0.031 C 
ATOM     44  C   UNL A   1      37.755  34.365  35.523  1.00  0.00     0.029 A 
ATOM     45  N   UNL A   1      39.385  32.863  35.209  1.00  0.00    -0.354 N 
ATOM     46  C   UNL A   1      39.504  30.383  31.698  1.00  0.00     0.074 A 
ATOM     47  C   UNL A   1      38.425  30.717  30.792  1.00  0.00     0.031 C 
ATOM     48  C   UNL A   1      38.595  34.448  36.570  1.00  0.00     0.029 A 
ATOM     49  C   UNL A   1      39.646  33.442  36.426  1.00  0.00     0.049 A 
ATOM     50  H   UNL A   1      39.964  32.179  34.801  1.00  0.00     0.167 HD
ATOM     51  C   UNL A   1      40.458  29.456  31.440  1.00  0.00     0.037 A 
ATOM     52  C   UNL A   1      40.603  33.168  37.336  1.00  0.00     0.037 A 
ATOM     53  C   UNL A   1      41.543  29.130  32.329  1.00  0.00     0.049 A 
ATOM     54  C   UNL A   1      41.609  32.077  37.062  1.00  0.00     0.074 A 
ATOM     55  C   UNL A   1      42.563  28.211  32.146  1.00  0.00     0.029 A 
ATOM     56  N   UNL A   1      41.750  29.710  33.572  1.00  0.00    -0.354 N 
ATOM     57  N   UNL A   1      41.742  31.317  36.002  1.00  0.00    -0.248 NA
ATOM     58  C   UNL A   1      42.595  31.803  38.119  1.00  0.00     0.031 C 
ATOM     59  C   UNL A   1      43.358  28.201  33.297  1.00  0.00     0.029 A 
ATOM     60  C   UNL A   1      42.867  29.153  34.174  1.00  0.00     0.049 A 
ATOM     61  H   UNL A   1      41.186  30.414  33.966  1.00  0.00     0.167 HD
ATOM     62  C   UNL A   1      42.836  30.496  36.254  1.00  0.00     0.074 A 
ATOM     63  C   UNL A   1      43.342  30.863  37.558  1.00  0.00     0.031 C 
ATOM     64  C   UNL A   1      43.371  29.527  35.471  1.00  0.00     0.037 A 
BRANCH  51  65
ATOM     65  C   UNL A   1      40.353  28.695  30.151  1.00  0.00     0.064 A 
ATOM     66  C   UNL A   1      39.605  27.512  30.048  1.00  0.00     0.173 A 
ATOM     67  C   UNL A   1      40.982  29.176  28.992  1.00  0.00     0.173 A 
ATOM     68  F   UNL A   1      38.995  27.003  31.130  1.00  0.00    -0.203 F 
ATOM     69  C   UNL A   1      39.513  26.827  28.840  1.00  0.00     0.198 A 
ATOM     70  C   UNL A   1      40.863  28.504  27.780  1.00  0.00     0.198 A 
ATOM     71  F   UNL A   1      41.704  30.306  29.035  1.00  0.00    -0.203 F 
ATOM     72  F   UNL A   1      38.830  25.675  28.775  1.00  0.00    -0.200 F 
ATOM     73  C   UNL A   1      40.135  27.326  27.705  1.00  0.00     0.200 A 
ATOM     74  F   UNL A   1      41.453  28.996  26.681  1.00  0.00    -0.200 F 
ATOM     75  F   UNL A   1      40.038  26.669  26.541  1.00  0.00    -0.200 F 
ENDBRANCH  51  65
BRANCH  52  76
ATOM     76  C   UNL A   1      40.646  33.919  38.620  1.00  0.00     0.064 A 
ATOM     77  C   UNL A   1      39.952  33.461  39.749  1.00  0.00     0.173 A 
ATOM     78  C   UNL A   1      41.352  35.126  38.733  1.00  0.00     0.173 A 
ATOM     79  F   UNL A   1      39.233  32.331  39.682  1.00  0.00    -0.203 F 
ATOM     80  C   UNL A   1      39.949  34.191  40.937  1.00  0.00     0.198 A 
ATOM     81  C   UNL A   1      41.373  35.838  39.930  1.00  0.00     0.198 A 
ATOM     82  F   UNL A   1      42.022  35.612  37.679  1.00  0.00    -0.203 F 
ATOM     83  F   UNL A   1      39.233  33.759  41.984  1.00  0.00    -0.200 F 
ATOM     84  C   UNL A   1      40.666  35.375  41.028  1.00  0.00     0.200 A 
ATOM     85  F   UNL A   1      42.072  36.978  40.016  1.00  0.00    -0.200 F 
ATOM     86  F   UNL A   1      40.663  36.076  42.170  1.00  0.00    -0.200 F 
ENDBRANCH  52  76
BRANCH  64  87
ATOM     87  C   UNL A   1      44.592  28.816  35.984  1.00  0.00     0.064 A 
ATOM     88  C   UNL A   1      45.886  29.297  35.739  1.00  0.00     0.173 A 
ATOM     89  C   UNL A   1      44.462  27.654  36.762  1.00  0.00     0.173 A 
ATOM     90  F   UNL A   1      46.067  30.395  34.989  1.00  0.00    -0.203 F 
ATOM     91  C   UNL A   1      47.005  28.627  36.227  1.00  0.00     0.198 A 
ATOM     92  C   UNL A   1      45.582  27.004  37.274  1.00  0.00     0.198 A 
ATOM     93  F   UNL A   1      43.247  27.154  37.035  1.00  0.00    -0.203 F 
ATOM     94  F   UNL A   1      48.234  29.078  35.937  1.00  0.00    -0.200 F 
ATOM     95  C   UNL A   1      46.852  27.485  37.000  1.00  0.00     0.200 A 
ATOM     96  F   UNL A   1      45.431  25.909  38.032  1.00  0.00    -0.200 F 
ATOM     97  F   UNL A   1      47.930  26.846  37.474  1.00  0.00    -0.200 F 
ENDBRANCH  64  87
ENDBRANCH  38  39
ENDBRANCH  31  33
ENDBRANCH  30  31
ENDBRANCH  29  30
ENDBRANCH  28  29
ENDBRANCH  27  28
ENDBRANCH  26  27
ENDBRANCH  25  26
ENDBRANCH  24  25
ENDBRANCH   1  24
TORSDOF 23
ENDMDL
MODEL 2
REMARK VINA RESULT:      -9.1      1.862      7.637
REMARK SMILES CC[C@@H](C)C[C@@H](C)NC(=O)NC1(CC(=O)OCCOCCOCCOC(=O)c2ccc(-c3c4nc(c(-c5c(F)c(F)c(F)c(F)c5F)c5ccc([nH]5)c(-c5c(F)c(F)c(F)c(F)c5F)c5nc(c(-c6c(F)c(F)c(F)c(F)c6F)c6ccc3[nH]6)C=C5)C=C4)cc2)CCC1
REMARK SMILES IDX 18 1 17 2 16 3 14 4 15 5 13 6 12 7 91 8 93 9 92 10 11 11
REMARK SMILES IDX 8 12 9 13 10 15 6 17 7 18 5 19 3 20 4 21 2 22 1 23 19 24
REMARK SMILES IDX 20 25 21 26 22 27 23 28 24 29 25 30 26 31 27 32 28 33 29 34
REMARK SMILES IDX 90 35 30 36 89 37 31 38 32 39 33 40 83 41 34 42 88 43 82 44
REMARK SMILES IDX 84 45 35 46 87 47 81 48 80 49 36 51 68 52 48 53 67 54 49 55
REMARK SMILES IDX 52 56 66 57 85 58 50 59 51 60 65 62 86 63 53 64 37 65 38 66
REMARK SMILES IDX 46 67 39 68 40 69 44 70 47 71 41 72 42 73 45 74 43 75 69 76
REMARK SMILES IDX 70 77 78 78 71 79 72 80 76 81 79 82 73 83 74 84 77 85 75 86
REMARK SMILES IDX 54 87 55 88 63 89 56 90 57 91 61 92 64 93 58 94 59 95 62 96
REMARK SMILES IDX 60 97
REMARK H PARENT 8 14 11 16 84 50 52 61
REMARK Flexibility Score: inf
ROOT
ATOM      1  C   UNL A   1      33.367  27.759  26.896  1.00  0.00     0.202 C 
ENDROOT
BRANCH   1   2
ATOM      2  C   UNL A   1      33.417  27.090  25.525  1.00  0.00     0.261 C 
BRANCH   2   3
ATOM      3  O   UNL A   1      33.844  25.717  25.548  1.00  0.00    -0.463 OA
BRANCH   3   4
ATOM      4  C   UNL A   1      33.928  25.108  24.344  1.00  0.00     0.308 C 
ATOM      5  O   UNL A   1      34.741  25.384  23.469  1.00  0.00    -0.252 OA
BRANCH   4   6
ATOM      6  C   UNL A   1      32.825  24.115  24.106  1.00  0.00     0.151 C 
BRANCH   6   7
ATOM      7  C   UNL A   1      33.032  22.637  24.483  1.00  0.00     0.052 C 
ATOM      8  C   UNL A   1      33.508  21.743  23.265  1.00  0.00     0.029 C 
ATOM      9  C   UNL A   1      31.791  21.685  24.489  1.00  0.00     0.029 C 
ATOM     10  C   UNL A   1      32.035  21.452  22.982  1.00  0.00     0.005 C 
BRANCH   7  11
ATOM     11  N   UNL A   1      34.010  22.594  25.614  1.00  0.00    -0.332 N 
ATOM     12  N   UNL A   1      35.589  21.106  26.339  1.00  0.00    -0.336 N 
ATOM     13  C   UNL A   1      34.277  21.526  26.431  1.00  0.00     0.315 C 
ATOM     14  H   UNL A   1      36.159  21.077  27.142  1.00  0.00     0.165 HD
ATOM     15  O   UNL A   1      33.472  20.997  27.181  1.00  0.00    -0.249 OA
ATOM     16  H   UNL A   1      34.515  23.419  25.791  1.00  0.00     0.165 HD
BRANCH  12  17
ATOM     17  C   UNL A   1      36.126  20.706  25.034  1.00  0.00     0.081 C 
ATOM     18  C   UNL A   1      36.107  19.181  24.916  1.00  0.00     0.031 C 
BRANCH  17  19
ATOM     19  C   UNL A   1      37.489  21.328  24.675  1.00  0.00     0.028 C 
BRANCH  19  20
ATOM     20  C   UNL A   1      37.962  22.364  25.742  1.00  0.00    -0.013 C 
ATOM     21  C   UNL A   1      37.518  23.778  25.365  1.00  0.00     0.008 C 
BRANCH  20  22
ATOM     22  C   UNL A   1      39.494  22.332  25.915  1.00  0.00    -0.000 C 
ATOM     23  C   UNL A   1      40.056  21.020  26.438  1.00  0.00     0.004 C 
ENDBRANCH  20  22
ENDBRANCH  19  20
ENDBRANCH  17  19
ENDBRANCH  12  17
ENDBRANCH   7  11
ENDBRANCH   6   7
ENDBRANCH   4   6
ENDBRANCH   3   4
ENDBRANCH   2   3
ENDBRANCH   1   2
BRANCH   1  24
ATOM     24  O   UNL A   1      32.204  28.519  27.179  1.00  0.00    -0.376 OA
BRANCH  24  25
ATOM     25  C   UNL A   1      31.442  29.059  26.102  1.00  0.00     0.188 C 
BRANCH  25  26
ATOM     26  C   UNL A   1      31.585  30.537  25.729  1.00  0.00     0.188 C 
BRANCH  26  27
ATOM     27  O   UNL A   1      32.052  31.336  26.809  1.00  0.00    -0.376 OA
BRANCH  27  28
ATOM     28  C   UNL A   1      31.541  32.662  26.788  1.00  0.00     0.202 C 
BRANCH  28  29
ATOM     29  C   UNL A   1      32.633  33.605  27.290  1.00  0.00     0.261 C 
BRANCH  29  30
ATOM     30  O   UNL A   1      32.295  34.209  28.557  1.00  0.00    -0.460 OA
BRANCH  30  31
ATOM     31  C   UNL A   1      33.066  35.243  28.945  1.00  0.00     0.338 C 
ATOM     32  O   UNL A   1      32.833  36.435  28.787  1.00  0.00    -0.246 OA
BRANCH  31  33
ATOM     33  C   UNL A   1      34.222  34.726  29.702  1.00  0.00     0.060 A 
ATOM     34  C   UNL A   1      35.461  34.631  29.061  1.00  0.00     0.016 A 
ATOM     35  C   UNL A   1      34.073  34.260  31.009  1.00  0.00     0.016 A 
ATOM     36  C   UNL A   1      36.547  34.033  29.706  1.00  0.00     0.010 A 
ATOM     37  C   UNL A   1      35.158  33.650  31.653  1.00  0.00     0.010 A 
ATOM     38  C   UNL A   1      36.394  33.502  30.994  1.00  0.00    -0.014 A 
BRANCH  38  39
ATOM     39  C   UNL A   1      37.466  32.658  31.593  1.00  0.00     0.031 A 
ATOM     40  C   UNL A   1      37.993  33.007  32.960  1.00  0.00     0.074 A 
ATOM     41  C   UNL A   1      37.956  31.582  30.952  1.00  0.00     0.049 A 
ATOM     42  N   UNL A   1      38.991  32.484  33.629  1.00  0.00    -0.248 NA
ATOM     43  C   UNL A   1      37.298  34.091  33.668  1.00  0.00     0.031 C 
ATOM     44  C   UNL A   1      37.501  31.088  29.656  1.00  0.00     0.029 A 
ATOM     45  N   UNL A   1      38.962  30.714  31.309  1.00  0.00    -0.354 N 
ATOM     46  C   UNL A   1      39.059  33.191  34.823  1.00  0.00     0.074 A 
ATOM     47  C   UNL A   1      38.010  34.188  34.782  1.00  0.00     0.031 C 
ATOM     48  C   UNL A   1      38.229  30.009  29.320  1.00  0.00     0.029 A 
ATOM     49  C   UNL A   1      39.234  29.765  30.354  1.00  0.00     0.049 A 
ATOM     50  H   UNL A   1      39.440  30.768  32.168  1.00  0.00     0.167 HD
ATOM     51  C   UNL A   1      39.912  33.023  35.861  1.00  0.00     0.037 A 
ATOM     52  C   UNL A   1      40.204  28.830  30.304  1.00  0.00     0.037 A 
ATOM     53  C   UNL A   1      40.947  32.023  35.917  1.00  0.00     0.049 A 
ATOM     54  C   UNL A   1      41.193  28.713  31.437  1.00  0.00     0.074 A 
ATOM     55  C   UNL A   1      41.853  31.773  36.934  1.00  0.00     0.029 A 
ATOM     56  N   UNL A   1      41.216  31.107  34.911  1.00  0.00    -0.354 N 
ATOM     57  N   UNL A   1      41.258  29.391  32.557  1.00  0.00    -0.248 NA
ATOM     58  C   UNL A   1      42.251  27.701  31.292  1.00  0.00     0.031 C 
ATOM     59  C   UNL A   1      42.701  30.738  36.524  1.00  0.00     0.029 A 
ATOM     60  C   UNL A   1      42.288  30.306  35.275  1.00  0.00     0.049 A 
ATOM     61  H   UNL A   1      40.719  31.036  34.065  1.00  0.00     0.167 HD
ATOM     62  C   UNL A   1      42.341  28.873  33.257  1.00  0.00     0.074 A 
ATOM     63  C   UNL A   1      42.895  27.812  32.445  1.00  0.00     0.031 C 
ATOM     64  C   UNL A   1      42.831  29.245  34.465  1.00  0.00     0.037 A 
BRANCH  51  65
ATOM     65  C   UNL A   1      39.789  33.971  37.019  1.00  0.00     0.064 A 
ATOM     66  C   UNL A   1      40.425  35.221  37.023  1.00  0.00     0.173 A 
ATOM     67  C   UNL A   1      38.993  33.637  38.125  1.00  0.00     0.173 A 
ATOM     68  F   UNL A   1      41.208  35.584  35.994  1.00  0.00    -0.203 F 
ATOM     69  C   UNL A   1      40.289  36.090  38.103  1.00  0.00     0.198 A 
ATOM     70  C   UNL A   1      38.835  34.519  39.189  1.00  0.00     0.198 A 
ATOM     71  F   UNL A   1      38.358  32.455  38.168  1.00  0.00    -0.203 F 
ATOM     72  F   UNL A   1      40.942  37.261  38.106  1.00  0.00    -0.200 F 
ATOM     73  C   UNL A   1      39.489  35.742  39.181  1.00  0.00     0.200 A 
ATOM     74  F   UNL A   1      38.051  34.187  40.224  1.00  0.00    -0.200 F 
ATOM     75  F   UNL A   1      39.353  36.583  40.216  1.00  0.00    -0.200 F 
ENDBRANCH  51  65
BRANCH  52  76
ATOM     76  C   UNL A   1      40.316  27.938  29.118  1.00  0.00     0.064 A 
ATOM     77  C   UNL A   1      41.027  28.336  27.978  1.00  0.00     0.173 A 
ATOM     78  C   UNL A   1      39.686  26.685  29.090  1.00  0.00     0.173 A 
ATOM     79  F   UNL A   1      41.617  29.540  27.942  1.00  0.00    -0.203 F 
ATOM     80  C   UNL A   1      41.088  27.522  26.847  1.00  0.00     0.198 A 
ATOM     81  C   UNL A   1      39.775  25.859  27.970  1.00  0.00     0.198 A 
ATOM     82  F   UNL A   1      38.984  26.262  30.150  1.00  0.00    -0.203 F 
ATOM     83  F   UNL A   1      41.729  27.951  25.750  1.00  0.00    -0.200 F 
ATOM     84  C   UNL A   1      40.468  26.282  26.847  1.00  0.00     0.200 A 
ATOM     85  F   UNL A   1      39.179  24.659  27.978  1.00  0.00    -0.200 F 
ATOM     86  F   UNL A   1      40.528  25.500  25.761  1.00  0.00    -0.200 F 
ENDBRANCH  52  76
BRANCH  64  87
ATOM     87  C   UNL A   1      44.004  28.477  35.006  1.00  0.00     0.064 A 
ATOM     88  C   UNL A   1      45.326  28.835  34.703  1.00  0.00     0.173 A 
ATOM     89  C   UNL A   1      43.802  27.387  35.867  1.00  0.00     0.173 A 
ATOM     90  F   UNL A   1      45.575  29.860  33.873  1.00  0.00    -0.203 F 
ATOM     91  C   UNL A   1      46.401  28.113  35.218  1.00  0.00     0.198 A 
ATOM     92  C   UNL A   1      44.880  26.687  36.405  1.00  0.00     0.198 A 
ATOM     93  F   UNL A   1      42.559  27.006  36.197  1.00  0.00    -0.203 F 
ATOM     94  F   UNL A   1      47.654  28.444  34.874  1.00  0.00    -0.200 F 
ATOM     95  C   UNL A   1      46.177  27.045  36.073  1.00  0.00     0.200 A 
ATOM     96  F   UNL A   1      44.662  25.663  37.242  1.00  0.00    -0.200 F 
ATOM     97  F   UNL A   1      47.213  26.357  36.572  1.00  0.00    -0.200 F 
ENDBRANCH  64  87
ENDBRANCH  38  39
ENDBRANCH  31  33
ENDBRANCH  30  31
ENDBRANCH  29  30
ENDBRANCH  28  29
ENDBRANCH  27  28
ENDBRANCH  26  27
ENDBRANCH  25  26
ENDBRANCH  24  25
ENDBRANCH   1  24
TORSDOF 23
ENDMDL
MODEL 3
REMARK VINA RESULT:      -9.0      2.183      3.972
REMARK SMILES CC[C@@H](C)C[C@@H](C)NC(=O)NC1(CC(=O)OCCOCCOCCOC(=O)c2ccc(-c3c4nc(c(-c5c(F)c(F)c(F)c(F)c5F)c5ccc([nH]5)c(-c5c(F)c(F)c(F)c(F)c5F)c5nc(c(-c6c(F)c(F)c(F)c(F)c6F)c6ccc3[nH]6)C=C5)C=C4)cc2)CCC1
REMARK SMILES IDX 18 1 17 2 16 3 14 4 15 5 13 6 12 7 91 8 93 9 92 10 11 11
REMARK SMILES IDX 8 12 9 13 10 15 6 17 7 18 5 19 3 20 4 21 2 22 1 23 19 24
REMARK SMILES IDX 20 25 21 26 22 27 23 28 24 29 25 30 26 31 27 32 28 33 29 34
REMARK SMILES IDX 90 35 30 36 89 37 31 38 32 39 33 40 83 41 34 42 88 43 82 44
REMARK SMILES IDX 84 45 35 46 87 47 81 48 80 49 36 51 68 52 48 53 67 54 49 55
REMARK SMILES IDX 52 56 66 57 85 58 50 59 51 60 65 62 86 63 53 64 37 65 38 66
REMARK SMILES IDX 46 67 39 68 40 69 44 70 47 71 41 72 42 73 45 74 43 75 69 76
REMARK SMILES IDX 70 77 78 78 71 79 72 80 76 81 79 82 73 83 74 84 77 85 75 86
REMARK SMILES IDX 54 87 55 88 63 89 56 90 57 91 61 92 64 93 58 94 59 95 62 96
REMARK SMILES IDX 60 97
REMARK H PARENT 8 14 11 16 84 50 52 61
REMARK Flexibility Score: inf
ROOT
ATOM      1  C   UNL A   1      33.086  27.119  25.725  1.00  0.00     0.202 C 
ENDROOT
BRANCH   1   2
ATOM      2  C   UNL A   1      34.438  26.470  25.447  1.00  0.00     0.261 C 
BRANCH   2   3
ATOM      3  O   UNL A   1      34.581  25.141  25.978  1.00  0.00    -0.463 OA
BRANCH   3   4
ATOM      4  C   UNL A   1      35.368  24.305  25.262  1.00  0.00     0.308 C 
ATOM      5  O   UNL A   1      36.480  23.918  25.604  1.00  0.00    -0.252 OA
BRANCH   4   6
ATOM      6  C   UNL A   1      34.802  23.975  23.910  1.00  0.00     0.151 C 
BRANCH   6   7
ATOM      7  C   UNL A   1      33.327  23.556  23.779  1.00  0.00     0.052 C 
ATOM      8  C   UNL A   1      33.107  22.348  22.778  1.00  0.00     0.029 C 
ATOM      9  C   UNL A   1      32.412  24.339  22.781  1.00  0.00     0.029 C 
ATOM     10  C   UNL A   1      32.900  23.383  21.672  1.00  0.00     0.005 C 
BRANCH   7  11
ATOM     11  N   UNL A   1      32.827  23.233  25.151  1.00  0.00    -0.332 N 
ATOM     12  N   UNL A   1      32.058  21.350  26.197  1.00  0.00    -0.336 N 
ATOM     13  C   UNL A   1      31.729  22.477  25.471  1.00  0.00     0.315 C 
ATOM     14  H   UNL A   1      31.657  21.196  27.084  1.00  0.00     0.165 HD
ATOM     15  O   UNL A   1      30.577  22.754  25.177  1.00  0.00    -0.249 OA
ATOM     16  H   UNL A   1      33.340  23.602  25.905  1.00  0.00     0.165 HD
BRANCH  12  17
ATOM     17  C   UNL A   1      33.009  20.385  25.637  1.00  0.00     0.081 C 
ATOM     18  C   UNL A   1      34.435  20.918  25.790  1.00  0.00     0.031 C 
BRANCH  17  19
ATOM     19  C   UNL A   1      32.686  19.913  24.206  1.00  0.00     0.028 C 
BRANCH  19  20
ATOM     20  C   UNL A   1      32.422  18.376  24.138  1.00  0.00    -0.013 C 
ATOM     21  C   UNL A   1      32.739  17.710  25.477  1.00  0.00     0.008 C 
BRANCH  20  22
ATOM     22  C   UNL A   1      33.252  17.714  23.021  1.00  0.00    -0.000 C 
ATOM     23  C   UNL A   1      33.982  16.444  23.426  1.00  0.00     0.004 C 
ENDBRANCH  20  22
ENDBRANCH  19  20
ENDBRANCH  17  19
ENDBRANCH  12  17
ENDBRANCH   7  11
ENDBRANCH   6   7
ENDBRANCH   4   6
ENDBRANCH   3   4
ENDBRANCH   2   3
ENDBRANCH   1   2
BRANCH   1  24
ATOM     24  O   UNL A   1      32.155  27.110  24.654  1.00  0.00    -0.376 OA
BRANCH  24  25
ATOM     25  C   UNL A   1      32.004  28.276  23.850  1.00  0.00     0.188 C 
BRANCH  25  26
ATOM     26  C   UNL A   1      31.070  29.403  24.302  1.00  0.00     0.188 C 
BRANCH  26  27
ATOM     27  O   UNL A   1      31.706  30.329  25.173  1.00  0.00    -0.376 OA
BRANCH  27  28
ATOM     28  C   UNL A   1      30.788  31.089  25.950  1.00  0.00     0.202 C 
BRANCH  28  29
ATOM     29  C   UNL A   1      31.544  32.261  26.574  1.00  0.00     0.261 C 
BRANCH  29  30
ATOM     30  O   UNL A   1      32.842  31.872  27.074  1.00  0.00    -0.460 OA
BRANCH  30  31
ATOM     31  C   UNL A   1      33.578  32.850  27.635  1.00  0.00     0.338 C 
ATOM     32  O   UNL A   1      33.242  34.015  27.810  1.00  0.00    -0.246 OA
BRANCH  31  33
ATOM     33  C   UNL A   1      34.850  32.281  28.119  1.00  0.00     0.060 A 
ATOM     34  C   UNL A   1      34.864  30.966  28.595  1.00  0.00     0.016 A 
ATOM     35  C   UNL A   1      36.006  33.060  28.180  1.00  0.00     0.016 A 
ATOM     36  C   UNL A   1      36.021  30.436  29.174  1.00  0.00     0.010 A 
ATOM     37  C   UNL A   1      37.164  32.533  28.770  1.00  0.00     0.010 A 
ATOM     38  C   UNL A   1      37.169  31.229  29.302  1.00  0.00    -0.014 A 
BRANCH  38  39
ATOM     39  C   UNL A   1      38.320  30.760  30.123  1.00  0.00     0.031 A 
ATOM     40  C   UNL A   1      39.285  29.768  29.530  1.00  0.00     0.074 A 
ATOM     41  C   UNL A   1      38.529  31.219  31.371  1.00  0.00     0.049 A 
ATOM     42  N   UNL A   1      40.290  29.142  30.092  1.00  0.00    -0.248 NA
ATOM     43  C   UNL A   1      39.090  29.437  28.111  1.00  0.00     0.031 C 
ATOM     44  C   UNL A   1      37.718  32.224  32.050  1.00  0.00     0.029 A 
ATOM     45  N   UNL A   1      39.492  30.882  32.294  1.00  0.00    -0.354 N 
ATOM     46  C   UNL A   1      40.831  28.329  29.104  1.00  0.00     0.074 A 
ATOM     47  C   UNL A   1      40.034  28.529  27.912  1.00  0.00     0.031 C 
ATOM     48  C   UNL A   1      38.210  32.419  33.285  1.00  0.00     0.029 A 
ATOM     49  C   UNL A   1      39.341  31.518  33.502  1.00  0.00     0.049 A 
ATOM     50  H   UNL A   1      40.220  30.247  32.105  1.00  0.00     0.167 HD
ATOM     51  C   UNL A   1      41.895  27.494  29.179  1.00  0.00     0.037 A 
ATOM     52  C   UNL A   1      40.015  31.365  34.659  1.00  0.00     0.037 A 
ATOM     53  C   UNL A   1      42.702  27.301  30.356  1.00  0.00     0.049 A 
ATOM     54  C   UNL A   1      41.147  30.371  34.743  1.00  0.00     0.074 A 
ATOM     55  C   UNL A   1      43.807  26.482  30.521  1.00  0.00     0.029 A 
ATOM     56  N   UNL A   1      42.491  27.933  31.572  1.00  0.00    -0.354 N 
ATOM     57  N   UNL A   1      41.644  29.598  33.808  1.00  0.00    -0.248 NA
ATOM     58  C   UNL A   1      41.806  30.225  36.050  1.00  0.00     0.031 C 
ATOM     59  C   UNL A   1      44.234  26.582  31.850  1.00  0.00     0.029 A 
ATOM     60  C   UNL A   1      43.431  27.505  32.497  1.00  0.00     0.049 A 
ATOM     61  H   UNL A   1      41.779  28.589  31.751  1.00  0.00     0.167 HD
ATOM     62  C   UNL A   1      42.686  28.897  34.405  1.00  0.00     0.074 A 
ATOM     63  C   UNL A   1      42.762  29.348  35.777  1.00  0.00     0.031 C 
ATOM     64  C   UNL A   1      43.505  27.963  33.861  1.00  0.00     0.037 A 
BRANCH  51  65
ATOM     65  C   UNL A   1      42.232  26.690  27.957  1.00  0.00     0.064 A 
ATOM     66  C   UNL A   1      43.162  27.139  27.008  1.00  0.00     0.173 A 
ATOM     67  C   UNL A   1      41.641  25.433  27.752  1.00  0.00     0.173 A 
ATOM     68  F   UNL A   1      43.746  28.340  27.151  1.00  0.00    -0.203 F 
ATOM     69  C   UNL A   1      43.467  26.373  25.886  1.00  0.00     0.198 A 
ATOM     70  C   UNL A   1      41.971  24.657  26.646  1.00  0.00     0.198 A 
ATOM     71  F   UNL A   1      40.750  24.953  28.634  1.00  0.00    -0.203 F 
ATOM     72  F   UNL A   1      44.324  26.842  24.969  1.00  0.00    -0.200 F 
ATOM     73  C   UNL A   1      42.879  25.130  25.710  1.00  0.00     0.200 A 
ATOM     74  F   UNL A   1      41.412  23.449  26.485  1.00  0.00    -0.200 F 
ATOM     75  F   UNL A   1      43.179  24.389  24.634  1.00  0.00    -0.200 F 
ENDBRANCH  51  65
BRANCH  52  76
ATOM     76  C   UNL A   1      39.621  32.152  35.859  1.00  0.00     0.064 A 
ATOM     77  C   UNL A   1      40.239  33.373  36.158  1.00  0.00     0.173 A 
ATOM     78  C   UNL A   1      38.643  31.681  36.748  1.00  0.00     0.173 A 
ATOM     79  F   UNL A   1      41.205  33.850  35.359  1.00  0.00    -0.203 F 
ATOM     80  C   UNL A   1      39.907  34.085  37.310  1.00  0.00     0.198 A 
ATOM     81  C   UNL A   1      38.291  32.408  37.883  1.00  0.00     0.198 A 
ATOM     82  F   UNL A   1      38.030  30.512  36.514  1.00  0.00    -0.203 F 
ATOM     83  F   UNL A   1      40.553  35.223  37.601  1.00  0.00    -0.200 F 
ATOM     84  C   UNL A   1      38.928  33.606  38.168  1.00  0.00     0.200 A 
ATOM     85  F   UNL A   1      37.339  31.944  38.705  1.00  0.00    -0.200 F 
ATOM     86  F   UNL A   1      38.610  34.290  39.274  1.00  0.00    -0.200 F 
ENDBRANCH  52  76
BRANCH  64  87
ATOM     87  C   UNL A   1      44.583  27.390  34.739  1.00  0.00     0.064 A 
ATOM     88  C   UNL A   1      44.394  26.204  35.463  1.00  0.00     0.173 A 
ATOM     89  C   UNL A   1      45.835  28.019  34.828  1.00  0.00     0.173 A 
ATOM     90  F   UNL A   1      43.212  25.570  35.424  1.00  0.00    -0.203 F 
ATOM     91  C   UNL A   1      45.407  25.685  36.267  1.00  0.00     0.198 A 
ATOM     92  C   UNL A   1      46.855  27.481  35.608  1.00  0.00     0.198 A 
ATOM     93  F   UNL A   1      46.073  29.152  34.150  1.00  0.00    -0.203 F 
ATOM     94  F   UNL A   1      45.186  24.577  36.988  1.00  0.00    -0.200 F 
ATOM     95  C   UNL A   1      46.638  26.320  36.332  1.00  0.00     0.200 A 
ATOM     96  F   UNL A   1      48.049  28.088  35.660  1.00  0.00    -0.200 F 
ATOM     97  F   UNL A   1      47.613  25.815  37.101  1.00  0.00    -0.200 F 
ENDBRANCH  64  87
ENDBRANCH  38  39
ENDBRANCH  31  33
ENDBRANCH  30  31
ENDBRANCH  29  30
ENDBRANCH  28  29
ENDBRANCH  27  28
ENDBRANCH  26  27
ENDBRANCH  25  26
ENDBRANCH  24  25
ENDBRANCH   1  24
TORSDOF 23
ENDMDL
