MODEL 1
REMARK VINA RESULT:      -7.7      0.000      0.000
REMARK SMILES CCCCCCNC(=O)Oc1cccc(-c2ccc([C@@H](C)C(=O)OCCOCCOCCOC(=O)c3ccc(-c4c5nc(c(-c6c(F)c(F)c(F)c(F)c6F)c6ccc([nH]6)c(-c6c(F)c(F)c(F)c(F)c6F)c6nc(c(-c7c(F)c(F)c(F)c(F)c7F)c7ccc4[nH]7)C=C6)C=C5)cc3)cc2F)c1
REMARK SMILES IDX 25 1 24 2 22 3 23 4 20 5 21 6 19 7 16 8 17 9 100 10 18 11
REMARK SMILES IDX 99 12 101 13 15 14 11 15 12 16 102 17 13 18 14 19 10 20 8 21
REMARK SMILES IDX 7 22 9 24 6 25 5 26 4 27 3 28 2 29 1 30 26 31 27 32 28 33
REMARK SMILES IDX 29 34 30 35 31 36 32 37 33 38 34 39 35 40 36 41 37 42 98 43
REMARK SMILES IDX 38 44 97 45 39 46 40 47 41 48 91 49 42 50 96 51 90 52 92 53
REMARK SMILES IDX 43 54 95 55 89 56 88 57 44 59 76 60 56 61 75 62 57 63 60 64
REMARK SMILES IDX 74 65 93 66 58 67 59 68 73 70 94 71 61 72 45 73 46 74 54 75
REMARK SMILES IDX 47 76 48 77 52 78 55 79 49 80 50 81 53 82 51 83 77 84 78 85
REMARK SMILES IDX 86 86 79 87 80 88 84 89 87 90 81 91 82 92 85 93 83 94 62 95
REMARK SMILES IDX 63 96 71 97 64 98 65 99 69 100 72 101 66 102 67 103 70 104
REMARK SMILES IDX 68 105
REMARK H PARENT 7 23 92 58 60 69
REMARK Flexibility Score: inf
ROOT
ATOM      1  C   UNL A   1      38.597  31.238  35.070  1.00  0.00     0.261 C 
ENDROOT
BRANCH   1   2
ATOM      2  O   UNL A   1      39.855  31.099  34.368  1.00  0.00    -0.463 OA
BRANCH   2   3
ATOM      3  C   UNL A   1      40.333  29.837  34.230  1.00  0.00     0.313 C 
ATOM      4  O   UNL A   1      40.268  29.203  33.177  1.00  0.00    -0.252 OA
BRANCH   3   5
ATOM      5  C   UNL A   1      40.996  29.219  35.464  1.00  0.00     0.126 C 
ATOM      6  C   UNL A   1      41.922  30.258  36.096  1.00  0.00     0.025 C 
BRANCH   5   7
ATOM      7  C   UNL A   1      41.689  27.858  35.408  1.00  0.00    -0.031 A 
ATOM      8  C   UNL A   1      43.053  25.326  35.433  1.00  0.00     0.018 A 
ATOM      9  C   UNL A   1      42.690  25.964  34.230  1.00  0.00     0.012 A 
ATOM     10  C   UNL A   1      42.708  25.985  36.618  1.00  0.00     0.131 A 
ATOM     11  C   UNL A   1      42.029  27.210  34.214  1.00  0.00     0.005 A 
ATOM     12  C   UNL A   1      42.051  27.222  36.612  1.00  0.00     0.044 A 
ATOM     13  F   UNL A   1      43.029  25.455  37.809  1.00  0.00    -0.206 F 
BRANCH   8  14
ATOM     14  C   UNL A   1      43.831  24.067  35.433  1.00  0.00    -0.012 A 
ATOM     15  C   UNL A   1      45.598  22.622  36.280  1.00  0.00     0.133 A 
ATOM     16  C   UNL A   1      45.339  21.673  35.293  1.00  0.00     0.047 A 
ATOM     17  C   UNL A   1      44.863  23.812  36.357  1.00  0.00     0.056 A 
ATOM     18  C   UNL A   1      44.320  21.907  34.377  1.00  0.00     0.004 A 
ATOM     19  C   UNL A   1      43.579  23.092  34.446  1.00  0.00     0.009 A 
BRANCH  15  20
ATOM     20  O   UNL A   1      46.725  22.381  37.088  1.00  0.00    -0.410 OA
BRANCH  20  21
ATOM     21  C   UNL A   1      47.379  23.459  37.662  1.00  0.00     0.412 C 
ATOM     22  N   UNL A   1      48.512  23.830  36.985  1.00  0.00    -0.321 N 
ATOM     23  H   UNL A   1      48.965  24.644  37.301  1.00  0.00     0.167 HD
ATOM     24  O   UNL A   1      47.040  24.045  38.687  1.00  0.00    -0.224 OA
BRANCH  22  25
ATOM     25  C   UNL A   1      49.114  23.154  35.851  1.00  0.00     0.119 C 
BRANCH  25  26
ATOM     26  C   UNL A   1      49.784  24.120  34.874  1.00  0.00     0.021 C 
BRANCH  26  27
ATOM     27  C   UNL A   1      49.257  24.058  33.433  1.00  0.00     0.002 C 
BRANCH  27  28
ATOM     28  C   UNL A   1      50.026  24.897  32.405  1.00  0.00    -0.000 C 
BRANCH  28  29
ATOM     29  C   UNL A   1      51.514  25.105  32.697  1.00  0.00    -0.003 C 
ATOM     30  C   UNL A   1      52.051  26.434  32.187  1.00  0.00     0.004 C 
ENDBRANCH  28  29
ENDBRANCH  27  28
ENDBRANCH  26  27
ENDBRANCH  25  26
ENDBRANCH  22  25
ENDBRANCH  20  21
ENDBRANCH  15  20
ENDBRANCH   8  14
ENDBRANCH   5   7
ENDBRANCH   3   5
ENDBRANCH   2   3
ENDBRANCH   1   2
BRANCH   1  31
ATOM     31  C   UNL A   1      37.483  31.952  34.291  1.00  0.00     0.202 C 
BRANCH  31  32
ATOM     32  O   UNL A   1      36.648  32.854  35.005  1.00  0.00    -0.376 OA
BRANCH  32  33
ATOM     33  C   UNL A   1      36.514  34.195  34.546  1.00  0.00     0.188 C 
BRANCH  33  34
ATOM     34  C   UNL A   1      35.136  34.715  34.116  1.00  0.00     0.188 C 
BRANCH  34  35
ATOM     35  O   UNL A   1      35.184  35.752  33.159  1.00  0.00    -0.376 OA
BRANCH  35  36
ATOM     36  C   UNL A   1      33.981  36.466  32.945  1.00  0.00     0.202 C 
BRANCH  36  37
ATOM     37  C   UNL A   1      33.451  36.333  31.514  1.00  0.00     0.261 C 
BRANCH  37  38
ATOM     38  O   UNL A   1      33.017  35.014  31.135  1.00  0.00    -0.460 OA
BRANCH  38  39
ATOM     39  C   UNL A   1      33.360  34.573  29.907  1.00  0.00     0.338 C 
ATOM     40  O   UNL A   1      32.787  34.803  28.849  1.00  0.00    -0.246 OA
BRANCH  39  41
ATOM     41  C   UNL A   1      34.685  33.932  30.015  1.00  0.00     0.060 A 
ATOM     42  C   UNL A   1      34.908  32.957  31.001  1.00  0.00     0.016 A 
ATOM     43  C   UNL A   1      35.701  34.282  29.125  1.00  0.00     0.016 A 
ATOM     44  C   UNL A   1      36.157  32.339  31.105  1.00  0.00     0.010 A 
ATOM     45  C   UNL A   1      36.954  33.685  29.248  1.00  0.00     0.010 A 
ATOM     46  C   UNL A   1      37.198  32.728  30.251  1.00  0.00    -0.014 A 
BRANCH  46  47
ATOM     47  C   UNL A   1      38.601  32.321  30.503  1.00  0.00     0.031 A 
ATOM     48  C   UNL A   1      39.066  31.020  29.916  1.00  0.00     0.074 A 
ATOM     49  C   UNL A   1      39.419  33.039  31.293  1.00  0.00     0.049 A 
ATOM     50  N   UNL A   1      40.135  30.315  30.185  1.00  0.00    -0.248 NA
ATOM     51  C   UNL A   1      38.192  30.424  28.891  1.00  0.00     0.031 C 
ATOM     52  C   UNL A   1      39.110  34.343  31.873  1.00  0.00     0.029 A 
ATOM     53  N   UNL A   1      40.672  32.742  31.774  1.00  0.00    -0.354 N 
ATOM     54  C   UNL A   1      40.053  29.190  29.376  1.00  0.00     0.074 A 
ATOM     55  C   UNL A   1      38.822  29.290  28.624  1.00  0.00     0.031 C 
ATOM     56  C   UNL A   1      40.130  34.717  32.668  1.00  0.00     0.029 A 
ATOM     57  C   UNL A   1      41.134  33.653  32.693  1.00  0.00     0.049 A 
ATOM     58  H   UNL A   1      41.188  31.952  31.489  1.00  0.00     0.167 HD
ATOM     59  C   UNL A   1      40.929  28.165  29.270  1.00  0.00     0.037 A 
ATOM     60  C   UNL A   1      42.215  33.603  33.499  1.00  0.00     0.037 A 
ATOM     61  C   UNL A   1      42.145  28.063  30.033  1.00  0.00     0.049 A 
ATOM     62  C   UNL A   1      43.126  32.398  33.441  1.00  0.00     0.074 A 
ATOM     63  C   UNL A   1      43.089  27.053  30.020  1.00  0.00     0.029 A 
ATOM     64  N   UNL A   1      42.579  29.010  30.947  1.00  0.00    -0.354 N 
ATOM     65  N   UNL A   1      43.044  31.330  32.684  1.00  0.00    -0.248 NA
ATOM     66  C   UNL A   1      44.281  32.389  34.355  1.00  0.00     0.031 C 
ATOM     67  C   UNL A   1      44.075  27.367  30.959  1.00  0.00     0.029 A 
ATOM     68  C   UNL A   1      43.776  28.602  31.511  1.00  0.00     0.049 A 
ATOM     69  H   UNL A   1      42.108  29.847  31.162  1.00  0.00     0.167 HD
ATOM     70  C   UNL A   1      44.153  30.550  32.997  1.00  0.00     0.074 A 
ATOM     71  C   UNL A   1      44.894  31.265  34.012  1.00  0.00     0.031 C 
ATOM     72  C   UNL A   1      44.524  29.351  32.488  1.00  0.00     0.037 A 
BRANCH  59  73
ATOM     73  C   UNL A   1      40.597  27.061  28.312  1.00  0.00     0.064 A 
ATOM     74  C   UNL A   1      41.244  26.948  27.073  1.00  0.00     0.173 A 
ATOM     75  C   UNL A   1      39.653  26.080  28.653  1.00  0.00     0.173 A 
ATOM     76  F   UNL A   1      42.142  27.870  26.693  1.00  0.00    -0.203 F 
ATOM     77  C   UNL A   1      40.945  25.902  26.203  1.00  0.00     0.198 A 
ATOM     78  C   UNL A   1      39.380  25.020  27.794  1.00  0.00     0.198 A 
ATOM     79  F   UNL A   1      39.007  26.142  29.827  1.00  0.00    -0.203 F 
ATOM     80  F   UNL A   1      41.546  25.838  25.006  1.00  0.00    -0.200 F 
ATOM     81  C   UNL A   1      40.022  24.935  26.568  1.00  0.00     0.200 A 
ATOM     82  F   UNL A   1      38.497  24.078  28.155  1.00  0.00    -0.200 F 
ATOM     83  F   UNL A   1      39.747  23.922  25.735  1.00  0.00    -0.200 F 
ENDBRANCH  59  73
BRANCH  60  84
ATOM     84  C   UNL A   1      42.482  34.696  34.473  1.00  0.00     0.064 A 
ATOM     85  C   UNL A   1      41.982  34.639  35.781  1.00  0.00     0.173 A 
ATOM     86  C   UNL A   1      43.190  35.849  34.100  1.00  0.00     0.173 A 
ATOM     87  F   UNL A   1      41.271  33.573  36.180  1.00  0.00    -0.203 F 
ATOM     88  C   UNL A   1      42.148  35.704  36.666  1.00  0.00     0.198 A 
ATOM     89  C   UNL A   1      43.387  36.899  34.997  1.00  0.00     0.198 A 
ATOM     90  F   UNL A   1      43.686  35.961  32.859  1.00  0.00    -0.203 F 
ATOM     91  F   UNL A   1      41.595  35.650  37.886  1.00  0.00    -0.200 F 
ATOM     92  C   UNL A   1      42.853  36.830  36.275  1.00  0.00     0.200 A 
ATOM     93  F   UNL A   1      44.076  37.982  34.616  1.00  0.00    -0.200 F 
ATOM     94  F   UNL A   1      43.004  37.858  37.121  1.00  0.00    -0.200 F 
ENDBRANCH  60  84
BRANCH  72  95
ATOM     95  C   UNL A   1      45.828  28.762  32.945  1.00  0.00     0.064 A 
ATOM     96  C   UNL A   1      46.992  28.840  32.169  1.00  0.00     0.173 A 
ATOM     97  C   UNL A   1      45.927  28.194  34.226  1.00  0.00     0.173 A 
ATOM     98  F   UNL A   1      46.947  29.363  30.935  1.00  0.00    -0.203 F 
ATOM     99  C   UNL A   1      48.207  28.364  32.655  1.00  0.00     0.198 A 
ATOM    100  C   UNL A   1      47.148  27.746  34.719  1.00  0.00     0.198 A 
ATOM    101  F   UNL A   1      44.843  28.105  35.012  1.00  0.00    -0.203 F 
ATOM    102  F   UNL A   1      49.303  28.422  31.886  1.00  0.00    -0.200 F 
ATOM    103  C   UNL A   1      48.287  27.829  33.933  1.00  0.00     0.200 A 
ATOM    104  F   UNL A   1      47.226  27.248  35.962  1.00  0.00    -0.200 F 
ATOM    105  F   UNL A   1      49.462  27.393  34.407  1.00  0.00    -0.200 F 
ENDBRANCH  72  95
ENDBRANCH  46  47
ENDBRANCH  39  41
ENDBRANCH  38  39
ENDBRANCH  37  38
ENDBRANCH  36  37
ENDBRANCH  35  36
ENDBRANCH  34  35
ENDBRANCH  33  34
ENDBRANCH  32  33
ENDBRANCH  31  32
ENDBRANCH   1  31
TORSDOF 26
ENDMDL
MODEL 2
REMARK VINA RESULT:      -7.3      4.834     10.660
REMARK SMILES CCCCCCNC(=O)Oc1cccc(-c2ccc([C@@H](C)C(=O)OCCOCCOCCOC(=O)c3ccc(-c4c5nc(c(-c6c(F)c(F)c(F)c(F)c6F)c6ccc([nH]6)c(-c6c(F)c(F)c(F)c(F)c6F)c6nc(c(-c7c(F)c(F)c(F)c(F)c7F)c7ccc4[nH]7)C=C6)C=C5)cc3)cc2F)c1
REMARK SMILES IDX 25 1 24 2 22 3 23 4 20 5 21 6 19 7 16 8 17 9 100 10 18 11
REMARK SMILES IDX 99 12 101 13 15 14 11 15 12 16 102 17 13 18 14 19 10 20 8 21
REMARK SMILES IDX 7 22 9 24 6 25 5 26 4 27 3 28 2 29 1 30 26 31 27 32 28 33
REMARK SMILES IDX 29 34 30 35 31 36 32 37 33 38 34 39 35 40 36 41 37 42 98 43
REMARK SMILES IDX 38 44 97 45 39 46 40 47 41 48 91 49 42 50 96 51 90 52 92 53
REMARK SMILES IDX 43 54 95 55 89 56 88 57 44 59 76 60 56 61 75 62 57 63 60 64
REMARK SMILES IDX 74 65 93 66 58 67 59 68 73 70 94 71 61 72 45 73 46 74 54 75
REMARK SMILES IDX 47 76 48 77 52 78 55 79 49 80 50 81 53 82 51 83 77 84 78 85
REMARK SMILES IDX 86 86 79 87 80 88 84 89 87 90 81 91 82 92 85 93 83 94 62 95
REMARK SMILES IDX 63 96 71 97 64 98 65 99 69 100 72 101 66 102 67 103 70 104
REMARK SMILES IDX 68 105
REMARK H PARENT 7 23 92 58 60 69
REMARK Flexibility Score: inf
ROOT
ATOM      1  C   UNL A   1      37.158  31.622  30.537  1.00  0.00     0.261 C 
ENDROOT
BRANCH   1   2
ATOM      2  O   UNL A   1      35.877  31.171  30.041  1.00  0.00    -0.463 OA
BRANCH   2   3
ATOM      3  C   UNL A   1      34.912  32.116  29.911  1.00  0.00     0.313 C 
ATOM      4  O   UNL A   1      34.379  32.673  30.870  1.00  0.00    -0.252 OA
BRANCH   3   5
ATOM      5  C   UNL A   1      34.514  32.493  28.481  1.00  0.00     0.126 C 
ATOM      6  C   UNL A   1      33.801  33.845  28.510  1.00  0.00     0.025 C 
BRANCH   5   7
ATOM      7  C   UNL A   1      33.764  31.520  27.572  1.00  0.00    -0.031 A 
ATOM      8  C   UNL A   1      32.227  29.754  25.902  1.00  0.00     0.018 A 
ATOM      9  C   UNL A   1      33.472  29.373  26.439  1.00  0.00     0.012 A 
ATOM     10  C   UNL A   1      31.778  31.042  26.216  1.00  0.00     0.131 A 
ATOM     11  C   UNL A   1      34.224  30.233  27.267  1.00  0.00     0.005 A 
ATOM     12  C   UNL A   1      32.518  31.903  27.036  1.00  0.00     0.044 A 
ATOM     13  F   UNL A   1      30.595  31.480  25.758  1.00  0.00    -0.206 F 
BRANCH   8  14
ATOM     14  C   UNL A   1      31.404  28.808  25.115  1.00  0.00    -0.012 A 
ATOM     15  C   UNL A   1      30.495  26.593  24.670  1.00  0.00     0.133 A 
ATOM     16  C   UNL A   1      29.899  27.041  23.493  1.00  0.00     0.047 A 
ATOM     17  C   UNL A   1      31.246  27.455  25.479  1.00  0.00     0.056 A 
ATOM     18  C   UNL A   1      30.040  28.372  23.123  1.00  0.00     0.004 A 
ATOM     19  C   UNL A   1      30.787  29.242  23.925  1.00  0.00     0.009 A 
BRANCH  15  20
ATOM     20  O   UNL A   1      30.422  25.208  24.913  1.00  0.00    -0.410 OA
BRANCH  20  21
ATOM     21  C   UNL A   1      30.231  24.767  26.212  1.00  0.00     0.412 C 
ATOM     22  N   UNL A   1      31.289  24.046  26.701  1.00  0.00    -0.321 N 
ATOM     23  H   UNL A   1      31.240  23.784  27.648  1.00  0.00     0.167 HD
ATOM     24  O   UNL A   1      29.226  24.949  26.894  1.00  0.00    -0.224 OA
BRANCH  22  25
ATOM     25  C   UNL A   1      32.474  23.629  25.975  1.00  0.00     0.119 C 
BRANCH  25  26
ATOM     26  C   UNL A   1      33.667  24.557  26.206  1.00  0.00     0.021 C 
BRANCH  26  27
ATOM     27  C   UNL A   1      34.513  24.852  24.961  1.00  0.00     0.002 C 
BRANCH  27  28
ATOM     28  C   UNL A   1      34.230  23.973  23.737  1.00  0.00    -0.000 C 
BRANCH  28  29
ATOM     29  C   UNL A   1      35.063  22.693  23.632  1.00  0.00    -0.003 C 
ATOM     30  C   UNL A   1      36.526  22.948  23.298  1.00  0.00     0.004 C 
ENDBRANCH  28  29
ENDBRANCH  27  28
ENDBRANCH  26  27
ENDBRANCH  25  26
ENDBRANCH  22  25
ENDBRANCH  20  21
ENDBRANCH  15  20
ENDBRANCH   8  14
ENDBRANCH   5   7
ENDBRANCH   3   5
ENDBRANCH   2   3
ENDBRANCH   1   2
BRANCH   1  31
ATOM     31  C   UNL A   1      37.958  32.517  29.579  1.00  0.00     0.202 C 
BRANCH  31  32
ATOM     32  O   UNL A   1      38.204  33.860  29.977  1.00  0.00    -0.376 OA
BRANCH  32  33
ATOM     33  C   UNL A   1      39.331  34.151  30.795  1.00  0.00     0.188 C 
BRANCH  33  34
ATOM     34  C   UNL A   1      39.121  34.555  32.261  1.00  0.00     0.188 C 
BRANCH  34  35
ATOM     35  O   UNL A   1      38.393  33.613  33.020  1.00  0.00    -0.376 OA
BRANCH  35  36
ATOM     36  C   UNL A   1      37.116  34.023  33.473  1.00  0.00     0.202 C 
BRANCH  36  37
ATOM     37  C   UNL A   1      36.767  33.472  34.859  1.00  0.00     0.261 C 
BRANCH  37  38
ATOM     38  O   UNL A   1      37.883  33.277  35.747  1.00  0.00    -0.460 OA
BRANCH  38  39
ATOM     39  C   UNL A   1      38.043  32.052  36.289  1.00  0.00     0.338 C 
ATOM     40  O   UNL A   1      37.322  31.505  37.113  1.00  0.00    -0.246 OA
BRANCH  39  41
ATOM     41  C   UNL A   1      39.131  31.377  35.555  1.00  0.00     0.060 A 
ATOM     42  C   UNL A   1      40.467  31.625  35.908  1.00  0.00     0.016 A 
ATOM     43  C   UNL A   1      38.826  30.481  34.530  1.00  0.00     0.016 A 
ATOM     44  C   UNL A   1      41.504  30.983  35.224  1.00  0.00     0.010 A 
ATOM     45  C   UNL A   1      39.862  29.864  33.830  1.00  0.00     0.010 A 
ATOM     46  C   UNL A   1      41.205  30.126  34.157  1.00  0.00    -0.014 A 
BRANCH  46  47
ATOM     47  C   UNL A   1      42.257  29.654  33.224  1.00  0.00     0.031 A 
ATOM     48  C   UNL A   1      43.003  28.404  33.591  1.00  0.00     0.074 A 
ATOM     49  C   UNL A   1      42.597  30.350  32.125  1.00  0.00     0.049 A 
ATOM     50  N   UNL A   1      44.116  27.921  33.102  1.00  0.00    -0.248 NA
ATOM     51  C   UNL A   1      42.416  27.594  34.672  1.00  0.00     0.031 C 
ATOM     52  C   UNL A   1      41.915  31.541  31.628  1.00  0.00     0.029 A 
ATOM     53  N   UNL A   1      43.641  30.166  31.249  1.00  0.00    -0.354 N 
ATOM     54  C   UNL A   1      44.369  26.763  33.826  1.00  0.00     0.074 A 
ATOM     55  C   UNL A   1      43.310  26.626  34.801  1.00  0.00     0.031 C 
ATOM     56  C   UNL A   1      42.583  32.009  30.557  1.00  0.00     0.029 A 
ATOM     57  C   UNL A   1      43.767  31.181  30.330  1.00  0.00     0.049 A 
ATOM     58  H   UNL A   1      44.240  29.385  31.277  1.00  0.00     0.167 HD
ATOM     59  C   UNL A   1      45.394  25.891  33.686  1.00  0.00     0.037 A 
ATOM     60  C   UNL A   1      44.756  31.436  29.449  1.00  0.00     0.037 A 
ATOM     61  C   UNL A   1      46.452  26.041  32.723  1.00  0.00     0.049 A 
ATOM     62  C   UNL A   1      45.946  30.507  29.381  1.00  0.00     0.074 A 
ATOM     63  C   UNL A   1      47.552  25.228  32.516  1.00  0.00     0.029 A 
ATOM     64  N   UNL A   1      46.539  27.078  31.807  1.00  0.00    -0.354 N 
ATOM     65  N   UNL A   1      46.191  29.419  30.071  1.00  0.00    -0.248 NA
ATOM     66  C   UNL A   1      47.003  30.844  28.412  1.00  0.00     0.031 C 
ATOM     67  C   UNL A   1      48.329  25.797  31.504  1.00  0.00     0.029 A 
ATOM     68  C   UNL A   1      47.681  26.929  31.039  1.00  0.00     0.049 A 
ATOM     69  H   UNL A   1      45.887  27.810  31.717  1.00  0.00     0.167 HD
ATOM     70  C   UNL A   1      47.399  28.922  29.591  1.00  0.00     0.074 A 
ATOM     71  C   UNL A   1      47.839  29.824  28.551  1.00  0.00     0.031 C 
ATOM     72  C   UNL A   1      48.079  27.815  29.975  1.00  0.00     0.037 A 
BRANCH  59  73
ATOM     73  C   UNL A   1      45.433  24.709  34.607  1.00  0.00     0.064 A 
ATOM     74  C   UNL A   1      44.913  23.464  34.223  1.00  0.00     0.173 A 
ATOM     75  C   UNL A   1      46.035  24.808  35.870  1.00  0.00     0.173 A 
ATOM     76  F   UNL A   1      44.311  23.321  33.032  1.00  0.00    -0.203 F 
ATOM     77  C   UNL A   1      44.979  22.367  35.078  1.00  0.00     0.198 A 
ATOM     78  C   UNL A   1      46.128  23.702  36.708  1.00  0.00     0.198 A 
ATOM     79  F   UNL A   1      46.549  25.977  36.284  1.00  0.00    -0.203 F 
ATOM     80  F   UNL A   1      44.438  21.198  34.706  1.00  0.00    -0.200 F 
ATOM     81  C   UNL A   1      45.595  22.484  36.315  1.00  0.00     0.200 A 
ATOM     82  F   UNL A   1      46.735  23.814  37.898  1.00  0.00    -0.200 F 
ATOM     83  F   UNL A   1      45.670  21.423  37.129  1.00  0.00    -0.200 F 
ENDBRANCH  59  73
BRANCH  60  84
ATOM     84  C   UNL A   1      44.704  32.649  28.587  1.00  0.00     0.064 A 
ATOM     85  C   UNL A   1      45.133  33.896  29.064  1.00  0.00     0.173 A 
ATOM     86  C   UNL A   1      44.168  32.601  27.291  1.00  0.00     0.173 A 
ATOM     87  F   UNL A   1      45.625  34.003  30.307  1.00  0.00    -0.203 F 
ATOM     88  C   UNL A   1      44.996  35.050  28.294  1.00  0.00     0.198 A 
ATOM     89  C   UNL A   1      44.065  33.750  26.508  1.00  0.00     0.198 A 
ATOM     90  F   UNL A   1      43.736  31.436  26.785  1.00  0.00    -0.203 F 
ATOM     91  F   UNL A   1      45.348  36.239  28.805  1.00  0.00    -0.200 F 
ATOM     92  C   UNL A   1      44.466  34.976  27.016  1.00  0.00     0.200 A 
ATOM     93  F   UNL A   1      43.559  33.672  25.270  1.00  0.00    -0.200 F 
ATOM     94  F   UNL A   1      44.326  36.087  26.280  1.00  0.00    -0.200 F 
ENDBRANCH  60  84
BRANCH  72  95
ATOM     95  C   UNL A   1      49.329  27.458  29.223  1.00  0.00     0.064 A 
ATOM     96  C   UNL A   1      49.298  26.687  28.053  1.00  0.00     0.173 A 
ATOM     97  C   UNL A   1      50.566  27.980  29.635  1.00  0.00     0.173 A 
ATOM     98  F   UNL A   1      48.143  26.156  27.625  1.00  0.00    -0.203 F 
ATOM     99  C   UNL A   1      50.462  26.444  27.327  1.00  0.00     0.198 A 
ATOM    100  C   UNL A   1      51.721  27.760  28.891  1.00  0.00     0.198 A 
ATOM    101  F   UNL A   1      50.648  28.733  30.743  1.00  0.00    -0.203 F 
ATOM    102  F   UNL A   1      50.415  25.681  26.227  1.00  0.00    -0.200 F 
ATOM    103  C   UNL A   1      51.669  26.990  27.739  1.00  0.00     0.200 A 
ATOM    104  F   UNL A   1      52.882  28.306  29.280  1.00  0.00    -0.200 F 
ATOM    105  F   UNL A   1      52.782  26.775  27.026  1.00  0.00    -0.200 F 
ENDBRANCH  72  95
ENDBRANCH  46  47
ENDBRANCH  39  41
ENDBRANCH  38  39
ENDBRANCH  37  38
ENDBRANCH  36  37
ENDBRANCH  35  36
ENDBRANCH  34  35
ENDBRANCH  33  34
ENDBRANCH  32  33
ENDBRANCH  31  32
ENDBRANCH   1  31
TORSDOF 26
ENDMDL
MODEL 3
REMARK VINA RESULT:      -7.3      7.451     12.197
REMARK SMILES CCCCCCNC(=O)Oc1cccc(-c2ccc([C@@H](C)C(=O)OCCOCCOCCOC(=O)c3ccc(-c4c5nc(c(-c6c(F)c(F)c(F)c(F)c6F)c6ccc([nH]6)c(-c6c(F)c(F)c(F)c(F)c6F)c6nc(c(-c7c(F)c(F)c(F)c(F)c7F)c7ccc4[nH]7)C=C6)C=C5)cc3)cc2F)c1
REMARK SMILES IDX 25 1 24 2 22 3 23 4 20 5 21 6 19 7 16 8 17 9 100 10 18 11
REMARK SMILES IDX 99 12 101 13 15 14 11 15 12 16 102 17 13 18 14 19 10 20 8 21
REMARK SMILES IDX 7 22 9 24 6 25 5 26 4 27 3 28 2 29 1 30 26 31 27 32 28 33
REMARK SMILES IDX 29 34 30 35 31 36 32 37 33 38 34 39 35 40 36 41 37 42 98 43
REMARK SMILES IDX 38 44 97 45 39 46 40 47 41 48 91 49 42 50 96 51 90 52 92 53
REMARK SMILES IDX 43 54 95 55 89 56 88 57 44 59 76 60 56 61 75 62 57 63 60 64
REMARK SMILES IDX 74 65 93 66 58 67 59 68 73 70 94 71 61 72 45 73 46 74 54 75
REMARK SMILES IDX 47 76 48 77 52 78 55 79 49 80 50 81 53 82 51 83 77 84 78 85
REMARK SMILES IDX 86 86 79 87 80 88 84 89 87 90 81 91 82 92 85 93 83 94 62 95
REMARK SMILES IDX 63 96 71 97 64 98 65 99 69 100 72 101 66 102 67 103 70 104
REMARK SMILES IDX 68 105
REMARK H PARENT 7 23 92 58 60 69
REMARK Flexibility Score: inf
ROOT
ATOM      1  C   UNL A   1      45.625  23.152  26.522  1.00  0.00     0.261 C 
ENDROOT
BRANCH   1   2
ATOM      2  O   UNL A   1      46.894  23.755  26.174  1.00  0.00    -0.463 OA
BRANCH   2   3
ATOM      3  C   UNL A   1      46.938  24.435  25.001  1.00  0.00     0.313 C 
ATOM      4  O   UNL A   1      46.671  23.923  23.914  1.00  0.00    -0.252 OA
BRANCH   3   5
ATOM      5  C   UNL A   1      47.324  25.915  25.084  1.00  0.00     0.126 C 
ATOM      6  C   UNL A   1      46.054  26.743  25.272  1.00  0.00     0.025 C 
BRANCH   5   7
ATOM      7  C   UNL A   1      48.231  26.568  24.042  1.00  0.00    -0.031 A 
ATOM      8  C   UNL A   1      49.827  27.790  21.985  1.00  0.00     0.018 A 
ATOM      9  C   UNL A   1      50.407  27.065  23.044  1.00  0.00     0.012 A 
ATOM     10  C   UNL A   1      48.431  27.893  21.989  1.00  0.00     0.131 A 
ATOM     11  C   UNL A   1      49.627  26.456  24.049  1.00  0.00     0.005 A 
ATOM     12  C   UNL A   1      47.649  27.293  22.983  1.00  0.00     0.044 A 
ATOM     13  F   UNL A   1      47.796  28.554  21.008  1.00  0.00    -0.206 F 
BRANCH   8  14
ATOM     14  C   UNL A   1      50.651  28.341  20.885  1.00  0.00    -0.012 A 
ATOM     15  C   UNL A   1      52.058  28.098  18.913  1.00  0.00     0.133 A 
ATOM     16  C   UNL A   1      52.300  29.471  18.879  1.00  0.00     0.047 A 
ATOM     17  C   UNL A   1      51.248  27.527  19.903  1.00  0.00     0.056 A 
ATOM     18  C   UNL A   1      51.714  30.288  19.837  1.00  0.00     0.004 A 
ATOM     19  C   UNL A   1      50.903  29.727  20.829  1.00  0.00     0.009 A 
BRANCH  15  20
ATOM     20  O   UNL A   1      52.787  27.319  17.995  1.00  0.00    -0.410 OA
BRANCH  20  21
ATOM     21  C   UNL A   1      52.302  27.175  16.706  1.00  0.00     0.412 C 
ATOM     22  N   UNL A   1      51.724  25.954  16.476  1.00  0.00    -0.321 N 
ATOM     23  H   UNL A   1      51.287  25.833  15.603  1.00  0.00     0.167 HD
ATOM     24  O   UNL A   1      52.378  28.013  15.811  1.00  0.00    -0.224 OA
BRANCH  22  25
ATOM     25  C   UNL A   1      51.687  24.819  17.380  1.00  0.00     0.119 C 
BRANCH  25  26
ATOM     26  C   UNL A   1      50.418  23.981  17.225  1.00  0.00     0.021 C 
BRANCH  26  27
ATOM     27  C   UNL A   1      50.166  22.967  18.349  1.00  0.00     0.002 C 
BRANCH  27  28
ATOM     28  C   UNL A   1      51.411  22.472  19.093  1.00  0.00    -0.000 C 
BRANCH  28  29
ATOM     29  C   UNL A   1      51.982  21.134  18.617  1.00  0.00    -0.003 C 
ATOM     30  C   UNL A   1      52.406  20.216  19.755  1.00  0.00     0.004 C 
ENDBRANCH  28  29
ENDBRANCH  27  28
ENDBRANCH  26  27
ENDBRANCH  25  26
ENDBRANCH  22  25
ENDBRANCH  20  21
ENDBRANCH  15  20
ENDBRANCH   8  14
ENDBRANCH   5   7
ENDBRANCH   3   5
ENDBRANCH   2   3
ENDBRANCH   1   2
BRANCH   1  31
ATOM     31  C   UNL A   1      45.319  21.815  25.830  1.00  0.00     0.202 C 
BRANCH  31  32
ATOM     32  O   UNL A   1      44.264  21.789  24.878  1.00  0.00    -0.376 OA
BRANCH  32  33
ATOM     33  C   UNL A   1      43.175  22.695  25.016  1.00  0.00     0.188 C 
BRANCH  33  34
ATOM     34  C   UNL A   1      42.056  22.389  26.022  1.00  0.00     0.188 C 
BRANCH  34  35
ATOM     35  O   UNL A   1      41.690  21.027  26.080  1.00  0.00    -0.376 OA
BRANCH  35  36
ATOM     36  C   UNL A   1      40.368  20.750  26.505  1.00  0.00     0.202 C 
BRANCH  36  37
ATOM     37  C   UNL A   1      39.309  21.529  25.719  1.00  0.00     0.261 C 
BRANCH  37  38
ATOM     38  O   UNL A   1      38.455  22.379  26.507  1.00  0.00    -0.460 OA
BRANCH  38  39
ATOM     39  C   UNL A   1      38.180  23.608  26.023  1.00  0.00     0.338 C 
ATOM     40  O   UNL A   1      37.257  23.925  25.283  1.00  0.00    -0.246 OA
BRANCH  39  41
ATOM     41  C   UNL A   1      39.062  24.568  26.714  1.00  0.00     0.060 A 
ATOM     42  C   UNL A   1      39.048  24.642  28.116  1.00  0.00     0.016 A 
ATOM     43  C   UNL A   1      39.921  25.380  25.973  1.00  0.00     0.016 A 
ATOM     44  C   UNL A   1      39.887  25.542  28.780  1.00  0.00     0.010 A 
ATOM     45  C   UNL A   1      40.737  26.297  26.634  1.00  0.00     0.010 A 
ATOM     46  C   UNL A   1      40.710  26.400  28.037  1.00  0.00    -0.014 A 
BRANCH  46  47
ATOM     47  C   UNL A   1      41.393  27.556  28.667  1.00  0.00     0.031 A 
ATOM     48  C   UNL A   1      40.540  28.699  29.135  1.00  0.00     0.074 A 
ATOM     49  C   UNL A   1      42.733  27.629  28.752  1.00  0.00     0.049 A 
ATOM     50  N   UNL A   1      40.885  29.914  29.477  1.00  0.00    -0.248 NA
ATOM     51  C   UNL A   1      39.093  28.438  29.213  1.00  0.00     0.031 C 
ATOM     52  C   UNL A   1      43.667  26.567  28.390  1.00  0.00     0.029 A 
ATOM     53  N   UNL A   1      43.540  28.673  29.138  1.00  0.00    -0.354 N 
ATOM     54  C   UNL A   1      39.699  30.562  29.795  1.00  0.00     0.074 A 
ATOM     55  C   UNL A   1      38.624  29.619  29.583  1.00  0.00     0.031 C 
ATOM     56  C   UNL A   1      44.924  27.028  28.532  1.00  0.00     0.029 A 
ATOM     57  C   UNL A   1      44.878  28.431  28.940  1.00  0.00     0.049 A 
ATOM     58  H   UNL A   1      43.193  29.513  29.520  1.00  0.00     0.167 HD
ATOM     59  C   UNL A   1      39.524  31.833  30.226  1.00  0.00     0.037 A 
ATOM     60  C   UNL A   1      45.934  29.267  29.026  1.00  0.00     0.037 A 
ATOM     61  C   UNL A   1      40.597  32.771  30.420  1.00  0.00     0.049 A 
ATOM     62  C   UNL A   1      45.706  30.712  29.408  1.00  0.00     0.074 A 
ATOM     63  C   UNL A   1      40.526  34.090  30.829  1.00  0.00     0.029 A 
ATOM     64  N   UNL A   1      41.938  32.485  30.214  1.00  0.00    -0.354 N 
ATOM     65  N   UNL A   1      44.585  31.328  29.698  1.00  0.00    -0.248 NA
ATOM     66  C   UNL A   1      46.893  31.582  29.470  1.00  0.00     0.031 C 
ATOM     67  C   UNL A   1      41.820  34.617  30.829  1.00  0.00     0.029 A 
ATOM     68  C   UNL A   1      42.703  33.607  30.480  1.00  0.00     0.049 A 
ATOM     69  H   UNL A   1      42.292  31.613  29.924  1.00  0.00     0.167 HD
ATOM     70  C   UNL A   1      44.936  32.635  30.018  1.00  0.00     0.074 A 
ATOM     71  C   UNL A   1      46.373  32.727  29.888  1.00  0.00     0.031 C 
ATOM     72  C   UNL A   1      44.139  33.666  30.389  1.00  0.00     0.037 A 
BRANCH  59  73
ATOM     73  C   UNL A   1      38.123  32.289  30.498  1.00  0.00     0.064 A 
ATOM     74  C   UNL A   1      37.372  32.968  29.526  1.00  0.00     0.173 A 
ATOM     75  C   UNL A   1      37.507  32.008  31.727  1.00  0.00     0.173 A 
ATOM     76  F   UNL A   1      37.921  33.275  28.341  1.00  0.00    -0.203 F 
ATOM     77  C   UNL A   1      36.062  33.364  29.783  1.00  0.00     0.198 A 
ATOM     78  C   UNL A   1      36.188  32.378  31.968  1.00  0.00     0.198 A 
ATOM     79  F   UNL A   1      38.182  31.361  32.689  1.00  0.00    -0.203 F 
ATOM     80  F   UNL A   1      35.378  34.047  28.855  1.00  0.00    -0.200 F 
ATOM     81  C   UNL A   1      35.468  33.059  30.998  1.00  0.00     0.200 A 
ATOM     82  F   UNL A   1      35.611  32.071  33.138  1.00  0.00    -0.200 F 
ATOM     83  F   UNL A   1      34.203  33.429  31.237  1.00  0.00    -0.200 F 
ENDBRANCH  59  73
BRANCH  60  84
ATOM     84  C   UNL A   1      47.305  28.787  28.699  1.00  0.00     0.064 A 
ATOM     85  C   UNL A   1      48.087  28.121  29.654  1.00  0.00     0.173 A 
ATOM     86  C   UNL A   1      47.886  29.038  27.447  1.00  0.00     0.173 A 
ATOM     87  F   UNL A   1      47.591  27.883  30.877  1.00  0.00    -0.203 F 
ATOM     88  C   UNL A   1      49.404  27.756  29.382  1.00  0.00     0.198 A 
ATOM     89  C   UNL A   1      49.193  28.641  27.163  1.00  0.00     0.198 A 
ATOM     90  F   UNL A   1      47.187  29.678  26.497  1.00  0.00    -0.203 F 
ATOM     91  F   UNL A   1      50.150  27.186  30.338  1.00  0.00    -0.200 F 
ATOM     92  C   UNL A   1      49.955  28.013  28.136  1.00  0.00     0.200 A 
ATOM     93  F   UNL A   1      49.717  28.884  25.955  1.00  0.00    -0.200 F 
ATOM     94  F   UNL A   1      51.225  27.672  27.877  1.00  0.00    -0.200 F 
ENDBRANCH  60  84
BRANCH  72  95
ATOM     95  C   UNL A   1      44.793  34.964  30.766  1.00  0.00     0.064 A 
ATOM     96  C   UNL A   1      45.331  35.183  32.042  1.00  0.00     0.173 A 
ATOM     97  C   UNL A   1      44.965  35.967  29.798  1.00  0.00     0.173 A 
ATOM     98  F   UNL A   1      45.183  34.261  33.004  1.00  0.00    -0.203 F 
ATOM     99  C   UNL A   1      46.009  36.363  32.337  1.00  0.00     0.198 A 
ATOM    100  C   UNL A   1      45.669  37.132  30.089  1.00  0.00     0.198 A 
ATOM    101  F   UNL A   1      44.477  35.802  28.559  1.00  0.00    -0.203 F 
ATOM    102  F   UNL A   1      46.491  36.565  33.571  1.00  0.00    -0.200 F 
ATOM    103  C   UNL A   1      46.188  37.330  31.358  1.00  0.00     0.200 A 
ATOM    104  F   UNL A   1      45.857  38.056  29.136  1.00  0.00    -0.200 F 
ATOM    105  F   UNL A   1      46.862  38.454  31.639  1.00  0.00    -0.200 F 
ENDBRANCH  72  95
ENDBRANCH  46  47
ENDBRANCH  39  41
ENDBRANCH  38  39
ENDBRANCH  37  38
ENDBRANCH  36  37
ENDBRANCH  35  36
ENDBRANCH  34  35
ENDBRANCH  33  34
ENDBRANCH  32  33
ENDBRANCH  31  32
ENDBRANCH   1  31
TORSDOF 26
ENDMDL
