MODEL 1
REMARK VINA RESULT:      -7.5      0.000      0.000
REMARK SMILES O=C(OCCOCCOCCOC(=O)[C@H](NC(=O)[C@H]1CC(=O)N(CC2CC2)C1)c1ccccc1C(F)(F)F)c1ccc(-c2c3nc(c(-c4c(F)c(F)c(F)c(F)c4F)c4ccc([nH]4)c(-c4c(F)c(F)c(F)c(F)c4F)c4nc(c(-c5c(F)c(F)c(F)c(F)c5F)c5ccc2[nH]5)C=C4)C=C3)cc1
REMARK SMILES IDX 8 1 7 2 6 3 5 4 4 5 3 6 2 7 1 8 39 9 40 10 101 11 41 12
REMARK SMILES IDX 100 13 42 14 43 15 44 16 94 17 45 18 99 19 93 20 95 21 46 22
REMARK SMILES IDX 98 23 92 24 91 25 47 27 79 28 59 29 78 30 60 31 63 32 77 33
REMARK SMILES IDX 96 34 61 35 62 36 76 38 97 39 64 40 48 41 49 42 57 43 50 44
REMARK SMILES IDX 51 45 55 46 58 47 52 48 53 49 56 50 54 51 80 52 81 53 89 54
REMARK SMILES IDX 82 55 83 56 87 57 90 58 84 59 85 60 88 61 86 62 65 63 66 64
REMARK SMILES IDX 74 65 67 66 68 67 72 68 75 69 69 70 70 71 73 72 71 73 9 74
REMARK SMILES IDX 10 75 11 76 12 77 13 78 14 79 15 80 29 81 30 82 34 83 31 84
REMARK SMILES IDX 33 85 32 86 35 87 36 88 37 89 38 90 16 91 17 92 18 94 19 95
REMARK SMILES IDX 20 96 28 97 21 98 23 99 22 100 24 101 25 102 26 103 27 104
REMARK H PARENT 95 26 63 37 16 93
REMARK Flexibility Score: inf
ROOT
ATOM      1  C   UNL A   1      33.462  35.023  30.696  1.00  0.00     0.188 C 
ENDROOT
BRANCH   1   2
ATOM      2  C   UNL A   1      33.559  35.785  32.021  1.00  0.00     0.188 C 
BRANCH   2   3
ATOM      3  O   UNL A   1      34.823  35.893  32.677  1.00  0.00    -0.376 OA
BRANCH   3   4
ATOM      4  C   UNL A   1      34.773  35.328  34.003  1.00  0.00     0.202 C 
BRANCH   4   5
ATOM      5  C   UNL A   1      35.171  33.834  34.147  1.00  0.00     0.261 C 
BRANCH   5   6
ATOM      6  O   UNL A   1      36.591  33.606  34.166  1.00  0.00    -0.460 OA
BRANCH   6   7
ATOM      7  C   UNL A   1      37.233  32.940  35.158  1.00  0.00     0.338 C 
ATOM      8  O   UNL A   1      37.028  33.240  36.330  1.00  0.00    -0.246 OA
BRANCH   7   9
ATOM      9  C   UNL A   1      38.378  32.038  34.816  1.00  0.00     0.060 A 
ATOM     10  C   UNL A   1      38.362  30.650  34.958  1.00  0.00     0.016 A 
ATOM     11  C   UNL A   1      39.540  32.629  34.292  1.00  0.00     0.016 A 
ATOM     12  C   UNL A   1      39.451  29.863  34.618  1.00  0.00     0.010 A 
ATOM     13  C   UNL A   1      40.641  31.842  33.930  1.00  0.00     0.010 A 
ATOM     14  C   UNL A   1      40.606  30.453  34.119  1.00  0.00    -0.014 A 
BRANCH  14  15
ATOM     15  C   UNL A   1      41.830  29.626  34.093  1.00  0.00     0.031 A 
ATOM     16  C   UNL A   1      42.160  28.958  32.793  1.00  0.00     0.074 A 
ATOM     17  C   UNL A   1      42.695  29.621  35.125  1.00  0.00     0.049 A 
ATOM     18  N   UNL A   1      43.175  28.203  32.476  1.00  0.00    -0.248 NA
ATOM     19  C   UNL A   1      41.213  29.187  31.686  1.00  0.00     0.031 C 
ATOM     20  C   UNL A   1      42.510  30.340  36.383  1.00  0.00     0.029 A 
ATOM     21  N   UNL A   1      43.915  29.014  35.269  1.00  0.00    -0.354 N 
ATOM     22  C   UNL A   1      42.974  27.857  31.148  1.00  0.00     0.074 A 
ATOM     23  C   UNL A   1      41.715  28.425  30.732  1.00  0.00     0.031 C 
ATOM     24  C   UNL A   1      43.578  30.136  37.174  1.00  0.00     0.029 A 
ATOM     25  C   UNL A   1      44.503  29.238  36.491  1.00  0.00     0.049 A 
ATOM     26  H   UNL A   1      44.332  28.468  34.563  1.00  0.00     0.167 HD
ATOM     27  C   UNL A   1      43.789  27.153  30.333  1.00  0.00     0.037 A 
ATOM     28  C   UNL A   1      45.651  28.747  36.996  1.00  0.00     0.037 A 
ATOM     29  C   UNL A   1      45.044  26.612  30.763  1.00  0.00     0.049 A 
ATOM     30  C   UNL A   1      46.486  27.859  36.106  1.00  0.00     0.074 A 
ATOM     31  C   UNL A   1      45.943  25.842  30.053  1.00  0.00     0.029 A 
ATOM     32  N   UNL A   1      45.575  26.795  32.034  1.00  0.00    -0.354 N 
ATOM     33  N   UNL A   1      46.280  27.512  34.856  1.00  0.00    -0.248 NA
ATOM     34  C   UNL A   1      47.715  27.304  36.686  1.00  0.00     0.031 C 
ATOM     35  C   UNL A   1      46.997  25.515  30.913  1.00  0.00     0.029 A 
ATOM     36  C   UNL A   1      46.785  26.135  32.138  1.00  0.00     0.049 A 
ATOM     37  H   UNL A   1      45.153  27.317  32.754  1.00  0.00     0.167 HD
ATOM     38  C   UNL A   1      47.366  26.731  34.489  1.00  0.00     0.074 A 
ATOM     39  C   UNL A   1      48.237  26.670  35.647  1.00  0.00     0.031 C 
ATOM     40  C   UNL A   1      47.628  26.120  33.307  1.00  0.00     0.037 A 
BRANCH  27  41
ATOM     41  C   UNL A   1      43.298  26.911  28.937  1.00  0.00     0.064 A 
ATOM     42  C   UNL A   1      43.316  27.920  27.959  1.00  0.00     0.173 A 
ATOM     43  C   UNL A   1      42.723  25.679  28.598  1.00  0.00     0.173 A 
ATOM     44  F   UNL A   1      43.818  29.131  28.246  1.00  0.00    -0.203 F 
ATOM     45  C   UNL A   1      42.732  27.717  26.711  1.00  0.00     0.198 A 
ATOM     46  C   UNL A   1      42.173  25.469  27.336  1.00  0.00     0.198 A 
ATOM     47  F   UNL A   1      42.669  24.686  29.498  1.00  0.00    -0.203 F 
ATOM     48  F   UNL A   1      42.680  28.724  25.827  1.00  0.00    -0.200 F 
ATOM     49  C   UNL A   1      42.165  26.492  26.399  1.00  0.00     0.200 A 
ATOM     50  F   UNL A   1      41.627  24.282  27.035  1.00  0.00    -0.200 F 
ATOM     51  F   UNL A   1      41.590  26.303  25.203  1.00  0.00    -0.200 F 
ENDBRANCH  27  41
BRANCH  28  52
ATOM     52  C   UNL A   1      46.072  29.060  38.391  1.00  0.00     0.064 A 
ATOM     53  C   UNL A   1      46.887  30.164  38.679  1.00  0.00     0.173 A 
ATOM     54  C   UNL A   1      45.703  28.233  39.465  1.00  0.00     0.173 A 
ATOM     55  F   UNL A   1      47.285  30.979  37.691  1.00  0.00    -0.203 F 
ATOM     56  C   UNL A   1      47.340  30.412  39.976  1.00  0.00     0.198 A 
ATOM     57  C   UNL A   1      46.132  28.499  40.766  1.00  0.00     0.198 A 
ATOM     58  F   UNL A   1      44.927  27.161  39.253  1.00  0.00    -0.203 F 
ATOM     59  F   UNL A   1      48.165  31.442  40.209  1.00  0.00    -0.200 F 
ATOM     60  C   UNL A   1      46.959  29.581  41.018  1.00  0.00     0.200 A 
ATOM     61  F   UNL A   1      45.751  27.698  41.771  1.00  0.00    -0.200 F 
ATOM     62  F   UNL A   1      47.401  29.815  42.262  1.00  0.00    -0.200 F 
ENDBRANCH  28  52
BRANCH  40  63
ATOM     63  C   UNL A   1      48.927  25.381  33.193  1.00  0.00     0.064 A 
ATOM     64  C   UNL A   1      49.064  24.056  33.630  1.00  0.00     0.173 A 
ATOM     65  C   UNL A   1      50.030  25.992  32.577  1.00  0.00     0.173 A 
ATOM     66  F   UNL A   1      48.040  23.436  34.236  1.00  0.00    -0.203 F 
ATOM     67  C   UNL A   1      50.267  23.376  33.475  1.00  0.00     0.198 A 
ATOM     68  C   UNL A   1      51.219  25.297  32.390  1.00  0.00     0.198 A 
ATOM     69  F   UNL A   1      49.944  27.256  32.134  1.00  0.00    -0.203 F 
ATOM     70  F   UNL A   1      50.393  22.127  33.943  1.00  0.00    -0.200 F 
ATOM     71  C   UNL A   1      51.339  23.993  32.845  1.00  0.00     0.200 A 
ATOM     72  F   UNL A   1      52.246  25.886  31.763  1.00  0.00    -0.200 F 
ATOM     73  F   UNL A   1      52.492  23.330  32.683  1.00  0.00    -0.200 F 
ENDBRANCH  40  63
ENDBRANCH  14  15
ENDBRANCH   7   9
ENDBRANCH   6   7
ENDBRANCH   5   6
ENDBRANCH   4   5
ENDBRANCH   3   4
ENDBRANCH   2   3
ENDBRANCH   1   2
BRANCH   1  74
ATOM     74  O   UNL A   1      33.469  35.794  29.506  1.00  0.00    -0.376 OA
BRANCH  74  75
ATOM     75  C   UNL A   1      34.141  35.212  28.397  1.00  0.00     0.202 C 
BRANCH  75  76
ATOM     76  C   UNL A   1      33.876  33.717  28.124  1.00  0.00     0.261 C 
BRANCH  76  77
ATOM     77  O   UNL A   1      35.021  32.985  27.626  1.00  0.00    -0.461 OA
BRANCH  77  78
ATOM     78  C   UNL A   1      35.170  31.694  28.069  1.00  0.00     0.333 C 
ATOM     79  O   UNL A   1      34.343  30.812  27.867  1.00  0.00    -0.249 OA
BRANCH  78  80
ATOM     80  C   UNL A   1      36.463  31.509  28.947  1.00  0.00     0.224 C 
BRANCH  80  81
ATOM     81  C   UNL A   1      37.304  30.267  28.612  1.00  0.00    -0.002 A 
ATOM     82  C   UNL A   1      37.781  30.086  27.291  1.00  0.00     0.007 A 
ATOM     83  C   UNL A   1      37.774  29.371  29.616  1.00  0.00     0.061 A 
ATOM     84  C   UNL A   1      38.781  29.154  26.993  1.00  0.00     0.000 A 
ATOM     85  C   UNL A   1      38.797  28.450  29.288  1.00  0.00     0.013 A 
ATOM     86  C   UNL A   1      39.313  28.360  27.999  1.00  0.00     0.001 A 
BRANCH  83  87
ATOM     87  C   UNL A   1      37.306  29.332  31.062  1.00  0.00     0.416 C 
ATOM     88  F   UNL A   1      35.945  29.324  31.147  1.00  0.00    -0.166 F 
ATOM     89  F   UNL A   1      37.717  28.207  31.704  1.00  0.00    -0.166 F 
ATOM     90  F   UNL A   1      37.702  30.384  31.820  1.00  0.00    -0.166 F 
ENDBRANCH  83  87
ENDBRANCH  80  81
BRANCH  80  91
ATOM     91  N   UNL A   1      37.281  32.767  29.018  1.00  0.00    -0.339 N 
ATOM     92  C   UNL A   1      37.677  33.403  30.163  1.00  0.00     0.226 C 
ATOM     93  H   UNL A   1      37.558  33.171  28.165  1.00  0.00     0.164 HD
ATOM     94  O   UNL A   1      36.921  34.238  30.651  1.00  0.00    -0.275 OA
BRANCH  92  95
ATOM     95  C   UNL A   1      39.055  33.157  30.789  1.00  0.00     0.107 C 
ATOM     96  C   UNL A   1      39.925  32.159  30.060  1.00  0.00     0.115 C 
ATOM     97  C   UNL A   1      39.964  34.380  30.953  1.00  0.00     0.133 C 
ATOM     98  C   UNL A   1      41.336  32.591  30.251  1.00  0.00     0.223 C 
ATOM     99  N   UNL A   1      41.313  33.870  30.755  1.00  0.00    -0.342 N 
ATOM    100  O   UNL A   1      42.308  31.919  29.966  1.00  0.00    -0.275 OA
BRANCH  99 101
ATOM    101  C   UNL A   1      42.535  34.578  31.094  1.00  0.00     0.123 C 
BRANCH 101 102
ATOM    102  C   UNL A   1      43.271  35.127  29.904  1.00  0.00     0.008 C 
ATOM    103  C   UNL A   1      42.570  35.695  28.706  1.00  0.00     0.006 C 
ATOM    104  C   UNL A   1      43.262  36.621  29.648  1.00  0.00     0.006 C 
ENDBRANCH 101 102
ENDBRANCH  99 101
ENDBRANCH  92  95
ENDBRANCH  80  91
ENDBRANCH  78  80
ENDBRANCH  77  78
ENDBRANCH  76  77
ENDBRANCH  75  76
ENDBRANCH  74  75
ENDBRANCH   1  74
TORSDOF 23
ENDMDL
MODEL 2
REMARK VINA RESULT:      -7.5      5.376     11.363
REMARK SMILES O=C(OCCOCCOCCOC(=O)[C@H](NC(=O)[C@H]1CC(=O)N(CC2CC2)C1)c1ccccc1C(F)(F)F)c1ccc(-c2c3nc(c(-c4c(F)c(F)c(F)c(F)c4F)c4ccc([nH]4)c(-c4c(F)c(F)c(F)c(F)c4F)c4nc(c(-c5c(F)c(F)c(F)c(F)c5F)c5ccc2[nH]5)C=C4)C=C3)cc1
REMARK SMILES IDX 8 1 7 2 6 3 5 4 4 5 3 6 2 7 1 8 39 9 40 10 101 11 41 12
REMARK SMILES IDX 100 13 42 14 43 15 44 16 94 17 45 18 99 19 93 20 95 21 46 22
REMARK SMILES IDX 98 23 92 24 91 25 47 27 79 28 59 29 78 30 60 31 63 32 77 33
REMARK SMILES IDX 96 34 61 35 62 36 76 38 97 39 64 40 48 41 49 42 57 43 50 44
REMARK SMILES IDX 51 45 55 46 58 47 52 48 53 49 56 50 54 51 80 52 81 53 89 54
REMARK SMILES IDX 82 55 83 56 87 57 90 58 84 59 85 60 88 61 86 62 65 63 66 64
REMARK SMILES IDX 74 65 67 66 68 67 72 68 75 69 69 70 70 71 73 72 71 73 9 74
REMARK SMILES IDX 10 75 11 76 12 77 13 78 14 79 15 80 29 81 30 82 34 83 31 84
REMARK SMILES IDX 33 85 32 86 35 87 36 88 37 89 38 90 16 91 17 92 18 94 19 95
REMARK SMILES IDX 20 96 28 97 21 98 23 99 22 100 24 101 25 102 26 103 27 104
REMARK H PARENT 95 26 63 37 16 93
REMARK Flexibility Score: inf
ROOT
ATOM      1  C   UNL A   1      45.046  20.065  24.770  1.00  0.00     0.188 C 
ENDROOT
BRANCH   1   2
ATOM      2  C   UNL A   1      43.650  19.840  25.359  1.00  0.00     0.188 C 
BRANCH   2   3
ATOM      3  O   UNL A   1      42.831  20.967  25.676  1.00  0.00    -0.376 OA
BRANCH   3   4
ATOM      4  C   UNL A   1      41.563  20.553  26.222  1.00  0.00     0.202 C 
BRANCH   4   5
ATOM      5  C   UNL A   1      40.734  21.630  26.973  1.00  0.00     0.261 C 
BRANCH   5   6
ATOM      6  O   UNL A   1      40.321  22.732  26.145  1.00  0.00    -0.460 OA
BRANCH   6   7
ATOM      7  C   UNL A   1      39.292  23.561  26.454  1.00  0.00     0.338 C 
ATOM      8  O   UNL A   1      38.190  23.385  25.945  1.00  0.00    -0.246 OA
BRANCH   7   9
ATOM      9  C   UNL A   1      39.570  24.833  27.192  1.00  0.00     0.060 A 
ATOM     10  C   UNL A   1      40.241  25.930  26.654  1.00  0.00     0.016 A 
ATOM     11  C   UNL A   1      39.099  24.937  28.512  1.00  0.00     0.016 A 
ATOM     12  C   UNL A   1      40.464  27.088  27.383  1.00  0.00     0.010 A 
ATOM     13  C   UNL A   1      39.304  26.108  29.254  1.00  0.00     0.010 A 
ATOM     14  C   UNL A   1      40.014  27.180  28.695  1.00  0.00    -0.014 A 
BRANCH  14  15
ATOM     15  C   UNL A   1      40.561  28.275  29.521  1.00  0.00     0.031 A 
ATOM     16  C   UNL A   1      39.632  29.410  29.830  1.00  0.00     0.074 A 
ATOM     17  C   UNL A   1      41.766  28.172  30.113  1.00  0.00     0.049 A 
ATOM     18  N   UNL A   1      39.832  30.481  30.547  1.00  0.00    -0.248 NA
ATOM     19  C   UNL A   1      38.277  29.315  29.257  1.00  0.00     0.031 C 
ATOM     20  C   UNL A   1      42.685  27.047  29.963  1.00  0.00     0.029 A 
ATOM     21  N   UNL A   1      42.412  29.012  30.983  1.00  0.00    -0.354 N 
ATOM     22  C   UNL A   1      38.639  31.186  30.491  1.00  0.00     0.074 A 
ATOM     23  C   UNL A   1      37.741  30.464  29.624  1.00  0.00     0.031 C 
ATOM     24  C   UNL A   1      43.779  27.262  30.715  1.00  0.00     0.029 A 
ATOM     25  C   UNL A   1      43.652  28.561  31.368  1.00  0.00     0.049 A 
ATOM     26  H   UNL A   1      42.024  29.859  31.302  1.00  0.00     0.167 HD
ATOM     27  C   UNL A   1      38.308  32.325  31.138  1.00  0.00     0.037 A 
ATOM     28  C   UNL A   1      44.579  29.153  32.145  1.00  0.00     0.037 A 
ATOM     29  C   UNL A   1      39.210  33.017  32.009  1.00  0.00     0.049 A 
ATOM     30  C   UNL A   1      44.232  30.487  32.758  1.00  0.00     0.074 A 
ATOM     31  C   UNL A   1      39.018  34.203  32.688  1.00  0.00     0.029 A 
ATOM     32  N   UNL A   1      40.490  32.570  32.319  1.00  0.00    -0.354 N 
ATOM     33  N   UNL A   1      43.110  31.166  32.683  1.00  0.00    -0.248 NA
ATOM     34  C   UNL A   1      45.269  31.134  33.572  1.00  0.00     0.031 C 
ATOM     35  C   UNL A   1      40.203  34.501  33.371  1.00  0.00     0.029 A 
ATOM     36  C   UNL A   1      41.109  33.468  33.167  1.00  0.00     0.049 A 
ATOM     37  H   UNL A   1      40.894  31.738  31.983  1.00  0.00     0.167 HD
ATOM     38  C   UNL A   1      43.291  32.297  33.465  1.00  0.00     0.074 A 
ATOM     39  C   UNL A   1      44.629  32.204  34.019  1.00  0.00     0.031 C 
ATOM     40  C   UNL A   1      42.436  33.321  33.710  1.00  0.00     0.037 A 
BRANCH  27  41
ATOM     41  C   UNL A   1      36.941  32.879  30.868  1.00  0.00     0.064 A 
ATOM     42  C   UNL A   1      36.653  33.606  29.700  1.00  0.00     0.173 A 
ATOM     43  C   UNL A   1      35.929  32.752  31.828  1.00  0.00     0.173 A 
ATOM     44  F   UNL A   1      37.600  33.791  28.768  1.00  0.00    -0.203 F 
ATOM     45  C   UNL A   1      35.418  34.226  29.530  1.00  0.00     0.198 A 
ATOM     46  C   UNL A   1      34.683  33.344  31.637  1.00  0.00     0.198 A 
ATOM     47  F   UNL A   1      36.155  32.079  32.966  1.00  0.00    -0.203 F 
ATOM     48  F   UNL A   1      35.198  34.991  28.450  1.00  0.00    -0.200 F 
ATOM     49  C   UNL A   1      34.433  34.093  30.496  1.00  0.00     0.200 A 
ATOM     50  F   UNL A   1      33.731  33.212  32.571  1.00  0.00    -0.200 F 
ATOM     51  F   UNL A   1      33.250  34.703  30.338  1.00  0.00    -0.200 F 
ENDBRANCH  27  41
BRANCH  28  52
ATOM     52  C   UNL A   1      45.906  28.516  32.377  1.00  0.00     0.064 A 
ATOM     53  C   UNL A   1      46.070  27.483  33.312  1.00  0.00     0.173 A 
ATOM     54  C   UNL A   1      47.054  28.957  31.697  1.00  0.00     0.173 A 
ATOM     55  F   UNL A   1      45.013  27.033  34.003  1.00  0.00    -0.203 F 
ATOM     56  C   UNL A   1      47.327  26.940  33.580  1.00  0.00     0.198 A 
ATOM     57  C   UNL A   1      48.305  28.393  31.944  1.00  0.00     0.198 A 
ATOM     58  F   UNL A   1      46.962  29.942  30.793  1.00  0.00    -0.203 F 
ATOM     59  F   UNL A   1      47.459  25.995  34.520  1.00  0.00    -0.200 F 
ATOM     60  C   UNL A   1      48.443  27.394  32.893  1.00  0.00     0.200 A 
ATOM     61  F   UNL A   1      49.379  28.827  31.269  1.00  0.00    -0.200 F 
ATOM     62  F   UNL A   1      49.652  26.877  33.157  1.00  0.00    -0.200 F 
ENDBRANCH  28  52
BRANCH  40  63
ATOM     63  C   UNL A   1      42.902  34.390  34.654  1.00  0.00     0.064 A 
ATOM     64  C   UNL A   1      43.548  35.547  34.198  1.00  0.00     0.173 A 
ATOM     65  C   UNL A   1      42.636  34.276  36.027  1.00  0.00     0.173 A 
ATOM     66  F   UNL A   1      43.835  35.692  32.895  1.00  0.00    -0.203 F 
ATOM     67  C   UNL A   1      43.933  36.544  35.088  1.00  0.00     0.198 A 
ATOM     68  C   UNL A   1      42.988  35.292  36.908  1.00  0.00     0.198 A 
ATOM     69  F   UNL A   1      42.011  33.191  36.509  1.00  0.00    -0.203 F 
ATOM     70  F   UNL A   1      44.593  37.620  34.639  1.00  0.00    -0.200 F 
ATOM     71  C   UNL A   1      43.643  36.421  36.440  1.00  0.00     0.200 A 
ATOM     72  F   UNL A   1      42.689  35.181  38.209  1.00  0.00    -0.200 F 
ATOM     73  F   UNL A   1      44.000  37.390  37.292  1.00  0.00    -0.200 F 
ENDBRANCH  40  63
ENDBRANCH  14  15
ENDBRANCH   7   9
ENDBRANCH   6   7
ENDBRANCH   5   6
ENDBRANCH   4   5
ENDBRANCH   3   4
ENDBRANCH   2   3
ENDBRANCH   1   2
BRANCH   1  74
ATOM     74  O   UNL A   1      45.827  21.101  25.342  1.00  0.00    -0.376 OA
BRANCH  74  75
ATOM     75  C   UNL A   1      46.030  22.245  24.524  1.00  0.00     0.202 C 
BRANCH  75  76
ATOM     76  C   UNL A   1      45.688  23.617  25.140  1.00  0.00     0.261 C 
BRANCH  76  77
ATOM     77  O   UNL A   1      46.681  24.644  24.911  1.00  0.00    -0.461 OA
BRANCH  77  78
ATOM     78  C   UNL A   1      46.977  25.466  25.971  1.00  0.00     0.333 C 
ATOM     79  O   UNL A   1      47.244  25.051  27.093  1.00  0.00    -0.249 OA
BRANCH  78  80
ATOM     80  C   UNL A   1      46.830  26.990  25.603  1.00  0.00     0.224 C 
BRANCH  80  81
ATOM     81  C   UNL A   1      45.937  27.804  26.553  1.00  0.00    -0.002 A 
ATOM     82  C   UNL A   1      46.536  28.660  27.508  1.00  0.00     0.007 A 
ATOM     83  C   UNL A   1      44.521  27.868  26.400  1.00  0.00     0.061 A 
ATOM     84  C   UNL A   1      45.795  29.634  28.187  1.00  0.00     0.000 A 
ATOM     85  C   UNL A   1      43.802  28.874  27.087  1.00  0.00     0.013 A 
ATOM     86  C   UNL A   1      44.435  29.764  27.950  1.00  0.00     0.001 A 
BRANCH  83  87
ATOM     87  C   UNL A   1      43.681  26.965  25.509  1.00  0.00     0.416 C 
ATOM     88  F   UNL A   1      42.562  27.606  25.063  1.00  0.00    -0.166 F 
ATOM     89  F   UNL A   1      44.350  26.582  24.389  1.00  0.00    -0.166 F 
ATOM     90  F   UNL A   1      43.229  25.835  26.104  1.00  0.00    -0.166 F 
ENDBRANCH  83  87
ENDBRANCH  80  81
BRANCH  80  91
ATOM     91  N   UNL A   1      48.160  27.640  25.351  1.00  0.00    -0.339 N 
ATOM     92  C   UNL A   1      49.327  26.992  25.050  1.00  0.00     0.226 C 
ATOM     93  H   UNL A   1      48.197  28.622  25.406  1.00  0.00     0.164 HD
ATOM     94  O   UNL A   1      50.036  26.618  25.980  1.00  0.00    -0.275 OA
BRANCH  92  95
ATOM     95  C   UNL A   1      49.795  26.798  23.603  1.00  0.00     0.107 C 
ATOM     96  C   UNL A   1      48.700  26.479  22.610  1.00  0.00     0.115 C 
ATOM     97  C   UNL A   1      50.540  27.972  22.958  1.00  0.00     0.133 C 
ATOM     98  C   UNL A   1      49.107  27.076  21.309  1.00  0.00     0.223 C 
ATOM     99  N   UNL A   1      50.156  27.930  21.555  1.00  0.00    -0.342 N 
ATOM    100  O   UNL A   1      48.561  26.852  20.247  1.00  0.00    -0.275 OA
BRANCH  99 101
ATOM    101  C   UNL A   1      50.819  28.652  20.483  1.00  0.00     0.123 C 
BRANCH 101 102
ATOM    102  C   UNL A   1      52.020  27.942  19.924  1.00  0.00     0.008 C 
ATOM    103  C   UNL A   1      52.096  26.450  19.797  1.00  0.00     0.006 C 
ATOM    104  C   UNL A   1      51.925  27.276  18.566  1.00  0.00     0.006 C 
ENDBRANCH 101 102
ENDBRANCH  99 101
ENDBRANCH  92  95
ENDBRANCH  80  91
ENDBRANCH  78  80
ENDBRANCH  77  78
ENDBRANCH  76  77
ENDBRANCH  75  76
ENDBRANCH  74  75
ENDBRANCH   1  74
TORSDOF 23
ENDMDL
MODEL 3
REMARK VINA RESULT:      -7.4      0.690      7.064
REMARK SMILES O=C(OCCOCCOCCOC(=O)[C@H](NC(=O)[C@H]1CC(=O)N(CC2CC2)C1)c1ccccc1C(F)(F)F)c1ccc(-c2c3nc(c(-c4c(F)c(F)c(F)c(F)c4F)c4ccc([nH]4)c(-c4c(F)c(F)c(F)c(F)c4F)c4nc(c(-c5c(F)c(F)c(F)c(F)c5F)c5ccc2[nH]5)C=C4)C=C3)cc1
REMARK SMILES IDX 8 1 7 2 6 3 5 4 4 5 3 6 2 7 1 8 39 9 40 10 101 11 41 12
REMARK SMILES IDX 100 13 42 14 43 15 44 16 94 17 45 18 99 19 93 20 95 21 46 22
REMARK SMILES IDX 98 23 92 24 91 25 47 27 79 28 59 29 78 30 60 31 63 32 77 33
REMARK SMILES IDX 96 34 61 35 62 36 76 38 97 39 64 40 48 41 49 42 57 43 50 44
REMARK SMILES IDX 51 45 55 46 58 47 52 48 53 49 56 50 54 51 80 52 81 53 89 54
REMARK SMILES IDX 82 55 83 56 87 57 90 58 84 59 85 60 88 61 86 62 65 63 66 64
REMARK SMILES IDX 74 65 67 66 68 67 72 68 75 69 69 70 70 71 73 72 71 73 9 74
REMARK SMILES IDX 10 75 11 76 12 77 13 78 14 79 15 80 29 81 30 82 34 83 31 84
REMARK SMILES IDX 33 85 32 86 35 87 36 88 37 89 38 90 16 91 17 92 18 94 19 95
REMARK SMILES IDX 20 96 28 97 21 98 23 99 22 100 24 101 25 102 26 103 27 104
REMARK H PARENT 95 26 63 37 16 93
REMARK Flexibility Score: inf
ROOT
ATOM      1  C   UNL A   1      33.461  34.943  30.546  1.00  0.00     0.188 C 
ENDROOT
BRANCH   1   2
ATOM      2  C   UNL A   1      33.639  35.705  31.863  1.00  0.00     0.188 C 
BRANCH   2   3
ATOM      3  O   UNL A   1      34.910  35.694  32.515  1.00  0.00    -0.376 OA
BRANCH   3   4
ATOM      4  C   UNL A   1      34.904  34.812  33.656  1.00  0.00     0.202 C 
BRANCH   4   5
ATOM      5  C   UNL A   1      35.415  33.364  33.430  1.00  0.00     0.261 C 
BRANCH   5   6
ATOM      6  O   UNL A   1      36.824  33.197  33.664  1.00  0.00    -0.460 OA
BRANCH   6   7
ATOM      7  C   UNL A   1      37.339  32.617  34.777  1.00  0.00     0.338 C 
ATOM      8  O   UNL A   1      36.808  32.803  35.867  1.00  0.00    -0.246 OA
BRANCH   7   9
ATOM      9  C   UNL A   1      38.694  31.982  34.715  1.00  0.00     0.060 A 
ATOM     10  C   UNL A   1      39.844  32.616  34.246  1.00  0.00     0.016 A 
ATOM     11  C   UNL A   1      38.818  30.663  35.185  1.00  0.00     0.016 A 
ATOM     12  C   UNL A   1      41.076  31.981  34.218  1.00  0.00     0.010 A 
ATOM     13  C   UNL A   1      40.061  30.017  35.177  1.00  0.00     0.010 A 
ATOM     14  C   UNL A   1      41.191  30.670  34.665  1.00  0.00    -0.014 A 
BRANCH  14  15
ATOM     15  C   UNL A   1      42.425  29.942  34.306  1.00  0.00     0.031 A 
ATOM     16  C   UNL A   1      43.467  29.819  35.377  1.00  0.00     0.074 A 
ATOM     17  C   UNL A   1      42.530  29.270  33.144  1.00  0.00     0.049 A 
ATOM     18  N   UNL A   1      44.623  29.216  35.351  1.00  0.00    -0.248 NA
ATOM     19  C   UNL A   1      43.151  30.458  36.668  1.00  0.00     0.031 C 
ATOM     20  C   UNL A   1      41.513  29.236  32.096  1.00  0.00     0.029 A 
ATOM     21  N   UNL A   1      43.527  28.462  32.663  1.00  0.00    -0.354 N 
ATOM     22  C   UNL A   1      45.171  29.424  36.609  1.00  0.00     0.074 A 
ATOM     23  C   UNL A   1      44.259  30.256  37.354  1.00  0.00     0.031 C 
ATOM     24  C   UNL A   1      41.935  28.448  31.092  1.00  0.00     0.029 A 
ATOM     25  C   UNL A   1      43.270  27.954  31.411  1.00  0.00     0.049 A 
ATOM     26  H   UNL A   1      44.350  28.264  33.165  1.00  0.00     0.167 HD
ATOM     27  C   UNL A   1      46.324  28.930  37.112  1.00  0.00     0.037 A 
ATOM     28  C   UNL A   1      44.046  27.194  30.616  1.00  0.00     0.037 A 
ATOM     29  C   UNL A   1      47.206  28.089  36.360  1.00  0.00     0.049 A 
ATOM     30  C   UNL A   1      45.387  26.757  31.154  1.00  0.00     0.074 A 
ATOM     31  C   UNL A   1      48.425  27.561  36.732  1.00  0.00     0.029 A 
ATOM     32  N   UNL A   1      46.950  27.655  35.064  1.00  0.00    -0.354 N 
ATOM     33  N   UNL A   1      45.915  26.976  32.336  1.00  0.00    -0.248 NA
ATOM     34  C   UNL A   1      46.234  25.960  30.259  1.00  0.00     0.031 C 
ATOM     35  C   UNL A   1      48.932  26.846  35.642  1.00  0.00     0.029 A 
ATOM     36  C   UNL A   1      48.000  26.877  34.613  1.00  0.00     0.049 A 
ATOM     37  H   UNL A   1      46.142  27.869  34.545  1.00  0.00     0.167 HD
ATOM     38  C   UNL A   1      47.135  26.317  32.341  1.00  0.00     0.074 A 
ATOM     39  C   UNL A   1      47.261  25.676  31.046  1.00  0.00     0.031 C 
ATOM     40  C   UNL A   1      48.070  26.241  33.322  1.00  0.00     0.037 A 
BRANCH  27  41
ATOM     41  C   UNL A   1      46.678  29.343  38.509  1.00  0.00     0.064 A 
ATOM     42  C   UNL A   1      47.519  30.440  38.767  1.00  0.00     0.173 A 
ATOM     43  C   UNL A   1      46.241  28.581  39.601  1.00  0.00     0.173 A 
ATOM     44  F   UNL A   1      47.998  31.178  37.754  1.00  0.00    -0.203 F 
ATOM     45  C   UNL A   1      47.945  30.726  40.061  1.00  0.00     0.198 A 
ATOM     46  C   UNL A   1      46.641  28.892  40.897  1.00  0.00     0.198 A 
ATOM     47  F   UNL A   1      45.448  27.516  39.408  1.00  0.00    -0.203 F 
ATOM     48  F   UNL A   1      48.818  31.721  40.273  1.00  0.00    -0.200 F 
ATOM     49  C   UNL A   1      47.504  29.954  41.126  1.00  0.00     0.200 A 
ATOM     50  F   UNL A   1      46.212  28.147  41.925  1.00  0.00    -0.200 F 
ATOM     51  F   UNL A   1      47.927  30.221  42.369  1.00  0.00    -0.200 F 
ENDBRANCH  27  41
BRANCH  28  52
ATOM     52  C   UNL A   1      43.601  26.812  29.246  1.00  0.00     0.064 A 
ATOM     53  C   UNL A   1      43.141  25.519  28.960  1.00  0.00     0.173 A 
ATOM     54  C   UNL A   1      43.666  27.723  28.179  1.00  0.00     0.173 A 
ATOM     55  F   UNL A   1      43.073  24.601  29.935  1.00  0.00    -0.203 F 
ATOM     56  C   UNL A   1      42.795  25.143  27.661  1.00  0.00     0.198 A 
ATOM     57  C   UNL A   1      43.292  27.356  26.886  1.00  0.00     0.198 A 
ATOM     58  F   UNL A   1      44.100  28.974  28.389  1.00  0.00    -0.203 F 
ATOM     59  F   UNL A   1      42.414  23.883  27.410  1.00  0.00    -0.200 F 
ATOM     60  C   UNL A   1      42.867  26.063  26.626  1.00  0.00     0.200 A 
ATOM     61  F   UNL A   1      43.353  28.252  25.892  1.00  0.00    -0.200 F 
ATOM     62  F   UNL A   1      42.542  25.699  25.378  1.00  0.00    -0.200 F 
ENDBRANCH  28  52
BRANCH  40  63
ATOM     63  C   UNL A   1      49.279  25.397  33.048  1.00  0.00     0.064 A 
ATOM     64  C   UNL A   1      50.401  25.908  32.382  1.00  0.00     0.173 A 
ATOM     65  C   UNL A   1      49.334  24.077  33.522  1.00  0.00     0.173 A 
ATOM     66  F   UNL A   1      50.389  27.161  31.901  1.00  0.00    -0.203 F 
ATOM     67  C   UNL A   1      51.528  25.119  32.179  1.00  0.00     0.198 A 
ATOM     68  C   UNL A   1      50.476  23.305  33.350  1.00  0.00     0.198 A 
ATOM     69  F   UNL A   1      48.288  23.548  34.174  1.00  0.00    -0.203 F 
ATOM     70  F   UNL A   1      52.572  25.610  31.497  1.00  0.00    -0.200 F 
ATOM     71  C   UNL A   1      51.569  23.823  32.672  1.00  0.00     0.200 A 
ATOM     72  F   UNL A   1      50.522  22.060  33.845  1.00  0.00    -0.200 F 
ATOM     73  F   UNL A   1      52.662  23.071  32.489  1.00  0.00    -0.200 F 
ENDBRANCH  40  63
ENDBRANCH  14  15
ENDBRANCH   7   9
ENDBRANCH   6   7
ENDBRANCH   5   6
ENDBRANCH   4   5
ENDBRANCH   3   4
ENDBRANCH   2   3
ENDBRANCH   1   2
BRANCH   1  74
ATOM     74  O   UNL A   1      33.751  35.647  29.350  1.00  0.00    -0.376 OA
BRANCH  74  75
ATOM     75  C   UNL A   1      34.614  34.984  28.436  1.00  0.00     0.202 C 
BRANCH  75  76
ATOM     76  C   UNL A   1      34.356  33.482  28.195  1.00  0.00     0.261 C 
BRANCH  76  77
ATOM     77  O   UNL A   1      35.485  32.758  27.650  1.00  0.00    -0.461 OA
BRANCH  77  78
ATOM     78  C   UNL A   1      35.670  31.473  28.096  1.00  0.00     0.333 C 
ATOM     79  O   UNL A   1      34.865  30.569  27.903  1.00  0.00    -0.249 OA
BRANCH  78  80
ATOM     80  C   UNL A   1      36.973  31.325  28.967  1.00  0.00     0.224 C 
BRANCH  80  81
ATOM     81  C   UNL A   1      37.792  30.052  28.699  1.00  0.00    -0.002 A 
ATOM     82  C   UNL A   1      38.389  29.864  27.430  1.00  0.00     0.007 A 
ATOM     83  C   UNL A   1      38.124  29.129  29.733  1.00  0.00     0.061 A 
ATOM     84  C   UNL A   1      39.375  28.894  27.219  1.00  0.00     0.000 A 
ATOM     85  C   UNL A   1      39.136  28.169  29.495  1.00  0.00     0.013 A 
ATOM     86  C   UNL A   1      39.773  28.070  28.261  1.00  0.00     0.001 A 
BRANCH  83  87
ATOM     87  C   UNL A   1      37.515  29.096  31.126  1.00  0.00     0.416 C 
ATOM     88  F   UNL A   1      37.929  30.157  31.877  1.00  0.00    -0.166 F 
ATOM     89  F   UNL A   1      36.159  29.180  31.096  1.00  0.00    -0.166 F 
ATOM     90  F   UNL A   1      37.826  28.000  31.860  1.00  0.00    -0.166 F 
ENDBRANCH  83  87
ENDBRANCH  80  81
BRANCH  80  91
ATOM     91  N   UNL A   1      37.809  32.573  28.948  1.00  0.00    -0.339 N 
ATOM     92  C   UNL A   1      38.192  33.300  30.042  1.00  0.00     0.226 C 
ATOM     93  H   UNL A   1      38.109  32.898  28.069  1.00  0.00     0.164 HD
ATOM     94  O   UNL A   1      37.439  34.183  30.440  1.00  0.00    -0.275 OA
BRANCH  92  95
ATOM     95  C   UNL A   1      39.553  33.090  30.717  1.00  0.00     0.107 C 
ATOM     96  C   UNL A   1      40.415  32.008  30.104  1.00  0.00     0.115 C 
ATOM     97  C   UNL A   1      40.484  34.305  30.779  1.00  0.00     0.133 C 
ATOM     98  C   UNL A   1      41.831  32.430  30.281  1.00  0.00     0.223 C 
ATOM     99  N   UNL A   1      41.825  33.753  30.658  1.00  0.00    -0.342 N 
ATOM    100  O   UNL A   1      42.793  31.715  30.082  1.00  0.00    -0.275 OA
BRANCH  99 101
ATOM    101  C   UNL A   1      43.055  34.467  30.952  1.00  0.00     0.123 C 
BRANCH 101 102
ATOM    102  C   UNL A   1      42.918  35.495  32.040  1.00  0.00     0.008 C 
ATOM    103  C   UNL A   1      42.337  35.181  33.386  1.00  0.00     0.006 C 
ATOM    104  C   UNL A   1      43.806  35.405  33.264  1.00  0.00     0.006 C 
ENDBRANCH 101 102
ENDBRANCH  99 101
ENDBRANCH  92  95
ENDBRANCH  80  91
ENDBRANCH  78  80
ENDBRANCH  77  78
ENDBRANCH  76  77
ENDBRANCH  75  76
ENDBRANCH  74  75
ENDBRANCH   1  74
TORSDOF 23
ENDMDL
