MODEL 1
REMARK VINA RESULT:     -12.6      0.000      0.000
REMARK SMILES COc1ccc2c(c1)c(CC(=O)OCCOCCOCCOC(=O)c1ccc(-c3c4nc(c(-c5c(F)c(F)c(F)c(F)c5F)c5ccc([nH]5)c(-c5c(F)c(F)c(F)c(F)c5F)c5nc(c(-c6c(F)c(F)c(F)c(F)c6F)c6ccc3[nH]6)C=C5)C=C4)cc1)c(C(F)(F)F)n2C(=O)c1ccc(Cl)cc1
REMARK SMILES IDX 17 1 16 2 15 3 14 4 13 5 11 6 12 7 10 8 9 9 3 10 4 11 8 12
REMARK SMILES IDX 5 13 7 14 6 15 93 16 88 17 2 18 1 19 94 20 95 21 96 22 97 23
REMARK SMILES IDX 102 24 98 25 101 26 99 27 100 28 89 29 90 30 91 31 92 32
REMARK SMILES IDX 18 33 19 34 20 35 21 36 22 37 23 38 24 39 25 40 26 41 87 42
REMARK SMILES IDX 27 43 86 44 28 45 29 46 30 47 80 48 31 49 85 50 79 51 81 52
REMARK SMILES IDX 32 53 84 54 78 55 77 56 33 58 65 59 45 60 64 61 46 62 49 63
REMARK SMILES IDX 63 64 82 65 47 66 48 67 62 69 83 70 50 71 34 72 35 73 43 74
REMARK SMILES IDX 36 75 37 76 41 77 44 78 38 79 39 80 42 81 40 82 66 83 67 84
REMARK SMILES IDX 75 85 68 86 69 87 73 88 76 89 70 90 71 91 74 92 72 93 51 94
REMARK SMILES IDX 52 95 60 96 53 97 54 98 58 99 61 100 55 101 56 102 59 103
REMARK SMILES IDX 57 104
REMARK H PARENT 81 57 49 68
REMARK Flexibility Score: inf
ROOT
ATOM      1  C   UNL A   1      43.923  19.100  25.090  1.00  0.00     0.188 C 
ENDROOT
BRANCH   1   2
ATOM      2  O   UNL A   1      42.548  19.400  25.025  1.00  0.00    -0.376 OA
BRANCH   2   3
ATOM      3  C   UNL A   1      41.708  18.875  26.038  1.00  0.00     0.202 C 
BRANCH   3   4
ATOM      4  C   UNL A   1      40.547  19.769  26.493  1.00  0.00     0.261 C 
BRANCH   4   5
ATOM      5  O   UNL A   1      39.460  19.812  25.524  1.00  0.00    -0.463 OA
BRANCH   5   6
ATOM      6  C   UNL A   1      38.716  20.945  25.530  1.00  0.00     0.310 C 
ATOM      7  O   UNL A   1      39.147  22.006  25.984  1.00  0.00    -0.252 OA
BRANCH   6   8
ATOM      8  C   UNL A   1      37.443  20.934  24.684  1.00  0.00     0.161 C 
BRANCH   8   9
ATOM      9  C   UNL A   1      36.006  21.037  25.135  1.00  0.00     0.002 A 
ATOM     10  C   UNL A   1      33.690  18.038  24.246  1.00  0.00     0.119 A 
ATOM     11  C   UNL A   1      32.534  18.769  24.151  1.00  0.00     0.048 A 
ATOM     12  C   UNL A   1      34.880  18.683  24.625  1.00  0.00     0.057 A 
ATOM     13  C   UNL A   1      32.556  20.125  24.491  1.00  0.00     0.031 A 
ATOM     14  C   UNL A   1      34.960  20.058  24.942  1.00  0.00     0.008 A 
ATOM     15  C   UNL A   1      33.751  20.744  24.948  1.00  0.00     0.057 A 
ATOM     16  N   UNL A   1      34.008  22.006  25.502  1.00  0.00    -0.271 N 
ATOM     17  C   UNL A   1      35.361  22.266  25.335  1.00  0.00     0.135 A 
BRANCH  10  18
ATOM     18  O   UNL A   1      33.760  16.687  24.040  1.00  0.00    -0.497 OA
ATOM     19  C   UNL A   1      33.906  15.873  25.207  1.00  0.00     0.278 C 
ENDBRANCH  10  18
BRANCH  16  20
ATOM     20  C   UNL A   1      33.023  22.791  26.143  1.00  0.00     0.262 C 
ATOM     21  O   UNL A   1      32.729  22.573  27.311  1.00  0.00    -0.268 OA
BRANCH  20  22
ATOM     22  C   UNL A   1      32.285  23.841  25.421  1.00  0.00     0.040 A 
ATOM     23  C   UNL A   1      32.082  25.077  26.050  1.00  0.00     0.015 A 
ATOM     24  C   UNL A   1      31.618  23.502  24.241  1.00  0.00     0.015 A 
ATOM     25  C   UNL A   1      31.141  25.958  25.526  1.00  0.00     0.021 A 
ATOM     26  C   UNL A   1      30.666  24.385  23.733  1.00  0.00     0.021 A 
ATOM     27  C   UNL A   1      30.421  25.599  24.385  1.00  0.00     0.041 A 
ATOM     28  Cl  UNL A   1      29.178  26.636  23.807  1.00  0.00    -0.084 Cl
ENDBRANCH  20  22
ENDBRANCH  16  20
BRANCH  17  29
ATOM     29  C   UNL A   1      35.989  23.621  25.240  1.00  0.00     0.432 C 
ATOM     30  F   UNL A   1      36.648  23.907  26.397  1.00  0.00    -0.165 F 
ATOM     31  F   UNL A   1      36.941  23.617  24.268  1.00  0.00    -0.165 F 
ATOM     32  F   UNL A   1      35.194  24.676  25.004  1.00  0.00    -0.165 F 
ENDBRANCH  17  29
ENDBRANCH   8   9
ENDBRANCH   6   8
ENDBRANCH   5   6
ENDBRANCH   4   5
ENDBRANCH   3   4
ENDBRANCH   2   3
ENDBRANCH   1   2
BRANCH   1  33
ATOM     33  C   UNL A   1      44.960  20.149  24.680  1.00  0.00     0.188 C 
BRANCH  33  34
ATOM     34  O   UNL A   1      44.696  21.108  23.693  1.00  0.00    -0.376 OA
BRANCH  34  35
ATOM     35  C   UNL A   1      44.542  22.449  24.123  1.00  0.00     0.202 C 
BRANCH  35  36
ATOM     36  C   UNL A   1      44.191  22.740  25.607  1.00  0.00     0.261 C 
BRANCH  36  37
ATOM     37  O   UNL A   1      42.784  22.558  25.939  1.00  0.00    -0.460 OA
BRANCH  37  38
ATOM     38  C   UNL A   1      42.452  22.719  27.260  1.00  0.00     0.338 C 
ATOM     39  O   UNL A   1      42.538  21.852  28.114  1.00  0.00    -0.246 OA
BRANCH  38  40
ATOM     40  C   UNL A   1      42.368  24.185  27.603  1.00  0.00     0.060 A 
ATOM     41  C   UNL A   1      42.974  24.817  28.685  1.00  0.00     0.016 A 
ATOM     42  C   UNL A   1      41.461  24.933  26.850  1.00  0.00     0.016 A 
ATOM     43  C   UNL A   1      42.550  26.118  29.067  1.00  0.00     0.010 A 
ATOM     44  C   UNL A   1      40.984  26.183  27.260  1.00  0.00     0.010 A 
ATOM     45  C   UNL A   1      41.495  26.783  28.405  1.00  0.00    -0.014 A 
BRANCH  45  46
ATOM     46  C   UNL A   1      41.182  28.214  28.635  1.00  0.00     0.031 A 
ATOM     47  C   UNL A   1      42.197  29.082  28.041  1.00  0.00     0.074 A 
ATOM     48  C   UNL A   1      40.154  28.867  29.224  1.00  0.00     0.049 A 
ATOM     49  N   UNL A   1      43.216  29.507  28.701  1.00  0.00    -0.248 NA
ATOM     50  C   UNL A   1      42.197  29.398  26.617  1.00  0.00     0.031 C 
ATOM     51  C   UNL A   1      39.016  28.283  29.881  1.00  0.00     0.029 A 
ATOM     52  N   UNL A   1      39.899  30.214  29.387  1.00  0.00    -0.354 N 
ATOM     53  C   UNL A   1      43.876  30.357  27.847  1.00  0.00     0.074 A 
ATOM     54  C   UNL A   1      43.343  30.084  26.532  1.00  0.00     0.031 C 
ATOM     55  C   UNL A   1      38.054  29.196  30.143  1.00  0.00     0.029 A 
ATOM     56  C   UNL A   1      38.632  30.507  29.905  1.00  0.00     0.049 A 
ATOM     57  H   UNL A   1      40.555  30.912  29.158  1.00  0.00     0.167 HD
ATOM     58  C   UNL A   1      44.597  31.382  28.369  1.00  0.00     0.037 A 
ATOM     59  C   UNL A   1      38.151  31.646  30.471  1.00  0.00     0.037 A 
ATOM     60  C   UNL A   1      44.803  31.207  29.797  1.00  0.00     0.049 A 
ATOM     61  C   UNL A   1      39.308  32.337  31.072  1.00  0.00     0.074 A 
ATOM     62  C   UNL A   1      45.342  30.200  30.580  1.00  0.00     0.029 A 
ATOM     63  N   UNL A   1      44.058  31.973  30.665  1.00  0.00    -0.354 N 
ATOM     64  N   UNL A   1      39.956  31.896  32.114  1.00  0.00    -0.248 NA
ATOM     65  C   UNL A   1      40.020  33.289  30.243  1.00  0.00     0.031 C 
ATOM     66  C   UNL A   1      44.521  30.141  31.748  1.00  0.00     0.029 A 
ATOM     67  C   UNL A   1      43.567  31.154  31.656  1.00  0.00     0.049 A 
ATOM     68  H   UNL A   1      43.904  32.942  30.590  1.00  0.00     0.167 HD
ATOM     69  C   UNL A   1      41.287  32.131  31.810  1.00  0.00     0.074 A 
ATOM     70  C   UNL A   1      41.256  33.080  30.700  1.00  0.00     0.031 C 
ATOM     71  C   UNL A   1      42.280  31.334  32.302  1.00  0.00     0.037 A 
BRANCH  58  72
ATOM     72  C   UNL A   1      44.816  32.687  27.661  1.00  0.00     0.064 A 
ATOM     73  C   UNL A   1      46.023  32.891  26.970  1.00  0.00     0.173 A 
ATOM     74  C   UNL A   1      44.004  33.832  27.823  1.00  0.00     0.173 A 
ATOM     75  F   UNL A   1      46.886  31.880  26.792  1.00  0.00    -0.203 F 
ATOM     76  C   UNL A   1      46.409  34.153  26.517  1.00  0.00     0.198 A 
ATOM     77  C   UNL A   1      44.362  35.077  27.314  1.00  0.00     0.198 A 
ATOM     78  F   UNL A   1      42.894  33.825  28.569  1.00  0.00    -0.203 F 
ATOM     79  F   UNL A   1      47.619  34.319  25.968  1.00  0.00    -0.200 F 
ATOM     80  C   UNL A   1      45.576  35.245  26.686  1.00  0.00     0.200 A 
ATOM     81  F   UNL A   1      43.549  36.126  27.508  1.00  0.00    -0.200 F 
ATOM     82  F   UNL A   1      45.964  36.464  26.294  1.00  0.00    -0.200 F 
ENDBRANCH  58  72
BRANCH  59  83
ATOM     83  C   UNL A   1      36.783  32.226  30.431  1.00  0.00     0.064 A 
ATOM     84  C   UNL A   1      35.899  32.153  31.524  1.00  0.00     0.173 A 
ATOM     85  C   UNL A   1      36.422  33.119  29.403  1.00  0.00     0.173 A 
ATOM     86  F   UNL A   1      36.178  31.360  32.568  1.00  0.00    -0.203 F 
ATOM     87  C   UNL A   1      34.746  32.948  31.598  1.00  0.00     0.198 A 
ATOM     88  C   UNL A   1      35.272  33.914  29.480  1.00  0.00     0.198 A 
ATOM     89  F   UNL A   1      37.232  33.306  28.351  1.00  0.00    -0.203 F 
ATOM     90  F   UNL A   1      33.962  32.893  32.686  1.00  0.00    -0.200 F 
ATOM     91  C   UNL A   1      34.443  33.838  30.584  1.00  0.00     0.200 A 
ATOM     92  F   UNL A   1      35.011  34.803  28.511  1.00  0.00    -0.200 F 
ATOM     93  F   UNL A   1      33.381  34.651  30.688  1.00  0.00    -0.200 F 
ENDBRANCH  59  83
BRANCH  71  94
ATOM     94  C   UNL A   1      41.954  30.404  33.449  1.00  0.00     0.064 A 
ATOM     95  C   UNL A   1      41.613  29.047  33.303  1.00  0.00     0.173 A 
ATOM     96  C   UNL A   1      42.154  30.866  34.759  1.00  0.00     0.173 A 
ATOM     97  F   UNL A   1      41.470  28.502  32.093  1.00  0.00    -0.203 F 
ATOM     98  C   UNL A   1      41.471  28.204  34.408  1.00  0.00     0.198 A 
ATOM     99  C   UNL A   1      42.044  30.016  35.859  1.00  0.00     0.198 A 
ATOM    100  F   UNL A   1      42.513  32.141  34.972  1.00  0.00    -0.203 F 
ATOM    101  F   UNL A   1      41.156  26.911  34.234  1.00  0.00    -0.200 F 
ATOM    102  C   UNL A   1      41.701  28.686  35.684  1.00  0.00     0.200 A 
ATOM    103  F   UNL A   1      42.307  30.480  37.089  1.00  0.00    -0.200 F 
ATOM    104  F   UNL A   1      41.622  27.865  36.742  1.00  0.00    -0.200 F 
ENDBRANCH  71  94
ENDBRANCH  45  46
ENDBRANCH  38  40
ENDBRANCH  37  38
ENDBRANCH  36  37
ENDBRANCH  35  36
ENDBRANCH  34  35
ENDBRANCH  33  34
ENDBRANCH   1  33
TORSDOF 22
ENDMDL
MODEL 2
REMARK VINA RESULT:     -11.8      2.133      4.438
REMARK SMILES COc1ccc2c(c1)c(CC(=O)OCCOCCOCCOC(=O)c1ccc(-c3c4nc(c(-c5c(F)c(F)c(F)c(F)c5F)c5ccc([nH]5)c(-c5c(F)c(F)c(F)c(F)c5F)c5nc(c(-c6c(F)c(F)c(F)c(F)c6F)c6ccc3[nH]6)C=C5)C=C4)cc1)c(C(F)(F)F)n2C(=O)c1ccc(Cl)cc1
REMARK SMILES IDX 17 1 16 2 15 3 14 4 13 5 11 6 12 7 10 8 9 9 3 10 4 11 8 12
REMARK SMILES IDX 5 13 7 14 6 15 93 16 88 17 2 18 1 19 94 20 95 21 96 22 97 23
REMARK SMILES IDX 102 24 98 25 101 26 99 27 100 28 89 29 90 30 91 31 92 32
REMARK SMILES IDX 18 33 19 34 20 35 21 36 22 37 23 38 24 39 25 40 26 41 87 42
REMARK SMILES IDX 27 43 86 44 28 45 29 46 30 47 80 48 31 49 85 50 79 51 81 52
REMARK SMILES IDX 32 53 84 54 78 55 77 56 33 58 65 59 45 60 64 61 46 62 49 63
REMARK SMILES IDX 63 64 82 65 47 66 48 67 62 69 83 70 50 71 34 72 35 73 43 74
REMARK SMILES IDX 36 75 37 76 41 77 44 78 38 79 39 80 42 81 40 82 66 83 67 84
REMARK SMILES IDX 75 85 68 86 69 87 73 88 76 89 70 90 71 91 74 92 72 93 51 94
REMARK SMILES IDX 52 95 60 96 53 97 54 98 58 99 61 100 55 101 56 102 59 103
REMARK SMILES IDX 57 104
REMARK H PARENT 81 57 49 68
REMARK Flexibility Score: inf
ROOT
ATOM      1  C   UNL A   1      36.497  21.773  24.275  1.00  0.00     0.188 C 
ENDROOT
BRANCH   1   2
ATOM      2  O   UNL A   1      35.270  22.027  24.919  1.00  0.00    -0.376 OA
BRANCH   2   3
ATOM      3  C   UNL A   1      34.965  21.277  26.081  1.00  0.00     0.202 C 
BRANCH   3   4
ATOM      4  C   UNL A   1      33.509  21.327  26.564  1.00  0.00     0.261 C 
BRANCH   4   5
ATOM      5  O   UNL A   1      33.264  22.421  27.494  1.00  0.00    -0.463 OA
BRANCH   5   6
ATOM      6  C   UNL A   1      32.643  23.506  26.968  1.00  0.00     0.310 C 
ATOM      7  O   UNL A   1      31.618  23.975  27.465  1.00  0.00    -0.252 OA
BRANCH   6   8
ATOM      8  C   UNL A   1      33.423  24.304  25.924  1.00  0.00     0.161 C 
BRANCH   8   9
ATOM      9  C   UNL A   1      32.962  25.471  25.086  1.00  0.00     0.002 A 
ATOM     10  C   UNL A   1      33.503  29.016  26.600  1.00  0.00     0.119 A 
ATOM     11  C   UNL A   1      32.423  29.602  25.989  1.00  0.00     0.048 A 
ATOM     12  C   UNL A   1      33.803  27.671  26.319  1.00  0.00     0.057 A 
ATOM     13  C   UNL A   1      31.684  28.865  25.059  1.00  0.00     0.031 A 
ATOM     14  C   UNL A   1      33.063  26.875  25.415  1.00  0.00     0.008 A 
ATOM     15  C   UNL A   1      32.049  27.531  24.728  1.00  0.00     0.057 A 
ATOM     16  N   UNL A   1      31.600  26.649  23.735  1.00  0.00    -0.271 N 
ATOM     17  C   UNL A   1      31.933  25.364  24.139  1.00  0.00     0.135 A 
BRANCH  10  18
ATOM     18  O   UNL A   1      34.355  29.674  27.443  1.00  0.00    -0.497 OA
ATOM     19  C   UNL A   1      34.051  31.046  27.710  1.00  0.00     0.278 C 
ENDBRANCH  10  18
BRANCH  16  20
ATOM     20  C   UNL A   1      30.976  27.073  22.540  1.00  0.00     0.262 C 
ATOM     21  O   UNL A   1      31.324  26.602  21.465  1.00  0.00    -0.268 OA
BRANCH  20  22
ATOM     22  C   UNL A   1      29.945  28.124  22.542  1.00  0.00     0.040 A 
ATOM     23  C   UNL A   1      30.289  29.408  22.100  1.00  0.00     0.015 A 
ATOM     24  C   UNL A   1      28.733  27.875  23.193  1.00  0.00     0.015 A 
ATOM     25  C   UNL A   1      29.438  30.473  22.379  1.00  0.00     0.021 A 
ATOM     26  C   UNL A   1      27.895  28.951  23.481  1.00  0.00     0.021 A 
ATOM     27  C   UNL A   1      28.257  30.244  23.088  1.00  0.00     0.041 A 
ATOM     28  Cl  UNL A   1      27.265  31.575  23.534  1.00  0.00    -0.084 Cl
ENDBRANCH  20  22
ENDBRANCH  16  20
BRANCH  17  29
ATOM     29  C   UNL A   1      31.221  24.108  23.744  1.00  0.00     0.432 C 
ATOM     30  F   UNL A   1      32.126  23.164  23.364  1.00  0.00    -0.165 F 
ATOM     31  F   UNL A   1      30.579  23.585  24.825  1.00  0.00    -0.165 F 
ATOM     32  F   UNL A   1      30.322  24.172  22.750  1.00  0.00    -0.165 F 
ENDBRANCH  17  29
ENDBRANCH   8   9
ENDBRANCH   6   8
ENDBRANCH   5   6
ENDBRANCH   4   5
ENDBRANCH   3   4
ENDBRANCH   2   3
ENDBRANCH   1   2
BRANCH   1  33
ATOM     33  C   UNL A   1      37.798  21.745  25.081  1.00  0.00     0.188 C 
BRANCH  33  34
ATOM     34  O   UNL A   1      38.496  20.554  25.324  1.00  0.00    -0.376 OA
BRANCH  34  35
ATOM     35  C   UNL A   1      39.640  20.636  26.155  1.00  0.00     0.202 C 
BRANCH  35  36
ATOM     36  C   UNL A   1      39.915  21.940  26.950  1.00  0.00     0.261 C 
BRANCH  36  37
ATOM     37  O   UNL A   1      41.144  21.919  27.733  1.00  0.00    -0.460 OA
BRANCH  37  38
ATOM     38  C   UNL A   1      42.212  22.587  27.194  1.00  0.00     0.338 C 
ATOM     39  O   UNL A   1      42.913  22.171  26.285  1.00  0.00    -0.246 OA
BRANCH  38  40
ATOM     40  C   UNL A   1      42.160  24.047  27.568  1.00  0.00     0.060 A 
ATOM     41  C   UNL A   1      42.690  24.626  28.717  1.00  0.00     0.016 A 
ATOM     42  C   UNL A   1      41.358  24.852  26.755  1.00  0.00     0.016 A 
ATOM     43  C   UNL A   1      42.289  25.936  29.093  1.00  0.00     0.010 A 
ATOM     44  C   UNL A   1      40.900  26.112  27.154  1.00  0.00     0.010 A 
ATOM     45  C   UNL A   1      41.328  26.663  28.356  1.00  0.00    -0.014 A 
BRANCH  45  46
ATOM     46  C   UNL A   1      41.057  28.101  28.595  1.00  0.00     0.031 A 
ATOM     47  C   UNL A   1      42.085  28.943  27.987  1.00  0.00     0.074 A 
ATOM     48  C   UNL A   1      40.056  28.779  29.203  1.00  0.00     0.049 A 
ATOM     49  N   UNL A   1      43.125  29.340  28.631  1.00  0.00    -0.248 NA
ATOM     50  C   UNL A   1      42.070  29.264  26.564  1.00  0.00     0.031 C 
ATOM     51  C   UNL A   1      38.915  28.223  29.876  1.00  0.00     0.029 A 
ATOM     52  N   UNL A   1      39.840  30.132  29.373  1.00  0.00    -0.354 N 
ATOM     53  C   UNL A   1      43.793  30.174  27.768  1.00  0.00     0.074 A 
ATOM     54  C   UNL A   1      43.232  29.920  26.461  1.00  0.00     0.031 C 
ATOM     55  C   UNL A   1      37.981  29.160  30.157  1.00  0.00     0.029 A 
ATOM     56  C   UNL A   1      38.590  30.456  29.913  1.00  0.00     0.049 A 
ATOM     57  H   UNL A   1      40.510  30.813  29.136  1.00  0.00     0.167 HD
ATOM     58  C   UNL A   1      44.550  31.179  28.281  1.00  0.00     0.037 A 
ATOM     59  C   UNL A   1      38.149  31.606  30.490  1.00  0.00     0.037 A 
ATOM     60  C   UNL A   1      44.774  30.994  29.705  1.00  0.00     0.049 A 
ATOM     61  C   UNL A   1      39.333  32.264  31.074  1.00  0.00     0.074 A 
ATOM     62  C   UNL A   1      45.300  29.971  30.477  1.00  0.00     0.029 A 
ATOM     63  N   UNL A   1      44.065  31.776  30.587  1.00  0.00    -0.354 N 
ATOM     64  N   UNL A   1      39.987  31.803  32.104  1.00  0.00    -0.248 NA
ATOM     65  C   UNL A   1      40.057  33.199  30.235  1.00  0.00     0.031 C 
ATOM     66  C   UNL A   1      44.496  29.930  31.658  1.00  0.00     0.029 A 
ATOM     67  C   UNL A   1      43.569  30.968  31.584  1.00  0.00     0.049 A 
ATOM     68  H   UNL A   1      43.935  32.749  30.518  1.00  0.00     0.167 HD
ATOM     69  C   UNL A   1      41.318  32.004  31.778  1.00  0.00     0.074 A 
ATOM     70  C   UNL A   1      41.294  32.957  30.671  1.00  0.00     0.031 C 
ATOM     71  C   UNL A   1      42.298  31.179  32.251  1.00  0.00     0.037 A 
BRANCH  58  72
ATOM     72  C   UNL A   1      44.792  32.480  27.574  1.00  0.00     0.064 A 
ATOM     73  C   UNL A   1      46.000  32.660  26.878  1.00  0.00     0.173 A 
ATOM     74  C   UNL A   1      44.003  33.640  27.738  1.00  0.00     0.173 A 
ATOM     75  F   UNL A   1      46.843  31.632  26.696  1.00  0.00    -0.203 F 
ATOM     76  C   UNL A   1      46.408  33.915  26.424  1.00  0.00     0.198 A 
ATOM     77  C   UNL A   1      44.383  34.878  27.229  1.00  0.00     0.198 A 
ATOM     78  F   UNL A   1      42.895  33.654  28.489  1.00  0.00    -0.203 F 
ATOM     79  F   UNL A   1      47.619  34.057  25.871  1.00  0.00    -0.200 F 
ATOM     80  C   UNL A   1      45.598  35.023  26.597  1.00  0.00     0.200 A 
ATOM     81  F   UNL A   1      43.591  35.942  27.427  1.00  0.00    -0.200 F 
ATOM     82  F   UNL A   1      46.008  36.234  26.204  1.00  0.00    -0.200 F 
ENDBRANCH  58  72
BRANCH  59  83
ATOM     83  C   UNL A   1      36.796  32.222  30.474  1.00  0.00     0.064 A 
ATOM     84  C   UNL A   1      35.913  32.135  31.566  1.00  0.00     0.173 A 
ATOM     85  C   UNL A   1      36.456  33.159  29.478  1.00  0.00     0.173 A 
ATOM     86  F   UNL A   1      36.174  31.299  32.582  1.00  0.00    -0.203 F 
ATOM     87  C   UNL A   1      34.781  32.955  31.672  1.00  0.00     0.198 A 
ATOM     88  C   UNL A   1      35.327  33.980  29.586  1.00  0.00     0.198 A 
ATOM     89  F   UNL A   1      37.268  33.361  28.431  1.00  0.00    -0.203 F 
ATOM     90  F   UNL A   1      33.998  32.883  32.759  1.00  0.00    -0.200 F 
ATOM     91  C   UNL A   1      34.498  33.887  30.689  1.00  0.00     0.200 A 
ATOM     92  F   UNL A   1      35.087  34.908  28.649  1.00  0.00    -0.200 F 
ATOM     93  F   UNL A   1      33.459  34.723  30.825  1.00  0.00    -0.200 F 
ENDBRANCH  59  83
BRANCH  71  94
ATOM     94  C   UNL A   1      41.966  30.254  33.401  1.00  0.00     0.064 A 
ATOM     95  C   UNL A   1      41.590  28.907  33.258  1.00  0.00     0.173 A 
ATOM     96  C   UNL A   1      42.195  30.709  34.709  1.00  0.00     0.173 A 
ATOM     97  F   UNL A   1      41.418  28.368  32.049  1.00  0.00    -0.203 F 
ATOM     98  C   UNL A   1      41.445  28.064  34.363  1.00  0.00     0.198 A 
ATOM     99  C   UNL A   1      42.081  29.859  35.810  1.00  0.00     0.198 A 
ATOM    100  F   UNL A   1      42.588  31.975  34.920  1.00  0.00    -0.203 F 
ATOM    101  F   UNL A   1      41.097  26.780  34.191  1.00  0.00    -0.200 F 
ATOM    102  C   UNL A   1      41.704  28.538  35.637  1.00  0.00     0.200 A 
ATOM    103  F   UNL A   1      42.372  30.314  37.036  1.00  0.00    -0.200 F 
ATOM    104  F   UNL A   1      41.621  27.717  36.694  1.00  0.00    -0.200 F 
ENDBRANCH  71  94
ENDBRANCH  45  46
ENDBRANCH  38  40
ENDBRANCH  37  38
ENDBRANCH  36  37
ENDBRANCH  35  36
ENDBRANCH  34  35
ENDBRANCH  33  34
ENDBRANCH   1  33
TORSDOF 22
ENDMDL
MODEL 3
REMARK VINA RESULT:     -11.5      4.736     10.353
REMARK SMILES COc1ccc2c(c1)c(CC(=O)OCCOCCOCCOC(=O)c1ccc(-c3c4nc(c(-c5c(F)c(F)c(F)c(F)c5F)c5ccc([nH]5)c(-c5c(F)c(F)c(F)c(F)c5F)c5nc(c(-c6c(F)c(F)c(F)c(F)c6F)c6ccc3[nH]6)C=C5)C=C4)cc1)c(C(F)(F)F)n2C(=O)c1ccc(Cl)cc1
REMARK SMILES IDX 17 1 16 2 15 3 14 4 13 5 11 6 12 7 10 8 9 9 3 10 4 11 8 12
REMARK SMILES IDX 5 13 7 14 6 15 93 16 88 17 2 18 1 19 94 20 95 21 96 22 97 23
REMARK SMILES IDX 102 24 98 25 101 26 99 27 100 28 89 29 90 30 91 31 92 32
REMARK SMILES IDX 18 33 19 34 20 35 21 36 22 37 23 38 24 39 25 40 26 41 87 42
REMARK SMILES IDX 27 43 86 44 28 45 29 46 30 47 80 48 31 49 85 50 79 51 81 52
REMARK SMILES IDX 32 53 84 54 78 55 77 56 33 58 65 59 45 60 64 61 46 62 49 63
REMARK SMILES IDX 63 64 82 65 47 66 48 67 62 69 83 70 50 71 34 72 35 73 43 74
REMARK SMILES IDX 36 75 37 76 41 77 44 78 38 79 39 80 42 81 40 82 66 83 67 84
REMARK SMILES IDX 75 85 68 86 69 87 73 88 76 89 70 90 71 91 74 92 72 93 51 94
REMARK SMILES IDX 52 95 60 96 53 97 54 98 58 99 61 100 55 101 56 102 59 103
REMARK SMILES IDX 57 104
REMARK H PARENT 81 57 49 68
REMARK Flexibility Score: inf
ROOT
ATOM      1  C   UNL A   1      36.590  33.304  28.376  1.00  0.00     0.188 C 
ENDROOT
BRANCH   1   2
ATOM      2  O   UNL A   1      35.476  32.824  27.660  1.00  0.00    -0.376 OA
BRANCH   2   3
ATOM      3  C   UNL A   1      34.186  33.120  28.166  1.00  0.00     0.202 C 
BRANCH   3   4
ATOM      4  C   UNL A   1      33.037  32.232  27.669  1.00  0.00     0.261 C 
BRANCH   4   5
ATOM      5  O   UNL A   1      33.438  30.841  27.500  1.00  0.00    -0.463 OA
BRANCH   5   6
ATOM      6  C   UNL A   1      32.535  30.046  26.874  1.00  0.00     0.310 C 
ATOM      7  O   UNL A   1      31.577  29.552  27.472  1.00  0.00    -0.252 OA
BRANCH   6   8
ATOM      8  C   UNL A   1      32.577  30.030  25.347  1.00  0.00     0.161 C 
BRANCH   8   9
ATOM      9  C   UNL A   1      31.983  29.022  24.394  1.00  0.00     0.002 A 
ATOM     10  C   UNL A   1      28.295  29.628  23.305  1.00  0.00     0.119 A 
ATOM     11  C   UNL A   1      27.977  28.306  23.124  1.00  0.00     0.048 A 
ATOM     12  C   UNL A   1      29.610  29.974  23.665  1.00  0.00     0.057 A 
ATOM     13  C   UNL A   1      28.982  27.341  23.244  1.00  0.00     0.031 A 
ATOM     14  C   UNL A   1      30.650  29.032  23.834  1.00  0.00     0.008 A 
ATOM     15  C   UNL A   1      30.323  27.715  23.531  1.00  0.00     0.057 A 
ATOM     16  N   UNL A   1      31.524  26.991  23.537  1.00  0.00    -0.271 N 
ATOM     17  C   UNL A   1      32.429  27.695  24.319  1.00  0.00     0.135 A 
BRANCH  10  18
ATOM     18  O   UNL A   1      27.418  30.659  23.110  1.00  0.00    -0.497 OA
ATOM     19  C   UNL A   1      27.983  31.900  22.677  1.00  0.00     0.278 C 
ENDBRANCH  10  18
BRANCH  16  20
ATOM     20  C   UNL A   1      31.716  25.795  22.810  1.00  0.00     0.262 C 
ATOM     21  O   UNL A   1      31.596  25.791  21.592  1.00  0.00    -0.268 OA
BRANCH  20  22
ATOM     22  C   UNL A   1      32.003  24.520  23.489  1.00  0.00     0.040 A 
ATOM     23  C   UNL A   1      32.962  23.661  22.936  1.00  0.00     0.015 A 
ATOM     24  C   UNL A   1      31.156  24.104  24.520  1.00  0.00     0.015 A 
ATOM     25  C   UNL A   1      33.026  22.342  23.374  1.00  0.00     0.021 A 
ATOM     26  C   UNL A   1      31.218  22.776  24.942  1.00  0.00     0.021 A 
ATOM     27  C   UNL A   1      32.139  21.900  24.358  1.00  0.00     0.041 A 
ATOM     28  Cl  UNL A   1      32.140  20.242  24.814  1.00  0.00    -0.084 Cl
ENDBRANCH  20  22
ENDBRANCH  16  20
BRANCH  17  29
ATOM     29  C   UNL A   1      33.587  27.108  25.064  1.00  0.00     0.432 C 
ATOM     30  F   UNL A   1      33.135  26.240  26.012  1.00  0.00    -0.165 F 
ATOM     31  F   UNL A   1      34.346  26.360  24.217  1.00  0.00    -0.165 F 
ATOM     32  F   UNL A   1      34.422  27.942  25.702  1.00  0.00    -0.165 F 
ENDBRANCH  17  29
ENDBRANCH   8   9
ENDBRANCH   6   8
ENDBRANCH   5   6
ENDBRANCH   4   5
ENDBRANCH   3   4
ENDBRANCH   2   3
ENDBRANCH   1   2
BRANCH   1  33
ATOM     33  C   UNL A   1      36.423  33.805  29.813  1.00  0.00     0.188 C 
BRANCH  33  34
ATOM     34  O   UNL A   1      36.666  32.981  30.921  1.00  0.00    -0.376 OA
BRANCH  34  35
ATOM     35  C   UNL A   1      35.711  31.971  31.193  1.00  0.00     0.202 C 
BRANCH  35  36
ATOM     36  C   UNL A   1      36.013  30.503  30.788  1.00  0.00     0.261 C 
BRANCH  36  37
ATOM     37  O   UNL A   1      37.310  30.311  30.150  1.00  0.00    -0.460 OA
BRANCH  37  38
ATOM     38  C   UNL A   1      37.294  29.664  28.941  1.00  0.00     0.338 C 
ATOM     39  O   UNL A   1      36.349  29.646  28.168  1.00  0.00    -0.246 OA
BRANCH  38  40
ATOM     40  C   UNL A   1      38.699  29.335  28.505  1.00  0.00     0.060 A 
ATOM     41  C   UNL A   1      39.204  29.415  27.210  1.00  0.00     0.016 A 
ATOM     42  C   UNL A   1      39.510  28.739  29.473  1.00  0.00     0.016 A 
ATOM     43  C   UNL A   1      40.430  28.773  26.892  1.00  0.00     0.010 A 
ATOM     44  C   UNL A   1      40.681  28.041  29.155  1.00  0.00     0.010 A 
ATOM     45  C   UNL A   1      41.143  28.012  27.845  1.00  0.00    -0.014 A 
BRANCH  45  46
ATOM     46  C   UNL A   1      42.521  27.521  27.608  1.00  0.00     0.031 A 
ATOM     47  C   UNL A   1      42.515  26.214  26.953  1.00  0.00     0.074 A 
ATOM     48  C   UNL A   1      43.753  28.039  27.823  1.00  0.00     0.049 A 
ATOM     49  N   UNL A   1      42.556  25.110  27.612  1.00  0.00    -0.248 NA
ATOM     50  C   UNL A   1      42.310  26.078  25.515  1.00  0.00     0.031 C 
ATOM     51  C   UNL A   1      44.068  29.300  28.438  1.00  0.00     0.029 A 
ATOM     52  N   UNL A   1      45.013  27.544  27.555  1.00  0.00    -0.354 N 
ATOM     53  C   UNL A   1      42.629  24.121  26.661  1.00  0.00     0.074 A 
ATOM     54  C   UNL A   1      42.256  24.745  25.413  1.00  0.00     0.031 C 
ATOM     55  C   UNL A   1      45.370  29.633  28.280  1.00  0.00     0.029 A 
ATOM     56  C   UNL A   1      46.052  28.457  27.770  1.00  0.00     0.049 A 
ATOM     57  H   UNL A   1      45.169  26.625  27.240  1.00  0.00     0.167 HD
ATOM     58  C   UNL A   1      43.256  22.957  26.974  1.00  0.00     0.037 A 
ATOM     59  C   UNL A   1      47.391  28.256  27.908  1.00  0.00     0.037 A 
ATOM     60  C   UNL A   1      43.472  22.844  28.406  1.00  0.00     0.049 A 
ATOM     61  C   UNL A   1      47.555  26.896  28.456  1.00  0.00     0.074 A 
ATOM     62  C   UNL A   1      42.646  22.897  29.516  1.00  0.00     0.029 A 
ATOM     63  N   UNL A   1      44.740  23.056  28.897  1.00  0.00    -0.354 N 
ATOM     64  N   UNL A   1      47.211  26.554  29.667  1.00  0.00    -0.248 NA
ATOM     65  C   UNL A   1      47.693  25.808  27.508  1.00  0.00     0.031 C 
ATOM     66  C   UNL A   1      43.388  23.602  30.514  1.00  0.00     0.029 A 
ATOM     67  C   UNL A   1      44.651  23.882  29.993  1.00  0.00     0.049 A 
ATOM     68  H   UNL A   1      45.571  22.680  28.527  1.00  0.00     0.167 HD
ATOM     69  C   UNL A   1      46.631  25.305  29.514  1.00  0.00     0.074 A 
ATOM     70  C   UNL A   1      47.050  24.856  28.189  1.00  0.00     0.031 C 
ATOM     71  C   UNL A   1      45.651  24.869  30.357  1.00  0.00     0.037 A 
BRANCH  58  72
ATOM     72  C   UNL A   1      43.965  22.100  25.966  1.00  0.00     0.064 A 
ATOM     73  C   UNL A   1      43.504  20.791  25.743  1.00  0.00     0.173 A 
ATOM     74  C   UNL A   1      45.210  22.416  25.380  1.00  0.00     0.173 A 
ATOM     75  F   UNL A   1      42.350  20.373  26.285  1.00  0.00    -0.203 F 
ATOM     76  C   UNL A   1      44.255  19.856  25.030  1.00  0.00     0.198 A 
ATOM     77  C   UNL A   1      45.928  21.502  24.615  1.00  0.00     0.198 A 
ATOM     78  F   UNL A   1      45.839  23.575  25.611  1.00  0.00    -0.203 F 
ATOM     79  F   UNL A   1      43.830  18.590  24.945  1.00  0.00    -0.200 F 
ATOM     80  C   UNL A   1      45.466  20.213  24.463  1.00  0.00     0.200 A 
ATOM     81  F   UNL A   1      47.109  21.864  24.092  1.00  0.00    -0.200 F 
ATOM     82  F   UNL A   1      46.209  19.307  23.817  1.00  0.00    -0.200 F 
ENDBRANCH  58  72
BRANCH  59  83
ATOM     83  C   UNL A   1      48.532  29.115  27.497  1.00  0.00     0.064 A 
ATOM     84  C   UNL A   1      49.069  30.110  28.335  1.00  0.00     0.173 A 
ATOM     85  C   UNL A   1      49.303  28.777  26.367  1.00  0.00     0.173 A 
ATOM     86  F   UNL A   1      48.425  30.471  29.455  1.00  0.00    -0.203 F 
ATOM     87  C   UNL A   1      50.313  30.703  28.078  1.00  0.00     0.198 A 
ATOM     88  C   UNL A   1      50.546  29.368  26.114  1.00  0.00     0.198 A 
ATOM     89  F   UNL A   1      48.905  27.796  25.544  1.00  0.00    -0.203 F 
ATOM     90  F   UNL A   1      50.818  31.603  28.936  1.00  0.00    -0.200 F 
ATOM     91  C   UNL A   1      51.057  30.320  26.976  1.00  0.00     0.200 A 
ATOM     92  F   UNL A   1      51.276  28.958  25.066  1.00  0.00    -0.200 F 
ATOM     93  F   UNL A   1      52.279  30.832  26.770  1.00  0.00    -0.200 F 
ENDBRANCH  59  83
BRANCH  71  94
ATOM     94  C   UNL A   1      45.438  25.610  31.659  1.00  0.00     0.064 A 
ATOM     95  C   UNL A   1      46.258  25.480  32.794  1.00  0.00     0.173 A 
ATOM     96  C   UNL A   1      44.458  26.613  31.701  1.00  0.00     0.173 A 
ATOM     97  F   UNL A   1      47.262  24.600  32.818  1.00  0.00    -0.203 F 
ATOM     98  C   UNL A   1      46.099  26.304  33.911  1.00  0.00     0.198 A 
ATOM     99  C   UNL A   1      44.321  27.456  32.804  1.00  0.00     0.198 A 
ATOM    100  F   UNL A   1      43.660  26.816  30.641  1.00  0.00    -0.203 F 
ATOM    101  F   UNL A   1      46.907  26.162  34.974  1.00  0.00    -0.200 F 
ATOM    102  C   UNL A   1      45.140  27.301  33.909  1.00  0.00     0.200 A 
ATOM    103  F   UNL A   1      43.416  28.445  32.779  1.00  0.00    -0.200 F 
ATOM    104  F   UNL A   1      45.024  28.129  34.957  1.00  0.00    -0.200 F 
ENDBRANCH  71  94
ENDBRANCH  45  46
ENDBRANCH  38  40
ENDBRANCH  37  38
ENDBRANCH  36  37
ENDBRANCH  35  36
ENDBRANCH  34  35
ENDBRANCH  33  34
ENDBRANCH   1  33
TORSDOF 22
ENDMDL
