MODEL 1
REMARK VINA RESULT:     -10.6      0.000      0.000
REMARK SMILES Cc1ccccc1OCC(=O)c1nc(C)c(C(=O)OCCOCCOCCOC(=O)c2ccc(-c3c4nc(c(-c5c(F)c(F)c(F)c(F)c5F)c5ccc([nH]5)c(-c5c(F)c(F)c(F)c(F)c5F)c5nc(c(-c6c(F)c(F)c(F)c(F)c6F)c6ccc3[nH]6)C=C5)C=C4)cc2)s1
REMARK SMILES IDX 23 1 22 2 21 3 20 4 19 5 17 6 18 7 16 8 12 9 13 10 94 11
REMARK SMILES IDX 14 12 15 13 10 14 11 15 9 16 8 17 7 18 1 19 2 20 3 21 4 22
REMARK SMILES IDX 6 23 5 24 24 25 25 26 26 27 27 28 28 29 29 30 30 31 31 32
REMARK SMILES IDX 32 33 93 34 33 35 92 36 34 37 35 38 36 39 86 40 37 41 91 42
REMARK SMILES IDX 85 43 87 44 38 45 90 46 84 47 83 48 39 50 71 51 51 52 70 53
REMARK SMILES IDX 52 54 55 55 69 56 88 57 53 58 54 59 68 61 89 62 56 63 40 64
REMARK SMILES IDX 41 65 49 66 42 67 43 68 47 69 50 70 44 71 45 72 48 73 46 74
REMARK SMILES IDX 72 75 73 76 81 77 74 78 75 79 79 80 82 81 76 82 77 83 80 84
REMARK SMILES IDX 78 85 57 86 58 87 66 88 59 89 60 90 64 91 67 92 61 93 62 94
REMARK SMILES IDX 65 95 63 96
REMARK H PARENT 87 49 55 60
REMARK Flexibility Score: inf
ROOT
ATOM      1  C   UNL A   1      41.146  22.003  25.791  1.00  0.00     0.188 C 
ENDROOT
BRANCH   1   2
ATOM      2  O   UNL A   1      39.817  21.913  26.307  1.00  0.00    -0.376 OA
BRANCH   2   3
ATOM      3  C   UNL A   1      39.336  23.096  26.912  1.00  0.00     0.202 C 
BRANCH   3   4
ATOM      4  C   UNL A   1      38.164  23.655  26.129  1.00  0.00     0.261 C 
BRANCH   4   5
ATOM      5  O   UNL A   1      37.093  22.651  25.697  1.00  0.00    -0.459 OA
BRANCH   5   6
ATOM      6  C   UNL A   1      36.236  21.676  25.338  1.00  0.00     0.350 C 
ATOM      7  O   UNL A   1      36.719  20.543  25.317  1.00  0.00    -0.245 OA
BRANCH   6   8
ATOM      8  C   UNL A   1      34.815  21.895  24.908  1.00  0.00     0.136 A 
ATOM      9  C   UNL A   1      32.502  22.137  25.649  1.00  0.00     0.164 A 
ATOM     10  N   UNL A   1      32.586  22.307  24.354  1.00  0.00    -0.237 NA
ATOM     11  S   UNL A   1      33.730  21.050  26.085  1.00  0.00    -0.103 S 
ATOM     12  C   UNL A   1      33.889  22.744  24.213  1.00  0.00     0.064 A 
ATOM     13  C   UNL A   1      33.827  24.158  23.692  1.00  0.00     0.068 C 
BRANCH   9  14
ATOM     14  C   UNL A   1      31.942  23.128  26.561  1.00  0.00     0.228 C 
ATOM     15  O   UNL A   1      32.146  23.106  27.782  1.00  0.00    -0.288 OA
BRANCH  14  16
ATOM     16  C   UNL A   1      30.937  24.146  25.995  1.00  0.00     0.313 C 
BRANCH  16  17
ATOM     17  O   UNL A   1      30.619  25.377  26.621  1.00  0.00    -0.485 OA
BRANCH  17  18
ATOM     18  C   UNL A   1      30.706  26.478  25.818  1.00  0.00     0.122 A 
ATOM     19  C   UNL A   1      31.765  27.971  27.611  1.00  0.00     0.048 C 
ATOM     20  C   UNL A   1      31.255  27.702  26.223  1.00  0.00    -0.009 A 
ATOM     21  C   UNL A   1      31.359  28.729  25.273  1.00  0.00     0.007 A 
ATOM     22  C   UNL A   1      30.883  28.558  23.972  1.00  0.00     0.001 A 
ATOM     23  C   UNL A   1      30.189  26.322  24.527  1.00  0.00     0.047 A 
ATOM     24  C   UNL A   1      30.288  27.356  23.600  1.00  0.00     0.004 A 
ENDBRANCH  17  18
ENDBRANCH  16  17
ENDBRANCH  14  16
ENDBRANCH   9  14
ENDBRANCH   6   8
ENDBRANCH   5   6
ENDBRANCH   4   5
ENDBRANCH   3   4
ENDBRANCH   2   3
ENDBRANCH   1   2
BRANCH   1  25
ATOM     25  C   UNL A   1      42.210  21.181  26.533  1.00  0.00     0.188 C 
BRANCH  25  26
ATOM     26  O   UNL A   1      43.502  21.769  26.342  1.00  0.00    -0.376 OA
BRANCH  26  27
ATOM     27  C   UNL A   1      43.887  22.825  27.209  1.00  0.00     0.202 C 
BRANCH  27  28
ATOM     28  C   UNL A   1      43.932  24.201  26.537  1.00  0.00     0.261 C 
BRANCH  28  29
ATOM     29  O   UNL A   1      42.736  24.910  26.901  1.00  0.00    -0.460 OA
BRANCH  29  30
ATOM     30  C   UNL A   1      42.171  25.621  25.900  1.00  0.00     0.338 C 
ATOM     31  O   UNL A   1      42.379  25.475  24.706  1.00  0.00    -0.246 OA
BRANCH  30  32
ATOM     32  C   UNL A   1      41.489  26.805  26.488  1.00  0.00     0.060 A 
ATOM     33  C   UNL A   1      42.091  28.030  26.295  1.00  0.00     0.016 A 
ATOM     34  C   UNL A   1      40.454  26.711  27.428  1.00  0.00     0.016 A 
ATOM     35  C   UNL A   1      41.784  29.082  27.165  1.00  0.00     0.010 A 
ATOM     36  C   UNL A   1      40.192  27.772  28.318  1.00  0.00     0.010 A 
ATOM     37  C   UNL A   1      40.939  28.960  28.285  1.00  0.00    -0.014 A 
BRANCH  37  38
ATOM     38  C   UNL A   1      40.782  29.906  29.475  1.00  0.00     0.031 A 
ATOM     39  C   UNL A   1      41.681  29.713  30.652  1.00  0.00     0.074 A 
ATOM     40  C   UNL A   1      39.949  30.978  29.710  1.00  0.00     0.049 A 
ATOM     41  N   UNL A   1      41.462  30.223  31.831  1.00  0.00    -0.248 NA
ATOM     42  C   UNL A   1      42.793  28.768  30.626  1.00  0.00     0.031 C 
ATOM     43  C   UNL A   1      40.448  32.213  30.340  1.00  0.00     0.029 A 
ATOM     44  N   UNL A   1      38.655  31.368  29.360  1.00  0.00    -0.354 N 
ATOM     45  C   UNL A   1      42.609  30.021  32.542  1.00  0.00     0.074 A 
ATOM     46  C   UNL A   1      43.197  28.876  31.894  1.00  0.00     0.031 C 
ATOM     47  C   UNL A   1      39.457  33.104  30.461  1.00  0.00     0.029 A 
ATOM     48  C   UNL A   1      38.216  32.505  30.011  1.00  0.00     0.049 A 
ATOM     49  H   UNL A   1      38.105  30.878  28.707  1.00  0.00     0.167 HD
ATOM     50  C   UNL A   1      43.085  31.004  33.366  1.00  0.00     0.037 A 
ATOM     51  C   UNL A   1      36.945  32.842  30.380  1.00  0.00     0.037 A 
ATOM     52  C   UNL A   1      42.128  32.125  33.568  1.00  0.00     0.049 A 
ATOM     53  C   UNL A   1      36.921  33.161  31.858  1.00  0.00     0.074 A 
ATOM     54  C   UNL A   1      42.174  33.482  33.267  1.00  0.00     0.029 A 
ATOM     55  N   UNL A   1      40.830  31.908  34.035  1.00  0.00    -0.354 N 
ATOM     56  N   UNL A   1      38.015  33.351  32.535  1.00  0.00    -0.248 NA
ATOM     57  C   UNL A   1      35.746  33.124  32.731  1.00  0.00     0.031 C 
ATOM     58  C   UNL A   1      40.955  34.089  33.677  1.00  0.00     0.029 A 
ATOM     59  C   UNL A   1      40.137  33.106  34.197  1.00  0.00     0.049 A 
ATOM     60  H   UNL A   1      40.451  31.019  34.225  1.00  0.00     0.167 HD
ATOM     61  C   UNL A   1      37.761  33.228  33.861  1.00  0.00     0.074 A 
ATOM     62  C   UNL A   1      36.317  33.143  33.950  1.00  0.00     0.031 C 
ATOM     63  C   UNL A   1      38.784  33.127  34.753  1.00  0.00     0.037 A 
BRANCH  50  64
ATOM     64  C   UNL A   1      44.575  31.135  33.737  1.00  0.00     0.064 A 
ATOM     65  C   UNL A   1      45.478  31.766  32.850  1.00  0.00     0.173 A 
ATOM     66  C   UNL A   1      45.213  30.582  34.873  1.00  0.00     0.173 A 
ATOM     67  F   UNL A   1      45.047  32.471  31.796  1.00  0.00    -0.203 F 
ATOM     68  C   UNL A   1      46.870  31.716  33.012  1.00  0.00     0.198 A 
ATOM     69  C   UNL A   1      46.599  30.532  35.037  1.00  0.00     0.198 A 
ATOM     70  F   UNL A   1      44.552  30.086  35.915  1.00  0.00    -0.203 F 
ATOM     71  F   UNL A   1      47.665  32.289  32.099  1.00  0.00    -0.200 F 
ATOM     72  C   UNL A   1      47.432  31.076  34.093  1.00  0.00     0.200 A 
ATOM     73  F   UNL A   1      47.110  29.941  36.128  1.00  0.00    -0.200 F 
ATOM     74  F   UNL A   1      48.761  31.008  34.243  1.00  0.00    -0.200 F 
ENDBRANCH  50  64
BRANCH  51  75
ATOM     75  C   UNL A   1      35.796  32.353  29.570  1.00  0.00     0.064 A 
ATOM     76  C   UNL A   1      34.880  33.295  29.060  1.00  0.00     0.173 A 
ATOM     77  C   UNL A   1      35.586  31.026  29.192  1.00  0.00     0.173 A 
ATOM     78  F   UNL A   1      34.938  34.570  29.477  1.00  0.00    -0.203 F 
ATOM     79  C   UNL A   1      33.901  32.952  28.121  1.00  0.00     0.198 A 
ATOM     80  C   UNL A   1      34.593  30.676  28.265  1.00  0.00     0.198 A 
ATOM     81  F   UNL A   1      36.368  30.051  29.675  1.00  0.00    -0.203 F 
ATOM     82  F   UNL A   1      33.072  33.886  27.635  1.00  0.00    -0.200 F 
ATOM     83  C   UNL A   1      33.786  31.644  27.692  1.00  0.00     0.200 A 
ATOM     84  F   UNL A   1      34.445  29.394  27.897  1.00  0.00    -0.200 F 
ATOM     85  F   UNL A   1      32.895  31.312  26.748  1.00  0.00    -0.200 F 
ENDBRANCH  51  75
BRANCH  63  86
ATOM     86  C   UNL A   1      38.569  33.094  36.231  1.00  0.00     0.064 A 
ATOM     87  C   UNL A   1      38.015  31.981  36.888  1.00  0.00     0.173 A 
ATOM     88  C   UNL A   1      38.786  34.241  37.018  1.00  0.00     0.173 A 
ATOM     89  F   UNL A   1      37.693  30.869  36.210  1.00  0.00    -0.203 F 
ATOM     90  C   UNL A   1      37.744  31.999  38.255  1.00  0.00     0.198 A 
ATOM     91  C   UNL A   1      38.467  34.272  38.373  1.00  0.00     0.198 A 
ATOM     92  F   UNL A   1      39.321  35.353  36.493  1.00  0.00    -0.203 F 
ATOM     93  F   UNL A   1      37.257  30.901  38.852  1.00  0.00    -0.200 F 
ATOM     94  C   UNL A   1      37.958  33.149  38.995  1.00  0.00     0.200 A 
ATOM     95  F   UNL A   1      38.652  35.402  39.072  1.00  0.00    -0.200 F 
ATOM     96  F   UNL A   1      37.669  33.174  40.302  1.00  0.00    -0.200 F 
ENDBRANCH  63  86
ENDBRANCH  37  38
ENDBRANCH  30  32
ENDBRANCH  29  30
ENDBRANCH  28  29
ENDBRANCH  27  28
ENDBRANCH  26  27
ENDBRANCH  25  26
ENDBRANCH   1  25
TORSDOF 21
ENDMDL
MODEL 2
REMARK VINA RESULT:     -10.5      0.554      1.776
REMARK SMILES Cc1ccccc1OCC(=O)c1nc(C)c(C(=O)OCCOCCOCCOC(=O)c2ccc(-c3c4nc(c(-c5c(F)c(F)c(F)c(F)c5F)c5ccc([nH]5)c(-c5c(F)c(F)c(F)c(F)c5F)c5nc(c(-c6c(F)c(F)c(F)c(F)c6F)c6ccc3[nH]6)C=C5)C=C4)cc2)s1
REMARK SMILES IDX 23 1 22 2 21 3 20 4 19 5 17 6 18 7 16 8 12 9 13 10 94 11
REMARK SMILES IDX 14 12 15 13 10 14 11 15 9 16 8 17 7 18 1 19 2 20 3 21 4 22
REMARK SMILES IDX 6 23 5 24 24 25 25 26 26 27 27 28 28 29 29 30 30 31 31 32
REMARK SMILES IDX 32 33 93 34 33 35 92 36 34 37 35 38 36 39 86 40 37 41 91 42
REMARK SMILES IDX 85 43 87 44 38 45 90 46 84 47 83 48 39 50 71 51 51 52 70 53
REMARK SMILES IDX 52 54 55 55 69 56 88 57 53 58 54 59 68 61 89 62 56 63 40 64
REMARK SMILES IDX 41 65 49 66 42 67 43 68 47 69 50 70 44 71 45 72 48 73 46 74
REMARK SMILES IDX 72 75 73 76 81 77 74 78 75 79 79 80 82 81 76 82 77 83 80 84
REMARK SMILES IDX 78 85 57 86 58 87 66 88 59 89 60 90 64 91 67 92 61 93 62 94
REMARK SMILES IDX 65 95 63 96
REMARK H PARENT 87 49 55 60
REMARK Flexibility Score: inf
ROOT
ATOM      1  C   UNL A   1      41.437  22.042  25.803  1.00  0.00     0.188 C 
ENDROOT
BRANCH   1   2
ATOM      2  O   UNL A   1      40.114  21.906  26.324  1.00  0.00    -0.376 OA
BRANCH   2   3
ATOM      3  C   UNL A   1      39.673  22.992  27.112  1.00  0.00     0.202 C 
BRANCH   3   4
ATOM      4  C   UNL A   1      38.582  23.763  26.394  1.00  0.00     0.261 C 
BRANCH   4   5
ATOM      5  O   UNL A   1      37.374  22.951  25.920  1.00  0.00    -0.459 OA
BRANCH   5   6
ATOM      6  C   UNL A   1      36.384  22.133  25.515  1.00  0.00     0.350 C 
ATOM      7  O   UNL A   1      36.647  20.931  25.577  1.00  0.00    -0.245 OA
BRANCH   6   8
ATOM      8  C   UNL A   1      35.072  22.587  24.948  1.00  0.00     0.136 A 
ATOM      9  C   UNL A   1      32.655  22.672  25.280  1.00  0.00     0.164 A 
ATOM     10  N   UNL A   1      32.989  23.317  24.191  1.00  0.00    -0.237 NA
ATOM     11  S   UNL A   1      33.790  21.426  25.482  1.00  0.00    -0.103 S 
ATOM     12  C   UNL A   1      34.287  23.693  24.475  1.00  0.00     0.064 A 
ATOM     13  C   UNL A   1      34.307  25.200  24.539  1.00  0.00     0.068 C 
BRANCH   9  14
ATOM     14  C   UNL A   1      31.912  23.272  26.382  1.00  0.00     0.228 C 
ATOM     15  O   UNL A   1      32.241  23.131  27.568  1.00  0.00    -0.288 OA
BRANCH  14  16
ATOM     16  C   UNL A   1      30.586  23.981  26.060  1.00  0.00     0.313 C 
BRANCH  16  17
ATOM     17  O   UNL A   1      30.199  25.228  26.611  1.00  0.00    -0.485 OA
BRANCH  17  18
ATOM     18  C   UNL A   1      30.720  26.327  25.990  1.00  0.00     0.122 A 
ATOM     19  C   UNL A   1      29.100  26.244  24.006  1.00  0.00     0.048 C 
ATOM     20  C   UNL A   1      30.228  26.855  24.789  1.00  0.00    -0.009 A 
ATOM     21  C   UNL A   1      30.804  28.038  24.301  1.00  0.00     0.007 A 
ATOM     22  C   UNL A   1      31.872  28.647  24.962  1.00  0.00     0.001 A 
ATOM     23  C   UNL A   1      31.819  26.912  26.629  1.00  0.00     0.047 A 
ATOM     24  C   UNL A   1      32.387  28.079  26.123  1.00  0.00     0.004 A 
ENDBRANCH  17  18
ENDBRANCH  16  17
ENDBRANCH  14  16
ENDBRANCH   9  14
ENDBRANCH   6   8
ENDBRANCH   5   6
ENDBRANCH   4   5
ENDBRANCH   3   4
ENDBRANCH   2   3
ENDBRANCH   1   2
BRANCH   1  25
ATOM     25  C   UNL A   1      42.530  21.254  26.539  1.00  0.00     0.188 C 
BRANCH  25  26
ATOM     26  O   UNL A   1      43.767  21.978  26.496  1.00  0.00    -0.376 OA
BRANCH  26  27
ATOM     27  C   UNL A   1      43.956  23.027  27.433  1.00  0.00     0.202 C 
BRANCH  27  28
ATOM     28  C   UNL A   1      43.964  24.427  26.811  1.00  0.00     0.261 C 
BRANCH  28  29
ATOM     29  O   UNL A   1      42.731  25.074  27.164  1.00  0.00    -0.460 OA
BRANCH  29  30
ATOM     30  C   UNL A   1      42.116  25.718  26.146  1.00  0.00     0.338 C 
ATOM     31  O   UNL A   1      42.284  25.509  24.955  1.00  0.00    -0.246 OA
BRANCH  30  32
ATOM     32  C   UNL A   1      41.431  26.920  26.692  1.00  0.00     0.060 A 
ATOM     33  C   UNL A   1      42.043  28.137  26.474  1.00  0.00     0.016 A 
ATOM     34  C   UNL A   1      40.383  26.856  27.619  1.00  0.00     0.016 A 
ATOM     35  C   UNL A   1      41.728  29.213  27.312  1.00  0.00     0.010 A 
ATOM     36  C   UNL A   1      40.113  27.943  28.476  1.00  0.00     0.010 A 
ATOM     37  C   UNL A   1      40.867  29.125  28.422  1.00  0.00    -0.014 A 
BRANCH  37  38
ATOM     38  C   UNL A   1      40.697  30.104  29.583  1.00  0.00     0.031 A 
ATOM     39  C   UNL A   1      41.589  29.950  30.771  1.00  0.00     0.074 A 
ATOM     40  C   UNL A   1      39.858  31.179  29.782  1.00  0.00     0.049 A 
ATOM     41  N   UNL A   1      41.361  30.492  31.933  1.00  0.00    -0.248 NA
ATOM     42  C   UNL A   1      42.707  29.010  30.778  1.00  0.00     0.031 C 
ATOM     43  C   UNL A   1      40.346  32.433  30.380  1.00  0.00     0.029 A 
ATOM     44  N   UNL A   1      38.564  31.552  29.413  1.00  0.00    -0.354 N 
ATOM     45  C   UNL A   1      42.504  30.315  32.658  1.00  0.00     0.074 A 
ATOM     46  C   UNL A   1      43.101  29.156  32.045  1.00  0.00     0.031 C 
ATOM     47  C   UNL A   1      39.351  33.322  30.470  1.00  0.00     0.029 A 
ATOM     48  C   UNL A   1      38.115  32.705  30.029  1.00  0.00     0.049 A 
ATOM     49  H   UNL A   1      38.020  31.040  28.771  1.00  0.00     0.167 HD
ATOM     50  C   UNL A   1      42.969  31.325  33.455  1.00  0.00     0.037 A 
ATOM     51  C   UNL A   1      36.841  33.045  30.380  1.00  0.00     0.037 A 
ATOM     52  C   UNL A   1      42.006  32.446  33.620  1.00  0.00     0.049 A 
ATOM     53  C   UNL A   1      36.805  33.406  31.848  1.00  0.00     0.074 A 
ATOM     54  C   UNL A   1      42.047  33.794  33.280  1.00  0.00     0.029 A 
ATOM     55  N   UNL A   1      40.706  32.235  34.084  1.00  0.00    -0.354 N 
ATOM     56  N   UNL A   1      37.894  33.621  32.526  1.00  0.00    -0.248 NA
ATOM     57  C   UNL A   1      35.625  33.387  32.715  1.00  0.00     0.031 C 
ATOM     58  C   UNL A   1      40.823  34.406  33.666  1.00  0.00     0.029 A 
ATOM     59  C   UNL A   1      40.006  33.433  34.208  1.00  0.00     0.049 A 
ATOM     60  H   UNL A   1      40.331  31.350  34.297  1.00  0.00     0.167 HD
ATOM     61  C   UNL A   1      37.632  33.534  33.853  1.00  0.00     0.074 A 
ATOM     62  C   UNL A   1      36.187  33.444  33.936  1.00  0.00     0.031 C 
ATOM     63  C   UNL A   1      38.650  33.464  34.755  1.00  0.00     0.037 A 
BRANCH  50  64
ATOM     64  C   UNL A   1      44.457  31.473  33.832  1.00  0.00     0.064 A 
ATOM     65  C   UNL A   1      44.903  31.122  35.127  1.00  0.00     0.173 A 
ATOM     66  C   UNL A   1      45.476  32.046  33.033  1.00  0.00     0.173 A 
ATOM     67  F   UNL A   1      44.124  30.436  35.974  1.00  0.00    -0.203 F 
ATOM     68  C   UNL A   1      46.180  31.444  35.610  1.00  0.00     0.198 A 
ATOM     69  C   UNL A   1      46.749  32.366  33.512  1.00  0.00     0.198 A 
ATOM     70  F   UNL A   1      45.334  32.302  31.736  1.00  0.00    -0.203 F 
ATOM     71  F   UNL A   1      46.511  31.128  36.869  1.00  0.00    -0.200 F 
ATOM     72  C   UNL A   1      47.095  32.089  34.810  1.00  0.00     0.200 A 
ATOM     73  F   UNL A   1      47.631  32.953  32.689  1.00  0.00    -0.200 F 
ATOM     74  F   UNL A   1      48.308  32.417  35.272  1.00  0.00    -0.200 F 
ENDBRANCH  50  64
BRANCH  51  75
ATOM     75  C   UNL A   1      35.699  32.528  29.577  1.00  0.00     0.064 A 
ATOM     76  C   UNL A   1      34.794  33.451  29.015  1.00  0.00     0.173 A 
ATOM     77  C   UNL A   1      35.486  31.186  29.254  1.00  0.00     0.173 A 
ATOM     78  F   UNL A   1      34.854  34.743  29.378  1.00  0.00    -0.203 F 
ATOM     79  C   UNL A   1      33.826  33.073  28.079  1.00  0.00     0.198 A 
ATOM     80  C   UNL A   1      34.503  30.802  28.329  1.00  0.00     0.198 A 
ATOM     81  F   UNL A   1      36.257  30.230  29.788  1.00  0.00    -0.203 F 
ATOM     82  F   UNL A   1      33.008  33.989  27.543  1.00  0.00    -0.200 F 
ATOM     83  C   UNL A   1      33.709  31.749  27.705  1.00  0.00     0.200 A 
ATOM     84  F   UNL A   1      34.353  29.506  28.015  1.00  0.00    -0.200 F 
ATOM     85  F   UNL A   1      32.828  31.380  26.765  1.00  0.00    -0.200 F 
ENDBRANCH  51  75
BRANCH  63  86
ATOM     86  C   UNL A   1      38.425  33.472  36.232  1.00  0.00     0.064 A 
ATOM     87  C   UNL A   1      38.809  34.549  37.048  1.00  0.00     0.173 A 
ATOM     88  C   UNL A   1      37.938  32.328  36.893  1.00  0.00     0.173 A 
ATOM     89  F   UNL A   1      39.362  35.652  36.521  1.00  0.00    -0.203 F 
ATOM     90  C   UNL A   1      38.668  34.504  38.434  1.00  0.00     0.198 A 
ATOM     91  C   UNL A   1      37.845  32.267  38.281  1.00  0.00     0.198 A 
ATOM     92  F   UNL A   1      37.533  31.249  36.209  1.00  0.00    -0.203 F 
ATOM     93  F   UNL A   1      39.005  35.571  39.173  1.00  0.00    -0.200 F 
ATOM     94  C   UNL A   1      38.197  33.359  39.051  1.00  0.00     0.200 A 
ATOM     95  F   UNL A   1      37.416  31.141  38.869  1.00  0.00    -0.200 F 
ATOM     96  F   UNL A   1      38.090  33.306  40.385  1.00  0.00    -0.200 F 
ENDBRANCH  63  86
ENDBRANCH  37  38
ENDBRANCH  30  32
ENDBRANCH  29  30
ENDBRANCH  28  29
ENDBRANCH  27  28
ENDBRANCH  26  27
ENDBRANCH  25  26
ENDBRANCH   1  25
TORSDOF 21
ENDMDL
MODEL 3
REMARK VINA RESULT:     -10.2      4.939      9.233
REMARK SMILES Cc1ccccc1OCC(=O)c1nc(C)c(C(=O)OCCOCCOCCOC(=O)c2ccc(-c3c4nc(c(-c5c(F)c(F)c(F)c(F)c5F)c5ccc([nH]5)c(-c5c(F)c(F)c(F)c(F)c5F)c5nc(c(-c6c(F)c(F)c(F)c(F)c6F)c6ccc3[nH]6)C=C5)C=C4)cc2)s1
REMARK SMILES IDX 23 1 22 2 21 3 20 4 19 5 17 6 18 7 16 8 12 9 13 10 94 11
REMARK SMILES IDX 14 12 15 13 10 14 11 15 9 16 8 17 7 18 1 19 2 20 3 21 4 22
REMARK SMILES IDX 6 23 5 24 24 25 25 26 26 27 27 28 28 29 29 30 30 31 31 32
REMARK SMILES IDX 32 33 93 34 33 35 92 36 34 37 35 38 36 39 86 40 37 41 91 42
REMARK SMILES IDX 85 43 87 44 38 45 90 46 84 47 83 48 39 50 71 51 51 52 70 53
REMARK SMILES IDX 52 54 55 55 69 56 88 57 53 58 54 59 68 61 89 62 56 63 40 64
REMARK SMILES IDX 41 65 49 66 42 67 43 68 47 69 50 70 44 71 45 72 48 73 46 74
REMARK SMILES IDX 72 75 73 76 81 77 74 78 75 79 79 80 82 81 76 82 77 83 80 84
REMARK SMILES IDX 78 85 57 86 58 87 66 88 59 89 60 90 64 91 67 92 61 93 62 94
REMARK SMILES IDX 65 95 63 96
REMARK H PARENT 87 49 55 60
REMARK Flexibility Score: inf
ROOT
ATOM      1  C   UNL A   1      42.158  19.381  26.817  1.00  0.00     0.188 C 
ENDROOT
BRANCH   1   2
ATOM      2  O   UNL A   1      40.986  20.123  27.159  1.00  0.00    -0.376 OA
BRANCH   2   3
ATOM      3  C   UNL A   1      40.046  20.259  26.113  1.00  0.00     0.202 C 
BRANCH   3   4
ATOM      4  C   UNL A   1      39.470  21.662  26.094  1.00  0.00     0.261 C 
BRANCH   4   5
ATOM      5  O   UNL A   1      38.044  21.804  25.557  1.00  0.00    -0.459 OA
BRANCH   5   6
ATOM      6  C   UNL A   1      36.837  21.912  24.969  1.00  0.00     0.350 C 
ATOM      7  O   UNL A   1      36.854  22.408  23.841  1.00  0.00    -0.245 OA
BRANCH   6   8
ATOM      8  C   UNL A   1      35.531  21.551  25.612  1.00  0.00     0.136 A 
ATOM      9  C   UNL A   1      33.388  22.388  26.426  1.00  0.00     0.164 A 
ATOM     10  N   UNL A   1      33.441  21.084  26.538  1.00  0.00    -0.237 NA
ATOM     11  S   UNL A   1      34.975  22.963  26.599  1.00  0.00    -0.103 S 
ATOM     12  C   UNL A   1      34.339  20.754  25.541  1.00  0.00     0.064 A 
ATOM     13  C   UNL A   1      33.585  19.938  24.520  1.00  0.00     0.068 C 
BRANCH   9  14
ATOM     14  C   UNL A   1      32.351  23.095  25.685  1.00  0.00     0.228 C 
ATOM     15  O   UNL A   1      31.323  22.539  25.273  1.00  0.00    -0.288 OA
BRANCH  14  16
ATOM     16  C   UNL A   1      32.621  24.552  25.272  1.00  0.00     0.313 C 
BRANCH  16  17
ATOM     17  O   UNL A   1      32.136  25.141  24.077  1.00  0.00    -0.485 OA
BRANCH  17  18
ATOM     18  C   UNL A   1      32.790  26.272  23.678  1.00  0.00     0.122 A 
ATOM     19  C   UNL A   1      32.777  25.664  21.189  1.00  0.00     0.048 C 
ATOM     20  C   UNL A   1      33.089  26.574  22.343  1.00  0.00    -0.009 A 
ATOM     21  C   UNL A   1      33.691  27.810  22.063  1.00  0.00     0.007 A 
ATOM     22  C   UNL A   1      34.032  28.695  23.087  1.00  0.00     0.001 A 
ATOM     23  C   UNL A   1      33.172  27.139  24.708  1.00  0.00     0.047 A 
ATOM     24  C   UNL A   1      33.781  28.356  24.413  1.00  0.00     0.004 A 
ENDBRANCH  17  18
ENDBRANCH  16  17
ENDBRANCH  14  16
ENDBRANCH   9  14
ENDBRANCH   6   8
ENDBRANCH   5   6
ENDBRANCH   4   5
ENDBRANCH   3   4
ENDBRANCH   2   3
ENDBRANCH   1   2
BRANCH   1  25
ATOM     25  C   UNL A   1      43.063  20.014  25.750  1.00  0.00     0.188 C 
BRANCH  25  26
ATOM     26  O   UNL A   1      43.454  21.331  26.160  1.00  0.00    -0.376 OA
BRANCH  26  27
ATOM     27  C   UNL A   1      43.123  22.417  25.309  1.00  0.00     0.202 C 
BRANCH  27  28
ATOM     28  C   UNL A   1      44.338  23.165  24.749  1.00  0.00     0.261 C 
BRANCH  28  29
ATOM     29  O   UNL A   1      44.532  24.348  25.542  1.00  0.00    -0.460 OA
BRANCH  29  30
ATOM     30  C   UNL A   1      45.460  24.230  26.519  1.00  0.00     0.338 C 
ATOM     31  O   UNL A   1      46.358  23.406  26.563  1.00  0.00    -0.246 OA
BRANCH  30  32
ATOM     32  C   UNL A   1      45.035  25.063  27.676  1.00  0.00     0.060 A 
ATOM     33  C   UNL A   1      46.026  25.754  28.342  1.00  0.00     0.016 A 
ATOM     34  C   UNL A   1      43.771  24.968  28.272  1.00  0.00     0.016 A 
ATOM     35  C   UNL A   1      45.795  26.169  29.658  1.00  0.00     0.010 A 
ATOM     36  C   UNL A   1      43.577  25.360  29.613  1.00  0.00     0.010 A 
ATOM     37  C   UNL A   1      44.629  25.870  30.388  1.00  0.00    -0.014 A 
BRANCH  37  38
ATOM     38  C   UNL A   1      44.390  25.971  31.894  1.00  0.00     0.031 A 
ATOM     39  C   UNL A   1      43.891  27.267  32.443  1.00  0.00     0.074 A 
ATOM     40  C   UNL A   1      44.528  25.065  32.923  1.00  0.00     0.049 A 
ATOM     41  N   UNL A   1      43.938  27.595  33.703  1.00  0.00    -0.248 NA
ATOM     42  C   UNL A   1      43.477  28.364  31.574  1.00  0.00     0.031 C 
ATOM     43  C   UNL A   1      43.519  24.959  33.991  1.00  0.00     0.029 A 
ATOM     44  N   UNL A   1      45.349  23.978  33.229  1.00  0.00    -0.354 N 
ATOM     45  C   UNL A   1      43.182  28.725  33.823  1.00  0.00     0.074 A 
ATOM     46  C   UNL A   1      43.237  29.295  32.500  1.00  0.00     0.031 C 
ATOM     47  C   UNL A   1      43.872  24.013  34.869  1.00  0.00     0.029 A 
ATOM     48  C   UNL A   1      45.175  23.486  34.510  1.00  0.00     0.049 A 
ATOM     49  H   UNL A   1      45.993  23.595  32.591  1.00  0.00     0.167 HD
ATOM     50  C   UNL A   1      42.352  28.880  34.899  1.00  0.00     0.037 A 
ATOM     51  C   UNL A   1      46.092  22.896  35.330  1.00  0.00     0.037 A 
ATOM     52  C   UNL A   1      42.562  27.864  35.965  1.00  0.00     0.049 A 
ATOM     53  C   UNL A   1      46.118  23.622  36.656  1.00  0.00     0.074 A 
ATOM     54  C   UNL A   1      41.751  26.876  36.511  1.00  0.00     0.029 A 
ATOM     55  N   UNL A   1      43.815  27.656  36.545  1.00  0.00    -0.354 N 
ATOM     56  N   UNL A   1      45.188  24.467  36.992  1.00  0.00    -0.248 NA
ATOM     57  C   UNL A   1      47.220  23.622  37.620  1.00  0.00     0.031 C 
ATOM     58  C   UNL A   1      42.483  26.174  37.507  1.00  0.00     0.029 A 
ATOM     59  C   UNL A   1      43.760  26.697  37.554  1.00  0.00     0.049 A 
ATOM     60  H   UNL A   1      44.636  28.129  36.275  1.00  0.00     0.167 HD
ATOM     61  C   UNL A   1      45.627  25.253  38.006  1.00  0.00     0.074 A 
ATOM     62  C   UNL A   1      46.884  24.657  38.413  1.00  0.00     0.031 C 
ATOM     63  C   UNL A   1      44.940  26.375  38.357  1.00  0.00     0.037 A 
BRANCH  50  64
ATOM     64  C   UNL A   1      41.088  29.762  34.859  1.00  0.00     0.064 A 
ATOM     65  C   UNL A   1      40.909  30.795  35.808  1.00  0.00     0.173 A 
ATOM     66  C   UNL A   1      39.970  29.594  34.008  1.00  0.00     0.173 A 
ATOM     67  F   UNL A   1      41.910  31.199  36.601  1.00  0.00    -0.203 F 
ATOM     68  C   UNL A   1      39.695  31.477  35.976  1.00  0.00     0.198 A 
ATOM     69  C   UNL A   1      38.760  30.273  34.173  1.00  0.00     0.198 A 
ATOM     70  F   UNL A   1      39.972  28.798  32.942  1.00  0.00    -0.203 F 
ATOM     71  F   UNL A   1      39.585  32.406  36.935  1.00  0.00    -0.200 F 
ATOM     72  C   UNL A   1      38.612  31.198  35.175  1.00  0.00     0.200 A 
ATOM     73  F   UNL A   1      37.740  30.008  33.343  1.00  0.00    -0.200 F 
ATOM     74  F   UNL A   1      37.445  31.832  35.343  1.00  0.00    -0.200 F 
ENDBRANCH  50  64
BRANCH  51  75
ATOM     75  C   UNL A   1      47.214  22.121  34.733  1.00  0.00     0.064 A 
ATOM     76  C   UNL A   1      48.453  22.765  34.543  1.00  0.00     0.173 A 
ATOM     77  C   UNL A   1      47.173  20.762  34.416  1.00  0.00     0.173 A 
ATOM     78  F   UNL A   1      48.542  24.094  34.703  1.00  0.00    -0.203 F 
ATOM     79  C   UNL A   1      49.612  22.064  34.191  1.00  0.00     0.198 A 
ATOM     80  C   UNL A   1      48.330  20.061  34.045  1.00  0.00     0.198 A 
ATOM     81  F   UNL A   1      46.025  20.079  34.507  1.00  0.00    -0.203 F 
ATOM     82  F   UNL A   1      50.779  22.710  34.054  1.00  0.00    -0.200 F 
ATOM     83  C   UNL A   1      49.556  20.700  33.982  1.00  0.00     0.200 A 
ATOM     84  F   UNL A   1      48.259  18.746  33.784  1.00  0.00    -0.200 F 
ATOM     85  F   UNL A   1      50.669  20.006  33.706  1.00  0.00    -0.200 F 
ENDBRANCH  51  75
BRANCH  63  86
ATOM     86  C   UNL A   1      45.316  27.221  39.529  1.00  0.00     0.064 A 
ATOM     87  C   UNL A   1      44.885  26.934  40.836  1.00  0.00     0.173 A 
ATOM     88  C   UNL A   1      46.012  28.432  39.351  1.00  0.00     0.173 A 
ATOM     89  F   UNL A   1      44.142  25.847  41.095  1.00  0.00    -0.203 F 
ATOM     90  C   UNL A   1      45.176  27.781  41.904  1.00  0.00     0.198 A 
ATOM     91  C   UNL A   1      46.258  29.299  40.411  1.00  0.00     0.198 A 
ATOM     92  F   UNL A   1      46.478  28.795  38.148  1.00  0.00    -0.203 F 
ATOM     93  F   UNL A   1      44.784  27.448  43.143  1.00  0.00    -0.200 F 
ATOM     94  C   UNL A   1      45.852  28.969  41.690  1.00  0.00     0.200 A 
ATOM     95  F   UNL A   1      46.887  30.462  40.186  1.00  0.00    -0.200 F 
ATOM     96  F   UNL A   1      46.105  29.796  42.713  1.00  0.00    -0.200 F 
ENDBRANCH  63  86
ENDBRANCH  37  38
ENDBRANCH  30  32
ENDBRANCH  29  30
ENDBRANCH  28  29
ENDBRANCH  27  28
ENDBRANCH  26  27
ENDBRANCH  25  26
ENDBRANCH   1  25
TORSDOF 21
ENDMDL
