MODEL 1
REMARK VINA RESULT:     -10.4      0.000      0.000
REMARK SMILES C[C@H](C(=O)OCCOCCOCCOC(=O)c1ccc(-c2c3nc(c(-c4c(F)c(F)c(F)c(F)c4F)c4ccc([nH]4)c(-c4c(F)c(F)c(F)c(F)c4F)c4nc(c(-c5c(F)c(F)c(F)c(F)c5F)c5ccc2[nH]5)C=C4)C=C3)cc1)[C@H](C)[N@@H+]1CC[C@H]([NH+]2CCCCC2)C1
REMARK SMILES IDX 9 1 8 2 7 3 6 4 5 5 3 6 4 7 2 8 1 9 80 10 81 11 82 12 83 13
REMARK SMILES IDX 92 14 84 16 85 17 86 18 87 19 91 20 88 22 90 23 89 24 10 25
REMARK SMILES IDX 11 26 12 27 13 28 14 29 15 30 16 31 17 32 18 33 79 34 19 35
REMARK SMILES IDX 78 36 20 37 21 38 22 39 72 40 23 41 77 42 71 43 73 44 24 45
REMARK SMILES IDX 76 46 70 47 69 48 25 50 57 51 37 52 56 53 38 54 41 55 55 56
REMARK SMILES IDX 74 57 39 58 40 59 54 61 75 62 42 63 26 64 27 65 35 66 28 67
REMARK SMILES IDX 29 68 33 69 36 70 30 71 31 72 34 73 32 74 58 75 59 76 67 77
REMARK SMILES IDX 60 78 61 79 65 80 68 81 62 82 63 83 66 84 64 85 43 86 44 87
REMARK SMILES IDX 52 88 45 89 46 90 50 91 53 92 47 93 48 94 51 95 49 96
REMARK H PARENT 82 15 86 21 73 49 41 60
REMARK Flexibility Score: inf
ROOT
ATOM      1  C   UNL A   1      35.029  22.870  25.555  1.00  0.00     0.188 C 
ENDROOT
BRANCH   1   2
ATOM      2  O   UNL A   1      34.294  23.878  24.887  1.00  0.00    -0.376 OA
BRANCH   2   3
ATOM      3  C   UNL A   1      33.017  23.557  24.349  1.00  0.00     0.202 C 
BRANCH   3   4
ATOM      4  C   UNL A   1      32.702  23.852  22.876  1.00  0.00     0.261 C 
BRANCH   4   5
ATOM      5  O   UNL A   1      31.947  25.060  22.664  1.00  0.00    -0.463 OA
BRANCH   5   6
ATOM      6  C   UNL A   1      32.599  26.100  22.085  1.00  0.00     0.314 C 
ATOM      7  O   UNL A   1      33.503  25.967  21.265  1.00  0.00    -0.252 OA
BRANCH   6   8
ATOM      8  C   UNL A   1      32.048  27.478  22.468  1.00  0.00     0.154 C 
ATOM      9  C   UNL A   1      30.514  27.346  22.377  1.00  0.00     0.026 C 
BRANCH   8  10
ATOM     10  C   UNL A   1      32.600  28.112  23.806  1.00  0.00     0.195 C 
ATOM     11  C   UNL A   1      34.068  28.580  23.637  1.00  0.00     0.076 C 
BRANCH  10  12
ATOM     12  N   UNL A   1      32.535  27.180  24.978  1.00  0.00    -0.327 N 
ATOM     13  C   UNL A   1      31.341  27.352  25.823  1.00  0.00     0.269 C 
ATOM     14  C   UNL A   1      33.654  27.383  25.947  1.00  0.00     0.328 C 
ATOM     15  H   UNL A   1      32.555  26.269  24.519  1.00  0.00     0.348 HD
ATOM     16  C   UNL A   1      31.672  28.512  26.743  1.00  0.00     0.132 C 
ATOM     17  C   UNL A   1      33.111  28.202  27.153  1.00  0.00     0.245 C 
BRANCH  17  18
ATOM     18  N   UNL A   1      33.916  29.324  27.687  1.00  0.00    -0.328 N 
ATOM     19  C   UNL A   1      35.327  29.306  27.279  1.00  0.00     0.262 C 
ATOM     20  C   UNL A   1      33.298  30.621  27.354  1.00  0.00     0.262 C 
ATOM     21  H   UNL A   1      33.918  29.195  28.699  1.00  0.00     0.348 HD
ATOM     22  C   UNL A   1      36.121  30.444  27.932  1.00  0.00     0.062 C 
ATOM     23  C   UNL A   1      34.028  31.798  28.001  1.00  0.00     0.062 C 
ATOM     24  C   UNL A   1      35.503  31.802  27.627  1.00  0.00     0.012 C 
ENDBRANCH  17  18
ENDBRANCH  10  12
ENDBRANCH   8  10
ENDBRANCH   6   8
ENDBRANCH   5   6
ENDBRANCH   4   5
ENDBRANCH   3   4
ENDBRANCH   2   3
ENDBRANCH   1   2
BRANCH   1  25
ATOM     25  C   UNL A   1      35.277  21.521  24.860  1.00  0.00     0.188 C 
BRANCH  25  26
ATOM     26  O   UNL A   1      36.278  20.663  25.337  1.00  0.00    -0.376 OA
BRANCH  26  27
ATOM     27  C   UNL A   1      37.638  20.855  24.993  1.00  0.00     0.202 C 
BRANCH  27  28
ATOM     28  C   UNL A   1      38.835  20.104  25.599  1.00  0.00     0.261 C 
BRANCH  28  29
ATOM     29  O   UNL A   1      40.050  20.826  25.788  1.00  0.00    -0.460 OA
BRANCH  29  30
ATOM     30  C   UNL A   1      40.510  20.869  27.064  1.00  0.00     0.338 C 
ATOM     31  O   UNL A   1      40.827  19.927  27.773  1.00  0.00    -0.246 OA
BRANCH  30  32
ATOM     32  C   UNL A   1      40.801  22.275  27.392  1.00  0.00     0.060 A 
ATOM     33  C   UNL A   1      40.105  23.288  26.715  1.00  0.00     0.016 A 
ATOM     34  C   UNL A   1      41.739  22.588  28.375  1.00  0.00     0.016 A 
ATOM     35  C   UNL A   1      40.354  24.625  27.014  1.00  0.00     0.010 A 
ATOM     36  C   UNL A   1      42.011  23.928  28.651  1.00  0.00     0.010 A 
ATOM     37  C   UNL A   1      41.338  24.949  27.955  1.00  0.00    -0.014 A 
BRANCH  37  38
ATOM     38  C   UNL A   1      41.819  26.345  28.068  1.00  0.00     0.031 A 
ATOM     39  C   UNL A   1      43.165  26.675  27.487  1.00  0.00     0.074 A 
ATOM     40  C   UNL A   1      41.085  27.293  28.672  1.00  0.00     0.049 A 
ATOM     41  N   UNL A   1      43.848  27.788  27.547  1.00  0.00    -0.248 NA
ATOM     42  C   UNL A   1      43.833  25.595  26.741  1.00  0.00     0.031 C 
ATOM     43  C   UNL A   1      39.743  27.104  29.220  1.00  0.00     0.029 A 
ATOM     44  N   UNL A   1      41.377  28.607  28.935  1.00  0.00    -0.354 N 
ATOM     45  C   UNL A   1      45.030  27.537  26.863  1.00  0.00     0.074 A 
ATOM     46  C   UNL A   1      44.984  26.162  26.418  1.00  0.00     0.031 C 
ATOM     47  C   UNL A   1      39.335  28.260  29.772  1.00  0.00     0.029 A 
ATOM     48  C   UNL A   1      40.402  29.253  29.653  1.00  0.00     0.049 A 
ATOM     49  H   UNL A   1      42.208  29.045  28.639  1.00  0.00     0.167 HD
ATOM     50  C   UNL A   1      46.061  28.383  26.626  1.00  0.00     0.037 A 
ATOM     51  C   UNL A   1      40.391  30.494  30.176  1.00  0.00     0.037 A 
ATOM     52  C   UNL A   1      46.101  29.748  27.077  1.00  0.00     0.049 A 
ATOM     53  C   UNL A   1      41.591  31.389  29.976  1.00  0.00     0.074 A 
ATOM     54  C   UNL A   1      47.090  30.694  26.877  1.00  0.00     0.029 A 
ATOM     55  N   UNL A   1      45.108  30.359  27.831  1.00  0.00    -0.354 N 
ATOM     56  N   UNL A   1      42.699  31.157  29.313  1.00  0.00    -0.248 NA
ATOM     57  C   UNL A   1      41.537  32.719  30.599  1.00  0.00     0.031 C 
ATOM     58  C   UNL A   1      46.728  31.855  27.567  1.00  0.00     0.029 A 
ATOM     59  C   UNL A   1      45.478  31.660  28.134  1.00  0.00     0.049 A 
ATOM     60  H   UNL A   1      44.267  29.931  28.111  1.00  0.00     0.167 HD
ATOM     61  C   UNL A   1      43.454  32.320  29.408  1.00  0.00     0.074 A 
ATOM     62  C   UNL A   1      42.673  33.260  30.184  1.00  0.00     0.031 C 
ATOM     63  C   UNL A   1      44.683  32.587  28.898  1.00  0.00     0.037 A 
BRANCH  50  64
ATOM     64  C   UNL A   1      47.248  27.838  25.886  1.00  0.00     0.064 A 
ATOM     65  C   UNL A   1      48.383  27.354  26.554  1.00  0.00     0.173 A 
ATOM     66  C   UNL A   1      47.239  27.781  24.484  1.00  0.00     0.173 A 
ATOM     67  F   UNL A   1      48.450  27.401  27.893  1.00  0.00    -0.203 F 
ATOM     68  C   UNL A   1      49.477  26.863  25.845  1.00  0.00     0.198 A 
ATOM     69  C   UNL A   1      48.319  27.258  23.780  1.00  0.00     0.198 A 
ATOM     70  F   UNL A   1      46.179  28.231  23.795  1.00  0.00    -0.203 F 
ATOM     71  F   UNL A   1      50.572  26.458  26.502  1.00  0.00    -0.200 F 
ATOM     72  C   UNL A   1      49.440  26.807  24.460  1.00  0.00     0.200 A 
ATOM     73  F   UNL A   1      48.276  27.193  22.441  1.00  0.00    -0.200 F 
ATOM     74  F   UNL A   1      50.490  26.328  23.779  1.00  0.00    -0.200 F 
ENDBRANCH  50  64
BRANCH  51  75
ATOM     75  C   UNL A   1      39.217  30.967  30.957  1.00  0.00     0.064 A 
ATOM     76  C   UNL A   1      38.275  31.838  30.390  1.00  0.00     0.173 A 
ATOM     77  C   UNL A   1      39.028  30.588  32.295  1.00  0.00     0.173 A 
ATOM     78  F   UNL A   1      38.426  32.254  29.124  1.00  0.00    -0.203 F 
ATOM     79  C   UNL A   1      37.204  32.326  31.136  1.00  0.00     0.198 A 
ATOM     80  C   UNL A   1      37.938  31.051  33.030  1.00  0.00     0.198 A 
ATOM     81  F   UNL A   1      39.902  29.763  32.889  1.00  0.00    -0.203 F 
ATOM     82  F   UNL A   1      36.351  33.201  30.585  1.00  0.00    -0.200 F 
ATOM     83  C   UNL A   1      37.032  31.928  32.452  1.00  0.00     0.200 A 
ATOM     84  F   UNL A   1      37.771  30.655  34.299  1.00  0.00    -0.200 F 
ATOM     85  F   UNL A   1      36.003  32.399  33.170  1.00  0.00    -0.200 F 
ENDBRANCH  51  75
BRANCH  63  86
ATOM     86  C   UNL A   1      45.240  33.967  29.113  1.00  0.00     0.064 A 
ATOM     87  C   UNL A   1      44.967  35.025  28.234  1.00  0.00     0.173 A 
ATOM     88  C   UNL A   1      46.022  34.244  30.247  1.00  0.00     0.173 A 
ATOM     89  F   UNL A   1      44.234  34.813  27.130  1.00  0.00    -0.203 F 
ATOM     90  C   UNL A   1      45.478  36.300  28.465  1.00  0.00     0.198 A 
ATOM     91  C   UNL A   1      46.501  35.528  30.494  1.00  0.00     0.198 A 
ATOM     92  F   UNL A   1      46.306  33.271  31.127  1.00  0.00    -0.203 F 
ATOM     93  F   UNL A   1      45.248  37.282  27.583  1.00  0.00    -0.200 F 
ATOM     94  C   UNL A   1      46.237  36.552  29.599  1.00  0.00     0.200 A 
ATOM     95  F   UNL A   1      47.217  35.772  31.601  1.00  0.00    -0.200 F 
ATOM     96  F   UNL A   1      46.719  37.781  29.825  1.00  0.00    -0.200 F 
ENDBRANCH  63  86
ENDBRANCH  37  38
ENDBRANCH  30  32
ENDBRANCH  29  30
ENDBRANCH  28  29
ENDBRANCH  27  28
ENDBRANCH  26  27
ENDBRANCH  25  26
ENDBRANCH   1  25
TORSDOF 20
ENDMDL
MODEL 2
REMARK VINA RESULT:     -10.3      0.923      2.113
REMARK SMILES C[C@H](C(=O)OCCOCCOCCOC(=O)c1ccc(-c2c3nc(c(-c4c(F)c(F)c(F)c(F)c4F)c4ccc([nH]4)c(-c4c(F)c(F)c(F)c(F)c4F)c4nc(c(-c5c(F)c(F)c(F)c(F)c5F)c5ccc2[nH]5)C=C4)C=C3)cc1)[C@H](C)[N@@H+]1CC[C@H]([NH+]2CCCCC2)C1
REMARK SMILES IDX 9 1 8 2 7 3 6 4 5 5 3 6 4 7 2 8 1 9 80 10 81 11 82 12 83 13
REMARK SMILES IDX 92 14 84 16 85 17 86 18 87 19 91 20 88 22 90 23 89 24 10 25
REMARK SMILES IDX 11 26 12 27 13 28 14 29 15 30 16 31 17 32 18 33 79 34 19 35
REMARK SMILES IDX 78 36 20 37 21 38 22 39 72 40 23 41 77 42 71 43 73 44 24 45
REMARK SMILES IDX 76 46 70 47 69 48 25 50 57 51 37 52 56 53 38 54 41 55 55 56
REMARK SMILES IDX 74 57 39 58 40 59 54 61 75 62 42 63 26 64 27 65 35 66 28 67
REMARK SMILES IDX 29 68 33 69 36 70 30 71 31 72 34 73 32 74 58 75 59 76 67 77
REMARK SMILES IDX 60 78 61 79 65 80 68 81 62 82 63 83 66 84 64 85 43 86 44 87
REMARK SMILES IDX 52 88 45 89 46 90 50 91 53 92 47 93 48 94 51 95 49 96
REMARK H PARENT 82 15 86 21 73 49 41 60
REMARK Flexibility Score: inf
ROOT
ATOM      1  C   UNL A   1      35.681  21.580  25.910  1.00  0.00     0.188 C 
ENDROOT
BRANCH   1   2
ATOM      2  O   UNL A   1      35.493  22.870  25.358  1.00  0.00    -0.376 OA
BRANCH   2   3
ATOM      3  C   UNL A   1      35.707  23.062  23.966  1.00  0.00     0.202 C 
BRANCH   3   4
ATOM      4  C   UNL A   1      34.517  23.301  23.026  1.00  0.00     0.261 C 
BRANCH   4   5
ATOM      5  O   UNL A   1      33.750  24.480  23.333  1.00  0.00    -0.463 OA
BRANCH   5   6
ATOM      6  C   UNL A   1      32.774  24.826  22.456  1.00  0.00     0.314 C 
ATOM      7  O   UNL A   1      32.921  24.825  21.237  1.00  0.00    -0.252 OA
BRANCH   6   8
ATOM      8  C   UNL A   1      31.422  25.136  23.110  1.00  0.00     0.154 C 
ATOM      9  C   UNL A   1      30.779  23.763  23.390  1.00  0.00     0.026 C 
BRANCH   8  10
ATOM     10  C   UNL A   1      31.441  26.142  24.327  1.00  0.00     0.195 C 
ATOM     11  C   UNL A   1      30.709  25.545  25.556  1.00  0.00     0.076 C 
BRANCH  10  12
ATOM     12  N   UNL A   1      30.825  27.471  24.012  1.00  0.00    -0.327 N 
ATOM     13  C   UNL A   1      31.372  28.122  22.810  1.00  0.00     0.269 C 
ATOM     14  C   UNL A   1      31.066  28.493  25.077  1.00  0.00     0.328 C 
ATOM     15  H   UNL A   1      29.842  27.222  23.903  1.00  0.00     0.348 HD
ATOM     16  C   UNL A   1      32.645  28.805  23.275  1.00  0.00     0.132 C 
ATOM     17  C   UNL A   1      32.215  29.428  24.601  1.00  0.00     0.245 C 
BRANCH  17  18
ATOM     18  N   UNL A   1      33.289  29.796  25.552  1.00  0.00    -0.328 N 
ATOM     19  C   UNL A   1      32.833  30.582  26.707  1.00  0.00     0.262 C 
ATOM     20  C   UNL A   1      34.029  28.601  26.000  1.00  0.00     0.262 C 
ATOM     21  H   UNL A   1      33.913  30.409  25.028  1.00  0.00     0.348 HD
ATOM     22  C   UNL A   1      34.003  31.001  27.605  1.00  0.00     0.062 C 
ATOM     23  C   UNL A   1      35.228  28.955  26.878  1.00  0.00     0.062 C 
ATOM     24  C   UNL A   1      34.805  29.794  28.075  1.00  0.00     0.012 C 
ENDBRANCH  17  18
ENDBRANCH  10  12
ENDBRANCH   8  10
ENDBRANCH   6   8
ENDBRANCH   5   6
ENDBRANCH   4   5
ENDBRANCH   3   4
ENDBRANCH   2   3
ENDBRANCH   1   2
BRANCH   1  25
ATOM     25  C   UNL A   1      35.743  20.357  24.981  1.00  0.00     0.188 C 
BRANCH  25  26
ATOM     26  O   UNL A   1      36.957  19.679  24.798  1.00  0.00    -0.376 OA
BRANCH  26  27
ATOM     27  C   UNL A   1      38.186  20.245  25.216  1.00  0.00     0.202 C 
BRANCH  27  28
ATOM     28  C   UNL A   1      39.400  19.466  25.751  1.00  0.00     0.261 C 
BRANCH  28  29
ATOM     29  O   UNL A   1      40.634  20.167  25.888  1.00  0.00    -0.460 OA
BRANCH  29  30
ATOM     30  C   UNL A   1      41.083  20.312  27.161  1.00  0.00     0.338 C 
ATOM     31  O   UNL A   1      41.480  19.438  27.914  1.00  0.00    -0.246 OA
BRANCH  30  32
ATOM     32  C   UNL A   1      41.244  21.753  27.421  1.00  0.00     0.060 A 
ATOM     33  C   UNL A   1      40.601  22.672  26.577  1.00  0.00     0.016 A 
ATOM     34  C   UNL A   1      42.007  22.191  28.503  1.00  0.00     0.016 A 
ATOM     35  C   UNL A   1      40.728  24.039  26.808  1.00  0.00     0.010 A 
ATOM     36  C   UNL A   1      42.161  23.561  28.714  1.00  0.00     0.010 A 
ATOM     37  C   UNL A   1      41.543  24.488  27.853  1.00  0.00    -0.014 A 
BRANCH  37  38
ATOM     38  C   UNL A   1      41.924  25.916  27.930  1.00  0.00     0.031 A 
ATOM     39  C   UNL A   1      43.240  26.327  27.332  1.00  0.00     0.074 A 
ATOM     40  C   UNL A   1      41.128  26.824  28.516  1.00  0.00     0.049 A 
ATOM     41  N   UNL A   1      43.842  27.487  27.359  1.00  0.00    -0.248 NA
ATOM     42  C   UNL A   1      43.978  25.280  26.606  1.00  0.00     0.031 C 
ATOM     43  C   UNL A   1      39.807  26.554  29.079  1.00  0.00     0.029 A 
ATOM     44  N   UNL A   1      41.328  28.162  28.746  1.00  0.00    -0.354 N 
ATOM     45  C   UNL A   1      45.035  27.304  26.673  1.00  0.00     0.074 A 
ATOM     46  C   UNL A   1      45.084  25.919  26.261  1.00  0.00     0.031 C 
ATOM     47  C   UNL A   1      39.320  27.691  29.607  1.00  0.00     0.029 A 
ATOM     48  C   UNL A   1      40.313  28.754  29.456  1.00  0.00     0.049 A 
ATOM     49  H   UNL A   1      42.123  28.650  28.433  1.00  0.00     0.167 HD
ATOM     50  C   UNL A   1      46.002  28.214  26.409  1.00  0.00     0.037 A 
ATOM     51  C   UNL A   1      40.217  30.004  29.950  1.00  0.00     0.037 A 
ATOM     52  C   UNL A   1      45.947  29.590  26.826  1.00  0.00     0.049 A 
ATOM     53  C   UNL A   1      41.349  30.976  29.719  1.00  0.00     0.074 A 
ATOM     54  C   UNL A   1      46.866  30.598  26.596  1.00  0.00     0.029 A 
ATOM     55  N   UNL A   1      44.918  30.147  27.573  1.00  0.00    -0.354 N 
ATOM     56  N   UNL A   1      42.468  30.807  29.054  1.00  0.00    -0.248 NA
ATOM     57  C   UNL A   1      41.204  32.314  30.311  1.00  0.00     0.031 C 
ATOM     58  C   UNL A   1      46.426  31.747  27.261  1.00  0.00     0.029 A 
ATOM     59  C   UNL A   1      45.196  31.477  27.842  1.00  0.00     0.049 A 
ATOM     60  H   UNL A   1      44.111  29.667  27.869  1.00  0.00     0.167 HD
ATOM     61  C   UNL A   1      43.138  32.023  29.116  1.00  0.00     0.074 A 
ATOM     62  C   UNL A   1      42.296  32.924  29.874  1.00  0.00     0.031 C 
ATOM     63  C   UNL A   1      44.341  32.364  28.590  1.00  0.00     0.037 A 
BRANCH  50  64
ATOM     64  C   UNL A   1      47.220  27.737  25.672  1.00  0.00     0.064 A 
ATOM     65  C   UNL A   1      47.303  27.771  24.272  1.00  0.00     0.173 A 
ATOM     66  C   UNL A   1      48.330  27.256  26.383  1.00  0.00     0.173 A 
ATOM     67  F   UNL A   1      46.264  28.205  23.544  1.00  0.00    -0.203 F 
ATOM     68  C   UNL A   1      48.440  27.313  23.610  1.00  0.00     0.198 A 
ATOM     69  C   UNL A   1      49.478  26.831  25.720  1.00  0.00     0.198 A 
ATOM     70  F   UNL A   1      48.304  27.201  27.723  1.00  0.00    -0.203 F 
ATOM     71  F   UNL A   1      48.475  27.302  22.271  1.00  0.00    -0.200 F 
ATOM     72  C   UNL A   1      49.529  26.852  24.335  1.00  0.00     0.200 A 
ATOM     73  F   UNL A   1      50.534  26.398  26.424  1.00  0.00    -0.200 F 
ATOM     74  F   UNL A   1      50.624  26.418  23.697  1.00  0.00    -0.200 F 
ENDBRANCH  50  64
BRANCH  51  75
ATOM     75  C   UNL A   1      39.017  30.411  30.728  1.00  0.00     0.064 A 
ATOM     76  C   UNL A   1      37.927  31.033  30.103  1.00  0.00     0.173 A 
ATOM     77  C   UNL A   1      38.947  30.219  32.117  1.00  0.00     0.173 A 
ATOM     78  F   UNL A   1      37.957  31.267  28.782  1.00  0.00    -0.203 F 
ATOM     79  C   UNL A   1      36.824  31.465  30.837  1.00  0.00     0.198 A 
ATOM     80  C   UNL A   1      37.829  30.622  32.845  1.00  0.00     0.198 A 
ATOM     81  F   UNL A   1      39.964  29.636  32.766  1.00  0.00    -0.203 F 
ATOM     82  F   UNL A   1      35.822  32.107  30.221  1.00  0.00    -0.200 F 
ATOM     83  C   UNL A   1      36.773  31.254  32.206  1.00  0.00     0.200 A 
ATOM     84  F   UNL A   1      37.780  30.407  34.167  1.00  0.00    -0.200 F 
ATOM     85  F   UNL A   1      35.713  31.671  32.913  1.00  0.00    -0.200 F 
ENDBRANCH  51  75
BRANCH  63  86
ATOM     86  C   UNL A   1      44.800  33.785  28.768  1.00  0.00     0.064 A 
ATOM     87  C   UNL A   1      45.614  34.176  29.841  1.00  0.00     0.173 A 
ATOM     88  C   UNL A   1      44.456  34.762  27.819  1.00  0.00     0.173 A 
ATOM     89  F   UNL A   1      45.962  33.285  30.782  1.00  0.00    -0.203 F 
ATOM     90  C   UNL A   1      46.042  35.494  29.975  1.00  0.00     0.198 A 
ATOM     91  C   UNL A   1      44.916  36.071  27.936  1.00  0.00     0.198 A 
ATOM     92  F   UNL A   1      43.688  34.443  26.766  1.00  0.00    -0.203 F 
ATOM     93  F   UNL A   1      46.774  35.854  31.037  1.00  0.00    -0.200 F 
ATOM     94  C   UNL A   1      45.700  36.438  29.018  1.00  0.00     0.200 A 
ATOM     95  F   UNL A   1      44.601  36.977  26.999  1.00  0.00    -0.200 F 
ATOM     96  F   UNL A   1      46.123  37.704  29.142  1.00  0.00    -0.200 F 
ENDBRANCH  63  86
ENDBRANCH  37  38
ENDBRANCH  30  32
ENDBRANCH  29  30
ENDBRANCH  28  29
ENDBRANCH  27  28
ENDBRANCH  26  27
ENDBRANCH  25  26
ENDBRANCH   1  25
TORSDOF 20
ENDMDL
MODEL 3
REMARK VINA RESULT:     -10.1      4.413      7.191
REMARK SMILES C[C@H](C(=O)OCCOCCOCCOC(=O)c1ccc(-c2c3nc(c(-c4c(F)c(F)c(F)c(F)c4F)c4ccc([nH]4)c(-c4c(F)c(F)c(F)c(F)c4F)c4nc(c(-c5c(F)c(F)c(F)c(F)c5F)c5ccc2[nH]5)C=C4)C=C3)cc1)[C@H](C)[N@@H+]1CC[C@H]([NH+]2CCCCC2)C1
REMARK SMILES IDX 9 1 8 2 7 3 6 4 5 5 3 6 4 7 2 8 1 9 80 10 81 11 82 12 83 13
REMARK SMILES IDX 92 14 84 16 85 17 86 18 87 19 91 20 88 22 90 23 89 24 10 25
REMARK SMILES IDX 11 26 12 27 13 28 14 29 15 30 16 31 17 32 18 33 79 34 19 35
REMARK SMILES IDX 78 36 20 37 21 38 22 39 72 40 23 41 77 42 71 43 73 44 24 45
REMARK SMILES IDX 76 46 70 47 69 48 25 50 57 51 37 52 56 53 38 54 41 55 55 56
REMARK SMILES IDX 74 57 39 58 40 59 54 61 75 62 42 63 26 64 27 65 35 66 28 67
REMARK SMILES IDX 29 68 33 69 36 70 30 71 31 72 34 73 32 74 58 75 59 76 67 77
REMARK SMILES IDX 60 78 61 79 65 80 68 81 62 82 63 83 66 84 64 85 43 86 44 87
REMARK SMILES IDX 52 88 45 89 46 90 50 91 53 92 47 93 48 94 51 95 49 96
REMARK H PARENT 82 15 86 21 73 49 41 60
REMARK Flexibility Score: inf
ROOT
ATOM      1  C   UNL A   1      39.594  21.157  26.264  1.00  0.00     0.188 C 
ENDROOT
BRANCH   1   2
ATOM      2  O   UNL A   1      38.659  20.912  25.230  1.00  0.00    -0.376 OA
BRANCH   2   3
ATOM      3  C   UNL A   1      37.418  21.605  25.245  1.00  0.00     0.202 C 
BRANCH   3   4
ATOM      4  C   UNL A   1      36.095  20.828  25.185  1.00  0.00     0.261 C 
BRANCH   4   5
ATOM      5  O   UNL A   1      34.932  21.655  25.002  1.00  0.00    -0.463 OA
BRANCH   5   6
ATOM      6  C   UNL A   1      33.770  21.215  25.548  1.00  0.00     0.314 C 
ATOM      7  O   UNL A   1      33.352  20.067  25.426  1.00  0.00    -0.252 OA
BRANCH   6   8
ATOM      8  C   UNL A   1      33.052  22.251  26.419  1.00  0.00     0.154 C 
ATOM      9  C   UNL A   1      33.970  22.464  27.640  1.00  0.00     0.026 C 
BRANCH   8  10
ATOM     10  C   UNL A   1      32.565  23.567  25.694  1.00  0.00     0.195 C 
ATOM     11  C   UNL A   1      31.403  23.265  24.713  1.00  0.00     0.076 C 
BRANCH  10  12
ATOM     12  N   UNL A   1      33.651  24.268  24.936  1.00  0.00    -0.327 N 
ATOM     13  C   UNL A   1      34.215  25.438  25.628  1.00  0.00     0.269 C 
ATOM     14  C   UNL A   1      33.178  24.849  23.642  1.00  0.00     0.328 C 
ATOM     15  H   UNL A   1      34.336  23.521  24.820  1.00  0.00     0.348 HD
ATOM     16  C   UNL A   1      33.254  26.574  25.332  1.00  0.00     0.132 C 
ATOM     17  C   UNL A   1      32.965  26.376  23.845  1.00  0.00     0.245 C 
BRANCH  17  18
ATOM     18  N   UNL A   1      31.742  27.014  23.305  1.00  0.00    -0.328 N 
ATOM     19  C   UNL A   1      30.555  26.869  24.159  1.00  0.00     0.262 C 
ATOM     20  C   UNL A   1      31.984  28.435  22.992  1.00  0.00     0.262 C 
ATOM     21  H   UNL A   1      31.530  26.505  22.447  1.00  0.00     0.348 HD
ATOM     22  C   UNL A   1      29.309  27.477  23.505  1.00  0.00     0.062 C 
ATOM     23  C   UNL A   1      30.784  29.093  22.310  1.00  0.00     0.062 C 
ATOM     24  C   UNL A   1      29.524  28.942  23.149  1.00  0.00     0.012 C 
ENDBRANCH  17  18
ENDBRANCH  10  12
ENDBRANCH   8  10
ENDBRANCH   6   8
ENDBRANCH   5   6
ENDBRANCH   4   5
ENDBRANCH   3   4
ENDBRANCH   2   3
ENDBRANCH   1   2
BRANCH   1  25
ATOM     25  C   UNL A   1      40.807  20.227  26.429  1.00  0.00     0.188 C 
BRANCH  25  26
ATOM     26  O   UNL A   1      41.971  20.459  25.681  1.00  0.00    -0.376 OA
BRANCH  26  27
ATOM     27  C   UNL A   1      42.718  21.652  25.833  1.00  0.00     0.202 C 
BRANCH  27  28
ATOM     28  C   UNL A   1      43.510  22.366  24.725  1.00  0.00     0.261 C 
BRANCH  28  29
ATOM     29  O   UNL A   1      43.296  23.765  24.546  1.00  0.00    -0.460 OA
BRANCH  29  30
ATOM     30  C   UNL A   1      44.220  24.573  25.124  1.00  0.00     0.338 C 
ATOM     31  O   UNL A   1      45.387  24.721  24.800  1.00  0.00    -0.246 OA
BRANCH  30  32
ATOM     32  C   UNL A   1      43.519  25.446  26.083  1.00  0.00     0.060 A 
ATOM     33  C   UNL A   1      43.729  26.832  26.017  1.00  0.00     0.016 A 
ATOM     34  C   UNL A   1      42.647  24.900  27.023  1.00  0.00     0.016 A 
ATOM     35  C   UNL A   1      43.070  27.679  26.905  1.00  0.00     0.010 A 
ATOM     36  C   UNL A   1      42.013  25.746  27.932  1.00  0.00     0.010 A 
ATOM     37  C   UNL A   1      42.241  27.134  27.892  1.00  0.00    -0.014 A 
BRANCH  37  38
ATOM     38  C   UNL A   1      41.775  27.981  29.014  1.00  0.00     0.031 A 
ATOM     39  C   UNL A   1      42.558  27.945  30.295  1.00  0.00     0.074 A 
ATOM     40  C   UNL A   1      40.685  28.757  28.900  1.00  0.00     0.049 A 
ATOM     41  N   UNL A   1      42.300  28.509  31.445  1.00  0.00    -0.248 NA
ATOM     42  C   UNL A   1      43.802  27.158  30.274  1.00  0.00     0.031 C 
ATOM     43  C   UNL A   1      39.882  28.916  27.691  1.00  0.00     0.029 A 
ATOM     44  N   UNL A   1      40.062  29.549  29.830  1.00  0.00    -0.354 N 
ATOM     45  C   UNL A   1      43.337  28.132  32.288  1.00  0.00     0.074 A 
ATOM     46  C   UNL A   1      44.215  27.272  31.526  1.00  0.00     0.031 C 
ATOM     47  C   UNL A   1      38.856  29.744  27.959  1.00  0.00     0.029 A 
ATOM     48  C   UNL A   1      38.910  30.136  29.367  1.00  0.00     0.049 A 
ATOM     49  H   UNL A   1      40.405  29.683  30.743  1.00  0.00     0.167 HD
ATOM     50  C   UNL A   1      43.538  28.476  33.582  1.00  0.00     0.037 A 
ATOM     51  C   UNL A   1      37.994  30.879  30.018  1.00  0.00     0.037 A 
ATOM     52  C   UNL A   1      42.657  29.328  34.334  1.00  0.00     0.049 A 
ATOM     53  C   UNL A   1      38.194  31.174  31.485  1.00  0.00     0.074 A 
ATOM     54  C   UNL A   1      42.777  29.752  35.645  1.00  0.00     0.029 A 
ATOM     55  N   UNL A   1      41.481  29.878  33.841  1.00  0.00    -0.354 N 
ATOM     56  N   UNL A   1      39.185  30.833  32.275  1.00  0.00    -0.248 NA
ATOM     57  C   UNL A   1      37.146  31.960  32.152  1.00  0.00     0.031 C 
ATOM     58  C   UNL A   1      41.641  30.502  35.966  1.00  0.00     0.029 A 
ATOM     59  C   UNL A   1      40.849  30.610  34.833  1.00  0.00     0.049 A 
ATOM     60  H   UNL A   1      41.146  29.764  32.922  1.00  0.00     0.167 HD
ATOM     61  C   UNL A   1      38.898  31.391  33.515  1.00  0.00     0.074 A 
ATOM     62  C   UNL A   1      37.645  32.102  33.371  1.00  0.00     0.031 C 
ATOM     63  C   UNL A   1      39.608  31.322  34.669  1.00  0.00     0.037 A 
BRANCH  50  64
ATOM     64  C   UNL A   1      44.734  27.891  34.276  1.00  0.00     0.064 A 
ATOM     65  C   UNL A   1      45.984  28.528  34.268  1.00  0.00     0.173 A 
ATOM     66  C   UNL A   1      44.620  26.681  34.978  1.00  0.00     0.173 A 
ATOM     67  F   UNL A   1      46.152  29.678  33.599  1.00  0.00    -0.203 F 
ATOM     68  C   UNL A   1      47.081  27.961  34.911  1.00  0.00     0.198 A 
ATOM     69  C   UNL A   1      45.710  26.134  35.648  1.00  0.00     0.198 A 
ATOM     70  F   UNL A   1      43.448  26.029  35.017  1.00  0.00    -0.203 F 
ATOM     71  F   UNL A   1      48.279  28.559  34.844  1.00  0.00    -0.200 F 
ATOM     72  C   UNL A   1      46.942  26.769  35.607  1.00  0.00     0.200 A 
ATOM     73  F   UNL A   1      45.569  24.989  36.331  1.00  0.00    -0.200 F 
ATOM     74  F   UNL A   1      47.997  26.228  36.231  1.00  0.00    -0.200 F 
ENDBRANCH  50  64
BRANCH  51  75
ATOM     75  C   UNL A   1      36.793  31.383  29.302  1.00  0.00     0.064 A 
ATOM     76  C   UNL A   1      35.754  30.516  28.935  1.00  0.00     0.173 A 
ATOM     77  C   UNL A   1      36.670  32.734  28.940  1.00  0.00     0.173 A 
ATOM     78  F   UNL A   1      35.835  29.211  29.231  1.00  0.00    -0.203 F 
ATOM     79  C   UNL A   1      34.651  30.975  28.216  1.00  0.00     0.198 A 
ATOM     80  C   UNL A   1      35.551  33.198  28.251  1.00  0.00     0.198 A 
ATOM     81  F   UNL A   1      37.637  33.605  29.260  1.00  0.00    -0.203 F 
ATOM     82  F   UNL A   1      33.700  30.113  27.830  1.00  0.00    -0.200 F 
ATOM     83  C   UNL A   1      34.548  32.315  27.881  1.00  0.00     0.200 A 
ATOM     84  F   UNL A   1      35.452  34.496  27.937  1.00  0.00    -0.200 F 
ATOM     85  F   UNL A   1      33.488  32.757  27.188  1.00  0.00    -0.200 F 
ENDBRANCH  51  75
BRANCH  63  86
ATOM     86  C   UNL A   1      39.078  32.079  35.857  1.00  0.00     0.064 A 
ATOM     87  C   UNL A   1      38.230  31.482  36.801  1.00  0.00     0.173 A 
ATOM     88  C   UNL A   1      39.467  33.411  36.076  1.00  0.00     0.173 A 
ATOM     89  F   UNL A   1      37.820  30.216  36.634  1.00  0.00    -0.203 F 
ATOM     90  C   UNL A   1      37.768  32.197  37.903  1.00  0.00     0.198 A 
ATOM     91  C   UNL A   1      39.032  34.111  37.198  1.00  0.00     0.198 A 
ATOM     92  F   UNL A   1      40.285  34.028  35.210  1.00  0.00    -0.203 F 
ATOM     93  F   UNL A   1      36.917  31.622  38.763  1.00  0.00    -0.200 F 
ATOM     94  C   UNL A   1      38.176  33.507  38.105  1.00  0.00     0.200 A 
ATOM     95  F   UNL A   1      39.445  35.370  37.401  1.00  0.00    -0.200 F 
ATOM     96  F   UNL A   1      37.740  34.190  39.172  1.00  0.00    -0.200 F 
ENDBRANCH  63  86
ENDBRANCH  37  38
ENDBRANCH  30  32
ENDBRANCH  29  30
ENDBRANCH  28  29
ENDBRANCH  27  28
ENDBRANCH  26  27
ENDBRANCH  25  26
ENDBRANCH   1  25
TORSDOF 20
ENDMDL
