MODEL 1
REMARK VINA RESULT:      -9.6      0.000      0.000
REMARK SMILES C[C@H](S[C@H]1[NH+]=C(Cl)[NH+]=C2N=CN=C21)C(=O)OCCOCCOCCOC(=O)c1ccc(-c2c3nc(c(-c4c(F)c(F)c(F)c(F)c4F)c4ccc([nH]4)c(-c4c(F)c(F)c(F)c(F)c4F)c4nc(c(-c5c(F)c(F)c(F)c(F)c5F)c5ccc2[nH]5)C=C4)C=C3)cc1
REMARK SMILES IDX 20 1 19 2 18 3 17 4 16 5 14 6 15 7 2 8 1 9 3 10 4 11 5 12
REMARK SMILES IDX 13 13 6 14 9 16 12 17 7 18 8 19 10 20 11 21 21 23 22 24
REMARK SMILES IDX 23 25 24 26 25 27 26 28 27 29 28 30 29 31 90 32 30 33 89 34
REMARK SMILES IDX 31 35 32 36 33 37 83 38 34 39 88 40 82 41 84 42 35 43 87 44
REMARK SMILES IDX 81 45 80 46 36 48 68 49 48 50 67 51 49 52 52 53 66 54 85 55
REMARK SMILES IDX 50 56 51 57 65 59 86 60 53 61 37 62 38 63 46 64 39 65 40 66
REMARK SMILES IDX 44 67 47 68 41 69 42 70 45 71 43 72 69 73 70 74 78 75 71 76
REMARK SMILES IDX 72 77 76 78 79 79 73 80 74 81 77 82 75 83 54 84 55 85 63 86
REMARK SMILES IDX 56 87 57 88 61 89 64 90 58 91 59 92 62 93 60 94
REMARK H PARENT 5 15 8 22 84 47 52 58
REMARK Flexibility Score: inf
ROOT
ATOM      1  C   UNL A   1      45.113  19.698  24.637  1.00  0.00     0.188 C 
ENDROOT
BRANCH   1   2
ATOM      2  O   UNL A   1      45.850  20.723  25.280  1.00  0.00    -0.376 OA
BRANCH   2   3
ATOM      3  C   UNL A   1      45.923  21.981  24.629  1.00  0.00     0.202 C 
BRANCH   3   4
ATOM      4  C   UNL A   1      44.605  22.660  24.206  1.00  0.00     0.261 C 
BRANCH   4   5
ATOM      5  O   UNL A   1      43.802  23.214  25.285  1.00  0.00    -0.462 OA
BRANCH   5   6
ATOM      6  C   UNL A   1      43.806  24.567  25.421  1.00  0.00     0.319 C 
ATOM      7  O   UNL A   1      42.977  25.289  24.865  1.00  0.00    -0.251 OA
BRANCH   6   8
ATOM      8  C   UNL A   1      44.824  25.179  26.408  1.00  0.00     0.160 C 
ATOM      9  C   UNL A   1      45.986  25.733  25.593  1.00  0.00     0.032 C 
BRANCH   8  10
ATOM     10  S   UNL A   1      45.539  24.100  27.729  1.00  0.00    -0.067 SA
BRANCH  10  11
ATOM     11  C   UNL A   1      45.719  25.263  29.171  1.00  0.00     0.384 C 
ATOM     12  N   UNL A   1      44.939  24.998  30.383  1.00  0.00    -0.156 N 
ATOM     13  C   UNL A   1      47.148  25.486  29.520  1.00  0.00     0.214 C 
ATOM     14  C   UNL A   1      45.368  25.337  31.546  1.00  0.00     0.514 C 
ATOM     15  H   UNL A   1      44.065  24.551  30.305  1.00  0.00     0.455 HD
ATOM     16  C   UNL A   1      47.424  25.895  30.900  1.00  0.00     0.338 C 
ATOM     17  N   UNL A   1      48.272  25.536  28.875  1.00  0.00    -0.225 NA
ATOM     18  Cl  UNL A   1      44.343  25.058  32.889  1.00  0.00     0.068 Cl
ATOM     19  N   UNL A   1      46.577  25.880  31.852  1.00  0.00    -0.118 N 
ATOM     20  N   UNL A   1      48.740  26.228  31.013  1.00  0.00    -0.173 NA
ATOM     21  C   UNL A   1      49.196  25.970  29.824  1.00  0.00     0.229 C 
ATOM     22  H   UNL A   1      46.782  26.237  32.746  1.00  0.00     0.464 HD
ENDBRANCH  10  11
ENDBRANCH   8  10
ENDBRANCH   6   8
ENDBRANCH   5   6
ENDBRANCH   4   5
ENDBRANCH   3   4
ENDBRANCH   2   3
ENDBRANCH   1   2
BRANCH   1  23
ATOM     23  C   UNL A   1      43.986  18.989  25.426  1.00  0.00     0.188 C 
BRANCH  23  24
ATOM     24  O   UNL A   1      42.656  19.208  25.024  1.00  0.00    -0.376 OA
BRANCH  24  25
ATOM     25  C   UNL A   1      41.683  19.529  25.999  1.00  0.00     0.202 C 
BRANCH  25  26
ATOM     26  C   UNL A   1      41.774  20.812  26.842  1.00  0.00     0.261 C 
BRANCH  26  27
ATOM     27  O   UNL A   1      40.535  21.216  27.449  1.00  0.00    -0.460 OA
BRANCH  27  28
ATOM     28  C   UNL A   1      39.889  22.273  26.881  1.00  0.00     0.338 C 
ATOM     29  O   UNL A   1      38.888  22.222  26.196  1.00  0.00    -0.246 OA
BRANCH  28  30
ATOM     30  C   UNL A   1      40.444  23.571  27.192  1.00  0.00     0.060 A 
ATOM     31  C   UNL A   1      39.738  24.663  26.683  1.00  0.00     0.016 A 
ATOM     32  C   UNL A   1      41.509  23.688  28.082  1.00  0.00     0.016 A 
ATOM     33  C   UNL A   1      40.108  25.917  27.071  1.00  0.00     0.010 A 
ATOM     34  C   UNL A   1      41.845  24.946  28.516  1.00  0.00     0.010 A 
ATOM     35  C   UNL A   1      41.131  26.039  28.013  1.00  0.00    -0.014 A 
BRANCH  35  36
ATOM     36  C   UNL A   1      41.230  27.339  28.635  1.00  0.00     0.031 A 
ATOM     37  C   UNL A   1      42.386  28.143  28.134  1.00  0.00     0.074 A 
ATOM     38  C   UNL A   1      40.313  27.756  29.518  1.00  0.00     0.049 A 
ATOM     39  N   UNL A   1      43.362  28.634  28.825  1.00  0.00    -0.248 NA
ATOM     40  C   UNL A   1      42.573  28.262  26.673  1.00  0.00     0.031 C 
ATOM     41  C   UNL A   1      39.036  27.125  29.854  1.00  0.00     0.029 A 
ATOM     42  N   UNL A   1      40.286  28.909  30.224  1.00  0.00    -0.354 N 
ATOM     43  C   UNL A   1      44.202  29.265  27.911  1.00  0.00     0.074 A 
ATOM     44  C   UNL A   1      43.755  28.875  26.602  1.00  0.00     0.031 C 
ATOM     45  C   UNL A   1      38.260  28.026  30.493  1.00  0.00     0.029 A 
ATOM     46  C   UNL A   1      39.034  29.234  30.717  1.00  0.00     0.049 A 
ATOM     47  H   UNL A   1      41.083  29.466  30.373  1.00  0.00     0.167 HD
ATOM     48  C   UNL A   1      45.044  30.255  28.314  1.00  0.00     0.037 A 
ATOM     49  C   UNL A   1      38.660  30.450  31.179  1.00  0.00     0.037 A 
ATOM     50  C   UNL A   1      45.336  30.126  29.720  1.00  0.00     0.049 A 
ATOM     51  C   UNL A   1      39.900  31.211  31.487  1.00  0.00     0.074 A 
ATOM     52  C   UNL A   1      45.951  29.162  30.496  1.00  0.00     0.029 A 
ATOM     53  N   UNL A   1      44.646  30.928  30.592  1.00  0.00    -0.354 N 
ATOM     54  N   UNL A   1      40.709  30.915  32.465  1.00  0.00    -0.248 NA
ATOM     55  C   UNL A   1      40.478  32.026  30.427  1.00  0.00     0.031 C 
ATOM     56  C   UNL A   1      45.226  29.158  31.724  1.00  0.00     0.029 A 
ATOM     57  C   UNL A   1      44.256  30.158  31.655  1.00  0.00     0.049 A 
ATOM     58  H   UNL A   1      44.463  31.888  30.475  1.00  0.00     0.167 HD
ATOM     59  C   UNL A   1      41.979  31.120  31.947  1.00  0.00     0.074 A 
ATOM     60  C   UNL A   1      41.773  31.899  30.729  1.00  0.00     0.031 C 
ATOM     61  C   UNL A   1      43.042  30.393  32.400  1.00  0.00     0.037 A 
BRANCH  48  62
ATOM     62  C   UNL A   1      45.199  31.564  27.565  1.00  0.00     0.064 A 
ATOM     63  C   UNL A   1      46.437  31.841  26.947  1.00  0.00     0.173 A 
ATOM     64  C   UNL A   1      44.341  32.676  27.715  1.00  0.00     0.173 A 
ATOM     65  F   UNL A   1      47.332  30.864  26.737  1.00  0.00    -0.203 F 
ATOM     66  C   UNL A   1      46.834  33.144  26.637  1.00  0.00     0.198 A 
ATOM     67  C   UNL A   1      44.724  33.969  27.364  1.00  0.00     0.198 A 
ATOM     68  F   UNL A   1      43.142  32.592  28.300  1.00  0.00    -0.203 F 
ATOM     69  F   UNL A   1      48.078  33.372  26.195  1.00  0.00    -0.200 F 
ATOM     70  C   UNL A   1      45.984  34.209  26.863  1.00  0.00     0.200 A 
ATOM     71  F   UNL A   1      43.887  34.989  27.602  1.00  0.00    -0.200 F 
ATOM     72  F   UNL A   1      46.391  35.465  26.645  1.00  0.00    -0.200 F 
ENDBRANCH  48  62
BRANCH  49  73
ATOM     73  C   UNL A   1      37.336  31.099  31.054  1.00  0.00     0.064 A 
ATOM     74  C   UNL A   1      36.600  31.438  32.199  1.00  0.00     0.173 A 
ATOM     75  C   UNL A   1      36.884  31.640  29.833  1.00  0.00     0.173 A 
ATOM     76  F   UNL A   1      36.989  30.998  33.404  1.00  0.00    -0.203 F 
ATOM     77  C   UNL A   1      35.496  32.292  32.133  1.00  0.00     0.198 A 
ATOM     78  C   UNL A   1      35.774  32.482  29.768  1.00  0.00     0.198 A 
ATOM     79  F   UNL A   1      37.562  31.443  28.694  1.00  0.00    -0.203 F 
ATOM     80  F   UNL A   1      34.860  32.648  33.257  1.00  0.00    -0.200 F 
ATOM     81  C   UNL A   1      35.090  32.821  30.919  1.00  0.00     0.200 A 
ATOM     82  F   UNL A   1      35.413  33.013  28.590  1.00  0.00    -0.200 F 
ATOM     83  F   UNL A   1      34.069  33.687  30.864  1.00  0.00    -0.200 F 
ENDBRANCH  49  73
BRANCH  61  84
ATOM     84  C   UNL A   1      42.863  29.603  33.664  1.00  0.00     0.064 A 
ATOM     85  C   UNL A   1      42.344  28.298  33.719  1.00  0.00     0.173 A 
ATOM     86  C   UNL A   1      43.366  30.149  34.852  1.00  0.00     0.173 A 
ATOM     87  F   UNL A   1      41.940  27.666  32.610  1.00  0.00    -0.203 F 
ATOM     88  C   UNL A   1      42.288  27.596  34.922  1.00  0.00     0.198 A 
ATOM     89  C   UNL A   1      43.346  29.431  36.044  1.00  0.00     0.198 A 
ATOM     90  F   UNL A   1      43.924  31.370  34.847  1.00  0.00    -0.203 F 
ATOM     91  F   UNL A   1      41.769  26.359  34.955  1.00  0.00    -0.200 F 
ATOM     92  C   UNL A   1      42.795  28.161  36.081  1.00  0.00     0.200 A 
ATOM     93  F   UNL A   1      43.886  29.962  37.148  1.00  0.00    -0.200 F 
ATOM     94  F   UNL A   1      42.778  27.471  37.230  1.00  0.00    -0.200 F 
ENDBRANCH  61  84
ENDBRANCH  35  36
ENDBRANCH  28  30
ENDBRANCH  27  28
ENDBRANCH  26  27
ENDBRANCH  25  26
ENDBRANCH  24  25
ENDBRANCH  23  24
ENDBRANCH   1  23
TORSDOF 19
ENDMDL
MODEL 2
REMARK VINA RESULT:      -9.6      1.607      2.486
REMARK SMILES C[C@H](S[C@H]1[NH+]=C(Cl)[NH+]=C2N=CN=C21)C(=O)OCCOCCOCCOC(=O)c1ccc(-c2c3nc(c(-c4c(F)c(F)c(F)c(F)c4F)c4ccc([nH]4)c(-c4c(F)c(F)c(F)c(F)c4F)c4nc(c(-c5c(F)c(F)c(F)c(F)c5F)c5ccc2[nH]5)C=C4)C=C3)cc1
REMARK SMILES IDX 20 1 19 2 18 3 17 4 16 5 14 6 15 7 2 8 1 9 3 10 4 11 5 12
REMARK SMILES IDX 13 13 6 14 9 16 12 17 7 18 8 19 10 20 11 21 21 23 22 24
REMARK SMILES IDX 23 25 24 26 25 27 26 28 27 29 28 30 29 31 90 32 30 33 89 34
REMARK SMILES IDX 31 35 32 36 33 37 83 38 34 39 88 40 82 41 84 42 35 43 87 44
REMARK SMILES IDX 81 45 80 46 36 48 68 49 48 50 67 51 49 52 52 53 66 54 85 55
REMARK SMILES IDX 50 56 51 57 65 59 86 60 53 61 37 62 38 63 46 64 39 65 40 66
REMARK SMILES IDX 44 67 47 68 41 69 42 70 45 71 43 72 69 73 70 74 78 75 71 76
REMARK SMILES IDX 72 77 76 78 79 79 73 80 74 81 77 82 75 83 54 84 55 85 63 86
REMARK SMILES IDX 56 87 57 88 61 89 64 90 58 91 59 92 62 93 60 94
REMARK H PARENT 5 15 8 22 84 47 52 58
REMARK Flexibility Score: inf
ROOT
ATOM      1  C   UNL A   1      44.573  19.434  24.482  1.00  0.00     0.188 C 
ENDROOT
BRANCH   1   2
ATOM      2  O   UNL A   1      45.851  19.940  24.819  1.00  0.00    -0.376 OA
BRANCH   2   3
ATOM      3  C   UNL A   1      46.077  21.327  24.625  1.00  0.00     0.202 C 
BRANCH   3   4
ATOM      4  C   UNL A   1      44.898  22.196  24.141  1.00  0.00     0.261 C 
BRANCH   4   5
ATOM      5  O   UNL A   1      44.100  22.820  25.185  1.00  0.00    -0.462 OA
BRANCH   5   6
ATOM      6  C   UNL A   1      44.388  24.114  25.487  1.00  0.00     0.319 C 
ATOM      7  O   UNL A   1      43.780  25.060  24.984  1.00  0.00    -0.251 OA
BRANCH   6   8
ATOM      8  C   UNL A   1      45.437  24.370  26.591  1.00  0.00     0.160 C 
ATOM      9  C   UNL A   1      45.239  23.316  27.673  1.00  0.00     0.032 C 
BRANCH   8  10
ATOM     10  S   UNL A   1      45.468  26.020  27.424  1.00  0.00    -0.067 SA
BRANCH  10  11
ATOM     11  C   UNL A   1      47.081  26.751  26.855  1.00  0.00     0.384 C 
ATOM     12  N   UNL A   1      48.311  25.986  27.077  1.00  0.00    -0.156 N 
ATOM     13  C   UNL A   1      47.009  27.204  25.440  1.00  0.00     0.214 C 
ATOM     14  C   UNL A   1      49.317  26.085  26.284  1.00  0.00     0.514 C 
ATOM     15  H   UNL A   1      48.369  25.382  27.853  1.00  0.00     0.455 HD
ATOM     16  C   UNL A   1      48.280  27.274  24.713  1.00  0.00     0.338 C 
ATOM     17  N   UNL A   1      46.096  27.696  24.661  1.00  0.00    -0.225 NA
ATOM     18  Cl  UNL A   1      50.736  25.212  26.679  1.00  0.00     0.068 Cl
ATOM     19  N   UNL A   1      49.387  26.796  25.126  1.00  0.00    -0.118 N 
ATOM     20  N   UNL A   1      48.072  27.867  23.505  1.00  0.00    -0.173 NA
ATOM     21  C   UNL A   1      46.788  28.062  23.507  1.00  0.00     0.229 C 
ATOM     22  H   UNL A   1      50.233  26.932  24.643  1.00  0.00     0.464 HD
ENDBRANCH  10  11
ENDBRANCH   8  10
ENDBRANCH   6   8
ENDBRANCH   5   6
ENDBRANCH   4   5
ENDBRANCH   3   4
ENDBRANCH   2   3
ENDBRANCH   1   2
BRANCH   1  23
ATOM     23  C   UNL A   1      43.697  18.825  25.605  1.00  0.00     0.188 C 
BRANCH  23  24
ATOM     24  O   UNL A   1      42.313  18.715  25.380  1.00  0.00    -0.376 OA
BRANCH  24  25
ATOM     25  C   UNL A   1      41.419  19.456  26.189  1.00  0.00     0.202 C 
BRANCH  25  26
ATOM     26  C   UNL A   1      41.358  20.991  26.131  1.00  0.00     0.261 C 
BRANCH  26  27
ATOM     27  O   UNL A   1      40.485  21.589  27.104  1.00  0.00    -0.460 OA
BRANCH  27  28
ATOM     28  C   UNL A   1      39.759  22.668  26.697  1.00  0.00     0.338 C 
ATOM     29  O   UNL A   1      38.695  22.642  26.113  1.00  0.00    -0.246 OA
BRANCH  28  30
ATOM     30  C   UNL A   1      40.311  23.953  27.063  1.00  0.00     0.060 A 
ATOM     31  C   UNL A   1      39.529  25.060  26.723  1.00  0.00     0.016 A 
ATOM     32  C   UNL A   1      41.457  24.031  27.850  1.00  0.00     0.016 A 
ATOM     33  C   UNL A   1      39.906  26.289  27.180  1.00  0.00     0.010 A 
ATOM     34  C   UNL A   1      41.805  25.259  28.355  1.00  0.00     0.010 A 
ATOM     35  C   UNL A   1      41.017  26.366  28.022  1.00  0.00    -0.014 A 
BRANCH  35  36
ATOM     36  C   UNL A   1      41.146  27.611  28.742  1.00  0.00     0.031 A 
ATOM     37  C   UNL A   1      42.341  28.407  28.327  1.00  0.00     0.074 A 
ATOM     38  C   UNL A   1      40.223  27.995  29.634  1.00  0.00     0.049 A 
ATOM     39  N   UNL A   1      43.317  28.809  29.074  1.00  0.00    -0.248 NA
ATOM     40  C   UNL A   1      42.568  28.627  26.884  1.00  0.00     0.031 C 
ATOM     41  C   UNL A   1      38.918  27.389  29.894  1.00  0.00     0.029 A 
ATOM     42  N   UNL A   1      40.220  29.093  30.423  1.00  0.00    -0.354 N 
ATOM     43  C   UNL A   1      44.201  29.475  28.227  1.00  0.00     0.074 A 
ATOM     44  C   UNL A   1      43.772  29.200  26.884  1.00  0.00     0.031 C 
ATOM     45  C   UNL A   1      38.158  28.268  30.583  1.00  0.00     0.029 A 
ATOM     46  C   UNL A   1      38.969  29.426  30.913  1.00  0.00     0.049 A 
ATOM     47  H   UNL A   1      41.033  29.608  30.631  1.00  0.00     0.167 HD
ATOM     48  C   UNL A   1      45.067  30.400  28.721  1.00  0.00     0.037 A 
ATOM     49  C   UNL A   1      38.627  30.619  31.456  1.00  0.00     0.037 A 
ATOM     50  C   UNL A   1      45.321  30.156  30.120  1.00  0.00     0.049 A 
ATOM     51  C   UNL A   1      39.885  31.308  31.846  1.00  0.00     0.074 A 
ATOM     52  C   UNL A   1      45.882  29.116  30.835  1.00  0.00     0.029 A 
ATOM     53  N   UNL A   1      44.639  30.917  31.035  1.00  0.00    -0.354 N 
ATOM     54  N   UNL A   1      40.659  30.911  32.817  1.00  0.00    -0.248 NA
ATOM     55  C   UNL A   1      40.517  32.177  30.863  1.00  0.00     0.031 C 
ATOM     56  C   UNL A   1      45.128  29.048  32.043  1.00  0.00     0.029 A 
ATOM     57  C   UNL A   1      44.196  30.086  32.028  1.00  0.00     0.049 A 
ATOM     58  H   UNL A   1      44.492  31.889  30.986  1.00  0.00     0.167 HD
ATOM     59  C   UNL A   1      41.948  31.107  32.343  1.00  0.00     0.074 A 
ATOM     60  C   UNL A   1      41.799  31.980  31.183  1.00  0.00     0.031 C 
ATOM     61  C   UNL A   1      42.974  30.309  32.763  1.00  0.00     0.037 A 
BRANCH  48  62
ATOM     62  C   UNL A   1      45.287  31.755  28.077  1.00  0.00     0.064 A 
ATOM     63  C   UNL A   1      44.157  32.543  27.770  1.00  0.00     0.173 A 
ATOM     64  C   UNL A   1      46.487  32.155  27.449  1.00  0.00     0.173 A 
ATOM     65  F   UNL A   1      42.962  32.270  28.314  1.00  0.00    -0.203 F 
ATOM     66  C   UNL A   1      44.201  33.554  26.806  1.00  0.00     0.198 A 
ATOM     67  C   UNL A   1      46.535  33.194  26.522  1.00  0.00     0.198 A 
ATOM     68  F   UNL A   1      47.643  31.504  27.615  1.00  0.00    -0.203 F 
ATOM     69  F   UNL A   1      43.070  34.169  26.438  1.00  0.00    -0.200 F 
ATOM     70  C   UNL A   1      45.387  33.866  26.170  1.00  0.00     0.200 A 
ATOM     71  F   UNL A   1      47.695  33.472  25.909  1.00  0.00    -0.200 F 
ATOM     72  F   UNL A   1      45.416  34.776  25.189  1.00  0.00    -0.200 F 
ENDBRANCH  48  62
BRANCH  49  73
ATOM     73  C   UNL A   1      37.330  31.323  31.352  1.00  0.00     0.064 A 
ATOM     74  C   UNL A   1      36.626  31.690  32.508  1.00  0.00     0.173 A 
ATOM     75  C   UNL A   1      36.884  31.886  30.139  1.00  0.00     0.173 A 
ATOM     76  F   UNL A   1      37.014  31.232  33.707  1.00  0.00    -0.203 F 
ATOM     77  C   UNL A   1      35.559  32.591  32.459  1.00  0.00     0.198 A 
ATOM     78  C   UNL A   1      35.810  32.774  30.091  1.00  0.00     0.198 A 
ATOM     79  F   UNL A   1      37.536  31.663  28.990  1.00  0.00    -0.203 F 
ATOM     80  F   UNL A   1      34.954  32.970  33.594  1.00  0.00    -0.200 F 
ATOM     81  C   UNL A   1      35.158  33.140  31.253  1.00  0.00     0.200 A 
ATOM     82  F   UNL A   1      35.454  33.323  28.920  1.00  0.00    -0.200 F 
ATOM     83  F   UNL A   1      34.174  34.048  31.214  1.00  0.00    -0.200 F 
ENDBRANCH  49  73
BRANCH  61  84
ATOM     84  C   UNL A   1      42.737  29.435  33.960  1.00  0.00     0.064 A 
ATOM     85  C   UNL A   1      42.054  28.207  33.925  1.00  0.00     0.173 A 
ATOM     86  C   UNL A   1      43.347  29.800  35.167  1.00  0.00     0.173 A 
ATOM     87  F   UNL A   1      41.533  27.736  32.784  1.00  0.00    -0.203 F 
ATOM     88  C   UNL A   1      41.948  27.410  35.063  1.00  0.00     0.198 A 
ATOM     89  C   UNL A   1      43.274  28.984  36.291  1.00  0.00     0.198 A 
ATOM     90  F   UNL A   1      44.059  30.937  35.243  1.00  0.00    -0.203 F 
ATOM     91  F   UNL A   1      41.274  26.251  35.013  1.00  0.00    -0.200 F 
ATOM     92  C   UNL A   1      42.564  27.796  36.243  1.00  0.00     0.200 A 
ATOM     93  F   UNL A   1      43.916  29.338  37.412  1.00  0.00    -0.200 F 
ATOM     94  F   UNL A   1      42.496  27.011  37.327  1.00  0.00    -0.200 F 
ENDBRANCH  61  84
ENDBRANCH  35  36
ENDBRANCH  28  30
ENDBRANCH  27  28
ENDBRANCH  26  27
ENDBRANCH  25  26
ENDBRANCH  24  25
ENDBRANCH  23  24
ENDBRANCH   1  23
TORSDOF 19
ENDMDL
MODEL 3
REMARK VINA RESULT:      -9.5      5.062      7.926
REMARK SMILES C[C@H](S[C@H]1[NH+]=C(Cl)[NH+]=C2N=CN=C21)C(=O)OCCOCCOCCOC(=O)c1ccc(-c2c3nc(c(-c4c(F)c(F)c(F)c(F)c4F)c4ccc([nH]4)c(-c4c(F)c(F)c(F)c(F)c4F)c4nc(c(-c5c(F)c(F)c(F)c(F)c5F)c5ccc2[nH]5)C=C4)C=C3)cc1
REMARK SMILES IDX 20 1 19 2 18 3 17 4 16 5 14 6 15 7 2 8 1 9 3 10 4 11 5 12
REMARK SMILES IDX 13 13 6 14 9 16 12 17 7 18 8 19 10 20 11 21 21 23 22 24
REMARK SMILES IDX 23 25 24 26 25 27 26 28 27 29 28 30 29 31 90 32 30 33 89 34
REMARK SMILES IDX 31 35 32 36 33 37 83 38 34 39 88 40 82 41 84 42 35 43 87 44
REMARK SMILES IDX 81 45 80 46 36 48 68 49 48 50 67 51 49 52 52 53 66 54 85 55
REMARK SMILES IDX 50 56 51 57 65 59 86 60 53 61 37 62 38 63 46 64 39 65 40 66
REMARK SMILES IDX 44 67 47 68 41 69 42 70 45 71 43 72 69 73 70 74 78 75 71 76
REMARK SMILES IDX 72 77 76 78 79 79 73 80 74 81 77 82 75 83 54 84 55 85 63 86
REMARK SMILES IDX 56 87 57 88 61 89 64 90 58 91 59 92 62 93 60 94
REMARK H PARENT 5 15 8 22 84 47 52 58
REMARK Flexibility Score: inf
ROOT
ATOM      1  C   UNL A   1      33.555  20.883  24.424  1.00  0.00     0.188 C 
ENDROOT
BRANCH   1   2
ATOM      2  O   UNL A   1      32.900  20.939  23.170  1.00  0.00    -0.376 OA
BRANCH   2   3
ATOM      3  C   UNL A   1      31.751  21.764  23.070  1.00  0.00     0.202 C 
BRANCH   3   4
ATOM      4  C   UNL A   1      31.695  23.044  23.928  1.00  0.00     0.261 C 
BRANCH   4   5
ATOM      5  O   UNL A   1      30.798  23.002  25.073  1.00  0.00    -0.462 OA
BRANCH   5   6
ATOM      6  C   UNL A   1      30.892  24.025  25.964  1.00  0.00     0.319 C 
ATOM      7  O   UNL A   1      30.887  23.841  27.182  1.00  0.00    -0.251 OA
BRANCH   6   8
ATOM      8  C   UNL A   1      31.131  25.441  25.398  1.00  0.00     0.160 C 
ATOM      9  C   UNL A   1      31.649  26.314  26.534  1.00  0.00     0.032 C 
BRANCH   8  10
ATOM     10  S   UNL A   1      29.715  26.336  24.614  1.00  0.00    -0.067 SA
BRANCH  10  11
ATOM     11  C   UNL A   1      30.490  27.923  24.031  1.00  0.00     0.384 C 
ATOM     12  N   UNL A   1      31.869  27.887  23.537  1.00  0.00    -0.156 N 
ATOM     13  C   UNL A   1      29.616  28.635  23.058  1.00  0.00     0.214 C 
ATOM     14  C   UNL A   1      32.283  28.707  22.638  1.00  0.00     0.514 C 
ATOM     15  H   UNL A   1      32.494  27.219  23.902  1.00  0.00     0.455 HD
ATOM     16  C   UNL A   1      30.286  29.551  22.132  1.00  0.00     0.338 C 
ATOM     17  N   UNL A   1      28.340  28.767  22.870  1.00  0.00    -0.225 NA
ATOM     18  Cl  UNL A   1      33.934  28.636  22.190  1.00  0.00     0.068 Cl
ATOM     19  N   UNL A   1      31.547  29.632  21.964  1.00  0.00    -0.118 N 
ATOM     20  N   UNL A   1      29.346  30.249  21.435  1.00  0.00    -0.173 NA
ATOM     21  C   UNL A   1      28.236  29.735  21.873  1.00  0.00     0.229 C 
ATOM     22  H   UNL A   1      31.960  30.315  21.389  1.00  0.00     0.464 HD
ENDBRANCH  10  11
ENDBRANCH   8  10
ENDBRANCH   6   8
ENDBRANCH   5   6
ENDBRANCH   4   5
ENDBRANCH   3   4
ENDBRANCH   2   3
ENDBRANCH   1   2
BRANCH   1  23
ATOM     23  C   UNL A   1      34.858  21.698  24.617  1.00  0.00     0.188 C 
BRANCH  23  24
ATOM     24  O   UNL A   1      35.813  21.215  25.529  1.00  0.00    -0.376 OA
BRANCH  24  25
ATOM     25  C   UNL A   1      37.039  21.905  25.678  1.00  0.00     0.202 C 
BRANCH  25  26
ATOM     26  C   UNL A   1      38.389  21.169  25.666  1.00  0.00     0.261 C 
BRANCH  26  27
ATOM     27  O   UNL A   1      39.538  22.032  25.707  1.00  0.00    -0.460 OA
BRANCH  27  28
ATOM     28  C   UNL A   1      40.171  22.155  26.908  1.00  0.00     0.338 C 
ATOM     29  O   UNL A   1      40.372  21.268  27.711  1.00  0.00    -0.246 OA
BRANCH  28  30
ATOM     30  C   UNL A   1      40.690  23.474  27.195  1.00  0.00     0.060 A 
ATOM     31  C   UNL A   1      39.953  24.536  26.667  1.00  0.00     0.016 A 
ATOM     32  C   UNL A   1      41.752  23.637  28.081  1.00  0.00     0.016 A 
ATOM     33  C   UNL A   1      40.287  25.807  27.032  1.00  0.00     0.010 A 
ATOM     34  C   UNL A   1      42.053  24.911  28.491  1.00  0.00     0.010 A 
ATOM     35  C   UNL A   1      41.308  25.975  27.970  1.00  0.00    -0.014 A 
BRANCH  35  36
ATOM     36  C   UNL A   1      41.371  27.288  28.568  1.00  0.00     0.031 A 
ATOM     37  C   UNL A   1      42.537  28.094  28.093  1.00  0.00     0.074 A 
ATOM     38  C   UNL A   1      40.418  27.713  29.407  1.00  0.00     0.049 A 
ATOM     39  N   UNL A   1      43.481  28.609  28.809  1.00  0.00    -0.248 NA
ATOM     40  C   UNL A   1      42.777  28.185  26.638  1.00  0.00     0.031 C 
ATOM     41  C   UNL A   1      39.136  27.076  29.709  1.00  0.00     0.029 A 
ATOM     42  N   UNL A   1      40.353  28.880  30.088  1.00  0.00    -0.354 N 
ATOM     43  C   UNL A   1      44.349  29.230  27.914  1.00  0.00     0.074 A 
ATOM     44  C   UNL A   1      43.955  28.809  26.597  1.00  0.00     0.031 C 
ATOM     45  C   UNL A   1      38.328  27.981  30.301  1.00  0.00     0.029 A 
ATOM     46  C   UNL A   1      39.081  29.201  30.528  1.00  0.00     0.049 A 
ATOM     47  H   UNL A   1      41.139  29.449  30.255  1.00  0.00     0.167 HD
ATOM     48  C   UNL A   1      45.165  30.237  28.327  1.00  0.00     0.037 A 
ATOM     49  C   UNL A   1      38.678  30.423  30.950  1.00  0.00     0.037 A 
ATOM     50  C   UNL A   1      45.407  30.139  29.745  1.00  0.00     0.049 A 
ATOM     51  C   UNL A   1      39.898  31.203  31.287  1.00  0.00     0.074 A 
ATOM     52  C   UNL A   1      46.002  29.199  30.563  1.00  0.00     0.029 A 
ATOM     53  N   UNL A   1      44.677  30.952  30.575  1.00  0.00    -0.354 N 
ATOM     54  N   UNL A   1      40.673  30.936  32.301  1.00  0.00    -0.248 NA
ATOM     55  C   UNL A   1      40.507  32.002  30.233  1.00  0.00     0.031 C 
ATOM     56  C   UNL A   1      45.232  29.212  31.763  1.00  0.00     0.029 A 
ATOM     57  C   UNL A   1      44.255  30.200  31.638  1.00  0.00     0.049 A 
ATOM     58  H   UNL A   1      44.489  31.908  30.431  1.00  0.00     0.167 HD
ATOM     59  C   UNL A   1      41.960  31.144  31.826  1.00  0.00     0.074 A 
ATOM     60  C   UNL A   1      41.791  31.895  30.586  1.00  0.00     0.031 C 
ATOM     61  C   UNL A   1      43.013  30.437  32.333  1.00  0.00     0.037 A 
BRANCH  48  62
ATOM     62  C   UNL A   1      45.336  31.532  27.558  1.00  0.00     0.064 A 
ATOM     63  C   UNL A   1      46.586  31.798  26.960  1.00  0.00     0.173 A 
ATOM     64  C   UNL A   1      44.474  32.646  27.670  1.00  0.00     0.173 A 
ATOM     65  F   UNL A   1      47.486  30.819  26.786  1.00  0.00    -0.203 F 
ATOM     66  C   UNL A   1      46.989  33.096  26.634  1.00  0.00     0.198 A 
ATOM     67  C   UNL A   1      44.864  33.932  27.302  1.00  0.00     0.198 A 
ATOM     68  F   UNL A   1      43.264  32.572  28.231  1.00  0.00    -0.203 F 
ATOM     69  F   UNL A   1      48.241  33.316  26.213  1.00  0.00    -0.200 F 
ATOM     70  C   UNL A   1      46.133  34.164  26.823  1.00  0.00     0.200 A 
ATOM     71  F   UNL A   1      44.021  34.956  27.504  1.00  0.00    -0.200 F 
ATOM     72  F   UNL A   1      46.544  35.417  26.590  1.00  0.00    -0.200 F 
ENDBRANCH  48  62
BRANCH  49  73
ATOM     73  C   UNL A   1      37.353  31.055  30.763  1.00  0.00     0.064 A 
ATOM     74  C   UNL A   1      36.545  31.351  31.870  1.00  0.00     0.173 A 
ATOM     75  C   UNL A   1      36.966  31.623  29.532  1.00  0.00     0.173 A 
ATOM     76  F   UNL A   1      36.869  30.884  33.085  1.00  0.00    -0.203 F 
ATOM     77  C   UNL A   1      35.433  32.190  31.761  1.00  0.00     0.198 A 
ATOM     78  C   UNL A   1      35.849  32.450  29.423  1.00  0.00     0.198 A 
ATOM     79  F   UNL A   1      37.714  31.468  28.432  1.00  0.00    -0.203 F 
ATOM     80  F   UNL A   1      34.725  32.505  32.854  1.00  0.00    -0.200 F 
ATOM     81  C   UNL A   1      35.091  32.747  30.539  1.00  0.00     0.200 A 
ATOM     82  F   UNL A   1      35.549  33.008  28.240  1.00  0.00    -0.200 F 
ATOM     83  F   UNL A   1      34.061  33.598  30.446  1.00  0.00    -0.200 F 
ENDBRANCH  49  73
BRANCH  61  84
ATOM     84  C   UNL A   1      42.795  29.671  33.605  1.00  0.00     0.064 A 
ATOM     85  C   UNL A   1      42.940  30.213  34.894  1.00  0.00     0.173 A 
ATOM     86  C   UNL A   1      42.287  28.369  33.505  1.00  0.00     0.173 A 
ATOM     87  F   UNL A   1      43.320  31.485  35.072  1.00  0.00    -0.203 F 
ATOM     88  C   UNL A   1      42.637  29.462  36.028  1.00  0.00     0.198 A 
ATOM     89  C   UNL A   1      41.946  27.636  34.638  1.00  0.00     0.198 A 
ATOM     90  F   UNL A   1      42.075  27.820  32.298  1.00  0.00    -0.203 F 
ATOM     91  F   UNL A   1      42.802  29.992  37.250  1.00  0.00    -0.200 F 
ATOM     92  C   UNL A   1      42.134  28.177  35.898  1.00  0.00     0.200 A 
ATOM     93  F   UNL A   1      41.412  26.415  34.504  1.00  0.00    -0.200 F 
ATOM     94  F   UNL A   1      41.804  27.470  36.988  1.00  0.00    -0.200 F 
ENDBRANCH  61  84
ENDBRANCH  35  36
ENDBRANCH  28  30
ENDBRANCH  27  28
ENDBRANCH  26  27
ENDBRANCH  25  26
ENDBRANCH  24  25
ENDBRANCH  23  24
ENDBRANCH   1  23
TORSDOF 19
ENDMDL
