MODEL 1
REMARK VINA RESULT:     -10.5      0.000      0.000
REMARK SMILES NS(=O)(=O)c1ccc(-n2nc(C(=O)OCCOCCOCCOC(=O)c3ccc(-c4c5nc(c(-c6c(F)c(F)c(F)c(F)c6F)c6ccc([nH]6)c(-c6c(F)c(F)c(F)c(F)c6F)c6nc(c(-c7c(F)c(F)c(F)c(F)c7F)c7ccc4[nH]7)C=C6)C=C5)cc3)c(Cl)c2-c2ccc(Cl)cc2)cc1
REMARK SMILES IDX 18 1 17 2 16 3 15 4 14 5 12 6 13 7 11 8 9 9 10 10 91 11
REMARK SMILES IDX 89 12 90 13 8 14 5 15 6 16 100 17 7 18 99 19 2 20 3 21 4 22
REMARK SMILES IDX 1 23 92 26 93 27 98 28 94 29 97 30 95 31 96 32 19 33 20 34
REMARK SMILES IDX 21 35 22 36 23 37 24 38 25 39 26 40 27 41 88 42 28 43 87 44
REMARK SMILES IDX 29 45 30 46 31 47 81 48 32 49 86 50 80 51 82 52 33 53 85 54
REMARK SMILES IDX 79 55 78 56 34 58 66 59 46 60 65 61 47 62 50 63 64 64 83 65
REMARK SMILES IDX 48 66 49 67 63 69 84 70 51 71 35 72 36 73 44 74 37 75 38 76
REMARK SMILES IDX 42 77 45 78 39 79 40 80 43 81 41 82 67 83 68 84 76 85 69 86
REMARK SMILES IDX 70 87 74 88 77 89 71 90 72 91 75 92 73 93 52 94 53 95 61 96
REMARK SMILES IDX 54 97 55 98 59 99 62 100 56 101 57 102 60 103 58 104
REMARK H PARENT 1 24 1 25 82 57 50 68
REMARK Flexibility Score: inf
ROOT
ATOM      1  C   UNL A   1      44.634  29.478  37.564  1.00  0.00     0.188 C 
ENDROOT
BRANCH   1   2
ATOM      2  O   UNL A   1      43.415  29.002  37.003  1.00  0.00    -0.376 OA
BRANCH   2   3
ATOM      3  C   UNL A   1      42.720  29.802  36.050  1.00  0.00     0.202 C 
BRANCH   3   4
ATOM      4  C   UNL A   1      41.187  29.718  35.979  1.00  0.00     0.261 C 
BRANCH   4   5
ATOM      5  O   UNL A   1      40.539  30.972  35.711  1.00  0.00    -0.458 OA
BRANCH   5   6
ATOM      6  C   UNL A   1      39.182  31.026  35.868  1.00  0.00     0.360 C 
ATOM      7  O   UNL A   1      38.608  30.768  36.920  1.00  0.00    -0.244 OA
BRANCH   6   8
ATOM      8  C   UNL A   1      38.480  31.498  34.660  1.00  0.00     0.190 A 
ATOM      9  N   UNL A   1      37.141  32.672  33.471  1.00  0.00    -0.231 N 
ATOM     10  N   UNL A   1      37.773  32.649  34.665  1.00  0.00    -0.159 NA
ATOM     11  C   UNL A   1      37.530  31.639  32.636  1.00  0.00     0.094 A 
ATOM     12  C   UNL A   1      38.439  30.903  33.373  1.00  0.00     0.102 A 
ATOM     13  Cl  UNL A   1      39.277  29.513  32.852  1.00  0.00    -0.079 Cl
BRANCH   9  14
ATOM     14  C   UNL A   1      36.067  33.568  33.263  1.00  0.00     0.065 A 
ATOM     15  C   UNL A   1      33.905  35.198  32.659  1.00  0.00     0.082 A 
ATOM     16  C   UNL A   1      35.206  35.644  32.386  1.00  0.00     0.024 A 
ATOM     17  C   UNL A   1      33.686  33.962  33.275  1.00  0.00     0.024 A 
ATOM     18  C   UNL A   1      36.300  34.834  32.713  1.00  0.00     0.030 A 
ATOM     19  C   UNL A   1      34.769  33.135  33.560  1.00  0.00     0.030 A 
BRANCH  15  20
ATOM     20  S   UNL A   1      32.504  36.169  32.187  1.00  0.00     0.238 S 
ATOM     21  O   UNL A   1      32.373  36.137  30.747  1.00  0.00    -0.207 OA
ATOM     22  O   UNL A   1      32.531  37.398  32.940  1.00  0.00    -0.207 OA
BRANCH  20  23
ATOM     23  N   UNL A   1      31.192  35.292  32.760  1.00  0.00    -0.225 NA
ATOM     24  H   UNL A   1      30.806  35.756  33.583  1.00  0.00     0.137 HD
ATOM     25  H   UNL A   1      31.495  34.352  33.012  1.00  0.00     0.137 HD
ENDBRANCH  20  23
ENDBRANCH  15  20
ENDBRANCH   9  14
BRANCH  11  26
ATOM     26  C   UNL A   1      37.014  31.404  31.286  1.00  0.00     0.002 A 
ATOM     27  C   UNL A   1      37.539  32.151  30.222  1.00  0.00     0.012 A 
ATOM     28  C   UNL A   1      35.997  30.475  31.030  1.00  0.00     0.012 A 
ATOM     29  C   UNL A   1      37.048  31.989  28.928  1.00  0.00     0.021 A 
ATOM     30  C   UNL A   1      35.508  30.308  29.730  1.00  0.00     0.021 A 
ATOM     31  C   UNL A   1      36.031  31.071  28.687  1.00  0.00     0.041 A 
ATOM     32  Cl  UNL A   1      35.412  30.888  27.092  1.00  0.00    -0.084 Cl
ENDBRANCH  11  26
ENDBRANCH   6   8
ENDBRANCH   5   6
ENDBRANCH   4   5
ENDBRANCH   3   4
ENDBRANCH   2   3
ENDBRANCH   1   2
BRANCH   1  33
ATOM     33  C   UNL A   1      45.485  28.549  38.459  1.00  0.00     0.188 C 
BRANCH  33  34
ATOM     34  O   UNL A   1      45.532  27.205  38.014  1.00  0.00    -0.376 OA
BRANCH  34  35
ATOM     35  C   UNL A   1      44.805  26.242  38.762  1.00  0.00     0.202 C 
BRANCH  35  36
ATOM     36  C   UNL A   1      44.847  24.789  38.283  1.00  0.00     0.261 C 
BRANCH  36  37
ATOM     37  O   UNL A   1      44.213  24.536  37.036  1.00  0.00    -0.460 OA
BRANCH  37  38
ATOM     38  C   UNL A   1      44.889  23.733  36.193  1.00  0.00     0.338 C 
ATOM     39  O   UNL A   1      45.190  22.565  36.374  1.00  0.00    -0.246 OA
BRANCH  38  40
ATOM     40  C   UNL A   1      45.283  24.517  35.015  1.00  0.00     0.060 A 
ATOM     41  C   UNL A   1      44.301  25.311  34.423  1.00  0.00     0.016 A 
ATOM     42  C   UNL A   1      46.509  24.260  34.378  1.00  0.00     0.016 A 
ATOM     43  C   UNL A   1      44.462  25.669  33.103  1.00  0.00     0.010 A 
ATOM     44  C   UNL A   1      46.664  24.611  33.053  1.00  0.00     0.010 A 
ATOM     45  C   UNL A   1      45.596  25.225  32.410  1.00  0.00    -0.014 A 
BRANCH  45  46
ATOM     46  C   UNL A   1      45.560  25.351  30.967  1.00  0.00     0.031 A 
ATOM     47  C   UNL A   1      46.447  26.373  30.391  1.00  0.00     0.074 A 
ATOM     48  C   UNL A   1      44.737  24.608  30.205  1.00  0.00     0.049 A 
ATOM     49  N   UNL A   1      46.103  27.481  29.822  1.00  0.00    -0.248 NA
ATOM     50  C   UNL A   1      47.892  26.175  30.536  1.00  0.00     0.031 C 
ATOM     51  C   UNL A   1      44.017  23.389  30.579  1.00  0.00     0.029 A 
ATOM     52  N   UNL A   1      44.439  24.764  28.885  1.00  0.00    -0.354 N 
ATOM     53  C   UNL A   1      47.289  28.055  29.388  1.00  0.00     0.074 A 
ATOM     54  C   UNL A   1      48.363  27.277  29.951  1.00  0.00     0.031 C 
ATOM     55  C   UNL A   1      43.528  22.806  29.461  1.00  0.00     0.029 A 
ATOM     56  C   UNL A   1      43.780  23.684  28.328  1.00  0.00     0.049 A 
ATOM     57  H   UNL A   1      44.670  25.573  28.372  1.00  0.00     0.167 HD
ATOM     58  C   UNL A   1      47.297  29.002  28.414  1.00  0.00     0.037 A 
ATOM     59  C   UNL A   1      43.525  23.496  27.015  1.00  0.00     0.037 A 
ATOM     60  C   UNL A   1      45.999  29.579  28.203  1.00  0.00     0.049 A 
ATOM     61  C   UNL A   1      43.544  24.818  26.345  1.00  0.00     0.074 A 
ATOM     62  C   UNL A   1      45.152  30.392  28.926  1.00  0.00     0.029 A 
ATOM     63  N   UNL A   1      45.259  29.055  27.176  1.00  0.00    -0.354 N 
ATOM     64  N   UNL A   1      42.651  25.750  26.530  1.00  0.00    -0.248 NA
ATOM     65  C   UNL A   1      44.756  25.249  25.659  1.00  0.00     0.031 C 
ATOM     66  C   UNL A   1      43.833  30.062  28.492  1.00  0.00     0.029 A 
ATOM     67  C   UNL A   1      43.935  29.060  27.528  1.00  0.00     0.049 A 
ATOM     68  H   UNL A   1      45.622  28.728  26.322  1.00  0.00     0.167 HD
ATOM     69  C   UNL A   1      43.344  26.937  26.370  1.00  0.00     0.074 A 
ATOM     70  C   UNL A   1      44.565  26.570  25.670  1.00  0.00     0.031 C 
ATOM     71  C   UNL A   1      43.000  28.047  27.085  1.00  0.00     0.037 A 
BRANCH  58  72
ATOM     72  C   UNL A   1      48.395  29.129  27.396  1.00  0.00     0.064 A 
ATOM     73  C   UNL A   1      48.609  28.091  26.471  1.00  0.00     0.173 A 
ATOM     74  C   UNL A   1      49.424  30.089  27.497  1.00  0.00     0.173 A 
ATOM     75  F   UNL A   1      47.708  27.105  26.335  1.00  0.00    -0.203 F 
ATOM     76  C   UNL A   1      49.790  28.000  25.733  1.00  0.00     0.198 A 
ATOM     77  C   UNL A   1      50.577  30.026  26.718  1.00  0.00     0.198 A 
ATOM     78  F   UNL A   1      49.404  31.050  28.430  1.00  0.00    -0.203 F 
ATOM     79  F   UNL A   1      50.002  26.935  24.947  1.00  0.00    -0.200 F 
ATOM     80  C   UNL A   1      50.772  28.967  25.856  1.00  0.00     0.200 A 
ATOM     81  F   UNL A   1      51.529  30.956  26.871  1.00  0.00    -0.200 F 
ATOM     82  F   UNL A   1      51.926  28.854  25.186  1.00  0.00    -0.200 F 
ENDBRANCH  58  72
BRANCH  59  83
ATOM     83  C   UNL A   1      43.547  22.218  26.270  1.00  0.00     0.064 A 
ATOM     84  C   UNL A   1      44.751  21.679  25.794  1.00  0.00     0.173 A 
ATOM     85  C   UNL A   1      42.424  21.367  26.248  1.00  0.00     0.173 A 
ATOM     86  F   UNL A   1      45.875  22.410  25.822  1.00  0.00    -0.203 F 
ATOM     87  C   UNL A   1      44.834  20.356  25.350  1.00  0.00     0.198 A 
ATOM     88  C   UNL A   1      42.505  20.052  25.794  1.00  0.00     0.198 A 
ATOM     89  F   UNL A   1      41.247  21.763  26.757  1.00  0.00    -0.203 F 
ATOM     90  F   UNL A   1      46.016  19.853  24.968  1.00  0.00    -0.200 F 
ATOM     91  C   UNL A   1      43.713  19.541  25.360  1.00  0.00     0.200 A 
ATOM     92  F   UNL A   1      41.421  19.265  25.842  1.00  0.00    -0.200 F 
ATOM     93  F   UNL A   1      43.806  18.255  24.994  1.00  0.00    -0.200 F 
ENDBRANCH  59  83
BRANCH  71  94
ATOM     94  C   UNL A   1      41.611  28.093  27.646  1.00  0.00     0.064 A 
ATOM     95  C   UNL A   1      41.246  27.548  28.889  1.00  0.00     0.173 A 
ATOM     96  C   UNL A   1      40.631  28.794  26.931  1.00  0.00     0.173 A 
ATOM     97  F   UNL A   1      42.152  26.950  29.673  1.00  0.00    -0.203 F 
ATOM     98  C   UNL A   1      39.938  27.653  29.361  1.00  0.00     0.198 A 
ATOM     99  C   UNL A   1      39.337  28.932  27.425  1.00  0.00     0.198 A 
ATOM    100  F   UNL A   1      40.940  29.382  25.765  1.00  0.00    -0.203 F 
ATOM    101  F   UNL A   1      39.603  27.103  30.537  1.00  0.00    -0.200 F 
ATOM    102  C   UNL A   1      38.987  28.348  28.631  1.00  0.00     0.200 A 
ATOM    103  F   UNL A   1      38.433  29.645  26.737  1.00  0.00    -0.200 F 
ATOM    104  F   UNL A   1      37.738  28.477  29.101  1.00  0.00    -0.200 F 
ENDBRANCH  71  94
ENDBRANCH  45  46
ENDBRANCH  38  40
ENDBRANCH  37  38
ENDBRANCH  36  37
ENDBRANCH  35  36
ENDBRANCH  34  35
ENDBRANCH  33  34
ENDBRANCH   1  33
TORSDOF 21
ENDMDL
MODEL 2
REMARK VINA RESULT:     -10.4      2.823      6.754
REMARK SMILES NS(=O)(=O)c1ccc(-n2nc(C(=O)OCCOCCOCCOC(=O)c3ccc(-c4c5nc(c(-c6c(F)c(F)c(F)c(F)c6F)c6ccc([nH]6)c(-c6c(F)c(F)c(F)c(F)c6F)c6nc(c(-c7c(F)c(F)c(F)c(F)c7F)c7ccc4[nH]7)C=C6)C=C5)cc3)c(Cl)c2-c2ccc(Cl)cc2)cc1
REMARK SMILES IDX 18 1 17 2 16 3 15 4 14 5 12 6 13 7 11 8 9 9 10 10 91 11
REMARK SMILES IDX 89 12 90 13 8 14 5 15 6 16 100 17 7 18 99 19 2 20 3 21 4 22
REMARK SMILES IDX 1 23 92 26 93 27 98 28 94 29 97 30 95 31 96 32 19 33 20 34
REMARK SMILES IDX 21 35 22 36 23 37 24 38 25 39 26 40 27 41 88 42 28 43 87 44
REMARK SMILES IDX 29 45 30 46 31 47 81 48 32 49 86 50 80 51 82 52 33 53 85 54
REMARK SMILES IDX 79 55 78 56 34 58 66 59 46 60 65 61 47 62 50 63 64 64 83 65
REMARK SMILES IDX 48 66 49 67 63 69 84 70 51 71 35 72 36 73 44 74 37 75 38 76
REMARK SMILES IDX 42 77 45 78 39 79 40 80 43 81 41 82 67 83 68 84 76 85 69 86
REMARK SMILES IDX 70 87 74 88 77 89 71 90 72 91 75 92 73 93 52 94 53 95 61 96
REMARK SMILES IDX 54 97 55 98 59 99 62 100 56 101 57 102 60 103 58 104
REMARK H PARENT 1 24 1 25 82 57 50 68
REMARK Flexibility Score: inf
ROOT
ATOM      1  C   UNL A   1      42.166  34.000  36.753  1.00  0.00     0.188 C 
ENDROOT
BRANCH   1   2
ATOM      2  O   UNL A   1      41.685  32.861  37.460  1.00  0.00    -0.376 OA
BRANCH   2   3
ATOM      3  C   UNL A   1      41.688  31.586  36.825  1.00  0.00     0.202 C 
BRANCH   3   4
ATOM      4  C   UNL A   1      40.596  31.263  35.792  1.00  0.00     0.261 C 
BRANCH   4   5
ATOM      5  O   UNL A   1      39.498  30.497  36.315  1.00  0.00    -0.458 OA
BRANCH   5   6
ATOM      6  C   UNL A   1      38.271  31.097  36.349  1.00  0.00     0.360 C 
ATOM      7  O   UNL A   1      37.651  31.320  37.384  1.00  0.00    -0.244 OA
BRANCH   6   8
ATOM      8  C   UNL A   1      37.798  31.519  35.019  1.00  0.00     0.190 A 
ATOM      9  N   UNL A   1      36.715  32.657  33.563  1.00  0.00    -0.231 N 
ATOM     10  N   UNL A   1      37.135  32.684  34.846  1.00  0.00    -0.159 NA
ATOM     11  C   UNL A   1      37.207  31.572  32.858  1.00  0.00     0.094 A 
ATOM     12  C   UNL A   1      37.956  30.857  33.774  1.00  0.00     0.102 A 
ATOM     13  Cl  UNL A   1      38.826  29.423  33.472  1.00  0.00    -0.079 Cl
BRANCH   9  14
ATOM     14  C   UNL A   1      35.720  33.563  33.131  1.00  0.00     0.065 A 
ATOM     15  C   UNL A   1      33.796  35.458  32.493  1.00  0.00     0.082 A 
ATOM     16  C   UNL A   1      33.397  34.176  32.898  1.00  0.00     0.024 A 
ATOM     17  C   UNL A   1      35.150  35.779  32.361  1.00  0.00     0.024 A 
ATOM     18  C   UNL A   1      34.367  33.210  33.197  1.00  0.00     0.030 A 
ATOM     19  C   UNL A   1      36.116  34.836  32.701  1.00  0.00     0.030 A 
BRANCH  15  20
ATOM     20  S   UNL A   1      32.593  36.718  32.183  1.00  0.00     0.238 S 
ATOM     21  O   UNL A   1      31.674  36.774  33.299  1.00  0.00    -0.207 OA
ATOM     22  O   UNL A   1      32.153  36.595  30.816  1.00  0.00    -0.207 OA
BRANCH  20  23
ATOM     23  N   UNL A   1      33.470  38.146  32.272  1.00  0.00    -0.225 NA
ATOM     24  H   UNL A   1      32.860  38.901  32.587  1.00  0.00     0.137 HD
ATOM     25  H   UNL A   1      33.844  38.373  31.350  1.00  0.00     0.137 HD
ENDBRANCH  20  23
ENDBRANCH  15  20
ENDBRANCH   9  14
BRANCH  11  26
ATOM     26  C   UNL A   1      36.919  31.276  31.453  1.00  0.00     0.002 A 
ATOM     27  C   UNL A   1      36.503  29.983  31.106  1.00  0.00     0.012 A 
ATOM     28  C   UNL A   1      37.068  32.237  30.444  1.00  0.00     0.012 A 
ATOM     29  C   UNL A   1      36.257  29.646  29.776  1.00  0.00     0.021 A 
ATOM     30  C   UNL A   1      36.817  31.901  29.110  1.00  0.00     0.021 A 
ATOM     31  C   UNL A   1      36.420  30.605  28.782  1.00  0.00     0.041 A 
ATOM     32  Cl  UNL A   1      36.137  30.181  27.139  1.00  0.00    -0.084 Cl
ENDBRANCH  11  26
ENDBRANCH   6   8
ENDBRANCH   5   6
ENDBRANCH   4   5
ENDBRANCH   3   4
ENDBRANCH   2   3
ENDBRANCH   1   2
BRANCH   1  33
ATOM     33  C   UNL A   1      41.300  35.277  36.666  1.00  0.00     0.188 C 
BRANCH  33  34
ATOM     34  O   UNL A   1      40.819  35.560  35.364  1.00  0.00    -0.376 OA
BRANCH  34  35
ATOM     35  C   UNL A   1      39.987  34.588  34.748  1.00  0.00     0.202 C 
BRANCH  35  36
ATOM     36  C   UNL A   1      39.820  34.656  33.228  1.00  0.00     0.261 C 
BRANCH  36  37
ATOM     37  O   UNL A   1      40.250  33.506  32.512  1.00  0.00    -0.460 OA
BRANCH  37  38
ATOM     38  C   UNL A   1      41.253  33.708  31.637  1.00  0.00     0.338 C 
ATOM     39  O   UNL A   1      41.902  34.729  31.488  1.00  0.00    -0.246 OA
BRANCH  38  40
ATOM     40  C   UNL A   1      41.409  32.499  30.816  1.00  0.00     0.060 A 
ATOM     41  C   UNL A   1      40.389  31.552  30.882  1.00  0.00     0.016 A 
ATOM     42  C   UNL A   1      42.647  32.213  30.216  1.00  0.00     0.016 A 
ATOM     43  C   UNL A   1      40.685  30.251  30.537  1.00  0.00     0.010 A 
ATOM     44  C   UNL A   1      42.946  30.909  29.882  1.00  0.00     0.010 A 
ATOM     45  C   UNL A   1      41.990  29.932  30.140  1.00  0.00    -0.014 A 
BRANCH  45  46
ATOM     46  C   UNL A   1      42.327  28.524  30.103  1.00  0.00     0.031 A 
ATOM     47  C   UNL A   1      42.923  27.976  31.331  1.00  0.00     0.074 A 
ATOM     48  C   UNL A   1      42.143  27.773  29.002  1.00  0.00     0.049 A 
ATOM     49  N   UNL A   1      44.138  27.571  31.501  1.00  0.00    -0.248 NA
ATOM     50  C   UNL A   1      42.088  27.947  32.535  1.00  0.00     0.031 C 
ATOM     51  C   UNL A   1      41.328  28.082  27.825  1.00  0.00     0.029 A 
ATOM     52  N   UNL A   1      42.605  26.516  28.750  1.00  0.00    -0.354 N 
ATOM     53  C   UNL A   1      44.185  27.082  32.798  1.00  0.00     0.074 A 
ATOM     54  C   UNL A   1      42.940  27.443  33.428  1.00  0.00     0.031 C 
ATOM     55  C   UNL A   1      41.190  26.964  27.079  1.00  0.00     0.029 A 
ATOM     56  C   UNL A   1      42.020  25.915  27.651  1.00  0.00     0.049 A 
ATOM     57  H   UNL A   1      43.293  26.075  29.300  1.00  0.00     0.167 HD
ATOM     58  C   UNL A   1      45.161  26.224  33.192  1.00  0.00     0.037 A 
ATOM     59  C   UNL A   1      42.157  24.622  27.283  1.00  0.00     0.037 A 
ATOM     60  C   UNL A   1      46.276  26.213  32.287  1.00  0.00     0.049 A 
ATOM     61  C   UNL A   1      43.416  24.103  27.869  1.00  0.00     0.074 A 
ATOM     62  C   UNL A   1      47.265  27.104  31.930  1.00  0.00     0.029 A 
ATOM     63  N   UNL A   1      46.288  25.216  31.348  1.00  0.00    -0.354 N 
ATOM     64  N   UNL A   1      44.608  24.482  27.502  1.00  0.00    -0.248 NA
ATOM     65  C   UNL A   1      43.361  23.348  29.114  1.00  0.00     0.031 C 
ATOM     66  C   UNL A   1      47.619  26.775  30.588  1.00  0.00     0.029 A 
ATOM     67  C   UNL A   1      46.826  25.701  30.184  1.00  0.00     0.049 A 
ATOM     68  H   UNL A   1      45.961  24.298  31.487  1.00  0.00     0.167 HD
ATOM     69  C   UNL A   1      45.376  24.383  28.650  1.00  0.00     0.074 A 
ATOM     70  C   UNL A   1      44.613  23.525  29.542  1.00  0.00     0.031 C 
ATOM     71  C   UNL A   1      46.407  25.247  28.875  1.00  0.00     0.037 A 
BRANCH  58  72
ATOM     72  C   UNL A   1      44.936  25.118  34.184  1.00  0.00     0.064 A 
ATOM     73  C   UNL A   1      45.462  25.232  35.484  1.00  0.00     0.173 A 
ATOM     74  C   UNL A   1      44.489  23.833  33.809  1.00  0.00     0.173 A 
ATOM     75  F   UNL A   1      45.955  26.403  35.919  1.00  0.00    -0.203 F 
ATOM     76  C   UNL A   1      45.570  24.127  36.330  1.00  0.00     0.198 A 
ATOM     77  C   UNL A   1      44.547  22.744  34.675  1.00  0.00     0.198 A 
ATOM     78  F   UNL A   1      44.092  23.561  32.559  1.00  0.00    -0.203 F 
ATOM     79  F   UNL A   1      46.180  24.255  37.517  1.00  0.00    -0.200 F 
ATOM     80  C   UNL A   1      45.112  22.885  35.926  1.00  0.00     0.200 A 
ATOM     81  F   UNL A   1      44.125  21.543  34.256  1.00  0.00    -0.200 F 
ATOM     82  F   UNL A   1      45.262  21.814  36.717  1.00  0.00    -0.200 F 
ENDBRANCH  58  72
BRANCH  59  83
ATOM     83  C   UNL A   1      41.124  23.742  26.694  1.00  0.00     0.064 A 
ATOM     84  C   UNL A   1      41.416  22.415  26.349  1.00  0.00     0.173 A 
ATOM     85  C   UNL A   1      39.762  24.103  26.711  1.00  0.00     0.173 A 
ATOM     86  F   UNL A   1      42.684  21.980  26.351  1.00  0.00    -0.203 F 
ATOM     87  C   UNL A   1      40.402  21.494  26.068  1.00  0.00     0.198 A 
ATOM     88  C   UNL A   1      38.753  23.188  26.419  1.00  0.00     0.198 A 
ATOM     89  F   UNL A   1      39.376  25.326  27.108  1.00  0.00    -0.203 F 
ATOM     90  F   UNL A   1      40.714  20.216  25.810  1.00  0.00    -0.200 F 
ATOM     91  C   UNL A   1      39.072  21.879  26.112  1.00  0.00     0.200 A 
ATOM     92  F   UNL A   1      37.469  23.565  26.500  1.00  0.00    -0.200 F 
ATOM     93  F   UNL A   1      38.098  20.981  25.904  1.00  0.00    -0.200 F 
ENDBRANCH  59  83
BRANCH  71  94
ATOM     94  C   UNL A   1      46.980  25.951  27.682  1.00  0.00     0.064 A 
ATOM     95  C   UNL A   1      46.426  27.107  27.108  1.00  0.00     0.173 A 
ATOM     96  C   UNL A   1      48.191  25.480  27.154  1.00  0.00     0.173 A 
ATOM     97  F   UNL A   1      45.324  27.671  27.620  1.00  0.00    -0.203 F 
ATOM     98  C   UNL A   1      47.030  27.725  26.014  1.00  0.00     0.198 A 
ATOM     99  C   UNL A   1      48.812  26.124  26.088  1.00  0.00     0.198 A 
ATOM    100  F   UNL A   1      48.793  24.412  27.701  1.00  0.00    -0.203 F 
ATOM    101  F   UNL A   1      46.470  28.812  25.463  1.00  0.00    -0.200 F 
ATOM    102  C   UNL A   1      48.224  27.235  25.509  1.00  0.00     0.200 A 
ATOM    103  F   UNL A   1      49.991  25.674  25.634  1.00  0.00    -0.200 F 
ATOM    104  F   UNL A   1      48.822  27.850  24.477  1.00  0.00    -0.200 F 
ENDBRANCH  71  94
ENDBRANCH  45  46
ENDBRANCH  38  40
ENDBRANCH  37  38
ENDBRANCH  36  37
ENDBRANCH  35  36
ENDBRANCH  34  35
ENDBRANCH  33  34
ENDBRANCH   1  33
TORSDOF 21
ENDMDL
MODEL 3
REMARK VINA RESULT:     -10.2      5.562     12.325
REMARK SMILES NS(=O)(=O)c1ccc(-n2nc(C(=O)OCCOCCOCCOC(=O)c3ccc(-c4c5nc(c(-c6c(F)c(F)c(F)c(F)c6F)c6ccc([nH]6)c(-c6c(F)c(F)c(F)c(F)c6F)c6nc(c(-c7c(F)c(F)c(F)c(F)c7F)c7ccc4[nH]7)C=C6)C=C5)cc3)c(Cl)c2-c2ccc(Cl)cc2)cc1
REMARK SMILES IDX 18 1 17 2 16 3 15 4 14 5 12 6 13 7 11 8 9 9 10 10 91 11
REMARK SMILES IDX 89 12 90 13 8 14 5 15 6 16 100 17 7 18 99 19 2 20 3 21 4 22
REMARK SMILES IDX 1 23 92 26 93 27 98 28 94 29 97 30 95 31 96 32 19 33 20 34
REMARK SMILES IDX 21 35 22 36 23 37 24 38 25 39 26 40 27 41 88 42 28 43 87 44
REMARK SMILES IDX 29 45 30 46 31 47 81 48 32 49 86 50 80 51 82 52 33 53 85 54
REMARK SMILES IDX 79 55 78 56 34 58 66 59 46 60 65 61 47 62 50 63 64 64 83 65
REMARK SMILES IDX 48 66 49 67 63 69 84 70 51 71 35 72 36 73 44 74 37 75 38 76
REMARK SMILES IDX 42 77 45 78 39 79 40 80 43 81 41 82 67 83 68 84 76 85 69 86
REMARK SMILES IDX 70 87 74 88 77 89 71 90 72 91 75 92 73 93 52 94 53 95 61 96
REMARK SMILES IDX 54 97 55 98 59 99 62 100 56 101 57 102 60 103 58 104
REMARK H PARENT 1 24 1 25 82 57 50 68
REMARK Flexibility Score: inf
ROOT
ATOM      1  C   UNL A   1      45.921  25.118  27.803  1.00  0.00     0.188 C 
ENDROOT
BRANCH   1   2
ATOM      2  O   UNL A   1      46.715  25.609  28.880  1.00  0.00    -0.376 OA
BRANCH   2   3
ATOM      3  C   UNL A   1      46.110  26.414  29.889  1.00  0.00     0.202 C 
BRANCH   3   4
ATOM      4  C   UNL A   1      45.132  25.762  30.879  1.00  0.00     0.261 C 
BRANCH   4   5
ATOM      5  O   UNL A   1      45.749  24.854  31.807  1.00  0.00    -0.458 OA
BRANCH   5   6
ATOM      6  C   UNL A   1      45.661  25.156  33.137  1.00  0.00     0.360 C 
ATOM      7  O   UNL A   1      45.130  26.173  33.569  1.00  0.00    -0.244 OA
BRANCH   6   8
ATOM      8  C   UNL A   1      46.206  24.098  34.006  1.00  0.00     0.190 A 
ATOM      9  N   UNL A   1      47.655  22.753  34.831  1.00  0.00    -0.231 N 
ATOM     10  N   UNL A   1      47.537  23.882  34.099  1.00  0.00    -0.159 NA
ATOM     11  C   UNL A   1      46.445  22.310  35.335  1.00  0.00     0.094 A 
ATOM     12  C   UNL A   1      45.505  23.203  34.854  1.00  0.00     0.102 A 
ATOM     13  Cl  UNL A   1      43.830  23.175  35.164  1.00  0.00    -0.079 Cl
BRANCH   9  14
ATOM     14  C   UNL A   1      48.886  22.059  34.856  1.00  0.00     0.065 A 
ATOM     15  C   UNL A   1      51.391  20.871  34.767  1.00  0.00     0.082 A 
ATOM     16  C   UNL A   1      50.354  20.358  33.975  1.00  0.00     0.024 A 
ATOM     17  C   UNL A   1      51.167  21.943  35.636  1.00  0.00     0.024 A 
ATOM     18  C   UNL A   1      49.082  20.940  34.037  1.00  0.00     0.030 A 
ATOM     19  C   UNL A   1      49.916  22.552  35.666  1.00  0.00     0.030 A 
BRANCH  15  20
ATOM     20  S   UNL A   1      53.025  20.203  34.652  1.00  0.00     0.238 S 
ATOM     21  O   UNL A   1      52.999  18.821  35.079  1.00  0.00    -0.207 OA
ATOM     22  O   UNL A   1      53.948  21.168  35.194  1.00  0.00    -0.207 OA
BRANCH  20  23
ATOM     23  N   UNL A   1      53.322  20.140  33.001  1.00  0.00    -0.225 NA
ATOM     24  H   UNL A   1      54.027  19.427  32.809  1.00  0.00     0.137 HD
ATOM     25  H   UNL A   1      53.661  21.047  32.682  1.00  0.00     0.137 HD
ENDBRANCH  20  23
ENDBRANCH  15  20
ENDBRANCH   9  14
BRANCH  11  26
ATOM     26  C   UNL A   1      46.260  21.112  36.157  1.00  0.00     0.002 A 
ATOM     27  C   UNL A   1      45.680  19.976  35.574  1.00  0.00     0.012 A 
ATOM     28  C   UNL A   1      46.622  21.075  37.510  1.00  0.00     0.012 A 
ATOM     29  C   UNL A   1      45.448  18.828  36.331  1.00  0.00     0.021 A 
ATOM     30  C   UNL A   1      46.393  19.921  38.267  1.00  0.00     0.021 A 
ATOM     31  C   UNL A   1      45.801  18.806  37.676  1.00  0.00     0.041 A 
ATOM     32  Cl  UNL A   1      45.494  17.396  38.612  1.00  0.00    -0.084 Cl
ENDBRANCH  11  26
ENDBRANCH   6   8
ENDBRANCH   5   6
ENDBRANCH   4   5
ENDBRANCH   3   4
ENDBRANCH   2   3
ENDBRANCH   1   2
BRANCH   1  33
ATOM     33  C   UNL A   1      45.894  23.605  27.493  1.00  0.00     0.188 C 
BRANCH  33  34
ATOM     34  O   UNL A   1      46.436  23.266  26.228  1.00  0.00    -0.376 OA
BRANCH  34  35
ATOM     35  C   UNL A   1      45.890  23.912  25.088  1.00  0.00     0.202 C 
BRANCH  35  36
ATOM     36  C   UNL A   1      44.578  23.366  24.520  1.00  0.00     0.261 C 
BRANCH  36  37
ATOM     37  O   UNL A   1      43.405  24.075  24.896  1.00  0.00    -0.460 OA
BRANCH  37  38
ATOM     38  C   UNL A   1      42.538  23.395  25.670  1.00  0.00     0.338 C 
ATOM     39  O   UNL A   1      42.298  22.200  25.629  1.00  0.00    -0.246 OA
BRANCH  38  40
ATOM     40  C   UNL A   1      41.853  24.348  26.554  1.00  0.00     0.060 A 
ATOM     41  C   UNL A   1      40.969  25.245  25.956  1.00  0.00     0.016 A 
ATOM     42  C   UNL A   1      42.280  24.505  27.883  1.00  0.00     0.016 A 
ATOM     43  C   UNL A   1      40.683  26.417  26.621  1.00  0.00     0.010 A 
ATOM     44  C   UNL A   1      42.002  25.683  28.543  1.00  0.00     0.010 A 
ATOM     45  C   UNL A   1      41.287  26.662  27.862  1.00  0.00    -0.014 A 
BRANCH  45  46
ATOM     46  C   UNL A   1      41.212  28.020  28.358  1.00  0.00     0.031 A 
ATOM     47  C   UNL A   1      42.360  28.883  28.039  1.00  0.00     0.074 A 
ATOM     48  C   UNL A   1      40.176  28.455  29.098  1.00  0.00     0.049 A 
ATOM     49  N   UNL A   1      43.244  29.349  28.858  1.00  0.00    -0.248 NA
ATOM     50  C   UNL A   1      42.596  29.201  26.628  1.00  0.00     0.031 C 
ATOM     51  C   UNL A   1      38.862  27.831  29.265  1.00  0.00     0.029 A 
ATOM     52  N   UNL A   1      40.072  29.615  29.805  1.00  0.00    -0.354 N 
ATOM     53  C   UNL A   1      44.068  30.158  28.090  1.00  0.00     0.074 A 
ATOM     54  C   UNL A   1      43.702  29.942  26.713  1.00  0.00     0.031 C 
ATOM     55  C   UNL A   1      38.027  28.714  29.857  1.00  0.00     0.029 A 
ATOM     56  C   UNL A   1      38.787  29.896  30.233  1.00  0.00     0.049 A 
ATOM     57  H   UNL A   1      40.840  30.201  29.996  1.00  0.00     0.167 HD
ATOM     58  C   UNL A   1      44.846  31.113  28.661  1.00  0.00     0.037 A 
ATOM     59  C   UNL A   1      38.368  31.052  30.793  1.00  0.00     0.037 A 
ATOM     60  C   UNL A   1      45.003  30.917  30.075  1.00  0.00     0.049 A 
ATOM     61  C   UNL A   1      39.546  31.736  31.380  1.00  0.00     0.074 A 
ATOM     62  C   UNL A   1      45.629  29.989  30.878  1.00  0.00     0.029 A 
ATOM     63  N   UNL A   1      44.165  31.637  30.885  1.00  0.00    -0.354 N 
ATOM     64  N   UNL A   1      40.204  31.306  32.420  1.00  0.00    -0.248 NA
ATOM     65  C   UNL A   1      40.209  32.787  30.618  1.00  0.00     0.031 C 
ATOM     66  C   UNL A   1      44.889  29.968  32.097  1.00  0.00     0.029 A 
ATOM     67  C   UNL A   1      43.841  30.880  31.981  1.00  0.00     0.049 A 
ATOM     68  H   UNL A   1      43.846  32.550  30.708  1.00  0.00     0.167 HD
ATOM     69  C   UNL A   1      41.508  31.718  32.204  1.00  0.00     0.074 A 
ATOM     70  C   UNL A   1      41.413  32.759  31.193  1.00  0.00     0.031 C 
ATOM     71  C   UNL A   1      42.558  30.968  32.646  1.00  0.00     0.037 A 
BRANCH  58  72
ATOM     72  C   UNL A   1      45.146  32.433  28.006  1.00  0.00     0.064 A 
ATOM     73  C   UNL A   1      44.109  33.364  27.815  1.00  0.00     0.173 A 
ATOM     74  C   UNL A   1      46.339  32.680  27.295  1.00  0.00     0.173 A 
ATOM     75  F   UNL A   1      42.919  33.192  28.411  1.00  0.00    -0.203 F 
ATOM     76  C   UNL A   1      44.247  34.443  26.939  1.00  0.00     0.198 A 
ATOM     77  C   UNL A   1      46.493  33.788  26.466  1.00  0.00     0.198 A 
ATOM     78  F   UNL A   1      47.351  31.802  27.287  1.00  0.00    -0.203 F 
ATOM     79  F   UNL A   1      43.199  35.243  26.699  1.00  0.00    -0.200 F 
ATOM     80  C   UNL A   1      45.438  34.654  26.267  1.00  0.00     0.200 A 
ATOM     81  F   UNL A   1      47.644  33.961  25.801  1.00  0.00    -0.200 F 
ATOM     82  F   UNL A   1      45.555  35.660  25.389  1.00  0.00    -0.200 F 
ENDBRANCH  58  72
BRANCH  59  83
ATOM     83  C   UNL A   1      37.065  31.723  30.600  1.00  0.00     0.064 A 
ATOM     84  C   UNL A   1      36.128  31.798  31.641  1.00  0.00     0.173 A 
ATOM     85  C   UNL A   1      36.824  32.540  29.477  1.00  0.00     0.173 A 
ATOM     86  F   UNL A   1      36.308  31.085  32.762  1.00  0.00    -0.203 F 
ATOM     87  C   UNL A   1      35.032  32.662  31.576  1.00  0.00     0.198 A 
ATOM     88  C   UNL A   1      35.724  33.392  29.408  1.00  0.00     0.198 A 
ATOM     89  F   UNL A   1      37.704  32.601  28.466  1.00  0.00    -0.203 F 
ATOM     90  F   UNL A   1      34.195  32.759  32.619  1.00  0.00    -0.200 F 
ATOM     91  C   UNL A   1      34.836  33.465  30.464  1.00  0.00     0.200 A 
ATOM     92  F   UNL A   1      35.566  34.188  28.341  1.00  0.00    -0.200 F 
ATOM     93  F   UNL A   1      33.820  34.339  30.428  1.00  0.00    -0.200 F 
ENDBRANCH  59  83
BRANCH  71  94
ATOM     94  C   UNL A   1      42.283  29.994  33.752  1.00  0.00     0.064 A 
ATOM     95  C   UNL A   1      41.821  28.683  33.549  1.00  0.00     0.173 A 
ATOM     96  C   UNL A   1      42.583  30.381  35.065  1.00  0.00     0.173 A 
ATOM     97  F   UNL A   1      41.606  28.210  32.314  1.00  0.00    -0.203 F 
ATOM     98  C   UNL A   1      41.613  27.821  34.625  1.00  0.00     0.198 A 
ATOM     99  C   UNL A   1      42.413  29.505  36.133  1.00  0.00     0.198 A 
ATOM    100  F   UNL A   1      43.080  31.604  35.310  1.00  0.00    -0.203 F 
ATOM    101  F   UNL A   1      41.145  26.582  34.413  1.00  0.00    -0.200 F 
ATOM    102  C   UNL A   1      41.913  28.232  35.914  1.00  0.00     0.200 A 
ATOM    103  F   UNL A   1      42.749  29.890  37.372  1.00  0.00    -0.200 F 
ATOM    104  F   UNL A   1      41.744  27.391  36.946  1.00  0.00    -0.200 F 
ENDBRANCH  71  94
ENDBRANCH  45  46
ENDBRANCH  38  40
ENDBRANCH  37  38
ENDBRANCH  36  37
ENDBRANCH  35  36
ENDBRANCH  34  35
ENDBRANCH  33  34
ENDBRANCH   1  33
TORSDOF 21
ENDMDL
