MODEL 1
REMARK VINA RESULT:     -12.0      0.000      0.000
REMARK SMILES O=C(OCCOCCOCCOC(=O)[C@H]1CC2(CC[NH+](C(=O)C3CC3)CC2)CN1C(=O)CCn1cccn1)c1ccc(-c2c3nc(c(-c4c(F)c(F)c(F)c(F)c4F)c4ccc([nH]4)c(-c4c(F)c(F)c(F)c(F)c4F)c4nc(c(-c5c(F)c(F)c(F)c(F)c5F)c5ccc2[nH]5)C=C4)C=C3)cc1
REMARK SMILES IDX 8 1 7 2 6 3 5 4 4 5 3 6 2 7 1 8 39 9 40 10 101 11 41 12
REMARK SMILES IDX 100 13 42 14 43 15 44 16 94 17 45 18 99 19 93 20 95 21 46 22
REMARK SMILES IDX 98 23 92 24 91 25 47 27 79 28 59 29 78 30 60 31 63 32 77 33
REMARK SMILES IDX 96 34 61 35 62 36 76 38 97 39 64 40 48 41 49 42 57 43 50 44
REMARK SMILES IDX 51 45 55 46 58 47 52 48 53 49 56 50 54 51 80 52 81 53 89 54
REMARK SMILES IDX 82 55 83 56 87 57 90 58 84 59 85 60 88 61 86 62 65 63 66 64
REMARK SMILES IDX 74 65 67 66 68 67 72 68 75 69 69 70 70 71 73 72 71 73 9 74
REMARK SMILES IDX 10 75 11 76 12 77 13 78 14 79 15 80 16 81 29 82 17 83 28 84
REMARK SMILES IDX 18 85 27 86 19 87 26 88 20 89 30 91 31 92 32 93 33 94 34 95
REMARK SMILES IDX 35 96 38 97 36 98 37 99 21 100 22 101 23 102 24 103 25 104
REMARK H PARENT 95 26 63 37 20 90
REMARK Flexibility Score: inf
ROOT
ATOM      1  C   UNL A   1      39.148  22.446  26.526  1.00  0.00     0.188 C 
ENDROOT
BRANCH   1   2
ATOM      2  C   UNL A   1      40.193  21.352  26.201  1.00  0.00     0.188 C 
BRANCH   2   3
ATOM      3  O   UNL A   1      40.649  20.505  27.247  1.00  0.00    -0.376 OA
BRANCH   3   4
ATOM      4  C   UNL A   1      41.964  19.982  27.145  1.00  0.00     0.202 C 
BRANCH   4   5
ATOM      5  C   UNL A   1      42.267  19.270  25.830  1.00  0.00     0.261 C 
BRANCH   5   6
ATOM      6  O   UNL A   1      43.629  19.513  25.426  1.00  0.00    -0.460 OA
BRANCH   6   7
ATOM      7  C   UNL A   1      44.262  20.531  24.818  1.00  0.00     0.338 C 
ATOM      8  O   UNL A   1      44.808  20.300  23.739  1.00  0.00    -0.246 OA
BRANCH   7   9
ATOM      9  C   UNL A   1      44.344  21.920  25.342  1.00  0.00     0.060 A 
ATOM     10  C   UNL A   1      45.305  22.414  26.225  1.00  0.00     0.016 A 
ATOM     11  C   UNL A   1      43.340  22.796  24.882  1.00  0.00     0.016 A 
ATOM     12  C   UNL A   1      45.116  23.643  26.835  1.00  0.00     0.010 A 
ATOM     13  C   UNL A   1      43.179  24.049  25.439  1.00  0.00     0.010 A 
ATOM     14  C   UNL A   1      44.010  24.418  26.486  1.00  0.00    -0.014 A 
BRANCH  14  15
ATOM     15  C   UNL A   1      43.811  25.681  27.170  1.00  0.00     0.031 A 
ATOM     16  C   UNL A   1      44.824  26.703  26.813  1.00  0.00     0.074 A 
ATOM     17  C   UNL A   1      42.753  25.884  27.982  1.00  0.00     0.049 A 
ATOM     18  N   UNL A   1      45.720  27.219  27.587  1.00  0.00    -0.248 NA
ATOM     19  C   UNL A   1      44.981  27.062  25.394  1.00  0.00     0.031 C 
ATOM     20  C   UNL A   1      41.606  24.997  28.189  1.00  0.00     0.029 A 
ATOM     21  N   UNL A   1      42.428  26.975  28.731  1.00  0.00    -0.354 N 
ATOM     22  C   UNL A   1      46.403  28.146  26.805  1.00  0.00     0.074 A 
ATOM     23  C   UNL A   1      46.052  27.857  25.442  1.00  0.00     0.031 C 
ATOM     24  C   UNL A   1      40.617  25.677  28.810  1.00  0.00     0.029 A 
ATOM     25  C   UNL A   1      41.101  26.999  29.157  1.00  0.00     0.049 A 
ATOM     26  H   UNL A   1      43.074  27.685  28.951  1.00  0.00     0.167 HD
ATOM     27  C   UNL A   1      46.924  29.262  27.386  1.00  0.00     0.037 A 
ATOM     28  C   UNL A   1      40.444  28.066  29.683  1.00  0.00     0.037 A 
ATOM     29  C   UNL A   1      47.134  29.037  28.801  1.00  0.00     0.049 A 
ATOM     30  C   UNL A   1      41.472  29.020  30.173  1.00  0.00     0.074 A 
ATOM     31  C   UNL A   1      47.858  28.130  29.553  1.00  0.00     0.029 A 
ATOM     32  N   UNL A   1      46.235  29.598  29.672  1.00  0.00    -0.354 N 
ATOM     33  N   UNL A   1      42.247  28.781  31.195  1.00  0.00    -0.248 NA
ATOM     34  C   UNL A   1      41.967  30.015  29.234  1.00  0.00     0.031 C 
ATOM     35  C   UNL A   1      47.048  27.861  30.698  1.00  0.00     0.029 A 
ATOM     36  C   UNL A   1      45.915  28.671  30.623  1.00  0.00     0.049 A 
ATOM     37  H   UNL A   1      45.880  30.516  29.622  1.00  0.00     0.167 HD
ATOM     38  C   UNL A   1      43.497  29.226  30.794  1.00  0.00     0.074 A 
ATOM     39  C   UNL A   1      43.247  30.050  29.612  1.00  0.00     0.031 C 
ATOM     40  C   UNL A   1      44.631  28.636  31.277  1.00  0.00     0.037 A 
BRANCH  27  41
ATOM     41  C   UNL A   1      46.722  30.662  26.819  1.00  0.00     0.064 A 
ATOM     42  C   UNL A   1      47.818  31.552  26.857  1.00  0.00     0.173 A 
ATOM     43  C   UNL A   1      45.466  31.272  26.604  1.00  0.00     0.173 A 
ATOM     44  F   UNL A   1      49.067  31.092  27.018  1.00  0.00    -0.203 F 
ATOM     45  C   UNL A   1      47.644  32.938  26.871  1.00  0.00     0.198 A 
ATOM     46  C   UNL A   1      45.302  32.656  26.576  1.00  0.00     0.198 A 
ATOM     47  F   UNL A   1      44.327  30.582  26.504  1.00  0.00    -0.203 F 
ATOM     48  F   UNL A   1      48.699  33.735  27.090  1.00  0.00    -0.200 F 
ATOM     49  C   UNL A   1      46.383  33.488  26.757  1.00  0.00     0.200 A 
ATOM     50  F   UNL A   1      44.068  33.168  26.463  1.00  0.00    -0.200 F 
ATOM     51  F   UNL A   1      46.203  34.811  26.863  1.00  0.00    -0.200 F 
ENDBRANCH  27  41
BRANCH  28  52
ATOM     52  C   UNL A   1      39.028  28.466  29.478  1.00  0.00     0.064 A 
ATOM     53  C   UNL A   1      38.161  28.656  30.569  1.00  0.00     0.173 A 
ATOM     54  C   UNL A   1      38.572  28.944  28.233  1.00  0.00     0.173 A 
ATOM     55  F   UNL A   1      38.533  28.276  31.800  1.00  0.00    -0.203 F 
ATOM     56  C   UNL A   1      36.928  29.305  30.426  1.00  0.00     0.198 A 
ATOM     57  C   UNL A   1      37.338  29.584  28.091  1.00  0.00     0.198 A 
ATOM     58  F   UNL A   1      39.351  28.890  27.145  1.00  0.00    -0.203 F 
ATOM     59  F   UNL A   1      36.159  29.525  31.502  1.00  0.00    -0.200 F 
ATOM     60  C   UNL A   1      36.523  29.777  29.189  1.00  0.00     0.200 A 
ATOM     61  F   UNL A   1      36.977  30.067  26.895  1.00  0.00    -0.200 F 
ATOM     62  F   UNL A   1      35.372  30.452  29.062  1.00  0.00    -0.200 F 
ENDBRANCH  28  52
BRANCH  40  63
ATOM     63  C   UNL A   1      44.492  27.727  32.463  1.00  0.00     0.064 A 
ATOM     64  C   UNL A   1      44.415  28.166  33.797  1.00  0.00     0.173 A 
ATOM     65  C   UNL A   1      44.316  26.359  32.223  1.00  0.00     0.173 A 
ATOM     66  F   UNL A   1      44.465  29.470  34.098  1.00  0.00    -0.203 F 
ATOM     67  C   UNL A   1      44.232  27.263  34.843  1.00  0.00     0.198 A 
ATOM     68  C   UNL A   1      44.092  25.465  33.265  1.00  0.00     0.198 A 
ATOM     69  F   UNL A   1      44.320  25.891  30.965  1.00  0.00    -0.203 F 
ATOM     70  F   UNL A   1      44.185  27.702  36.110  1.00  0.00    -0.200 F 
ATOM     71  C   UNL A   1      44.067  25.914  34.575  1.00  0.00     0.200 A 
ATOM     72  F   UNL A   1      43.881  24.169  32.995  1.00  0.00    -0.200 F 
ATOM     73  F   UNL A   1      43.855  25.049  35.577  1.00  0.00    -0.200 F 
ENDBRANCH  40  63
ENDBRANCH  14  15
ENDBRANCH   7   9
ENDBRANCH   6   7
ENDBRANCH   5   6
ENDBRANCH   4   5
ENDBRANCH   3   4
ENDBRANCH   2   3
ENDBRANCH   1   2
BRANCH   1  74
ATOM     74  O   UNL A   1      38.448  23.092  25.475  1.00  0.00    -0.376 OA
BRANCH  74  75
ATOM     75  C   UNL A   1      37.400  22.349  24.875  1.00  0.00     0.202 C 
BRANCH  75  76
ATOM     76  C   UNL A   1      36.422  23.163  24.026  1.00  0.00     0.261 C 
BRANCH  76  77
ATOM     77  O   UNL A   1      35.510  23.931  24.843  1.00  0.00    -0.462 OA
BRANCH  77  78
ATOM     78  C   UNL A   1      34.419  24.390  24.191  1.00  0.00     0.328 C 
ATOM     79  O   UNL A   1      34.366  24.405  22.961  1.00  0.00    -0.250 OA
BRANCH  78  80
ATOM     80  C   UNL A   1      33.401  25.162  25.085  1.00  0.00     0.195 C 
ATOM     81  C   UNL A   1      32.747  26.177  24.155  1.00  0.00     0.046 C 
ATOM     82  N   UNL A   1      32.422  25.088  26.212  1.00  0.00    -0.328 N 
ATOM     83  C   UNL A   1      31.810  27.033  25.020  1.00  0.00     0.001 C 
ATOM     84  C   UNL A   1      32.031  26.490  26.445  1.00  0.00     0.128 C 
ATOM     85  C   UNL A   1      30.354  26.836  24.555  1.00  0.00     0.071 C 
ATOM     86  C   UNL A   1      32.170  28.518  24.880  1.00  0.00     0.071 C 
ATOM     87  C   UNL A   1      30.146  27.335  23.124  1.00  0.00     0.270 C 
ATOM     88  C   UNL A   1      31.937  28.999  23.444  1.00  0.00     0.270 C 
ATOM     89  N   UNL A   1      30.572  28.721  22.993  1.00  0.00    -0.272 N 
ATOM     90  H   UNL A   1      30.908  28.238  23.783  1.00  0.00     0.356 HD
BRANCH  82  91
ATOM     91  C   UNL A   1      31.377  24.195  26.477  1.00  0.00     0.225 C 
ATOM     92  O   UNL A   1      30.206  24.588  26.590  1.00  0.00    -0.275 OA
BRANCH  91  93
ATOM     93  C   UNL A   1      31.628  22.774  26.888  1.00  0.00     0.124 C 
BRANCH  93  94
ATOM     94  C   UNL A   1      33.002  22.167  26.675  1.00  0.00     0.154 C 
BRANCH  94  95
ATOM     95  N   UNL A   1      33.111  21.091  25.720  1.00  0.00    -0.272 N 
ATOM     96  C   UNL A   1      34.257  20.510  25.258  1.00  0.00     0.108 A 
ATOM     97  N   UNL A   1      31.998  20.449  25.324  1.00  0.00    -0.182 NA
ATOM     98  C   UNL A   1      33.863  19.434  24.498  1.00  0.00     0.042 A 
ATOM     99  C   UNL A   1      32.462  19.428  24.594  1.00  0.00     0.135 A 
ENDBRANCH  94  95
ENDBRANCH  93  94
ENDBRANCH  91  93
ENDBRANCH  82  91
BRANCH  89 100
ATOM    100  C   UNL A   1      29.836  29.775  22.480  1.00  0.00     0.315 C 
ATOM    101  O   UNL A   1      29.847  30.018  21.265  1.00  0.00    -0.231 OA
BRANCH 100 102
ATOM    102  C   UNL A   1      28.951  30.663  23.287  1.00  0.00     0.119 C 
ATOM    103  C   UNL A   1      27.830  31.616  22.988  1.00  0.00     0.019 C 
ATOM    104  C   UNL A   1      27.511  30.230  23.463  1.00  0.00     0.019 C 
ENDBRANCH 100 102
ENDBRANCH  89 100
ENDBRANCH  78  80
ENDBRANCH  77  78
ENDBRANCH  76  77
ENDBRANCH  75  76
ENDBRANCH  74  75
ENDBRANCH   1  74
TORSDOF 23
ENDMDL
MODEL 2
REMARK VINA RESULT:     -11.3      4.292     10.055
REMARK SMILES O=C(OCCOCCOCCOC(=O)[C@H]1CC2(CC[NH+](C(=O)C3CC3)CC2)CN1C(=O)CCn1cccn1)c1ccc(-c2c3nc(c(-c4c(F)c(F)c(F)c(F)c4F)c4ccc([nH]4)c(-c4c(F)c(F)c(F)c(F)c4F)c4nc(c(-c5c(F)c(F)c(F)c(F)c5F)c5ccc2[nH]5)C=C4)C=C3)cc1
REMARK SMILES IDX 8 1 7 2 6 3 5 4 4 5 3 6 2 7 1 8 39 9 40 10 101 11 41 12
REMARK SMILES IDX 100 13 42 14 43 15 44 16 94 17 45 18 99 19 93 20 95 21 46 22
REMARK SMILES IDX 98 23 92 24 91 25 47 27 79 28 59 29 78 30 60 31 63 32 77 33
REMARK SMILES IDX 96 34 61 35 62 36 76 38 97 39 64 40 48 41 49 42 57 43 50 44
REMARK SMILES IDX 51 45 55 46 58 47 52 48 53 49 56 50 54 51 80 52 81 53 89 54
REMARK SMILES IDX 82 55 83 56 87 57 90 58 84 59 85 60 88 61 86 62 65 63 66 64
REMARK SMILES IDX 74 65 67 66 68 67 72 68 75 69 69 70 70 71 73 72 71 73 9 74
REMARK SMILES IDX 10 75 11 76 12 77 13 78 14 79 15 80 16 81 29 82 17 83 28 84
REMARK SMILES IDX 18 85 27 86 19 87 26 88 20 89 30 91 31 92 32 93 33 94 34 95
REMARK SMILES IDX 35 96 38 97 36 98 37 99 21 100 22 101 23 102 24 103 25 104
REMARK H PARENT 95 26 63 37 20 90
REMARK Flexibility Score: inf
ROOT
ATOM      1  C   UNL A   1      35.140  34.226  28.245  1.00  0.00     0.188 C 
ENDROOT
BRANCH   1   2
ATOM      2  C   UNL A   1      34.024  34.617  29.242  1.00  0.00     0.188 C 
BRANCH   2   3
ATOM      3  O   UNL A   1      33.526  35.948  29.228  1.00  0.00    -0.376 OA
BRANCH   3   4
ATOM      4  C   UNL A   1      32.704  36.354  30.311  1.00  0.00     0.202 C 
BRANCH   4   5
ATOM      5  C   UNL A   1      33.463  36.759  31.572  1.00  0.00     0.261 C 
BRANCH   5   6
ATOM      6  O   UNL A   1      33.174  35.847  32.650  1.00  0.00    -0.460 OA
BRANCH   6   7
ATOM      7  C   UNL A   1      33.578  34.605  32.966  1.00  0.00     0.338 C 
ATOM      8  O   UNL A   1      32.708  33.770  33.215  1.00  0.00    -0.246 OA
BRANCH   7   9
ATOM      9  C   UNL A   1      34.994  34.157  33.024  1.00  0.00     0.060 A 
ATOM     10  C   UNL A   1      36.120  34.980  33.045  1.00  0.00     0.016 A 
ATOM     11  C   UNL A   1      35.181  32.760  33.059  1.00  0.00     0.016 A 
ATOM     12  C   UNL A   1      37.377  34.437  32.834  1.00  0.00     0.010 A 
ATOM     13  C   UNL A   1      36.438  32.206  32.912  1.00  0.00     0.010 A 
ATOM     14  C   UNL A   1      37.512  33.056  32.697  1.00  0.00    -0.014 A 
BRANCH  14  15
ATOM     15  C   UNL A   1      38.832  32.516  32.434  1.00  0.00     0.031 A 
ATOM     16  C   UNL A   1      39.731  32.574  33.612  1.00  0.00     0.074 A 
ATOM     17  C   UNL A   1      39.142  31.960  31.246  1.00  0.00     0.049 A 
ATOM     18  N   UNL A   1      40.804  33.280  33.742  1.00  0.00    -0.248 NA
ATOM     19  C   UNL A   1      39.294  31.916  34.854  1.00  0.00     0.031 C 
ATOM     20  C   UNL A   1      38.234  31.670  30.134  1.00  0.00     0.029 A 
ATOM     21  N   UNL A   1      40.326  31.445  30.808  1.00  0.00    -0.354 N 
ATOM     22  C   UNL A   1      41.307  32.969  35.003  1.00  0.00     0.074 A 
ATOM     23  C   UNL A   1      40.245  32.303  35.705  1.00  0.00     0.031 C 
ATOM     24  C   UNL A   1      38.839  30.831  29.264  1.00  0.00     0.029 A 
ATOM     25  C   UNL A   1      40.211  30.627  29.686  1.00  0.00     0.049 A 
ATOM     26  H   UNL A   1      41.187  31.634  31.247  1.00  0.00     0.167 HD
ATOM     27  C   UNL A   1      42.652  32.999  35.216  1.00  0.00     0.037 A 
ATOM     28  C   UNL A   1      41.165  29.788  29.201  1.00  0.00     0.037 A 
ATOM     29  C   UNL A   1      43.294  33.855  34.241  1.00  0.00     0.049 A 
ATOM     30  C   UNL A   1      42.470  30.240  29.747  1.00  0.00     0.074 A 
ATOM     31  C   UNL A   1      43.177  35.182  33.874  1.00  0.00     0.029 A 
ATOM     32  N   UNL A   1      43.965  33.249  33.209  1.00  0.00    -0.354 N 
ATOM     33  N   UNL A   1      43.044  31.360  29.404  1.00  0.00    -0.248 NA
ATOM     34  C   UNL A   1      42.890  29.690  31.026  1.00  0.00     0.031 C 
ATOM     35  C   UNL A   1      43.359  35.198  32.458  1.00  0.00     0.029 A 
ATOM     36  C   UNL A   1      43.653  33.898  32.048  1.00  0.00     0.049 A 
ATOM     37  H   UNL A   1      44.571  32.476  33.291  1.00  0.00     0.167 HD
ATOM     38  C   UNL A   1      43.524  31.883  30.595  1.00  0.00     0.074 A 
ATOM     39  C   UNL A   1      43.473  30.774  31.545  1.00  0.00     0.031 C 
ATOM     40  C   UNL A   1      43.627  33.235  30.768  1.00  0.00     0.037 A 
BRANCH  27  41
ATOM     41  C   UNL A   1      43.405  31.869  35.910  1.00  0.00     0.064 A 
ATOM     42  C   UNL A   1      44.427  32.221  36.818  1.00  0.00     0.173 A 
ATOM     43  C   UNL A   1      43.437  30.529  35.465  1.00  0.00     0.173 A 
ATOM     44  F   UNL A   1      44.483  33.455  37.341  1.00  0.00    -0.203 F 
ATOM     45  C   UNL A   1      45.492  31.361  37.101  1.00  0.00     0.198 A 
ATOM     46  C   UNL A   1      44.481  29.660  35.785  1.00  0.00     0.198 A 
ATOM     47  F   UNL A   1      42.529  30.014  34.633  1.00  0.00    -0.203 F 
ATOM     48  F   UNL A   1      46.528  31.808  37.825  1.00  0.00    -0.200 F 
ATOM     49  C   UNL A   1      45.531  30.091  36.562  1.00  0.00     0.200 A 
ATOM     50  F   UNL A   1      44.497  28.431  35.251  1.00  0.00    -0.200 F 
ATOM     51  F   UNL A   1      46.593  29.299  36.756  1.00  0.00    -0.200 F 
ENDBRANCH  27  41
BRANCH  28  52
ATOM     52  C   UNL A   1      40.985  28.443  28.596  1.00  0.00     0.064 A 
ATOM     53  C   UNL A   1      40.196  27.463  29.224  1.00  0.00     0.173 A 
ATOM     54  C   UNL A   1      41.348  28.183  27.259  1.00  0.00     0.173 A 
ATOM     55  F   UNL A   1      39.763  27.649  30.480  1.00  0.00    -0.203 F 
ATOM     56  C   UNL A   1      39.776  26.310  28.548  1.00  0.00     0.198 A 
ATOM     57  C   UNL A   1      40.936  27.029  26.589  1.00  0.00     0.198 A 
ATOM     58  F   UNL A   1      42.028  29.086  26.540  1.00  0.00    -0.203 F 
ATOM     59  F   UNL A   1      38.970  25.431  29.161  1.00  0.00    -0.200 F 
ATOM     60  C   UNL A   1      40.139  26.100  27.229  1.00  0.00     0.200 A 
ATOM     61  F   UNL A   1      41.264  26.858  25.302  1.00  0.00    -0.200 F 
ATOM     62  F   UNL A   1      39.688  25.028  26.562  1.00  0.00    -0.200 F 
ENDBRANCH  28  52
BRANCH  40  63
ATOM     63  C   UNL A   1      43.505  34.104  29.551  1.00  0.00     0.064 A 
ATOM     64  C   UNL A   1      44.562  34.389  28.669  1.00  0.00     0.173 A 
ATOM     65  C   UNL A   1      42.232  34.575  29.206  1.00  0.00     0.173 A 
ATOM     66  F   UNL A   1      45.786  33.884  28.871  1.00  0.00    -0.203 F 
ATOM     67  C   UNL A   1      44.359  35.163  27.527  1.00  0.00     0.198 A 
ATOM     68  C   UNL A   1      42.024  35.312  28.045  1.00  0.00     0.198 A 
ATOM     69  F   UNL A   1      41.175  34.283  29.980  1.00  0.00    -0.203 F 
ATOM     70  F   UNL A   1      45.387  35.442  26.712  1.00  0.00    -0.200 F 
ATOM     71  C   UNL A   1      43.089  35.620  27.215  1.00  0.00     0.200 A 
ATOM     72  F   UNL A   1      40.784  35.706  27.721  1.00  0.00    -0.200 F 
ATOM     73  F   UNL A   1      42.886  36.334  26.099  1.00  0.00    -0.200 F 
ENDBRANCH  40  63
ENDBRANCH  14  15
ENDBRANCH   7   9
ENDBRANCH   6   7
ENDBRANCH   5   6
ENDBRANCH   4   5
ENDBRANCH   3   4
ENDBRANCH   2   3
ENDBRANCH   1   2
BRANCH   1  74
ATOM     74  O   UNL A   1      35.195  32.910  27.722  1.00  0.00    -0.376 OA
BRANCH  74  75
ATOM     75  C   UNL A   1      34.064  32.092  27.971  1.00  0.00     0.202 C 
BRANCH  75  76
ATOM     76  C   UNL A   1      34.181  30.645  27.489  1.00  0.00     0.261 C 
BRANCH  76  77
ATOM     77  O   UNL A   1      33.452  30.428  26.260  1.00  0.00    -0.462 OA
BRANCH  77  78
ATOM     78  C   UNL A   1      32.558  29.415  26.306  1.00  0.00     0.328 C 
ATOM     79  O   UNL A   1      31.895  29.191  27.320  1.00  0.00    -0.250 OA
BRANCH  78  80
ATOM     80  C   UNL A   1      32.661  28.398  25.128  1.00  0.00     0.195 C 
ATOM     81  C   UNL A   1      32.734  27.029  25.792  1.00  0.00     0.046 C 
ATOM     82  N   UNL A   1      32.240  28.055  23.735  1.00  0.00    -0.328 N 
ATOM     83  C   UNL A   1      32.943  26.002  24.668  1.00  0.00     0.001 C 
ATOM     84  C   UNL A   1      33.044  26.868  23.397  1.00  0.00     0.128 C 
ATOM     85  C   UNL A   1      31.736  25.046  24.612  1.00  0.00     0.071 C 
ATOM     86  C   UNL A   1      34.208  25.176  24.935  1.00  0.00     0.071 C 
ATOM     87  C   UNL A   1      31.611  24.219  25.892  1.00  0.00     0.270 C 
ATOM     88  C   UNL A   1      34.053  24.344  26.212  1.00  0.00     0.270 C 
ATOM     89  N   UNL A   1      32.850  23.508  26.173  1.00  0.00    -0.272 N 
ATOM     90  H   UNL A   1      32.915  24.259  25.539  1.00  0.00     0.356 HD
BRANCH  82  91
ATOM     91  C   UNL A   1      30.980  28.034  23.125  1.00  0.00     0.225 C 
ATOM     92  O   UNL A   1      30.789  27.425  22.061  1.00  0.00    -0.275 OA
BRANCH  91  93
ATOM     93  C   UNL A   1      29.867  28.938  23.565  1.00  0.00     0.124 C 
BRANCH  93  94
ATOM     94  C   UNL A   1      28.612  29.045  22.720  1.00  0.00     0.154 C 
BRANCH  94  95
ATOM     95  N   UNL A   1      28.315  30.329  22.134  1.00  0.00    -0.272 N 
ATOM     96  C   UNL A   1      28.408  31.552  22.734  1.00  0.00     0.108 A 
ATOM     97  N   UNL A   1      28.064  30.409  20.815  1.00  0.00    -0.182 NA
ATOM     98  C   UNL A   1      28.184  32.483  21.748  1.00  0.00     0.042 A 
ATOM     99  C   UNL A   1      28.003  31.724  20.581  1.00  0.00     0.135 A 
ENDBRANCH  94  95
ENDBRANCH  93  94
ENDBRANCH  91  93
ENDBRANCH  82  91
BRANCH  89 100
ATOM    100  C   UNL A   1      32.999  22.154  26.416  1.00  0.00     0.315 C 
ATOM    101  O   UNL A   1      33.175  21.738  27.570  1.00  0.00    -0.231 OA
BRANCH 100 102
ATOM    102  C   UNL A   1      32.918  21.092  25.373  1.00  0.00     0.119 C 
ATOM    103  C   UNL A   1      32.851  21.067  23.873  1.00  0.00     0.019 C 
ATOM    104  C   UNL A   1      34.165  20.828  24.555  1.00  0.00     0.019 C 
ENDBRANCH 100 102
ENDBRANCH  89 100
ENDBRANCH  78  80
ENDBRANCH  77  78
ENDBRANCH  76  77
ENDBRANCH  75  76
ENDBRANCH  74  75
ENDBRANCH   1  74
TORSDOF 23
ENDMDL
MODEL 3
REMARK VINA RESULT:     -11.0      3.363      9.318
REMARK SMILES O=C(OCCOCCOCCOC(=O)[C@H]1CC2(CC[NH+](C(=O)C3CC3)CC2)CN1C(=O)CCn1cccn1)c1ccc(-c2c3nc(c(-c4c(F)c(F)c(F)c(F)c4F)c4ccc([nH]4)c(-c4c(F)c(F)c(F)c(F)c4F)c4nc(c(-c5c(F)c(F)c(F)c(F)c5F)c5ccc2[nH]5)C=C4)C=C3)cc1
REMARK SMILES IDX 8 1 7 2 6 3 5 4 4 5 3 6 2 7 1 8 39 9 40 10 101 11 41 12
REMARK SMILES IDX 100 13 42 14 43 15 44 16 94 17 45 18 99 19 93 20 95 21 46 22
REMARK SMILES IDX 98 23 92 24 91 25 47 27 79 28 59 29 78 30 60 31 63 32 77 33
REMARK SMILES IDX 96 34 61 35 62 36 76 38 97 39 64 40 48 41 49 42 57 43 50 44
REMARK SMILES IDX 51 45 55 46 58 47 52 48 53 49 56 50 54 51 80 52 81 53 89 54
REMARK SMILES IDX 82 55 83 56 87 57 90 58 84 59 85 60 88 61 86 62 65 63 66 64
REMARK SMILES IDX 74 65 67 66 68 67 72 68 75 69 69 70 70 71 73 72 71 73 9 74
REMARK SMILES IDX 10 75 11 76 12 77 13 78 14 79 15 80 16 81 29 82 17 83 28 84
REMARK SMILES IDX 18 85 27 86 19 87 26 88 20 89 30 91 31 92 32 93 33 94 34 95
REMARK SMILES IDX 35 96 38 97 36 98 37 99 21 100 22 101 23 102 24 103 25 104
REMARK H PARENT 95 26 63 37 20 90
REMARK Flexibility Score: inf
ROOT
ATOM      1  C   UNL A   1      33.940  33.485  27.959  1.00  0.00     0.188 C 
ENDROOT
BRANCH   1   2
ATOM      2  C   UNL A   1      33.688  34.489  29.108  1.00  0.00     0.188 C 
BRANCH   2   3
ATOM      3  O   UNL A   1      33.779  34.034  30.451  1.00  0.00    -0.376 OA
BRANCH   3   4
ATOM      4  C   UNL A   1      34.903  34.447  31.213  1.00  0.00     0.202 C 
BRANCH   4   5
ATOM      5  C   UNL A   1      35.762  33.306  31.753  1.00  0.00     0.261 C 
BRANCH   5   6
ATOM      6  O   UNL A   1      36.200  32.452  30.677  1.00  0.00    -0.460 OA
BRANCH   6   7
ATOM      7  C   UNL A   1      37.361  32.287  30.020  1.00  0.00     0.338 C 
ATOM      8  O   UNL A   1      37.542  32.962  29.006  1.00  0.00    -0.246 OA
BRANCH   7   9
ATOM      9  C   UNL A   1      38.450  31.362  30.430  1.00  0.00     0.060 A 
ATOM     10  C   UNL A   1      39.781  31.708  30.665  1.00  0.00     0.016 A 
ATOM     11  C   UNL A   1      38.067  30.015  30.588  1.00  0.00     0.016 A 
ATOM     12  C   UNL A   1      40.742  30.717  30.782  1.00  0.00     0.010 A 
ATOM     13  C   UNL A   1      39.011  29.023  30.768  1.00  0.00     0.010 A 
ATOM     14  C   UNL A   1      40.352  29.379  30.760  1.00  0.00    -0.014 A 
BRANCH  14  15
ATOM     15  C   UNL A   1      41.380  28.360  30.842  1.00  0.00     0.031 A 
ATOM     16  C   UNL A   1      41.803  28.069  32.232  1.00  0.00     0.074 A 
ATOM     17  C   UNL A   1      41.823  27.716  29.742  1.00  0.00     0.049 A 
ATOM     18  N   UNL A   1      42.960  28.295  32.761  1.00  0.00    -0.248 NA
ATOM     19  C   UNL A   1      40.776  27.648  33.199  1.00  0.00     0.031 C 
ATOM     20  C   UNL A   1      41.283  27.798  28.383  1.00  0.00     0.029 A 
ATOM     21  N   UNL A   1      42.799  26.772  29.621  1.00  0.00    -0.354 N 
ATOM     22  C   UNL A   1      42.874  27.823  34.068  1.00  0.00     0.074 A 
ATOM     23  C   UNL A   1      41.475  27.636  34.335  1.00  0.00     0.031 C 
ATOM     24  C   UNL A   1      41.774  26.780  27.641  1.00  0.00     0.029 A 
ATOM     25  C   UNL A   1      42.753  26.055  28.427  1.00  0.00     0.049 A 
ATOM     26  H   UNL A   1      43.477  26.610  30.317  1.00  0.00     0.167 HD
ATOM     27  C   UNL A   1      43.985  27.321  34.675  1.00  0.00     0.037 A 
ATOM     28  C   UNL A   1      43.423  24.905  28.153  1.00  0.00     0.037 A 
ATOM     29  C   UNL A   1      45.179  27.847  34.047  1.00  0.00     0.049 A 
ATOM     30  C   UNL A   1      44.551  24.810  29.114  1.00  0.00     0.074 A 
ATOM     31  C   UNL A   1      45.694  29.109  33.823  1.00  0.00     0.029 A 
ATOM     32  N   UNL A   1      45.866  27.016  33.198  1.00  0.00    -0.354 N 
ATOM     33  N   UNL A   1      45.581  25.610  29.095  1.00  0.00    -0.248 NA
ATOM     34  C   UNL A   1      44.297  24.150  30.385  1.00  0.00     0.031 C 
ATOM     35  C   UNL A   1      46.314  29.039  32.538  1.00  0.00     0.029 A 
ATOM     36  C   UNL A   1      46.212  27.725  32.083  1.00  0.00     0.049 A 
ATOM     37  H   UNL A   1      46.076  26.068  33.365  1.00  0.00     0.167 HD
ATOM     38  C   UNL A   1      45.812  25.912  30.428  1.00  0.00     0.074 A 
ATOM     39  C   UNL A   1      45.044  24.921  31.180  1.00  0.00     0.031 C 
ATOM     40  C   UNL A   1      46.353  27.115  30.784  1.00  0.00     0.037 A 
BRANCH  27  41
ATOM     41  C   UNL A   1      43.991  25.993  35.422  1.00  0.00     0.064 A 
ATOM     42  C   UNL A   1      44.684  25.932  36.652  1.00  0.00     0.173 A 
ATOM     43  C   UNL A   1      43.697  24.739  34.842  1.00  0.00     0.173 A 
ATOM     44  F   UNL A   1      44.990  27.054  37.321  1.00  0.00    -0.203 F 
ATOM     45  C   UNL A   1      45.201  24.734  37.151  1.00  0.00     0.198 A 
ATOM     46  C   UNL A   1      44.179  23.541  35.367  1.00  0.00     0.198 A 
ATOM     47  F   UNL A   1      43.018  24.605  33.700  1.00  0.00    -0.203 F 
ATOM     48  F   UNL A   1      46.004  24.756  38.223  1.00  0.00    -0.200 F 
ATOM     49  C   UNL A   1      44.970  23.542  36.492  1.00  0.00     0.200 A 
ATOM     50  F   UNL A   1      43.941  22.395  34.712  1.00  0.00    -0.200 F 
ATOM     51  F   UNL A   1      45.540  22.407  36.916  1.00  0.00    -0.200 F 
ENDBRANCH  27  41
BRANCH  28  52
ATOM     52  C   UNL A   1      42.956  23.734  27.366  1.00  0.00     0.064 A 
ATOM     53  C   UNL A   1      43.762  23.163  26.365  1.00  0.00     0.173 A 
ATOM     54  C   UNL A   1      41.835  22.979  27.765  1.00  0.00     0.173 A 
ATOM     55  F   UNL A   1      44.876  23.788  25.957  1.00  0.00    -0.203 F 
ATOM     56  C   UNL A   1      43.477  21.904  25.819  1.00  0.00     0.198 A 
ATOM     57  C   UNL A   1      41.548  21.728  27.213  1.00  0.00     0.198 A 
ATOM     58  F   UNL A   1      41.047  23.390  28.767  1.00  0.00    -0.203 F 
ATOM     59  F   UNL A   1      44.307  21.365  24.914  1.00  0.00    -0.200 F 
ATOM     60  C   UNL A   1      42.376  21.185  26.251  1.00  0.00     0.200 A 
ATOM     61  F   UNL A   1      40.500  21.028  27.668  1.00  0.00    -0.200 F 
ATOM     62  F   UNL A   1      42.138  19.955  25.774  1.00  0.00    -0.200 F 
ENDBRANCH  28  52
BRANCH  40  63
ATOM     63  C   UNL A   1      46.965  27.951  29.699  1.00  0.00     0.064 A 
ATOM     64  C   UNL A   1      46.256  28.874  28.910  1.00  0.00     0.173 A 
ATOM     65  C   UNL A   1      48.354  27.891  29.529  1.00  0.00     0.173 A 
ATOM     66  F   UNL A   1      44.943  29.069  29.088  1.00  0.00    -0.203 F 
ATOM     67  C   UNL A   1      46.906  29.655  27.954  1.00  0.00     0.198 A 
ATOM     68  C   UNL A   1      49.006  28.700  28.604  1.00  0.00     0.198 A 
ATOM     69  F   UNL A   1      49.090  27.071  30.296  1.00  0.00    -0.203 F 
ATOM     70  F   UNL A   1      46.205  30.512  27.197  1.00  0.00    -0.200 F 
ATOM     71  C   UNL A   1      48.280  29.569  27.806  1.00  0.00     0.200 A 
ATOM     72  F   UNL A   1      50.341  28.650  28.502  1.00  0.00    -0.200 F 
ATOM     73  F   UNL A   1      48.910  30.344  26.912  1.00  0.00    -0.200 F 
ENDBRANCH  40  63
ENDBRANCH  14  15
ENDBRANCH   7   9
ENDBRANCH   6   7
ENDBRANCH   5   6
ENDBRANCH   4   5
ENDBRANCH   3   4
ENDBRANCH   2   3
ENDBRANCH   1   2
BRANCH   1  74
ATOM     74  O   UNL A   1      33.977  32.094  28.229  1.00  0.00    -0.376 OA
BRANCH  74  75
ATOM     75  C   UNL A   1      33.284  31.262  27.313  1.00  0.00     0.202 C 
BRANCH  75  76
ATOM     76  C   UNL A   1      34.029  29.998  26.881  1.00  0.00     0.261 C 
BRANCH  76  77
ATOM     77  O   UNL A   1      33.430  29.394  25.712  1.00  0.00    -0.462 OA
BRANCH  77  78
ATOM     78  C   UNL A   1      32.974  28.135  25.900  1.00  0.00     0.328 C 
ATOM     79  O   UNL A   1      32.615  27.742  27.010  1.00  0.00    -0.250 OA
BRANCH  78  80
ATOM     80  C   UNL A   1      33.230  27.164  24.707  1.00  0.00     0.195 C 
ATOM     81  C   UNL A   1      33.260  25.773  25.328  1.00  0.00     0.046 C 
ATOM     82  N   UNL A   1      32.973  26.862  23.265  1.00  0.00    -0.328 N 
ATOM     83  C   UNL A   1      33.616  24.791  24.202  1.00  0.00     0.001 C 
ATOM     84  C   UNL A   1      33.837  25.703  22.979  1.00  0.00     0.128 C 
ATOM     85  C   UNL A   1      32.444  23.814  23.980  1.00  0.00     0.071 C 
ATOM     86  C   UNL A   1      34.862  23.980  24.579  1.00  0.00     0.071 C 
ATOM     87  C   UNL A   1      32.198  22.940  25.210  1.00  0.00     0.270 C 
ATOM     88  C   UNL A   1      34.586  23.100  25.803  1.00  0.00     0.270 C 
ATOM     89  N   UNL A   1      33.415  22.244  25.602  1.00  0.00    -0.272 N 
ATOM     90  H   UNL A   1      33.532  23.018  25.005  1.00  0.00     0.356 HD
BRANCH  82  91
ATOM     91  C   UNL A   1      31.789  26.839  22.518  1.00  0.00     0.225 C 
ATOM     92  O   UNL A   1      31.726  26.249  21.429  1.00  0.00    -0.275 OA
BRANCH  91  93
ATOM     93  C   UNL A   1      30.622  27.721  22.849  1.00  0.00     0.124 C 
BRANCH  93  94
ATOM     94  C   UNL A   1      30.756  29.225  22.704  1.00  0.00     0.154 C 
BRANCH  94  95
ATOM     95  N   UNL A   1      29.539  29.991  22.584  1.00  0.00    -0.272 N 
ATOM     96  C   UNL A   1      28.998  30.832  23.513  1.00  0.00     0.108 A 
ATOM     97  N   UNL A   1      28.909  30.043  21.397  1.00  0.00    -0.182 NA
ATOM     98  C   UNL A   1      27.939  31.455  22.897  1.00  0.00     0.042 A 
ATOM     99  C   UNL A   1      27.945  30.950  21.587  1.00  0.00     0.135 A 
ENDBRANCH  94  95
ENDBRANCH  93  94
ENDBRANCH  91  93
ENDBRANCH  82  91
BRANCH  89 100
ATOM    100  C   UNL A   1      33.567  20.884  25.816  1.00  0.00     0.315 C 
ATOM    101  O   UNL A   1      33.528  20.420  26.963  1.00  0.00    -0.231 OA
BRANCH 100 102
ATOM    102  C   UNL A   1      33.736  19.871  24.735  1.00  0.00     0.119 C 
ATOM    103  C   UNL A   1      33.195  18.497  24.460  1.00  0.00     0.019 C 
ATOM    104  C   UNL A   1      32.580  19.682  23.775  1.00  0.00     0.019 C 
ENDBRANCH 100 102
ENDBRANCH  89 100
ENDBRANCH  78  80
ENDBRANCH  77  78
ENDBRANCH  76  77
ENDBRANCH  75  76
ENDBRANCH  74  75
ENDBRANCH   1  74
TORSDOF 23
ENDMDL
