MODEL 1
REMARK VINA RESULT:     -11.0      0.000      0.000
REMARK SMILES CC(C)C[C@H](NC(=O)c1cc(Cl)nnc1Cl)C(=O)OCCOCCOCCOC(=O)c1ccc(-c2c3nc(c(-c4c(F)c(F)c(F)c(F)c4F)c4ccc([nH]4)c(-c4c(F)c(F)c(F)c(F)c4F)c4nc(c(-c5c(F)c(F)c(F)c(F)c5F)c5ccc2[nH]5)C=C4)C=C3)cc1
REMARK SMILES IDX 23 1 22 2 21 3 20 4 19 5 17 6 18 7 5 8 4 9 2 10 1 11 3 12
REMARK SMILES IDX 6 13 7 14 8 16 9 17 10 18 15 19 11 20 14 21 16 22 12 23
REMARK SMILES IDX 13 24 24 25 25 26 26 27 27 28 28 29 29 30 30 31 31 32 32 33
REMARK SMILES IDX 93 34 33 35 92 36 34 37 35 38 36 39 86 40 37 41 91 42 85 43
REMARK SMILES IDX 87 44 38 45 90 46 84 47 83 48 39 50 71 51 51 52 70 53 52 54
REMARK SMILES IDX 55 55 69 56 88 57 53 58 54 59 68 61 89 62 56 63 40 64 41 65
REMARK SMILES IDX 49 66 42 67 43 68 47 69 50 70 44 71 45 72 48 73 46 74 72 75
REMARK SMILES IDX 73 76 81 77 74 78 75 79 79 80 82 81 76 82 77 83 80 84 78 85
REMARK SMILES IDX 57 86 58 87 66 88 59 89 60 90 64 91 67 92 61 93 62 94 65 95
REMARK SMILES IDX 63 96
REMARK H PARENT 6 15 87 49 55 60
REMARK Flexibility Score: inf
ROOT
ATOM      1  C   UNL A   1      40.436  20.688  26.887  1.00  0.00     0.188 C 
ENDROOT
BRANCH   1   2
ATOM      2  O   UNL A   1      39.894  21.444  25.818  1.00  0.00    -0.376 OA
BRANCH   2   3
ATOM      3  C   UNL A   1      38.499  21.711  25.754  1.00  0.00     0.202 C 
BRANCH   3   4
ATOM      4  C   UNL A   1      37.570  20.818  24.924  1.00  0.00     0.261 C 
BRANCH   4   5
ATOM      5  O   UNL A   1      36.314  21.410  24.552  1.00  0.00    -0.462 OA
BRANCH   5   6
ATOM      6  C   UNL A   1      35.192  20.736  24.927  1.00  0.00     0.328 C 
ATOM      7  O   UNL A   1      35.097  19.516  24.998  1.00  0.00    -0.250 OA
BRANCH   6   8
ATOM      8  C   UNL A   1      34.007  21.681  25.194  1.00  0.00     0.192 C 
BRANCH   8   9
ATOM      9  C   UNL A   1      33.813  22.542  23.940  1.00  0.00     0.040 C 
BRANCH   9  10
ATOM     10  C   UNL A   1      32.365  22.615  23.408  1.00  0.00    -0.015 C 
ATOM     11  C   UNL A   1      32.054  23.966  22.748  1.00  0.00     0.007 C 
ATOM     12  C   UNL A   1      32.150  21.511  22.373  1.00  0.00     0.007 C 
ENDBRANCH   9  10
ENDBRANCH   8   9
BRANCH   8  13
ATOM     13  N   UNL A   1      34.097  22.414  26.478  1.00  0.00    -0.338 N 
ATOM     14  C   UNL A   1      33.026  22.876  27.207  1.00  0.00     0.255 C 
ATOM     15  H   UNL A   1      34.996  22.583  26.839  1.00  0.00     0.164 HD
ATOM     16  O   UNL A   1      32.836  22.551  28.372  1.00  0.00    -0.269 OA
BRANCH  14  17
ATOM     17  C   UNL A   1      32.285  24.007  26.662  1.00  0.00     0.082 A 
ATOM     18  C   UNL A   1      33.026  25.139  26.321  1.00  0.00     0.060 A 
ATOM     19  C   UNL A   1      30.915  24.008  26.502  1.00  0.00     0.164 A 
ATOM     20  C   UNL A   1      32.345  26.197  25.771  1.00  0.00     0.152 A 
ATOM     21  N   UNL A   1      30.286  25.059  25.936  1.00  0.00    -0.136 NA
ATOM     22  Cl  UNL A   1      29.897  22.682  26.876  1.00  0.00    -0.059 Cl
ATOM     23  Cl  UNL A   1      33.156  27.614  25.266  1.00  0.00    -0.060 Cl
ATOM     24  N   UNL A   1      31.015  26.168  25.559  1.00  0.00    -0.137 NA
ENDBRANCH  14  17
ENDBRANCH   8  13
ENDBRANCH   6   8
ENDBRANCH   5   6
ENDBRANCH   4   5
ENDBRANCH   3   4
ENDBRANCH   2   3
ENDBRANCH   1   2
BRANCH   1  25
ATOM     25  C   UNL A   1      41.452  19.570  26.594  1.00  0.00     0.188 C 
BRANCH  25  26
ATOM     26  O   UNL A   1      42.132  19.676  25.370  1.00  0.00    -0.376 OA
BRANCH  26  27
ATOM     27  C   UNL A   1      43.497  20.077  25.388  1.00  0.00     0.202 C 
BRANCH  27  28
ATOM     28  C   UNL A   1      43.994  21.518  25.669  1.00  0.00     0.261 C 
BRANCH  28  29
ATOM     29  O   UNL A   1      43.065  22.605  25.547  1.00  0.00    -0.460 OA
BRANCH  29  30
ATOM     30  C   UNL A   1      43.558  23.819  25.208  1.00  0.00     0.338 C 
ATOM     31  O   UNL A   1      44.287  24.082  24.265  1.00  0.00    -0.246 OA
BRANCH  30  32
ATOM     32  C   UNL A   1      42.866  24.831  26.039  1.00  0.00     0.060 A 
ATOM     33  C   UNL A   1      43.267  26.175  25.959  1.00  0.00     0.016 A 
ATOM     34  C   UNL A   1      41.819  24.458  26.881  1.00  0.00     0.016 A 
ATOM     35  C   UNL A   1      42.627  27.150  26.724  1.00  0.00     0.010 A 
ATOM     36  C   UNL A   1      41.219  25.424  27.694  1.00  0.00     0.010 A 
ATOM     37  C   UNL A   1      41.642  26.767  27.642  1.00  0.00    -0.014 A 
BRANCH  37  38
ATOM     38  C   UNL A   1      41.270  27.686  28.742  1.00  0.00     0.031 A 
ATOM     39  C   UNL A   1      42.086  27.618  30.004  1.00  0.00     0.074 A 
ATOM     40  C   UNL A   1      40.252  28.558  28.639  1.00  0.00     0.049 A 
ATOM     41  N   UNL A   1      41.892  28.201  31.158  1.00  0.00    -0.248 NA
ATOM     42  C   UNL A   1      43.294  26.774  29.955  1.00  0.00     0.031 C 
ATOM     43  C   UNL A   1      39.448  28.792  27.444  1.00  0.00     0.029 A 
ATOM     44  N   UNL A   1      39.718  29.408  29.578  1.00  0.00    -0.354 N 
ATOM     45  C   UNL A   1      42.950  27.803  31.962  1.00  0.00     0.074 A 
ATOM     46  C   UNL A   1      43.773  26.907  31.182  1.00  0.00     0.031 C 
ATOM     47  C   UNL A   1      38.507  29.713  27.726  1.00  0.00     0.029 A 
ATOM     48  C   UNL A   1      38.617  30.098  29.133  1.00  0.00     0.049 A 
ATOM     49  H   UNL A   1      40.089  29.512  30.483  1.00  0.00     0.167 HD
ATOM     50  C   UNL A   1      43.220  28.160  33.238  1.00  0.00     0.037 A 
ATOM     51  C   UNL A   1      37.784  30.921  29.802  1.00  0.00     0.037 A 
ATOM     52  C   UNL A   1      42.390  29.029  34.025  1.00  0.00     0.049 A 
ATOM     53  C   UNL A   1      38.024  31.179  31.272  1.00  0.00     0.074 A 
ATOM     54  C   UNL A   1      42.548  29.409  35.346  1.00  0.00     0.029 A 
ATOM     55  N   UNL A   1      41.243  29.654  33.560  1.00  0.00    -0.354 N 
ATOM     56  N   UNL A   1      39.009  30.779  32.040  1.00  0.00    -0.248 NA
ATOM     57  C   UNL A   1      37.025  32.004  31.969  1.00  0.00     0.031 C 
ATOM     58  C   UNL A   1      41.474  30.233  35.694  1.00  0.00     0.029 A 
ATOM     59  C   UNL A   1      40.678  30.410  34.574  1.00  0.00     0.049 A 
ATOM     60  H   UNL A   1      40.885  29.575  32.647  1.00  0.00     0.167 HD
ATOM     61  C   UNL A   1      38.769  31.333  33.292  1.00  0.00     0.074 A 
ATOM     62  C   UNL A   1      37.558  32.115  33.177  1.00  0.00     0.031 C 
ATOM     63  C   UNL A   1      39.483  31.202  34.438  1.00  0.00     0.037 A 
BRANCH  50  64
ATOM     64  C   UNL A   1      44.461  27.609  33.871  1.00  0.00     0.064 A 
ATOM     65  C   UNL A   1      44.463  26.349  34.488  1.00  0.00     0.173 A 
ATOM     66  C   UNL A   1      45.676  28.305  33.788  1.00  0.00     0.173 A 
ATOM     67  F   UNL A   1      43.321  25.657  34.612  1.00  0.00    -0.203 F 
ATOM     68  C   UNL A   1      45.638  25.803  34.993  1.00  0.00     0.198 A 
ATOM     69  C   UNL A   1      46.855  27.744  34.271  1.00  0.00     0.198 A 
ATOM     70  F   UNL A   1      45.724  29.515  33.213  1.00  0.00    -0.203 F 
ATOM     71  F   UNL A   1      45.614  24.606  35.596  1.00  0.00    -0.200 F 
ATOM     72  C   UNL A   1      46.835  26.494  34.871  1.00  0.00     0.200 A 
ATOM     73  F   UNL A   1      48.012  28.407  34.142  1.00  0.00    -0.200 F 
ATOM     74  F   UNL A   1      47.972  25.954  35.333  1.00  0.00    -0.200 F 
ENDBRANCH  50  64
BRANCH  51  75
ATOM     75  C   UNL A   1      36.627  31.559  29.115  1.00  0.00     0.064 A 
ATOM     76  C   UNL A   1      36.599  32.944  28.897  1.00  0.00     0.173 A 
ATOM     77  C   UNL A   1      35.500  30.819  28.727  1.00  0.00     0.173 A 
ATOM     78  F   UNL A   1      37.637  33.702  29.283  1.00  0.00    -0.203 F 
ATOM     79  C   UNL A   1      35.481  33.567  28.346  1.00  0.00     0.198 A 
ATOM     80  C   UNL A   1      34.395  31.439  28.144  1.00  0.00     0.198 A 
ATOM     81  F   UNL A   1      35.465  29.493  28.923  1.00  0.00    -0.203 F 
ATOM     82  F   UNL A   1      35.458  34.902  28.215  1.00  0.00    -0.200 F 
ATOM     83  C   UNL A   1      34.382  32.814  27.965  1.00  0.00     0.200 A 
ATOM     84  F   UNL A   1      33.337  30.707  27.771  1.00  0.00    -0.200 F 
ATOM     85  F   UNL A   1      33.304  33.415  27.442  1.00  0.00    -0.200 F 
ENDBRANCH  51  75
BRANCH  63  86
ATOM     86  C   UNL A   1      39.005  31.955  35.649  1.00  0.00     0.064 A 
ATOM     87  C   UNL A   1      38.203  31.348  36.625  1.00  0.00     0.173 A 
ATOM     88  C   UNL A   1      39.394  33.287  35.856  1.00  0.00     0.173 A 
ATOM     89  F   UNL A   1      37.797  30.078  36.473  1.00  0.00    -0.203 F 
ATOM     90  C   UNL A   1      37.777  32.057  37.746  1.00  0.00     0.198 A 
ATOM     91  C   UNL A   1      38.998  33.982  36.996  1.00  0.00     0.198 A 
ATOM     92  F   UNL A   1      40.173  33.913  34.961  1.00  0.00    -0.203 F 
ATOM     93  F   UNL A   1      36.964  31.474  38.637  1.00  0.00    -0.200 F 
ATOM     94  C   UNL A   1      38.182  33.371  37.934  1.00  0.00     0.200 A 
ATOM     95  F   UNL A   1      39.408  35.244  37.186  1.00  0.00    -0.200 F 
ATOM     96  F   UNL A   1      37.778  34.049  39.017  1.00  0.00    -0.200 F 
ENDBRANCH  63  86
ENDBRANCH  37  38
ENDBRANCH  30  32
ENDBRANCH  29  30
ENDBRANCH  28  29
ENDBRANCH  27  28
ENDBRANCH  26  27
ENDBRANCH  25  26
ENDBRANCH   1  25
TORSDOF 21
ENDMDL
MODEL 2
REMARK VINA RESULT:     -11.0      1.289      2.238
REMARK SMILES CC(C)C[C@H](NC(=O)c1cc(Cl)nnc1Cl)C(=O)OCCOCCOCCOC(=O)c1ccc(-c2c3nc(c(-c4c(F)c(F)c(F)c(F)c4F)c4ccc([nH]4)c(-c4c(F)c(F)c(F)c(F)c4F)c4nc(c(-c5c(F)c(F)c(F)c(F)c5F)c5ccc2[nH]5)C=C4)C=C3)cc1
REMARK SMILES IDX 23 1 22 2 21 3 20 4 19 5 17 6 18 7 5 8 4 9 2 10 1 11 3 12
REMARK SMILES IDX 6 13 7 14 8 16 9 17 10 18 15 19 11 20 14 21 16 22 12 23
REMARK SMILES IDX 13 24 24 25 25 26 26 27 27 28 28 29 29 30 30 31 31 32 32 33
REMARK SMILES IDX 93 34 33 35 92 36 34 37 35 38 36 39 86 40 37 41 91 42 85 43
REMARK SMILES IDX 87 44 38 45 90 46 84 47 83 48 39 50 71 51 51 52 70 53 52 54
REMARK SMILES IDX 55 55 69 56 88 57 53 58 54 59 68 61 89 62 56 63 40 64 41 65
REMARK SMILES IDX 49 66 42 67 43 68 47 69 50 70 44 71 45 72 48 73 46 74 72 75
REMARK SMILES IDX 73 76 81 77 74 78 75 79 79 80 82 81 76 82 77 83 80 84 78 85
REMARK SMILES IDX 57 86 58 87 66 88 59 89 60 90 64 91 67 92 61 93 62 94 65 95
REMARK SMILES IDX 63 96
REMARK H PARENT 6 15 87 49 55 60
REMARK Flexibility Score: inf
ROOT
ATOM      1  C   UNL A   1      40.423  20.891  26.786  1.00  0.00     0.188 C 
ENDROOT
BRANCH   1   2
ATOM      2  O   UNL A   1      39.746  21.565  25.739  1.00  0.00    -0.376 OA
BRANCH   2   3
ATOM      3  C   UNL A   1      38.402  21.999  25.907  1.00  0.00     0.202 C 
BRANCH   3   4
ATOM      4  C   UNL A   1      37.385  21.846  24.770  1.00  0.00     0.261 C 
BRANCH   4   5
ATOM      5  O   UNL A   1      36.201  22.653  24.889  1.00  0.00    -0.462 OA
BRANCH   5   6
ATOM      6  C   UNL A   1      35.773  23.272  23.754  1.00  0.00     0.328 C 
ATOM      7  O   UNL A   1      36.249  23.097  22.638  1.00  0.00    -0.250 OA
BRANCH   6   8
ATOM      8  C   UNL A   1      34.649  24.285  24.031  1.00  0.00     0.192 C 
BRANCH   8   9
ATOM      9  C   UNL A   1      33.963  23.865  25.337  1.00  0.00     0.040 C 
BRANCH   9  10
ATOM     10  C   UNL A   1      32.481  23.451  25.199  1.00  0.00    -0.015 C 
ATOM     11  C   UNL A   1      32.270  21.951  25.447  1.00  0.00     0.007 C 
ATOM     12  C   UNL A   1      31.641  24.231  26.210  1.00  0.00     0.007 C 
ENDBRANCH   9  10
ENDBRANCH   8   9
BRANCH   8  13
ATOM     13  N   UNL A   1      33.755  24.525  22.874  1.00  0.00    -0.338 N 
ATOM     14  C   UNL A   1      33.337  25.760  22.434  1.00  0.00     0.255 C 
ATOM     15  H   UNL A   1      33.433  23.737  22.381  1.00  0.00     0.164 HD
ATOM     16  O   UNL A   1      33.534  26.149  21.291  1.00  0.00    -0.269 OA
BRANCH  14  17
ATOM     17  C   UNL A   1      32.383  26.479  23.269  1.00  0.00     0.082 A 
ATOM     18  C   UNL A   1      31.035  26.159  23.102  1.00  0.00     0.060 A 
ATOM     19  C   UNL A   1      32.750  27.456  24.171  1.00  0.00     0.164 A 
ATOM     20  C   UNL A   1      30.129  26.802  23.908  1.00  0.00     0.152 A 
ATOM     21  N   UNL A   1      31.832  28.048  24.962  1.00  0.00    -0.136 NA
ATOM     22  Cl  UNL A   1      34.368  27.934  24.472  1.00  0.00    -0.059 Cl
ATOM     23  Cl  UNL A   1      28.458  26.451  23.830  1.00  0.00    -0.060 Cl
ATOM     24  N   UNL A   1      30.501  27.709  24.832  1.00  0.00    -0.137 NA
ENDBRANCH  14  17
ENDBRANCH   8  13
ENDBRANCH   6   8
ENDBRANCH   5   6
ENDBRANCH   4   5
ENDBRANCH   3   4
ENDBRANCH   2   3
ENDBRANCH   1   2
BRANCH   1  25
ATOM     25  C   UNL A   1      41.187  19.589  26.486  1.00  0.00     0.188 C 
BRANCH  25  26
ATOM     26  O   UNL A   1      42.032  19.628  25.365  1.00  0.00    -0.376 OA
BRANCH  26  27
ATOM     27  C   UNL A   1      43.414  19.901  25.568  1.00  0.00     0.202 C 
BRANCH  27  28
ATOM     28  C   UNL A   1      44.041  21.317  25.600  1.00  0.00     0.261 C 
BRANCH  28  29
ATOM     29  O   UNL A   1      43.198  22.440  25.898  1.00  0.00    -0.460 OA
BRANCH  29  30
ATOM     30  C   UNL A   1      43.552  23.644  25.393  1.00  0.00     0.338 C 
ATOM     31  O   UNL A   1      44.153  23.861  24.352  1.00  0.00    -0.246 OA
BRANCH  30  32
ATOM     32  C   UNL A   1      42.874  24.685  26.199  1.00  0.00     0.060 A 
ATOM     33  C   UNL A   1      43.308  26.018  26.105  1.00  0.00     0.016 A 
ATOM     34  C   UNL A   1      41.808  24.350  27.034  1.00  0.00     0.016 A 
ATOM     35  C   UNL A   1      42.681  27.019  26.847  1.00  0.00     0.010 A 
ATOM     36  C   UNL A   1      41.221  25.342  27.824  1.00  0.00     0.010 A 
ATOM     37  C   UNL A   1      41.676  26.673  27.757  1.00  0.00    -0.014 A 
BRANCH  37  38
ATOM     38  C   UNL A   1      41.312  27.618  28.839  1.00  0.00     0.031 A 
ATOM     39  C   UNL A   1      42.133  27.574  30.099  1.00  0.00     0.074 A 
ATOM     40  C   UNL A   1      40.297  28.492  28.721  1.00  0.00     0.049 A 
ATOM     41  N   UNL A   1      41.946  28.183  31.241  1.00  0.00    -0.248 NA
ATOM     42  C   UNL A   1      43.338  26.724  30.064  1.00  0.00     0.031 C 
ATOM     43  C   UNL A   1      39.489  28.703  27.524  1.00  0.00     0.029 A 
ATOM     44  N   UNL A   1      39.770  29.363  29.643  1.00  0.00    -0.354 N 
ATOM     45  C   UNL A   1      43.006  27.798  32.049  1.00  0.00     0.074 A 
ATOM     46  C   UNL A   1      43.822  26.882  31.285  1.00  0.00     0.031 C 
ATOM     47  C   UNL A   1      38.553  29.634  27.790  1.00  0.00     0.029 A 
ATOM     48  C   UNL A   1      38.671  30.049  29.188  1.00  0.00     0.049 A 
ATOM     49  H   UNL A   1      40.146  29.486  30.545  1.00  0.00     0.167 HD
ATOM     50  C   UNL A   1      43.282  28.182  33.315  1.00  0.00     0.037 A 
ATOM     51  C   UNL A   1      37.843  30.889  29.842  1.00  0.00     0.037 A 
ATOM     52  C   UNL A   1      42.459  29.071  34.087  1.00  0.00     0.049 A 
ATOM     53  C   UNL A   1      38.090  31.178  31.305  1.00  0.00     0.074 A 
ATOM     54  C   UNL A   1      42.624  29.479  35.398  1.00  0.00     0.029 A 
ATOM     55  N   UNL A   1      41.313  29.691  33.613  1.00  0.00    -0.354 N 
ATOM     56  N   UNL A   1      39.077  30.791  32.078  1.00  0.00    -0.248 NA
ATOM     57  C   UNL A   1      37.097  32.022  31.988  1.00  0.00     0.031 C 
ATOM     58  C   UNL A   1      41.555  30.315  35.733  1.00  0.00     0.029 A 
ATOM     59  C   UNL A   1      40.755  30.471  34.613  1.00  0.00     0.049 A 
ATOM     60  H   UNL A   1      40.950  29.593  32.704  1.00  0.00     0.167 HD
ATOM     61  C   UNL A   1      38.844  31.373  33.318  1.00  0.00     0.074 A 
ATOM     62  C   UNL A   1      37.636  32.158  33.191  1.00  0.00     0.031 C 
ATOM     63  C   UNL A   1      39.563  31.264  34.464  1.00  0.00     0.037 A 
BRANCH  50  64
ATOM     64  C   UNL A   1      44.524  27.640  33.955  1.00  0.00     0.064 A 
ATOM     65  C   UNL A   1      45.705  28.395  34.005  1.00  0.00     0.173 A 
ATOM     66  C   UNL A   1      44.511  26.392  34.597  1.00  0.00     0.173 A 
ATOM     67  F   UNL A   1      45.772  29.583  33.385  1.00  0.00    -0.203 F 
ATOM     68  C   UNL A   1      46.827  27.923  34.679  1.00  0.00     0.198 A 
ATOM     69  C   UNL A   1      45.627  25.935  35.292  1.00  0.00     0.198 A 
ATOM     70  F   UNL A   1      43.408  25.630  34.572  1.00  0.00    -0.203 F 
ATOM     71  F   UNL A   1      47.951  28.652  34.697  1.00  0.00    -0.200 F 
ATOM     72  C   UNL A   1      46.782  26.701  35.334  1.00  0.00     0.200 A 
ATOM     73  F   UNL A   1      45.578  24.761  35.935  1.00  0.00    -0.200 F 
ATOM     74  F   UNL A   1      47.854  26.261  36.008  1.00  0.00    -0.200 F 
ENDBRANCH  50  64
BRANCH  51  75
ATOM     75  C   UNL A   1      36.686  31.516  29.146  1.00  0.00     0.064 A 
ATOM     76  C   UNL A   1      36.666  32.896  28.892  1.00  0.00     0.173 A 
ATOM     77  C   UNL A   1      35.552  30.774  28.785  1.00  0.00     0.173 A 
ATOM     78  F   UNL A   1      37.711  33.656  29.250  1.00  0.00    -0.203 F 
ATOM     79  C   UNL A   1      35.548  33.512  28.331  1.00  0.00     0.198 A 
ATOM     80  C   UNL A   1      34.447  31.386  28.193  1.00  0.00     0.198 A 
ATOM     81  F   UNL A   1      35.508  29.454  29.016  1.00  0.00    -0.203 F 
ATOM     82  F   UNL A   1      35.533  34.842  28.165  1.00  0.00    -0.200 F 
ATOM     83  C   UNL A   1      34.442  32.757  27.978  1.00  0.00     0.200 A 
ATOM     84  F   UNL A   1      33.381  30.652  27.847  1.00  0.00    -0.200 F 
ATOM     85  F   UNL A   1      33.365  33.350  27.446  1.00  0.00    -0.200 F 
ENDBRANCH  51  75
BRANCH  63  86
ATOM     86  C   UNL A   1      39.092  32.045  35.660  1.00  0.00     0.064 A 
ATOM     87  C   UNL A   1      38.274  31.469  36.642  1.00  0.00     0.173 A 
ATOM     88  C   UNL A   1      39.504  33.374  35.847  1.00  0.00     0.173 A 
ATOM     89  F   UNL A   1      37.846  30.205  36.507  1.00  0.00    -0.203 F 
ATOM     90  C   UNL A   1      37.856  32.204  37.749  1.00  0.00     0.198 A 
ATOM     91  C   UNL A   1      39.116  34.094  36.974  1.00  0.00     0.198 A 
ATOM     92  F   UNL A   1      40.300  33.970  34.947  1.00  0.00    -0.203 F 
ATOM     93  F   UNL A   1      37.027  31.650  38.644  1.00  0.00    -0.200 F 
ATOM     94  C   UNL A   1      38.284  33.513  37.917  1.00  0.00     0.200 A 
ATOM     95  F   UNL A   1      39.548  35.351  37.146  1.00  0.00    -0.200 F 
ATOM     96  F   UNL A   1      37.887  34.215  38.987  1.00  0.00    -0.200 F 
ENDBRANCH  63  86
ENDBRANCH  37  38
ENDBRANCH  30  32
ENDBRANCH  29  30
ENDBRANCH  28  29
ENDBRANCH  27  28
ENDBRANCH  26  27
ENDBRANCH  25  26
ENDBRANCH   1  25
TORSDOF 21
ENDMDL
MODEL 3
REMARK VINA RESULT:     -10.4      3.408      8.762
REMARK SMILES CC(C)C[C@H](NC(=O)c1cc(Cl)nnc1Cl)C(=O)OCCOCCOCCOC(=O)c1ccc(-c2c3nc(c(-c4c(F)c(F)c(F)c(F)c4F)c4ccc([nH]4)c(-c4c(F)c(F)c(F)c(F)c4F)c4nc(c(-c5c(F)c(F)c(F)c(F)c5F)c5ccc2[nH]5)C=C4)C=C3)cc1
REMARK SMILES IDX 23 1 22 2 21 3 20 4 19 5 17 6 18 7 5 8 4 9 2 10 1 11 3 12
REMARK SMILES IDX 6 13 7 14 8 16 9 17 10 18 15 19 11 20 14 21 16 22 12 23
REMARK SMILES IDX 13 24 24 25 25 26 26 27 27 28 28 29 29 30 30 31 31 32 32 33
REMARK SMILES IDX 93 34 33 35 92 36 34 37 35 38 36 39 86 40 37 41 91 42 85 43
REMARK SMILES IDX 87 44 38 45 90 46 84 47 83 48 39 50 71 51 51 52 70 53 52 54
REMARK SMILES IDX 55 55 69 56 88 57 53 58 54 59 68 61 89 62 56 63 40 64 41 65
REMARK SMILES IDX 49 66 42 67 43 68 47 69 50 70 44 71 45 72 48 73 46 74 72 75
REMARK SMILES IDX 73 76 81 77 74 78 75 79 79 80 82 81 76 82 77 83 80 84 78 85
REMARK SMILES IDX 57 86 58 87 66 88 59 89 60 90 64 91 67 92 61 93 62 94 65 95
REMARK SMILES IDX 63 96
REMARK H PARENT 6 15 87 49 55 60
REMARK Flexibility Score: inf
ROOT
ATOM      1  C   UNL A   1      33.360  29.194  25.748  1.00  0.00     0.188 C 
ENDROOT
BRANCH   1   2
ATOM      2  O   UNL A   1      32.653  28.284  24.925  1.00  0.00    -0.376 OA
BRANCH   2   3
ATOM      3  C   UNL A   1      31.484  27.631  25.404  1.00  0.00     0.202 C 
BRANCH   3   4
ATOM      4  C   UNL A   1      30.369  27.217  24.437  1.00  0.00     0.261 C 
BRANCH   4   5
ATOM      5  O   UNL A   1      30.082  25.809  24.393  1.00  0.00    -0.462 OA
BRANCH   5   6
ATOM      6  C   UNL A   1      30.414  25.088  25.500  1.00  0.00     0.328 C 
ATOM      7  O   UNL A   1      29.821  25.134  26.571  1.00  0.00    -0.250 OA
BRANCH   6   8
ATOM      8  C   UNL A   1      31.679  24.239  25.283  1.00  0.00     0.192 C 
BRANCH   8   9
ATOM      9  C   UNL A   1      31.813  23.989  23.776  1.00  0.00     0.040 C 
BRANCH   9  10
ATOM     10  C   UNL A   1      33.190  24.342  23.170  1.00  0.00    -0.015 C 
ATOM     11  C   UNL A   1      33.742  23.216  22.285  1.00  0.00     0.007 C 
ATOM     12  C   UNL A   1      33.059  25.605  22.318  1.00  0.00     0.007 C 
ENDBRANCH   9  10
ENDBRANCH   8   9
BRANCH   8  13
ATOM     13  N   UNL A   1      31.757  23.040  26.150  1.00  0.00    -0.338 N 
ATOM     14  C   UNL A   1      32.804  22.730  26.987  1.00  0.00     0.255 C 
ATOM     15  H   UNL A   1      30.998  22.415  26.125  1.00  0.00     0.164 HD
ATOM     16  O   UNL A   1      32.653  22.555  28.189  1.00  0.00    -0.269 OA
BRANCH  14  17
ATOM     17  C   UNL A   1      34.055  22.311  26.366  1.00  0.00     0.082 A 
ATOM     18  C   UNL A   1      35.110  23.222  26.401  1.00  0.00     0.060 A 
ATOM     19  C   UNL A   1      34.218  21.093  25.739  1.00  0.00     0.164 A 
ATOM     20  C   UNL A   1      36.305  22.825  25.854  1.00  0.00     0.152 A 
ATOM     21  N   UNL A   1      35.416  20.731  25.234  1.00  0.00    -0.136 NA
ATOM     22  Cl  UNL A   1      33.004  19.889  25.635  1.00  0.00    -0.059 Cl
ATOM     23  Cl  UNL A   1      37.682  23.837  25.887  1.00  0.00    -0.060 Cl
ATOM     24  N   UNL A   1      36.477  21.609  25.299  1.00  0.00    -0.137 NA
ENDBRANCH  14  17
ENDBRANCH   8  13
ENDBRANCH   6   8
ENDBRANCH   5   6
ENDBRANCH   4   5
ENDBRANCH   3   4
ENDBRANCH   2   3
ENDBRANCH   1   2
BRANCH   1  25
ATOM     25  C   UNL A   1      32.620  29.939  26.873  1.00  0.00     0.188 C 
BRANCH  25  26
ATOM     26  O   UNL A   1      32.983  31.283  27.051  1.00  0.00    -0.376 OA
BRANCH  26  27
ATOM     27  C   UNL A   1      31.951  32.262  27.100  1.00  0.00     0.202 C 
BRANCH  27  28
ATOM     28  C   UNL A   1      32.184  33.787  27.245  1.00  0.00     0.261 C 
BRANCH  28  29
ATOM     29  O   UNL A   1      32.531  34.315  28.533  1.00  0.00    -0.460 OA
BRANCH  29  30
ATOM     30  C   UNL A   1      33.714  34.962  28.650  1.00  0.00     0.338 C 
ATOM     31  O   UNL A   1      33.893  36.168  28.706  1.00  0.00    -0.246 OA
BRANCH  30  32
ATOM     32  C   UNL A   1      34.753  33.948  28.943  1.00  0.00     0.060 A 
ATOM     33  C   UNL A   1      34.393  32.772  29.622  1.00  0.00     0.016 A 
ATOM     34  C   UNL A   1      36.072  34.150  28.537  1.00  0.00     0.016 A 
ATOM     35  C   UNL A   1      35.350  31.797  29.903  1.00  0.00     0.010 A 
ATOM     36  C   UNL A   1      37.043  33.202  28.873  1.00  0.00     0.010 A 
ATOM     37  C   UNL A   1      36.692  32.039  29.584  1.00  0.00    -0.014 A 
BRANCH  37  38
ATOM     38  C   UNL A   1      37.754  31.244  30.243  1.00  0.00     0.031 A 
ATOM     39  C   UNL A   1      38.045  31.546  31.689  1.00  0.00     0.074 A 
ATOM     40  C   UNL A   1      38.442  30.286  29.600  1.00  0.00     0.049 A 
ATOM     41  N   UNL A   1      39.006  31.106  32.458  1.00  0.00    -0.248 NA
ATOM     42  C   UNL A   1      37.116  32.473  32.362  1.00  0.00     0.031 C 
ATOM     43  C   UNL A   1      38.195  29.831  28.235  1.00  0.00     0.029 A 
ATOM     44  N   UNL A   1      39.506  29.526  30.022  1.00  0.00    -0.354 N 
ATOM     45  C   UNL A   1      38.793  31.693  33.697  1.00  0.00     0.074 A 
ATOM     46  C   UNL A   1      37.631  32.543  33.579  1.00  0.00     0.031 C 
ATOM     47  C   UNL A   1      39.097  28.880  27.923  1.00  0.00     0.029 A 
ATOM     48  C   UNL A   1      40.009  28.694  29.052  1.00  0.00     0.049 A 
ATOM     49  H   UNL A   1      39.873  29.573  30.934  1.00  0.00     0.167 HD
ATOM     50  C   UNL A   1      39.499  31.530  34.839  1.00  0.00     0.037 A 
ATOM     51  C   UNL A   1      41.099  27.901  29.073  1.00  0.00     0.037 A 
ATOM     52  C   UNL A   1      40.671  30.707  34.953  1.00  0.00     0.049 A 
ATOM     53  C   UNL A   1      41.959  27.859  30.316  1.00  0.00     0.074 A 
ATOM     54  C   UNL A   1      41.488  30.519  36.052  1.00  0.00     0.029 A 
ATOM     55  N   UNL A   1      41.190  29.934  33.927  1.00  0.00    -0.354 N 
ATOM     56  N   UNL A   1      41.773  28.438  31.479  1.00  0.00    -0.248 NA
ATOM     57  C   UNL A   1      43.187  27.054  30.243  1.00  0.00     0.031 C 
ATOM     58  C   UNL A   1      42.528  29.663  35.681  1.00  0.00     0.029 A 
ATOM     59  C   UNL A   1      42.326  29.274  34.366  1.00  0.00     0.049 A 
ATOM     60  H   UNL A   1      40.810  29.862  33.022  1.00  0.00     0.167 HD
ATOM     61  C   UNL A   1      42.834  28.036  32.281  1.00  0.00     0.074 A 
ATOM     62  C   UNL A   1      43.649  27.147  31.481  1.00  0.00     0.031 C 
ATOM     63  C   UNL A   1      43.115  28.375  33.565  1.00  0.00     0.037 A 
BRANCH  50  64
ATOM     64  C   UNL A   1      39.031  32.261  36.060  1.00  0.00     0.064 A 
ATOM     65  C   UNL A   1      38.210  31.636  37.010  1.00  0.00     0.173 A 
ATOM     66  C   UNL A   1      39.471  33.566  36.325  1.00  0.00     0.173 A 
ATOM     67  F   UNL A   1      37.744  30.398  36.789  1.00  0.00    -0.203 F 
ATOM     68  C   UNL A   1      37.853  32.289  38.186  1.00  0.00     0.198 A 
ATOM     69  C   UNL A   1      39.134  34.206  37.514  1.00  0.00     0.198 A 
ATOM     70  F   UNL A   1      40.252  34.208  35.444  1.00  0.00    -0.203 F 
ATOM     71  F   UNL A   1      37.052  31.680  39.071  1.00  0.00    -0.200 F 
ATOM     72  C   UNL A   1      38.327  33.567  38.443  1.00  0.00     0.200 A 
ATOM     73  F   UNL A   1      39.602  35.436  37.767  1.00  0.00    -0.200 F 
ATOM     74  F   UNL A   1      38.006  34.184  39.589  1.00  0.00    -0.200 F 
ENDBRANCH  50  64
BRANCH  51  75
ATOM     75  C   UNL A   1      41.472  27.085  27.885  1.00  0.00     0.064 A 
ATOM     76  C   UNL A   1      41.008  25.768  27.747  1.00  0.00     0.173 A 
ATOM     77  C   UNL A   1      42.350  27.569  26.904  1.00  0.00     0.173 A 
ATOM     78  F   UNL A   1      40.195  25.245  28.676  1.00  0.00    -0.203 F 
ATOM     79  C   UNL A   1      41.429  24.960  26.692  1.00  0.00     0.198 A 
ATOM     80  C   UNL A   1      42.744  26.771  25.830  1.00  0.00     0.198 A 
ATOM     81  F   UNL A   1      42.837  28.815  26.991  1.00  0.00    -0.203 F 
ATOM     82  F   UNL A   1      41.022  23.684  26.626  1.00  0.00    -0.200 F 
ATOM     83  C   UNL A   1      42.292  25.463  25.732  1.00  0.00     0.200 A 
ATOM     84  F   UNL A   1      43.574  27.262  24.900  1.00  0.00    -0.200 F 
ATOM     85  F   UNL A   1      42.702  24.683  24.722  1.00  0.00    -0.200 F 
ENDBRANCH  51  75
BRANCH  63  86
ATOM     86  C   UNL A   1      44.325  27.751  34.203  1.00  0.00     0.064 A 
ATOM     87  C   UNL A   1      45.573  28.390  34.197  1.00  0.00     0.173 A 
ATOM     88  C   UNL A   1      44.221  26.520  34.869  1.00  0.00     0.173 A 
ATOM     89  F   UNL A   1      45.728  29.564  33.568  1.00  0.00    -0.203 F 
ATOM     90  C   UNL A   1      46.682  27.802  34.802  1.00  0.00     0.198 A 
ATOM     91  C   UNL A   1      45.322  25.953  35.506  1.00  0.00     0.198 A 
ATOM     92  F   UNL A   1      43.048  25.873  34.919  1.00  0.00    -0.203 F 
ATOM     93  F   UNL A   1      47.877  28.403  34.734  1.00  0.00    -0.200 F 
ATOM     94  C   UNL A   1      46.553  26.589  35.463  1.00  0.00     0.200 A 
ATOM     95  F   UNL A   1      45.191  24.792  36.162  1.00  0.00    -0.200 F 
ATOM     96  F   UNL A   1      47.619  26.029  36.052  1.00  0.00    -0.200 F 
ENDBRANCH  63  86
ENDBRANCH  37  38
ENDBRANCH  30  32
ENDBRANCH  29  30
ENDBRANCH  28  29
ENDBRANCH  27  28
ENDBRANCH  26  27
ENDBRANCH  25  26
ENDBRANCH   1  25
TORSDOF 21
ENDMDL
