MODEL 1
REMARK VINA RESULT:      -8.5      0.000      0.000
REMARK SMILES COc1cnc(F)c(C(=O)OCCOCCOCCOC(=O)c2ccc(-c3c4nc(c(-c5c(F)c(F)c(F)c(F)c5F)c5ccc([nH]5)c(-c5c(F)c(F)c(F)c(F)c5F)c5nc(c(-c6c(F)c(F)c(F)c(F)c6F)c6ccc3[nH]6)C=C5)C=C4)cc2)c1
REMARK SMILES IDX 16 1 15 2 14 3 13 4 12 5 11 6 9 7 10 8 8 9 3 10 4 11 86 12
REMARK SMILES IDX 5 13 6 14 7 15 2 16 1 17 17 18 18 19 19 20 20 21 21 22 22 23
REMARK SMILES IDX 23 24 24 25 85 26 25 27 84 28 26 29 27 30 28 31 78 32 29 33
REMARK SMILES IDX 83 34 77 35 79 36 30 37 82 38 76 39 75 40 31 42 63 43 43 44
REMARK SMILES IDX 62 45 44 46 47 47 61 48 80 49 45 50 46 51 60 53 81 54 48 55
REMARK SMILES IDX 32 56 33 57 41 58 34 59 35 60 39 61 42 62 36 63 37 64 40 65
REMARK SMILES IDX 38 66 64 67 65 68 73 69 66 70 67 71 71 72 74 73 68 74 69 75
REMARK SMILES IDX 72 76 70 77 49 78 50 79 58 80 51 81 52 82 56 83 59 84 53 85
REMARK SMILES IDX 54 86 57 87 55 88
REMARK H PARENT 79 41 47 52
REMARK Flexibility Score: inf
ROOT
ATOM      1  C   UNL A   1      45.486  19.449  23.900  1.00  0.00     0.188 C 
ENDROOT
BRANCH   1   2
ATOM      2  C   UNL A   1      45.277  20.773  24.667  1.00  0.00     0.188 C 
BRANCH   2   3
ATOM      3  O   UNL A   1      46.403  21.480  25.177  1.00  0.00    -0.376 OA
BRANCH   3   4
ATOM      4  C   UNL A   1      46.260  22.839  25.579  1.00  0.00     0.202 C 
BRANCH   4   5
ATOM      5  C   UNL A   1      45.878  23.875  24.514  1.00  0.00     0.261 C 
BRANCH   5   6
ATOM      6  O   UNL A   1      45.212  25.031  25.050  1.00  0.00    -0.460 OA
BRANCH   6   7
ATOM      7  C   UNL A   1      45.903  26.193  24.997  1.00  0.00     0.343 C 
ATOM      8  O   UNL A   1      46.939  26.405  24.384  1.00  0.00    -0.246 OA
BRANCH   7   9
ATOM      9  C   UNL A   1      45.126  27.282  25.598  1.00  0.00     0.118 A 
ATOM     10  C   UNL A   1      45.074  29.339  26.841  1.00  0.00     0.138 A 
ATOM     11  C   UNL A   1      43.692  29.313  26.715  1.00  0.00     0.160 A 
ATOM     12  C   UNL A   1      45.804  28.292  26.291  1.00  0.00     0.068 A 
ATOM     13  N   UNL A   1      43.012  28.354  26.040  1.00  0.00    -0.224 NA
ATOM     14  C   UNL A   1      43.746  27.353  25.497  1.00  0.00     0.227 A 
ATOM     15  F   UNL A   1      43.067  26.393  24.852  1.00  0.00    -0.184 F 
BRANCH  10  16
ATOM     16  O   UNL A   1      45.652  30.326  27.583  1.00  0.00    -0.495 OA
ATOM     17  C   UNL A   1      47.010  30.563  27.213  1.00  0.00     0.278 C 
ENDBRANCH  10  16
ENDBRANCH   7   9
ENDBRANCH   6   7
ENDBRANCH   5   6
ENDBRANCH   4   5
ENDBRANCH   3   4
ENDBRANCH   2   3
ENDBRANCH   1   2
BRANCH   1  18
ATOM     18  O   UNL A   1      44.819  18.356  24.483  1.00  0.00    -0.376 OA
BRANCH  18  19
ATOM     19  C   UNL A   1      44.310  18.468  25.798  1.00  0.00     0.202 C 
BRANCH  19  20
ATOM     20  C   UNL A   1      42.801  18.482  26.102  1.00  0.00     0.261 C 
BRANCH  20  21
ATOM     21  O   UNL A   1      41.986  19.415  25.382  1.00  0.00    -0.460 OA
BRANCH  21  22
ATOM     22  C   UNL A   1      40.988  20.016  26.066  1.00  0.00     0.338 C 
ATOM     23  O   UNL A   1      39.885  19.567  26.316  1.00  0.00    -0.246 OA
BRANCH  22  24
ATOM     24  C   UNL A   1      41.518  21.277  26.621  1.00  0.00     0.060 A 
ATOM     25  C   UNL A   1      41.420  21.503  28.000  1.00  0.00     0.016 A 
ATOM     26  C   UNL A   1      42.096  22.235  25.784  1.00  0.00     0.016 A 
ATOM     27  C   UNL A   1      41.881  22.704  28.543  1.00  0.00     0.010 A 
ATOM     28  C   UNL A   1      42.541  23.445  26.327  1.00  0.00     0.010 A 
ATOM     29  C   UNL A   1      42.413  23.694  27.704  1.00  0.00    -0.014 A 
BRANCH  29  30
ATOM     30  C   UNL A   1      42.678  25.052  28.239  1.00  0.00     0.031 A 
ATOM     31  C   UNL A   1      44.082  25.402  28.647  1.00  0.00     0.074 A 
ATOM     32  C   UNL A   1      41.695  25.960  28.355  1.00  0.00     0.049 A 
ATOM     33  N   UNL A   1      44.543  26.499  29.191  1.00  0.00    -0.248 NA
ATOM     34  C   UNL A   1      45.105  24.372  28.406  1.00  0.00     0.031 C 
ATOM     35  C   UNL A   1      40.303  25.758  27.959  1.00  0.00     0.029 A 
ATOM     36  N   UNL A   1      41.720  27.240  28.857  1.00  0.00    -0.354 N 
ATOM     37  C   UNL A   1      45.905  26.292  29.358  1.00  0.00     0.074 A 
ATOM     38  C   UNL A   1      46.193  24.955  28.883  1.00  0.00     0.031 C 
ATOM     39  C   UNL A   1      39.602  26.868  28.248  1.00  0.00     0.029 A 
ATOM     40  C   UNL A   1      40.489  27.846  28.879  1.00  0.00     0.049 A 
ATOM     41  H   UNL A   1      42.544  27.679  29.170  1.00  0.00     0.167 HD
ATOM     42  C   UNL A   1      46.833  27.142  29.857  1.00  0.00     0.037 A 
ATOM     43  C   UNL A   1      40.119  29.042  29.379  1.00  0.00     0.037 A 
ATOM     44  C   UNL A   1      46.545  28.464  30.342  1.00  0.00     0.049 A 
ATOM     45  C   UNL A   1      41.157  29.934  30.013  1.00  0.00     0.074 A 
ATOM     46  C   UNL A   1      47.420  29.405  30.858  1.00  0.00     0.029 A 
ATOM     47  N   UNL A   1      45.280  29.030  30.382  1.00  0.00    -0.354 N 
ATOM     48  N   UNL A   1      42.448  29.742  30.145  1.00  0.00    -0.248 NA
ATOM     49  C   UNL A   1      40.684  31.211  30.572  1.00  0.00     0.031 C 
ATOM     50  C   UNL A   1      46.677  30.521  31.257  1.00  0.00     0.029 A 
ATOM     51  C   UNL A   1      45.346  30.297  30.938  1.00  0.00     0.049 A 
ATOM     52  H   UNL A   1      44.456  28.597  30.062  1.00  0.00     0.167 HD
ATOM     53  C   UNL A   1      42.943  30.882  30.769  1.00  0.00     0.074 A 
ATOM     54  C   UNL A   1      41.816  31.765  30.981  1.00  0.00     0.031 C 
ATOM     55  C   UNL A   1      44.217  31.171  31.133  1.00  0.00     0.037 A 
BRANCH  42  56
ATOM     56  C   UNL A   1      48.249  26.650  29.929  1.00  0.00     0.064 A 
ATOM     57  C   UNL A   1      49.186  26.956  28.929  1.00  0.00     0.173 A 
ATOM     58  C   UNL A   1      48.682  25.888  31.023  1.00  0.00     0.173 A 
ATOM     59  F   UNL A   1      48.816  27.668  27.853  1.00  0.00    -0.203 F 
ATOM     60  C   UNL A   1      50.497  26.495  29.011  1.00  0.00     0.198 A 
ATOM     61  C   UNL A   1      50.001  25.452  31.116  1.00  0.00     0.198 A 
ATOM     62  F   UNL A   1      47.827  25.569  32.006  1.00  0.00    -0.203 F 
ATOM     63  F   UNL A   1      51.362  26.760  28.022  1.00  0.00    -0.200 F 
ATOM     64  C   UNL A   1      50.905  25.749  30.107  1.00  0.00     0.200 A 
ATOM     65  F   UNL A   1      50.397  24.740  32.181  1.00  0.00    -0.200 F 
ATOM     66  F   UNL A   1      52.169  25.311  30.188  1.00  0.00    -0.200 F 
ENDBRANCH  42  56
BRANCH  43  67
ATOM     67  C   UNL A   1      38.696  29.468  29.321  1.00  0.00     0.064 A 
ATOM     68  C   UNL A   1      38.099  29.829  28.105  1.00  0.00     0.173 A 
ATOM     69  C   UNL A   1      37.914  29.554  30.482  1.00  0.00     0.173 A 
ATOM     70  F   UNL A   1      38.815  29.791  26.972  1.00  0.00    -0.203 F 
ATOM     71  C   UNL A   1      36.781  30.278  28.056  1.00  0.00     0.198 A 
ATOM     72  C   UNL A   1      36.588  29.977  30.428  1.00  0.00     0.198 A 
ATOM     73  F   UNL A   1      38.440  29.227  31.672  1.00  0.00    -0.203 F 
ATOM     74  F   UNL A   1      36.251  30.665  26.887  1.00  0.00    -0.200 F 
ATOM     75  C   UNL A   1      36.025  30.347  29.216  1.00  0.00     0.200 A 
ATOM     76  F   UNL A   1      35.858  30.034  31.550  1.00  0.00    -0.200 F 
ATOM     77  F   UNL A   1      34.757  30.780  29.167  1.00  0.00    -0.200 F 
ENDBRANCH  43  67
BRANCH  55  78
ATOM     78  C   UNL A   1      44.474  32.512  31.758  1.00  0.00     0.064 A 
ATOM     79  C   UNL A   1      44.471  32.691  33.148  1.00  0.00     0.173 A 
ATOM     80  C   UNL A   1      44.776  33.622  30.953  1.00  0.00     0.173 A 
ATOM     81  F   UNL A   1      44.174  31.666  33.961  1.00  0.00    -0.203 F 
ATOM     82  C   UNL A   1      44.739  33.937  33.710  1.00  0.00     0.198 A 
ATOM     83  C   UNL A   1      45.074  34.859  31.520  1.00  0.00     0.198 A 
ATOM     84  F   UNL A   1      44.800  33.503  29.617  1.00  0.00    -0.203 F 
ATOM     85  F   UNL A   1      44.689  34.096  35.040  1.00  0.00    -0.200 F 
ATOM     86  C   UNL A   1      45.048  35.017  32.896  1.00  0.00     0.200 A 
ATOM     87  F   UNL A   1      45.388  35.896  30.732  1.00  0.00    -0.200 F 
ATOM     88  F   UNL A   1      45.317  36.213  33.440  1.00  0.00    -0.200 F 
ENDBRANCH  55  78
ENDBRANCH  29  30
ENDBRANCH  22  24
ENDBRANCH  21  22
ENDBRANCH  20  21
ENDBRANCH  19  20
ENDBRANCH  18  19
ENDBRANCH   1  18
TORSDOF 18
ENDMDL
MODEL 2
REMARK VINA RESULT:      -8.2      0.870      7.643
REMARK SMILES COc1cnc(F)c(C(=O)OCCOCCOCCOC(=O)c2ccc(-c3c4nc(c(-c5c(F)c(F)c(F)c(F)c5F)c5ccc([nH]5)c(-c5c(F)c(F)c(F)c(F)c5F)c5nc(c(-c6c(F)c(F)c(F)c(F)c6F)c6ccc3[nH]6)C=C5)C=C4)cc2)c1
REMARK SMILES IDX 16 1 15 2 14 3 13 4 12 5 11 6 9 7 10 8 8 9 3 10 4 11 86 12
REMARK SMILES IDX 5 13 6 14 7 15 2 16 1 17 17 18 18 19 19 20 20 21 21 22 22 23
REMARK SMILES IDX 23 24 24 25 85 26 25 27 84 28 26 29 27 30 28 31 78 32 29 33
REMARK SMILES IDX 83 34 77 35 79 36 30 37 82 38 76 39 75 40 31 42 63 43 43 44
REMARK SMILES IDX 62 45 44 46 47 47 61 48 80 49 45 50 46 51 60 53 81 54 48 55
REMARK SMILES IDX 32 56 33 57 41 58 34 59 35 60 39 61 42 62 36 63 37 64 40 65
REMARK SMILES IDX 38 66 64 67 65 68 73 69 66 70 67 71 71 72 74 73 68 74 69 75
REMARK SMILES IDX 72 76 70 77 49 78 50 79 58 80 51 81 52 82 56 83 59 84 53 85
REMARK SMILES IDX 54 86 57 87 55 88
REMARK H PARENT 79 41 47 52
REMARK Flexibility Score: inf
ROOT
ATOM      1  C   UNL A   1      45.463  19.477  23.836  1.00  0.00     0.188 C 
ENDROOT
BRANCH   1   2
ATOM      2  C   UNL A   1      45.258  20.792  24.620  1.00  0.00     0.188 C 
BRANCH   2   3
ATOM      3  O   UNL A   1      46.373  21.430  25.234  1.00  0.00    -0.376 OA
BRANCH   3   4
ATOM      4  C   UNL A   1      46.302  22.815  25.560  1.00  0.00     0.202 C 
BRANCH   4   5
ATOM      5  C   UNL A   1      45.639  23.765  24.554  1.00  0.00     0.261 C 
BRANCH   5   6
ATOM      6  O   UNL A   1      45.376  25.074  25.087  1.00  0.00    -0.460 OA
BRANCH   6   7
ATOM      7  C   UNL A   1      46.325  26.012  24.857  1.00  0.00     0.343 C 
ATOM      8  O   UNL A   1      47.309  25.902  24.141  1.00  0.00    -0.246 OA
BRANCH   7   9
ATOM      9  C   UNL A   1      45.911  27.307  25.406  1.00  0.00     0.118 A 
ATOM     10  C   UNL A   1      46.491  29.535  26.098  1.00  0.00     0.138 A 
ATOM     11  C   UNL A   1      45.154  29.721  26.421  1.00  0.00     0.160 A 
ATOM     12  C   UNL A   1      46.881  28.298  25.601  1.00  0.00     0.068 A 
ATOM     13  N   UNL A   1      44.193  28.784  26.232  1.00  0.00    -0.224 NA
ATOM     14  C   UNL A   1      44.594  27.591  25.729  1.00  0.00     0.227 A 
ATOM     15  F   UNL A   1      43.645  26.658  25.567  1.00  0.00    -0.184 F 
BRANCH  10  16
ATOM     16  O   UNL A   1      47.382  30.530  26.375  1.00  0.00    -0.495 OA
ATOM     17  C   UNL A   1      46.747  31.714  26.857  1.00  0.00     0.278 C 
ENDBRANCH  10  16
ENDBRANCH   7   9
ENDBRANCH   6   7
ENDBRANCH   5   6
ENDBRANCH   4   5
ENDBRANCH   3   4
ENDBRANCH   2   3
ENDBRANCH   1   2
BRANCH   1  18
ATOM     18  O   UNL A   1      44.777  18.383  24.394  1.00  0.00    -0.376 OA
BRANCH  18  19
ATOM     19  C   UNL A   1      44.246  18.483  25.701  1.00  0.00     0.202 C 
BRANCH  19  20
ATOM     20  C   UNL A   1      42.733  18.441  25.984  1.00  0.00     0.261 C 
BRANCH  20  21
ATOM     21  O   UNL A   1      41.925  19.491  25.438  1.00  0.00    -0.460 OA
BRANCH  21  22
ATOM     22  C   UNL A   1      41.068  20.108  26.282  1.00  0.00     0.338 C 
ATOM     23  O   UNL A   1      40.001  19.692  26.692  1.00  0.00    -0.246 OA
BRANCH  22  24
ATOM     24  C   UNL A   1      41.725  21.337  26.771  1.00  0.00     0.060 A 
ATOM     25  C   UNL A   1      41.928  21.491  28.149  1.00  0.00     0.016 A 
ATOM     26  C   UNL A   1      42.127  22.333  25.878  1.00  0.00     0.016 A 
ATOM     27  C   UNL A   1      42.515  22.660  28.638  1.00  0.00     0.010 A 
ATOM     28  C   UNL A   1      42.698  23.511  26.372  1.00  0.00     0.010 A 
ATOM     29  C   UNL A   1      42.871  23.689  27.755  1.00  0.00    -0.014 A 
BRANCH  29  30
ATOM     30  C   UNL A   1      43.267  25.016  28.287  1.00  0.00     0.031 A 
ATOM     31  C   UNL A   1      42.199  26.051  28.504  1.00  0.00     0.074 A 
ATOM     32  C   UNL A   1      44.549  25.297  28.577  1.00  0.00     0.049 A 
ATOM     33  N   UNL A   1      42.310  27.292  28.903  1.00  0.00    -0.248 NA
ATOM     34  C   UNL A   1      40.816  25.624  28.236  1.00  0.00     0.031 C 
ATOM     35  C   UNL A   1      45.670  24.369  28.449  1.00  0.00     0.029 A 
ATOM     36  N   UNL A   1      45.123  26.459  29.033  1.00  0.00    -0.354 N 
ATOM     37  C   UNL A   1      41.016  27.794  28.932  1.00  0.00     0.074 A 
ATOM     38  C   UNL A   1      40.138  26.733  28.486  1.00  0.00     0.031 C 
ATOM     39  C   UNL A   1      46.803  25.003  28.800  1.00  0.00     0.029 A 
ATOM     40  C   UNL A   1      46.490  26.389  29.147  1.00  0.00     0.049 A 
ATOM     41  H   UNL A   1      44.604  27.266  29.256  1.00  0.00     0.167 HD
ATOM     42  C   UNL A   1      40.597  29.027  29.302  1.00  0.00     0.037 A 
ATOM     43  C   UNL A   1      47.384  27.346  29.467  1.00  0.00     0.037 A 
ATOM     44  C   UNL A   1      41.470  30.085  29.732  1.00  0.00     0.049 A 
ATOM     45  C   UNL A   1      46.900  28.737  29.789  1.00  0.00     0.074 A 
ATOM     46  C   UNL A   1      41.139  31.367  30.138  1.00  0.00     0.029 A 
ATOM     47  N   UNL A   1      42.851  29.988  29.801  1.00  0.00    -0.354 N 
ATOM     48  N   UNL A   1      45.673  29.198  29.839  1.00  0.00    -0.248 NA
ATOM     49  C   UNL A   1      47.928  29.744  30.096  1.00  0.00     0.031 C 
ATOM     50  C   UNL A   1      42.324  32.061  30.403  1.00  0.00     0.029 A 
ATOM     51  C   UNL A   1      43.390  31.195  30.216  1.00  0.00     0.049 A 
ATOM     52  H   UNL A   1      43.373  29.181  29.586  1.00  0.00     0.167 HD
ATOM     53  C   UNL A   1      45.780  30.533  30.213  1.00  0.00     0.074 A 
ATOM     54  C   UNL A   1      47.190  30.806  30.386  1.00  0.00     0.031 C 
ATOM     55  C   UNL A   1      44.797  31.449  30.396  1.00  0.00     0.037 A 
BRANCH  42  56
ATOM     56  C   UNL A   1      39.124  29.304  29.231  1.00  0.00     0.064 A 
ATOM     57  C   UNL A   1      38.321  29.316  30.382  1.00  0.00     0.173 A 
ATOM     58  C   UNL A   1      38.514  29.588  28.001  1.00  0.00     0.173 A 
ATOM     59  F   UNL A   1      38.855  29.032  31.580  1.00  0.00    -0.203 F 
ATOM     60  C   UNL A   1      36.956  29.577  30.300  1.00  0.00     0.198 A 
ATOM     61  C   UNL A   1      37.153  29.877  27.927  1.00  0.00     0.198 A 
ATOM     62  F   UNL A   1      39.237  29.591  26.872  1.00  0.00    -0.203 F 
ATOM     63  F   UNL A   1      36.200  29.537  31.406  1.00  0.00    -0.200 F 
ATOM     64  C   UNL A   1      36.375  29.864  29.074  1.00  0.00     0.200 A 
ATOM     65  F   UNL A   1      36.595  30.164  26.742  1.00  0.00    -0.200 F 
ATOM     66  F   UNL A   1      35.062  30.121  28.997  1.00  0.00    -0.200 F 
ENDBRANCH  42  56
BRANCH  43  67
ATOM     67  C   UNL A   1      48.838  27.033  29.486  1.00  0.00     0.064 A 
ATOM     68  C   UNL A   1      49.492  26.708  30.682  1.00  0.00     0.173 A 
ATOM     69  C   UNL A   1      49.607  27.083  28.314  1.00  0.00     0.173 A 
ATOM     70  F   UNL A   1      48.804  26.675  31.832  1.00  0.00    -0.203 F 
ATOM     71  C   UNL A   1      50.864  26.465  30.709  1.00  0.00     0.198 A 
ATOM     72  C   UNL A   1      50.974  26.813  28.338  1.00  0.00     0.198 A 
ATOM     73  F   UNL A   1      49.030  27.396  27.144  1.00  0.00    -0.203 F 
ATOM     74  F   UNL A   1      51.473  26.207  31.874  1.00  0.00    -0.200 F 
ATOM     75  C   UNL A   1      51.603  26.513  29.537  1.00  0.00     0.200 A 
ATOM     76  F   UNL A   1      51.682  26.852  27.201  1.00  0.00    -0.200 F 
ATOM     77  F   UNL A   1      52.922  26.280  29.564  1.00  0.00    -0.200 F 
ENDBRANCH  43  67
BRANCH  55  78
ATOM     78  C   UNL A   1      45.204  32.823  30.848  1.00  0.00     0.064 A 
ATOM     79  C   UNL A   1      45.350  33.884  29.945  1.00  0.00     0.173 A 
ATOM     80  C   UNL A   1      45.400  33.090  32.213  1.00  0.00     0.173 A 
ATOM     81  F   UNL A   1      45.188  33.679  28.629  1.00  0.00    -0.203 F 
ATOM     82  C   UNL A   1      45.701  35.158  30.387  1.00  0.00     0.198 A 
ATOM     83  C   UNL A   1      45.721  34.370  32.654  1.00  0.00     0.198 A 
ATOM     84  F   UNL A   1      45.265  32.111  33.120  1.00  0.00    -0.203 F 
ATOM     85  F   UNL A   1      45.878  36.148  29.502  1.00  0.00    -0.200 F 
ATOM     86  C   UNL A   1      45.877  35.402  31.741  1.00  0.00     0.200 A 
ATOM     87  F   UNL A   1      45.875  34.607  33.964  1.00  0.00    -0.200 F 
ATOM     88  F   UNL A   1      46.204  36.631  32.165  1.00  0.00    -0.200 F 
ENDBRANCH  55  78
ENDBRANCH  29  30
ENDBRANCH  22  24
ENDBRANCH  21  22
ENDBRANCH  20  21
ENDBRANCH  19  20
ENDBRANCH  18  19
ENDBRANCH   1  18
TORSDOF 18
ENDMDL
MODEL 3
REMARK VINA RESULT:      -8.1      6.553     12.123
REMARK SMILES COc1cnc(F)c(C(=O)OCCOCCOCCOC(=O)c2ccc(-c3c4nc(c(-c5c(F)c(F)c(F)c(F)c5F)c5ccc([nH]5)c(-c5c(F)c(F)c(F)c(F)c5F)c5nc(c(-c6c(F)c(F)c(F)c(F)c6F)c6ccc3[nH]6)C=C5)C=C4)cc2)c1
REMARK SMILES IDX 16 1 15 2 14 3 13 4 12 5 11 6 9 7 10 8 8 9 3 10 4 11 86 12
REMARK SMILES IDX 5 13 6 14 7 15 2 16 1 17 17 18 18 19 19 20 20 21 21 22 22 23
REMARK SMILES IDX 23 24 24 25 85 26 25 27 84 28 26 29 27 30 28 31 78 32 29 33
REMARK SMILES IDX 83 34 77 35 79 36 30 37 82 38 76 39 75 40 31 42 63 43 43 44
REMARK SMILES IDX 62 45 44 46 47 47 61 48 80 49 45 50 46 51 60 53 81 54 48 55
REMARK SMILES IDX 32 56 33 57 41 58 34 59 35 60 39 61 42 62 36 63 37 64 40 65
REMARK SMILES IDX 38 66 64 67 65 68 73 69 66 70 67 71 71 72 74 73 68 74 69 75
REMARK SMILES IDX 72 76 70 77 49 78 50 79 58 80 51 81 52 82 56 83 59 84 53 85
REMARK SMILES IDX 54 86 57 87 55 88
REMARK H PARENT 79 41 47 52
REMARK Flexibility Score: inf
ROOT
ATOM      1  C   UNL A   1      31.576  30.416  25.679  1.00  0.00     0.188 C 
ENDROOT
BRANCH   1   2
ATOM      2  C   UNL A   1      32.270  29.256  26.426  1.00  0.00     0.188 C 
BRANCH   2   3
ATOM      3  O   UNL A   1      31.489  28.197  26.970  1.00  0.00    -0.376 OA
BRANCH   3   4
ATOM      4  C   UNL A   1      31.509  26.914  26.350  1.00  0.00     0.202 C 
BRANCH   4   5
ATOM      5  C   UNL A   1      31.497  26.848  24.818  1.00  0.00     0.261 C 
BRANCH   5   6
ATOM      6  O   UNL A   1      30.218  27.160  24.240  1.00  0.00    -0.460 OA
BRANCH   6   7
ATOM      7  C   UNL A   1      30.241  27.697  22.998  1.00  0.00     0.343 C 
ATOM      8  O   UNL A   1      30.822  27.256  22.017  1.00  0.00    -0.246 OA
BRANCH   7   9
ATOM      9  C   UNL A   1      29.272  28.792  22.892  1.00  0.00     0.118 A 
ATOM     10  C   UNL A   1      28.796  31.082  22.336  1.00  0.00     0.138 A 
ATOM     11  C   UNL A   1      27.477  30.833  22.688  1.00  0.00     0.160 A 
ATOM     12  C   UNL A   1      29.716  30.048  22.461  1.00  0.00     0.068 A 
ATOM     13  N   UNL A   1      27.018  29.626  23.097  1.00  0.00    -0.224 NA
ATOM     14  C   UNL A   1      27.930  28.627  23.194  1.00  0.00     0.227 A 
ATOM     15  F   UNL A   1      27.476  27.441  23.624  1.00  0.00    -0.184 F 
BRANCH  10  16
ATOM     16  O   UNL A   1      29.159  32.348  21.982  1.00  0.00    -0.495 OA
ATOM     17  C   UNL A   1      28.914  33.297  23.021  1.00  0.00     0.278 C 
ENDBRANCH  10  16
ENDBRANCH   7   9
ENDBRANCH   6   7
ENDBRANCH   5   6
ENDBRANCH   4   5
ENDBRANCH   3   4
ENDBRANCH   2   3
ENDBRANCH   1   2
BRANCH   1  18
ATOM     18  O   UNL A   1      31.301  31.523  26.503  1.00  0.00    -0.376 OA
BRANCH  18  19
ATOM     19  C   UNL A   1      32.349  32.127  27.236  1.00  0.00     0.202 C 
BRANCH  19  20
ATOM     20  C   UNL A   1      32.560  33.652  27.271  1.00  0.00     0.261 C 
BRANCH  20  21
ATOM     21  O   UNL A   1      32.494  34.304  28.545  1.00  0.00    -0.460 OA
BRANCH  21  22
ATOM     22  C   UNL A   1      33.562  35.046  28.911  1.00  0.00     0.338 C 
ATOM     23  O   UNL A   1      33.616  36.255  29.045  1.00  0.00    -0.246 OA
BRANCH  22  24
ATOM     24  C   UNL A   1      34.646  34.119  29.294  1.00  0.00     0.060 A 
ATOM     25  C   UNL A   1      34.354  33.063  30.167  1.00  0.00     0.016 A 
ATOM     26  C   UNL A   1      35.941  34.297  28.803  1.00  0.00     0.016 A 
ATOM     27  C   UNL A   1      35.370  32.195  30.572  1.00  0.00     0.010 A 
ATOM     28  C   UNL A   1      36.961  33.437  29.223  1.00  0.00     0.010 A 
ATOM     29  C   UNL A   1      36.685  32.398  30.128  1.00  0.00    -0.014 A 
BRANCH  29  30
ATOM     30  C   UNL A   1      37.798  31.632  30.739  1.00  0.00     0.031 A 
ATOM     31  C   UNL A   1      38.195  31.948  32.155  1.00  0.00     0.074 A 
ATOM     32  C   UNL A   1      38.442  30.671  30.056  1.00  0.00     0.049 A 
ATOM     33  N   UNL A   1      39.168  31.455  32.877  1.00  0.00    -0.248 NA
ATOM     34  C   UNL A   1      37.379  32.957  32.849  1.00  0.00     0.031 C 
ATOM     35  C   UNL A   1      38.127  30.244  28.694  1.00  0.00     0.029 A 
ATOM     36  N   UNL A   1      39.510  29.885  30.418  1.00  0.00    -0.354 N 
ATOM     37  C   UNL A   1      39.084  32.093  34.106  1.00  0.00     0.074 A 
ATOM     38  C   UNL A   1      37.981  33.027  34.026  1.00  0.00     0.031 C 
ATOM     39  C   UNL A   1      38.995  29.285  28.327  1.00  0.00     0.029 A 
ATOM     40  C   UNL A   1      39.945  29.054  29.416  1.00  0.00     0.049 A 
ATOM     41  H   UNL A   1      39.923  29.916  31.311  1.00  0.00     0.167 HD
ATOM     42  C   UNL A   1      39.852  31.912  35.206  1.00  0.00     0.037 A 
ATOM     43  C   UNL A   1      41.007  28.224  29.377  1.00  0.00     0.037 A 
ATOM     44  C   UNL A   1      40.956  30.994  35.282  1.00  0.00     0.049 A 
ATOM     45  C   UNL A   1      41.903  28.107  30.584  1.00  0.00     0.074 A 
ATOM     46  C   UNL A   1      41.790  30.732  36.356  1.00  0.00     0.029 A 
ATOM     47  N   UNL A   1      41.389  30.194  34.236  1.00  0.00    -0.354 N 
ATOM     48  N   UNL A   1      41.802  28.694  31.753  1.00  0.00    -0.248 NA
ATOM     49  C   UNL A   1      43.064  27.211  30.465  1.00  0.00     0.031 C 
ATOM     50  C   UNL A   1      42.758  29.811  35.943  1.00  0.00     0.029 A 
ATOM     51  C   UNL A   1      42.495  29.458  34.629  1.00  0.00     0.049 A 
ATOM     52  H   UNL A   1      40.974  30.155  33.344  1.00  0.00     0.167 HD
ATOM     53  C   UNL A   1      42.862  28.217  32.514  1.00  0.00     0.074 A 
ATOM     54  C   UNL A   1      43.589  27.284  31.680  1.00  0.00     0.031 C 
ATOM     55  C   UNL A   1      43.202  28.524  33.791  1.00  0.00     0.037 A 
BRANCH  42  56
ATOM     56  C   UNL A   1      39.539  32.749  36.411  1.00  0.00     0.064 A 
ATOM     57  C   UNL A   1      38.571  32.355  37.349  1.00  0.00     0.173 A 
ATOM     58  C   UNL A   1      40.233  33.945  36.646  1.00  0.00     0.173 A 
ATOM     59  F   UNL A   1      37.868  31.228  37.160  1.00  0.00    -0.203 F 
ATOM     60  C   UNL A   1      38.293  33.142  38.464  1.00  0.00     0.198 A 
ATOM     61  C   UNL A   1      39.971  34.715  37.776  1.00  0.00     0.198 A 
ATOM     62  F   UNL A   1      41.167  34.365  35.781  1.00  0.00    -0.203 F 
ATOM     63  F   UNL A   1      37.332  32.770  39.321  1.00  0.00    -0.200 F 
ATOM     64  C   UNL A   1      38.998  34.317  38.680  1.00  0.00     0.200 A 
ATOM     65  F   UNL A   1      40.661  35.844  37.989  1.00  0.00    -0.200 F 
ATOM     66  F   UNL A   1      38.734  35.070  39.757  1.00  0.00    -0.200 F 
ENDBRANCH  42  56
BRANCH  43  67
ATOM     67  C   UNL A   1      41.300  27.445  28.145  1.00  0.00     0.064 A 
ATOM     68  C   UNL A   1      40.769  26.161  27.958  1.00  0.00     0.173 A 
ATOM     69  C   UNL A   1      42.142  27.954  27.145  1.00  0.00     0.173 A 
ATOM     70  F   UNL A   1      39.982  25.620  28.900  1.00  0.00    -0.203 F 
ATOM     71  C   UNL A   1      41.084  25.409  26.828  1.00  0.00     0.198 A 
ATOM     72  C   UNL A   1      42.434  27.212  26.003  1.00  0.00     0.198 A 
ATOM     73  F   UNL A   1      42.681  29.175  27.279  1.00  0.00    -0.203 F 
ATOM     74  F   UNL A   1      40.603  24.165  26.700  1.00  0.00    -0.200 F 
ATOM     75  C   UNL A   1      41.913  25.936  25.849  1.00  0.00     0.200 A 
ATOM     76  F   UNL A   1      43.228  27.729  25.055  1.00  0.00    -0.200 F 
ATOM     77  F   UNL A   1      42.216  25.212  24.764  1.00  0.00    -0.200 F 
ENDBRANCH  43  67
BRANCH  55  78
ATOM     78  C   UNL A   1      44.386  27.815  34.384  1.00  0.00     0.064 A 
ATOM     79  C   UNL A   1      45.666  28.386  34.380  1.00  0.00     0.173 A 
ATOM     80  C   UNL A   1      44.226  26.568  35.008  1.00  0.00     0.173 A 
ATOM     81  F   UNL A   1      45.876  29.569  33.783  1.00  0.00    -0.203 F 
ATOM     82  C   UNL A   1      46.747  27.726  34.960  1.00  0.00     0.198 A 
ATOM     83  C   UNL A   1      45.302  25.925  35.613  1.00  0.00     0.198 A 
ATOM     84  F   UNL A   1      43.020  25.981  35.047  1.00  0.00    -0.203 F 
ATOM     85  F   UNL A   1      47.970  28.270  34.907  1.00  0.00    -0.200 F 
ATOM     86  C   UNL A   1      46.562  26.500  35.583  1.00  0.00     0.200 A 
ATOM     87  F   UNL A   1      45.118  24.748  36.228  1.00  0.00    -0.200 F 
ATOM     88  F   UNL A   1      47.602  25.871  36.149  1.00  0.00    -0.200 F 
ENDBRANCH  55  78
ENDBRANCH  29  30
ENDBRANCH  22  24
ENDBRANCH  21  22
ENDBRANCH  20  21
ENDBRANCH  19  20
ENDBRANCH  18  19
ENDBRANCH   1  18
TORSDOF 18
ENDMDL
