MODEL 1
REMARK VINA RESULT:     -11.2      0.000      0.000
REMARK SMILES N#CCC(=O)NNC(=O)c1ccccc1C(=O)OCCOCCOCCOC(=O)c1ccc(-c2c3nc(c(-c4c(F)c(F)c(F)c(F)c4F)c4ccc([nH]4)c(-c4c(F)c(F)c(F)c(F)c4F)c4nc(c(-c5c(F)c(F)c(F)c(F)c5F)c5ccc2[nH]5)C=C4)C=C3)cc1
REMARK SMILES IDX 22 1 21 2 20 3 19 4 18 5 16 6 17 7 15 8 10 9 11 10 12 11
REMARK SMILES IDX 14 12 13 13 8 14 7 15 9 17 6 18 4 19 5 20 3 22 2 23 1 24
REMARK SMILES IDX 23 25 24 26 25 27 26 28 27 29 28 30 29 31 30 32 31 33 92 34
REMARK SMILES IDX 32 35 91 36 33 37 34 38 35 39 85 40 36 41 90 42 84 43 86 44
REMARK SMILES IDX 37 45 89 46 83 47 82 48 38 50 70 51 50 52 69 53 51 54 54 55
REMARK SMILES IDX 68 56 87 57 52 58 53 59 67 61 88 62 55 63 39 64 40 65 48 66
REMARK SMILES IDX 41 67 42 68 46 69 49 70 43 71 44 72 47 73 45 74 71 75 72 76
REMARK SMILES IDX 80 77 73 78 74 79 78 80 81 81 75 82 76 83 79 84 77 85 56 86
REMARK SMILES IDX 57 87 65 88 58 89 59 90 63 91 66 92 60 93 61 94 64 95 62 96
REMARK H PARENT 7 16 6 21 86 49 54 60
REMARK Flexibility Score: inf
ROOT
ATOM      1  C   UNL A   1      35.247  23.379  23.819  1.00  0.00     0.188 C 
ENDROOT
BRANCH   1   2
ATOM      2  O   UNL A   1      34.592  24.041  22.746  1.00  0.00    -0.376 OA
BRANCH   2   3
ATOM      3  C   UNL A   1      33.216  23.772  22.531  1.00  0.00     0.202 C 
BRANCH   3   4
ATOM      4  C   UNL A   1      32.191  24.874  22.808  1.00  0.00     0.261 C 
BRANCH   4   5
ATOM      5  O   UNL A   1      32.273  25.488  24.111  1.00  0.00    -0.460 OA
BRANCH   5   6
ATOM      6  C   UNL A   1      31.144  26.087  24.570  1.00  0.00     0.339 C 
ATOM      7  O   UNL A   1      30.009  25.646  24.479  1.00  0.00    -0.246 OA
BRANCH   6   8
ATOM      8  C   UNL A   1      31.419  27.322  25.349  1.00  0.00     0.072 A 
ATOM      9  C   UNL A   1      31.616  28.605  24.832  1.00  0.00     0.056 A 
ATOM     10  C   UNL A   1      31.894  29.674  25.715  1.00  0.00     0.015 A 
ATOM     11  C   UNL A   1      31.979  29.473  27.090  1.00  0.00     0.001 A 
ATOM     12  C   UNL A   1      31.512  27.135  26.743  1.00  0.00     0.016 A 
ATOM     13  C   UNL A   1      31.794  28.198  27.604  1.00  0.00     0.001 A 
BRANCH   9  14
ATOM     14  C   UNL A   1      31.582  28.999  23.414  1.00  0.00     0.270 C 
ATOM     15  N   UNL A   1      30.485  29.591  22.847  1.00  0.00    -0.263 N 
ATOM     16  H   UNL A   1      30.616  29.979  21.952  1.00  0.00     0.191 HD
ATOM     17  O   UNL A   1      32.619  28.920  22.754  1.00  0.00    -0.267 OA
BRANCH  15  18
ATOM     18  N   UNL A   1      29.199  29.709  23.390  1.00  0.00    -0.266 N 
ATOM     19  C   UNL A   1      28.075  30.066  22.639  1.00  0.00     0.252 C 
ATOM     20  O   UNL A   1      26.948  29.962  23.124  1.00  0.00    -0.272 OA
ATOM     21  H   UNL A   1      29.080  29.532  24.351  1.00  0.00     0.191 HD
BRANCH  19  22
ATOM     22  C   UNL A   1      28.282  30.637  21.226  1.00  0.00     0.221 C 
BRANCH  22  23
ATOM     23  C   UNL A   1      28.124  32.105  21.583  1.00  0.00     0.072 C 
ATOM     24  N   UNL A   1      27.992  33.324  21.880  1.00  0.00    -0.198 NA
ENDBRANCH  22  23
ENDBRANCH  19  22
ENDBRANCH  15  18
ENDBRANCH   9  14
ENDBRANCH   6   8
ENDBRANCH   5   6
ENDBRANCH   4   5
ENDBRANCH   3   4
ENDBRANCH   2   3
ENDBRANCH   1   2
BRANCH   1  25
ATOM     25  C   UNL A   1      36.668  22.799  23.600  1.00  0.00     0.188 C 
BRANCH  25  26
ATOM     26  O   UNL A   1      37.398  22.654  24.799  1.00  0.00    -0.376 OA
BRANCH  26  27
ATOM     27  C   UNL A   1      37.991  21.391  25.052  1.00  0.00     0.202 C 
BRANCH  27  28
ATOM     28  C   UNL A   1      39.338  21.253  25.800  1.00  0.00     0.261 C 
BRANCH  28  29
ATOM     29  O   UNL A   1      39.792  19.935  26.146  1.00  0.00    -0.460 OA
BRANCH  29  30
ATOM     30  C   UNL A   1      41.124  19.691  26.128  1.00  0.00     0.338 C 
ATOM     31  O   UNL A   1      41.682  18.701  25.686  1.00  0.00    -0.246 OA
BRANCH  30  32
ATOM     32  C   UNL A   1      41.824  20.938  26.522  1.00  0.00     0.060 A 
ATOM     33  C   UNL A   1      41.964  21.241  27.887  1.00  0.00     0.016 A 
ATOM     34  C   UNL A   1      42.410  21.763  25.559  1.00  0.00     0.016 A 
ATOM     35  C   UNL A   1      42.682  22.372  28.289  1.00  0.00     0.010 A 
ATOM     36  C   UNL A   1      43.096  22.914  25.962  1.00  0.00     0.010 A 
ATOM     37  C   UNL A   1      43.216  23.239  27.327  1.00  0.00    -0.014 A 
BRANCH  37  38
ATOM     38  C   UNL A   1      43.705  24.585  27.722  1.00  0.00     0.031 A 
ATOM     39  C   UNL A   1      42.678  25.628  28.073  1.00  0.00     0.074 A 
ATOM     40  C   UNL A   1      45.013  24.892  27.766  1.00  0.00     0.049 A 
ATOM     41  N   UNL A   1      42.836  26.894  28.366  1.00  0.00    -0.248 NA
ATOM     42  C   UNL A   1      41.277  25.177  28.089  1.00  0.00     0.031 C 
ATOM     43  C   UNL A   1      46.110  23.966  27.497  1.00  0.00     0.029 A 
ATOM     44  N   UNL A   1      45.638  26.085  28.042  1.00  0.00    -0.354 N 
ATOM     45  C   UNL A   1      41.557  27.390  28.584  1.00  0.00     0.074 A 
ATOM     46  C   UNL A   1      40.633  26.299  28.366  1.00  0.00     0.031 C 
ATOM     47  C   UNL A   1      47.276  24.630  27.608  1.00  0.00     0.029 A 
ATOM     48  C   UNL A   1      47.005  26.034  27.916  1.00  0.00     0.049 A 
ATOM     49  H   UNL A   1      45.152  26.899  28.307  1.00  0.00     0.167 HD
ATOM     50  C   UNL A   1      41.186  28.644  28.938  1.00  0.00     0.037 A 
ATOM     51  C   UNL A   1      47.924  27.017  28.011  1.00  0.00     0.037 A 
ATOM     52  C   UNL A   1      42.104  29.731  29.149  1.00  0.00     0.049 A 
ATOM     53  C   UNL A   1      47.477  28.428  28.316  1.00  0.00     0.074 A 
ATOM     54  C   UNL A   1      41.827  31.030  29.536  1.00  0.00     0.029 A 
ATOM     55  N   UNL A   1      43.478  29.648  28.974  1.00  0.00    -0.354 N 
ATOM     56  N   UNL A   1      46.271  28.884  28.558  1.00  0.00    -0.248 NA
ATOM     57  C   UNL A   1      48.523  29.461  28.361  1.00  0.00     0.031 C 
ATOM     58  C   UNL A   1      43.024  31.751  29.528  1.00  0.00     0.029 A 
ATOM     59  C   UNL A   1      44.057  30.885  29.208  1.00  0.00     0.049 A 
ATOM     60  H   UNL A   1      43.968  28.834  28.720  1.00  0.00     0.167 HD
ATOM     61  C   UNL A   1      46.419  30.242  28.818  1.00  0.00     0.074 A 
ATOM     62  C   UNL A   1      47.833  30.535  28.716  1.00  0.00     0.031 C 
ATOM     63  C   UNL A   1      45.469  31.163  29.118  1.00  0.00     0.037 A 
BRANCH  50  64
ATOM     64  C   UNL A   1      39.715  28.914  29.079  1.00  0.00     0.064 A 
ATOM     65  C   UNL A   1      39.046  28.770  30.303  1.00  0.00     0.173 A 
ATOM     66  C   UNL A   1      38.969  29.348  27.972  1.00  0.00     0.173 A 
ATOM     67  F   UNL A   1      39.709  28.343  31.389  1.00  0.00    -0.203 F 
ATOM     68  C   UNL A   1      37.680  29.017  30.407  1.00  0.00     0.198 A 
ATOM     69  C   UNL A   1      37.610  29.629  28.087  1.00  0.00     0.198 A 
ATOM     70  F   UNL A   1      39.559  29.505  26.777  1.00  0.00    -0.203 F 
ATOM     71  F   UNL A   1      37.051  28.817  31.573  1.00  0.00    -0.200 F 
ATOM     72  C   UNL A   1      36.965  29.454  29.301  1.00  0.00     0.200 A 
ATOM     73  F   UNL A   1      36.925  30.065  27.021  1.00  0.00    -0.200 F 
ATOM     74  F   UNL A   1      35.651  29.699  29.405  1.00  0.00    -0.200 F 
ENDBRANCH  50  64
BRANCH  51  75
ATOM     75  C   UNL A   1      49.368  26.718  27.803  1.00  0.00     0.064 A 
ATOM     76  C   UNL A   1      50.216  26.459  28.891  1.00  0.00     0.173 A 
ATOM     77  C   UNL A   1      49.941  26.726  26.523  1.00  0.00     0.173 A 
ATOM     78  F   UNL A   1      49.725  26.473  30.139  1.00  0.00    -0.203 F 
ATOM     79  C   UNL A   1      51.580  26.239  28.707  1.00  0.00     0.198 A 
ATOM     80  C   UNL A   1      51.299  26.474  26.337  1.00  0.00     0.198 A 
ATOM     81  F   UNL A   1      49.179  26.979  25.448  1.00  0.00    -0.203 F 
ATOM     82  F   UNL A   1      52.374  26.050  29.770  1.00  0.00    -0.200 F 
ATOM     83  C   UNL A   1      52.120  26.240  27.430  1.00  0.00     0.200 A 
ATOM     84  F   UNL A   1      51.815  26.469  25.101  1.00  0.00    -0.200 F 
ATOM     85  F   UNL A   1      53.431  26.031  27.255  1.00  0.00    -0.200 F 
ENDBRANCH  51  75
BRANCH  63  86
ATOM     86  C   UNL A   1      45.922  32.567  29.411  1.00  0.00     0.064 A 
ATOM     87  C   UNL A   1      46.302  32.973  30.698  1.00  0.00     0.173 A 
ATOM     88  C   UNL A   1      46.024  33.508  28.372  1.00  0.00     0.173 A 
ATOM     89  F   UNL A   1      46.211  32.119  31.729  1.00  0.00    -0.203 F 
ATOM     90  C   UNL A   1      46.743  34.272  30.940  1.00  0.00     0.198 A 
ATOM     91  C   UNL A   1      46.500  34.794  28.610  1.00  0.00     0.198 A 
ATOM     92  F   UNL A   1      45.683  33.171  27.118  1.00  0.00    -0.203 F 
ATOM     93  F   UNL A   1      47.053  34.651  32.187  1.00  0.00    -0.200 F 
ATOM     94  C   UNL A   1      46.850  35.178  29.895  1.00  0.00     0.200 A 
ATOM     95  F   UNL A   1      46.621  35.661  27.596  1.00  0.00    -0.200 F 
ATOM     96  F   UNL A   1      47.287  36.424  30.128  1.00  0.00    -0.200 F 
ENDBRANCH  63  86
ENDBRANCH  37  38
ENDBRANCH  30  32
ENDBRANCH  29  30
ENDBRANCH  28  29
ENDBRANCH  27  28
ENDBRANCH  26  27
ENDBRANCH  25  26
ENDBRANCH   1  25
TORSDOF 21
ENDMDL
MODEL 2
REMARK VINA RESULT:     -11.0      4.905      9.534
REMARK SMILES N#CCC(=O)NNC(=O)c1ccccc1C(=O)OCCOCCOCCOC(=O)c1ccc(-c2c3nc(c(-c4c(F)c(F)c(F)c(F)c4F)c4ccc([nH]4)c(-c4c(F)c(F)c(F)c(F)c4F)c4nc(c(-c5c(F)c(F)c(F)c(F)c5F)c5ccc2[nH]5)C=C4)C=C3)cc1
REMARK SMILES IDX 22 1 21 2 20 3 19 4 18 5 16 6 17 7 15 8 10 9 11 10 12 11
REMARK SMILES IDX 14 12 13 13 8 14 7 15 9 17 6 18 4 19 5 20 3 22 2 23 1 24
REMARK SMILES IDX 23 25 24 26 25 27 26 28 27 29 28 30 29 31 30 32 31 33 92 34
REMARK SMILES IDX 32 35 91 36 33 37 34 38 35 39 85 40 36 41 90 42 84 43 86 44
REMARK SMILES IDX 37 45 89 46 83 47 82 48 38 50 70 51 50 52 69 53 51 54 54 55
REMARK SMILES IDX 68 56 87 57 52 58 53 59 67 61 88 62 55 63 39 64 40 65 48 66
REMARK SMILES IDX 41 67 42 68 46 69 49 70 43 71 44 72 47 73 45 74 71 75 72 76
REMARK SMILES IDX 80 77 73 78 74 79 78 80 81 81 75 82 76 83 79 84 77 85 56 86
REMARK SMILES IDX 57 87 65 88 58 89 59 90 63 91 66 92 60 93 61 94 64 95 62 96
REMARK H PARENT 7 16 6 21 86 49 54 60
REMARK Flexibility Score: inf
ROOT
ATOM      1  C   UNL A   1      38.461  20.655  25.144  1.00  0.00     0.188 C 
ENDROOT
BRANCH   1   2
ATOM      2  O   UNL A   1      37.101  20.962  25.421  1.00  0.00    -0.376 OA
BRANCH   2   3
ATOM      3  C   UNL A   1      36.764  22.309  25.713  1.00  0.00     0.202 C 
BRANCH   3   4
ATOM      4  C   UNL A   1      35.569  22.947  24.999  1.00  0.00     0.261 C 
BRANCH   4   5
ATOM      5  O   UNL A   1      35.055  24.154  25.602  1.00  0.00    -0.460 OA
BRANCH   5   6
ATOM      6  C   UNL A   1      33.891  24.036  26.293  1.00  0.00     0.339 C 
ATOM      7  O   UNL A   1      33.601  23.133  27.062  1.00  0.00    -0.246 OA
BRANCH   6   8
ATOM      8  C   UNL A   1      33.004  25.217  26.136  1.00  0.00     0.072 A 
ATOM      9  C   UNL A   1      31.607  25.212  26.121  1.00  0.00     0.056 A 
ATOM     10  C   UNL A   1      30.911  26.429  25.936  1.00  0.00     0.015 A 
ATOM     11  C   UNL A   1      31.589  27.633  25.767  1.00  0.00     0.001 A 
ATOM     12  C   UNL A   1      33.676  26.444  25.960  1.00  0.00     0.016 A 
ATOM     13  C   UNL A   1      32.976  27.639  25.772  1.00  0.00     0.001 A 
BRANCH   9  14
ATOM     14  C   UNL A   1      30.728  24.040  26.265  1.00  0.00     0.270 C 
ATOM     15  N   UNL A   1      30.742  23.003  25.372  1.00  0.00    -0.263 N 
ATOM     16  H   UNL A   1      30.256  22.191  25.642  1.00  0.00     0.191 HD
ATOM     17  O   UNL A   1      30.059  23.927  27.292  1.00  0.00    -0.267 OA
BRANCH  15  18
ATOM     18  N   UNL A   1      31.367  22.961  24.117  1.00  0.00    -0.266 N 
ATOM     19  C   UNL A   1      32.107  21.866  23.661  1.00  0.00     0.252 C 
ATOM     20  O   UNL A   1      32.462  21.806  22.484  1.00  0.00    -0.272 OA
ATOM     21  H   UNL A   1      31.280  23.744  23.527  1.00  0.00     0.191 HD
BRANCH  19  22
ATOM     22  C   UNL A   1      32.506  20.774  24.668  1.00  0.00     0.221 C 
BRANCH  22  23
ATOM     23  C   UNL A   1      32.414  19.590  23.719  1.00  0.00     0.072 C 
ATOM     24  N   UNL A   1      32.338  18.608  22.931  1.00  0.00    -0.198 NA
ENDBRANCH  22  23
ENDBRANCH  19  22
ENDBRANCH  15  18
ENDBRANCH   9  14
ENDBRANCH   6   8
ENDBRANCH   5   6
ENDBRANCH   4   5
ENDBRANCH   3   4
ENDBRANCH   2   3
ENDBRANCH   1   2
BRANCH   1  25
ATOM     25  C   UNL A   1      39.569  21.199  26.080  1.00  0.00     0.188 C 
BRANCH  25  26
ATOM     26  O   UNL A   1      40.685  20.342  26.176  1.00  0.00    -0.376 OA
BRANCH  26  27
ATOM     27  C   UNL A   1      41.897  20.899  26.657  1.00  0.00     0.202 C 
BRANCH  27  28
ATOM     28  C   UNL A   1      42.928  21.559  25.710  1.00  0.00     0.261 C 
BRANCH  28  29
ATOM     29  O   UNL A   1      42.556  22.775  25.042  1.00  0.00    -0.460 OA
BRANCH  29  30
ATOM     30  C   UNL A   1      43.412  23.824  25.100  1.00  0.00     0.338 C 
ATOM     31  O   UNL A   1      44.362  24.037  24.365  1.00  0.00    -0.246 OA
BRANCH  30  32
ATOM     32  C   UNL A   1      42.863  24.811  26.061  1.00  0.00     0.060 A 
ATOM     33  C   UNL A   1      43.454  26.083  26.147  1.00  0.00     0.016 A 
ATOM     34  C   UNL A   1      41.724  24.519  26.816  1.00  0.00     0.016 A 
ATOM     35  C   UNL A   1      42.914  27.058  26.992  1.00  0.00     0.010 A 
ATOM     36  C   UNL A   1      41.208  25.482  27.689  1.00  0.00     0.010 A 
ATOM     37  C   UNL A   1      41.812  26.749  27.800  1.00  0.00    -0.014 A 
BRANCH  37  38
ATOM     38  C   UNL A   1      41.423  27.654  28.912  1.00  0.00     0.031 A 
ATOM     39  C   UNL A   1      42.224  27.587  30.184  1.00  0.00     0.074 A 
ATOM     40  C   UNL A   1      40.389  28.509  28.816  1.00  0.00     0.049 A 
ATOM     41  N   UNL A   1      42.040  28.203  31.324  1.00  0.00    -0.248 NA
ATOM     42  C   UNL A   1      43.392  26.692  30.165  1.00  0.00     0.031 C 
ATOM     43  C   UNL A   1      39.561  28.709  27.629  1.00  0.00     0.029 A 
ATOM     44  N   UNL A   1      39.851  29.363  29.750  1.00  0.00    -0.354 N 
ATOM     45  C   UNL A   1      43.058  27.760  32.158  1.00  0.00     0.074 A 
ATOM     46  C   UNL A   1      43.841  26.805  31.405  1.00  0.00     0.031 C 
ATOM     47  C   UNL A   1      38.609  29.618  27.911  1.00  0.00     0.029 A 
ATOM     48  C   UNL A   1      38.737  30.033  29.308  1.00  0.00     0.049 A 
ATOM     49  H   UNL A   1      40.230  29.483  30.651  1.00  0.00     0.167 HD
ATOM     50  C   UNL A   1      43.319  28.119  33.437  1.00  0.00     0.037 A 
ATOM     51  C   UNL A   1      37.903  30.864  29.968  1.00  0.00     0.037 A 
ATOM     52  C   UNL A   1      42.537  29.064  34.188  1.00  0.00     0.049 A 
ATOM     53  C   UNL A   1      38.162  31.178  31.423  1.00  0.00     0.074 A 
ATOM     54  C   UNL A   1      42.739  29.514  35.482  1.00  0.00     0.029 A 
ATOM     55  N   UNL A   1      41.394  29.693  33.718  1.00  0.00    -0.354 N 
ATOM     56  N   UNL A   1      39.146  30.785  32.196  1.00  0.00    -0.248 NA
ATOM     57  C   UNL A   1      37.191  32.053  32.097  1.00  0.00     0.031 C 
ATOM     58  C   UNL A   1      41.678  30.361  35.817  1.00  0.00     0.029 A 
ATOM     59  C   UNL A   1      40.857  30.498  34.710  1.00  0.00     0.049 A 
ATOM     60  H   UNL A   1      41.019  29.583  32.815  1.00  0.00     0.167 HD
ATOM     61  C   UNL A   1      38.933  31.391  33.429  1.00  0.00     0.074 A 
ATOM     62  C   UNL A   1      37.731  32.189  33.299  1.00  0.00     0.031 C 
ATOM     63  C   UNL A   1      39.668  31.299  34.565  1.00  0.00     0.037 A 
BRANCH  50  64
ATOM     64  C   UNL A   1      44.480  27.451  34.119  1.00  0.00     0.064 A 
ATOM     65  C   UNL A   1      45.754  28.038  34.163  1.00  0.00     0.173 A 
ATOM     66  C   UNL A   1      44.306  26.214  34.757  1.00  0.00     0.173 A 
ATOM     67  F   UNL A   1      45.978  29.213  33.554  1.00  0.00    -0.203 F 
ATOM     68  C   UNL A   1      46.817  27.395  34.792  1.00  0.00     0.198 A 
ATOM     69  C   UNL A   1      45.363  25.591  35.416  1.00  0.00     0.198 A 
ATOM     70  F   UNL A   1      43.108  25.609  34.748  1.00  0.00    -0.203 F 
ATOM     71  F   UNL A   1      48.038  27.948  34.772  1.00  0.00    -0.200 F 
ATOM     72  C   UNL A   1      46.618  26.177  35.425  1.00  0.00     0.200 A 
ATOM     73  F   UNL A   1      45.165  24.421  36.040  1.00  0.00    -0.200 F 
ATOM     74  F   UNL A   1      47.641  25.564  36.037  1.00  0.00    -0.200 F 
ENDBRANCH  50  64
BRANCH  51  75
ATOM     75  C   UNL A   1      36.727  31.456  29.272  1.00  0.00     0.064 A 
ATOM     76  C   UNL A   1      35.627  30.665  28.910  1.00  0.00     0.173 A 
ATOM     77  C   UNL A   1      36.694  32.813  28.918  1.00  0.00     0.173 A 
ATOM     78  F   UNL A   1      35.623  29.355  29.196  1.00  0.00    -0.203 F 
ATOM     79  C   UNL A   1      34.551  31.202  28.205  1.00  0.00     0.198 A 
ATOM     80  C   UNL A   1      35.603  33.357  28.241  1.00  0.00     0.198 A 
ATOM     81  F   UNL A   1      37.724  33.614  29.230  1.00  0.00    -0.203 F 
ATOM     82  F   UNL A   1      33.542  30.409  27.823  1.00  0.00    -0.200 F 
ATOM     83  C   UNL A   1      34.537  32.549  27.876  1.00  0.00     0.200 A 
ATOM     84  F   UNL A   1      35.591  34.661  27.932  1.00  0.00    -0.200 F 
ATOM     85  F   UNL A   1      33.504  33.064  27.197  1.00  0.00    -0.200 F 
ENDBRANCH  51  75
BRANCH  63  86
ATOM     86  C   UNL A   1      39.232  32.117  35.750  1.00  0.00     0.064 A 
ATOM     87  C   UNL A   1      38.396  31.595  36.747  1.00  0.00     0.173 A 
ATOM     88  C   UNL A   1      39.702  33.431  35.914  1.00  0.00     0.173 A 
ATOM     89  F   UNL A   1      37.907  30.350  36.635  1.00  0.00    -0.203 F 
ATOM     90  C   UNL A   1      38.026  32.363  37.849  1.00  0.00     0.198 A 
ATOM     91  C   UNL A   1      39.361  34.183  37.034  1.00  0.00     0.198 A 
ATOM     92  F   UNL A   1      40.513  33.978  34.996  1.00  0.00    -0.203 F 
ATOM     93  F   UNL A   1      37.186  31.859  38.763  1.00  0.00    -0.200 F 
ATOM     94  C   UNL A   1      38.516  33.652  37.996  1.00  0.00     0.200 A 
ATOM     95  F   UNL A   1      39.851  35.421  37.183  1.00  0.00    -0.200 F 
ATOM     96  F   UNL A   1      38.170  34.386  39.064  1.00  0.00    -0.200 F 
ENDBRANCH  63  86
ENDBRANCH  37  38
ENDBRANCH  30  32
ENDBRANCH  29  30
ENDBRANCH  28  29
ENDBRANCH  27  28
ENDBRANCH  26  27
ENDBRANCH  25  26
ENDBRANCH   1  25
TORSDOF 21
ENDMDL
MODEL 3
REMARK VINA RESULT:     -10.9      3.475      4.968
REMARK SMILES N#CCC(=O)NNC(=O)c1ccccc1C(=O)OCCOCCOCCOC(=O)c1ccc(-c2c3nc(c(-c4c(F)c(F)c(F)c(F)c4F)c4ccc([nH]4)c(-c4c(F)c(F)c(F)c(F)c4F)c4nc(c(-c5c(F)c(F)c(F)c(F)c5F)c5ccc2[nH]5)C=C4)C=C3)cc1
REMARK SMILES IDX 22 1 21 2 20 3 19 4 18 5 16 6 17 7 15 8 10 9 11 10 12 11
REMARK SMILES IDX 14 12 13 13 8 14 7 15 9 17 6 18 4 19 5 20 3 22 2 23 1 24
REMARK SMILES IDX 23 25 24 26 25 27 26 28 27 29 28 30 29 31 30 32 31 33 92 34
REMARK SMILES IDX 32 35 91 36 33 37 34 38 35 39 85 40 36 41 90 42 84 43 86 44
REMARK SMILES IDX 37 45 89 46 83 47 82 48 38 50 70 51 50 52 69 53 51 54 54 55
REMARK SMILES IDX 68 56 87 57 52 58 53 59 67 61 88 62 55 63 39 64 40 65 48 66
REMARK SMILES IDX 41 67 42 68 46 69 49 70 43 71 44 72 47 73 45 74 71 75 72 76
REMARK SMILES IDX 80 77 73 78 74 79 78 80 81 81 75 82 76 83 79 84 77 85 56 86
REMARK SMILES IDX 57 87 65 88 58 89 59 90 63 91 66 92 60 93 61 94 64 95 62 96
REMARK H PARENT 7 16 6 21 86 49 54 60
REMARK Flexibility Score: inf
ROOT
ATOM      1  C   UNL A   1      37.184  23.351  25.514  1.00  0.00     0.188 C 
ENDROOT
BRANCH   1   2
ATOM      2  O   UNL A   1      36.283  24.449  25.482  1.00  0.00    -0.376 OA
BRANCH   2   3
ATOM      3  C   UNL A   1      35.148  24.361  24.635  1.00  0.00     0.202 C 
BRANCH   3   4
ATOM      4  C   UNL A   1      35.074  23.230  23.606  1.00  0.00     0.261 C 
BRANCH   4   5
ATOM      5  O   UNL A   1      33.773  23.001  23.024  1.00  0.00    -0.460 OA
BRANCH   5   6
ATOM      6  C   UNL A   1      33.005  22.050  23.615  1.00  0.00     0.339 C 
ATOM      7  O   UNL A   1      32.962  20.869  23.308  1.00  0.00    -0.246 OA
BRANCH   6   8
ATOM      8  C   UNL A   1      32.281  22.553  24.811  1.00  0.00     0.072 A 
ATOM      9  C   UNL A   1      32.561  22.241  26.144  1.00  0.00     0.056 A 
ATOM     10  C   UNL A   1      31.754  22.788  27.168  1.00  0.00     0.015 A 
ATOM     11  C   UNL A   1      30.685  23.630  26.876  1.00  0.00     0.001 A 
ATOM     12  C   UNL A   1      31.193  23.405  24.532  1.00  0.00     0.016 A 
ATOM     13  C   UNL A   1      30.400  23.934  25.553  1.00  0.00     0.001 A 
BRANCH   9  14
ATOM     14  C   UNL A   1      33.631  21.359  26.638  1.00  0.00     0.270 C 
ATOM     15  N   UNL A   1      33.618  20.007  26.428  1.00  0.00    -0.263 N 
ATOM     16  H   UNL A   1      34.453  19.527  26.635  1.00  0.00     0.191 HD
ATOM     17  O   UNL A   1      34.636  21.871  27.134  1.00  0.00    -0.267 OA
BRANCH  15  18
ATOM     18  N   UNL A   1      32.556  19.223  25.955  1.00  0.00    -0.266 N 
ATOM     19  C   UNL A   1      32.733  18.054  25.209  1.00  0.00     0.252 C 
ATOM     20  O   UNL A   1      31.778  17.307  24.993  1.00  0.00    -0.272 OA
ATOM     21  H   UNL A   1      31.637  19.512  26.158  1.00  0.00     0.191 HD
BRANCH  19  22
ATOM     22  C   UNL A   1      34.125  17.753  24.628  1.00  0.00     0.221 C 
BRANCH  22  23
ATOM     23  C   UNL A   1      34.195  16.291  25.036  1.00  0.00     0.072 C 
ATOM     24  N   UNL A   1      34.253  15.078  25.375  1.00  0.00    -0.198 NA
ENDBRANCH  22  23
ENDBRANCH  19  22
ENDBRANCH  15  18
ENDBRANCH   9  14
ENDBRANCH   6   8
ENDBRANCH   5   6
ENDBRANCH   4   5
ENDBRANCH   3   4
ENDBRANCH   2   3
ENDBRANCH   1   2
BRANCH   1  25
ATOM     25  C   UNL A   1      38.516  23.484  26.295  1.00  0.00     0.188 C 
BRANCH  25  26
ATOM     26  O   UNL A   1      39.232  22.272  26.382  1.00  0.00    -0.376 OA
BRANCH  26  27
ATOM     27  C   UNL A   1      38.751  21.174  25.624  1.00  0.00     0.202 C 
BRANCH  27  28
ATOM     28  C   UNL A   1      39.393  19.770  25.715  1.00  0.00     0.261 C 
BRANCH  28  29
ATOM     29  O   UNL A   1      40.474  19.576  26.642  1.00  0.00    -0.460 OA
BRANCH  29  30
ATOM     30  C   UNL A   1      41.734  19.503  26.150  1.00  0.00     0.338 C 
ATOM     31  O   UNL A   1      42.196  18.624  25.443  1.00  0.00    -0.246 OA
BRANCH  30  32
ATOM     32  C   UNL A   1      42.405  20.799  26.416  1.00  0.00     0.060 A 
ATOM     33  C   UNL A   1      42.514  21.254  27.741  1.00  0.00     0.016 A 
ATOM     34  C   UNL A   1      42.996  21.525  25.378  1.00  0.00     0.016 A 
ATOM     35  C   UNL A   1      43.204  22.436  28.028  1.00  0.00     0.010 A 
ATOM     36  C   UNL A   1      43.654  22.726  25.663  1.00  0.00     0.010 A 
ATOM     37  C   UNL A   1      43.743  23.201  26.986  1.00  0.00    -0.014 A 
BRANCH  37  38
ATOM     38  C   UNL A   1      44.200  24.592  27.238  1.00  0.00     0.031 A 
ATOM     39  C   UNL A   1      43.178  25.593  27.703  1.00  0.00     0.074 A 
ATOM     40  C   UNL A   1      45.477  24.973  27.057  1.00  0.00     0.049 A 
ATOM     41  N   UNL A   1      43.299  26.880  27.912  1.00  0.00    -0.248 NA
ATOM     42  C   UNL A   1      41.829  25.066  27.964  1.00  0.00     0.031 C 
ATOM     43  C   UNL A   1      46.575  24.097  26.656  1.00  0.00     0.029 A 
ATOM     44  N   UNL A   1      46.061  26.212  27.177  1.00  0.00    -0.354 N 
ATOM     45  C   UNL A   1      42.042  27.314  28.311  1.00  0.00     0.074 A 
ATOM     46  C   UNL A   1      41.167  26.163  28.293  1.00  0.00     0.031 C 
ATOM     47  C   UNL A   1      47.699  24.830  26.549  1.00  0.00     0.029 A 
ATOM     48  C   UNL A   1      47.391  26.231  26.835  1.00  0.00     0.049 A 
ATOM     49  H   UNL A   1      45.572  27.011  27.481  1.00  0.00     0.167 HD
ATOM     50  C   UNL A   1      41.652  28.562  28.665  1.00  0.00     0.037 A 
ATOM     51  C   UNL A   1      48.249  27.268  26.738  1.00  0.00     0.037 A 
ATOM     52  C   UNL A   1      42.521  29.708  28.678  1.00  0.00     0.049 A 
ATOM     53  C   UNL A   1      47.767  28.665  27.049  1.00  0.00     0.074 A 
ATOM     54  C   UNL A   1      42.226  31.009  29.048  1.00  0.00     0.029 A 
ATOM     55  N   UNL A   1      43.852  29.694  28.288  1.00  0.00    -0.354 N 
ATOM     56  N   UNL A   1      46.588  29.066  27.461  1.00  0.00    -0.248 NA
ATOM     57  C   UNL A   1      48.739  29.757  26.880  1.00  0.00     0.031 C 
ATOM     58  C   UNL A   1      43.359  31.794  28.815  1.00  0.00     0.029 A 
ATOM     59  C   UNL A   1      44.381  30.971  28.372  1.00  0.00     0.049 A 
ATOM     60  H   UNL A   1      44.346  28.895  27.994  1.00  0.00     0.167 HD
ATOM     61  C   UNL A   1      46.688  30.442  27.635  1.00  0.00     0.074 A 
ATOM     62  C   UNL A   1      48.046  30.808  27.294  1.00  0.00     0.031 C 
ATOM     63  C   UNL A   1      45.740  31.323  28.044  1.00  0.00     0.037 A 
BRANCH  50  64
ATOM     64  C   UNL A   1      40.208  28.757  29.029  1.00  0.00     0.064 A 
ATOM     65  C   UNL A   1      39.741  28.584  30.340  1.00  0.00     0.173 A 
ATOM     66  C   UNL A   1      39.281  29.146  28.050  1.00  0.00     0.173 A 
ATOM     67  F   UNL A   1      40.583  28.197  31.311  1.00  0.00    -0.203 F 
ATOM     68  C   UNL A   1      38.396  28.761  30.652  1.00  0.00     0.198 A 
ATOM     69  C   UNL A   1      37.942  29.357  28.372  1.00  0.00     0.198 A 
ATOM     70  F   UNL A   1      39.673  29.328  26.780  1.00  0.00    -0.203 F 
ATOM     71  F   UNL A   1      37.962  28.535  31.900  1.00  0.00    -0.200 F 
ATOM     72  C   UNL A   1      37.500  29.155  29.669  1.00  0.00     0.200 A 
ATOM     73  F   UNL A   1      37.081  29.752  27.423  1.00  0.00    -0.200 F 
ATOM     74  F   UNL A   1      36.206  29.333  29.972  1.00  0.00    -0.200 F 
ENDBRANCH  50  64
BRANCH  51  75
ATOM     75  C   UNL A   1      49.658  27.040  26.314  1.00  0.00     0.064 A 
ATOM     76  C   UNL A   1      50.013  27.037  24.957  1.00  0.00     0.173 A 
ATOM     77  C   UNL A   1      50.671  26.778  27.249  1.00  0.00     0.173 A 
ATOM     78  F   UNL A   1      49.076  27.249  24.020  1.00  0.00    -0.203 F 
ATOM     79  C   UNL A   1      51.318  26.764  24.552  1.00  0.00     0.198 A 
ATOM     80  C   UNL A   1      51.983  26.537  26.845  1.00  0.00     0.198 A 
ATOM     81  F   UNL A   1      50.385  26.758  28.560  1.00  0.00    -0.203 F 
ATOM     82  F   UNL A   1      51.614  26.712  23.246  1.00  0.00    -0.200 F 
ATOM     83  C   UNL A   1      52.304  26.519  25.496  1.00  0.00     0.200 A 
ATOM     84  F   UNL A   1      52.933  26.309  27.761  1.00  0.00    -0.200 F 
ATOM     85  F   UNL A   1      53.557  26.255  25.106  1.00  0.00    -0.200 F 
ENDBRANCH  51  75
BRANCH  63  86
ATOM     86  C   UNL A   1      46.143  32.764  28.198  1.00  0.00     0.064 A 
ATOM     87  C   UNL A   1      46.035  33.683  27.146  1.00  0.00     0.173 A 
ATOM     88  C   UNL A   1      46.599  33.241  29.439  1.00  0.00     0.173 A 
ATOM     89  F   UNL A   1      45.618  33.279  25.936  1.00  0.00    -0.203 F 
ATOM     90  C   UNL A   1      46.390  35.019  27.320  1.00  0.00     0.198 A 
ATOM     91  C   UNL A   1      46.917  34.584  29.620  1.00  0.00     0.198 A 
ATOM     92  F   UNL A   1      46.713  32.407  30.484  1.00  0.00    -0.203 F 
ATOM     93  F   UNL A   1      46.325  35.869  26.285  1.00  0.00    -0.200 F 
ATOM     94  C   UNL A   1      46.822  35.470  28.558  1.00  0.00     0.200 A 
ATOM     95  F   UNL A   1      47.316  35.020  30.823  1.00  0.00    -0.200 F 
ATOM     96  F   UNL A   1      47.151  36.759  28.728  1.00  0.00    -0.200 F 
ENDBRANCH  63  86
ENDBRANCH  37  38
ENDBRANCH  30  32
ENDBRANCH  29  30
ENDBRANCH  28  29
ENDBRANCH  27  28
ENDBRANCH  26  27
ENDBRANCH  25  26
ENDBRANCH   1  25
TORSDOF 21
ENDMDL
