MODEL 1
REMARK VINA RESULT:     -10.1      0.000      0.000
REMARK SMILES COc1ccc(/C=C/C(=O)OCCOCCOCCOC(=O)c2ccc(-c3c4nc(c(-c5c(F)c(F)c(F)c(F)c5F)c5ccc([nH]5)c(-c5c(F)c(F)c(F)c(F)c5F)c5nc(c(-c6c(F)c(F)c(F)c(F)c6F)c6ccc3[nH]6)C=C5)C=C4)cc2)cc1S(=O)(=O)Nc1ccc(F)cc1F
REMARK SMILES IDX 15 1 14 2 13 3 12 4 11 5 9 6 10 7 8 8 7 9 6 10 3 11 4 12
REMARK SMILES IDX 87 13 5 14 86 15 2 16 1 17 88 18 89 19 90 20 91 21 92 23
REMARK SMILES IDX 93 24 98 25 94 26 97 27 99 28 95 29 96 30 16 31 17 32 18 33
REMARK SMILES IDX 19 34 20 35 21 36 22 37 23 38 24 39 85 40 25 41 84 42 26 43
REMARK SMILES IDX 27 44 28 45 78 46 29 47 83 48 77 49 79 50 30 51 82 52 76 53
REMARK SMILES IDX 75 54 31 56 63 57 43 58 62 59 44 60 47 61 61 62 80 63 45 64
REMARK SMILES IDX 46 65 60 67 81 68 48 69 32 70 33 71 41 72 34 73 35 74 39 75
REMARK SMILES IDX 42 76 36 77 37 78 40 79 38 80 64 81 65 82 73 83 66 84 67 85
REMARK SMILES IDX 71 86 74 87 68 88 69 89 72 90 70 91 49 92 50 93 58 94 51 95
REMARK SMILES IDX 52 96 56 97 59 98 53 99 54 100 57 101 55 102
REMARK H PARENT 91 22 79 55 47 66
REMARK Flexibility Score: inf
ROOT
ATOM      1  C   UNL A   1      42.953  22.921  27.264  1.00  0.00     0.188 C 
ENDROOT
BRANCH   1   2
ATOM      2  O   UNL A   1      42.397  24.232  27.241  1.00  0.00    -0.376 OA
BRANCH   2   3
ATOM      3  C   UNL A   1      41.388  24.548  26.286  1.00  0.00     0.202 C 
BRANCH   3   4
ATOM      4  C   UNL A   1      39.920  24.526  26.729  1.00  0.00     0.261 C 
BRANCH   4   5
ATOM      5  O   UNL A   1      39.461  23.257  27.228  1.00  0.00    -0.460 OA
BRANCH   5   6
ATOM      6  C   UNL A   1      39.133  22.364  26.269  1.00  0.00     0.330 C 
ATOM      7  O   UNL A   1      39.853  21.477  25.827  1.00  0.00    -0.247 OA
BRANCH   6   8
ATOM      8  C   UNL A   1      37.736  22.460  25.809  1.00  0.00     0.094 C 
ATOM      9  C   UNL A   1      36.858  23.480  25.837  1.00  0.00     0.015 C 
BRANCH   9  10
ATOM     10  C   UNL A   1      35.516  23.283  25.251  1.00  0.00    -0.024 A 
ATOM     11  C   UNL A   1      33.049  23.656  24.011  1.00  0.00     0.139 A 
ATOM     12  C   UNL A   1      34.150  23.272  23.254  1.00  0.00     0.048 A 
ATOM     13  C   UNL A   1      33.098  23.548  25.396  1.00  0.00     0.130 A 
ATOM     14  C   UNL A   1      35.372  23.051  23.877  1.00  0.00     0.012 A 
ATOM     15  C   UNL A   1      34.354  23.408  26.023  1.00  0.00     0.034 A 
BRANCH  11  16
ATOM     16  O   UNL A   1      32.005  24.159  23.294  1.00  0.00    -0.495 OA
ATOM     17  C   UNL A   1      32.451  25.112  22.324  1.00  0.00     0.278 C 
ENDBRANCH  11  16
BRANCH  13  18
ATOM     18  S   UNL A   1      31.669  23.501  26.450  1.00  0.00     0.265 S 
ATOM     19  O   UNL A   1      30.614  22.842  25.711  1.00  0.00    -0.201 OA
ATOM     20  O   UNL A   1      32.137  22.941  27.705  1.00  0.00    -0.201 OA
BRANCH  18  21
ATOM     21  N   UNL A   1      31.128  25.037  26.865  1.00  0.00    -0.277 N 
ATOM     22  H   UNL A   1      30.664  25.135  27.727  1.00  0.00     0.180 HD
BRANCH  21  23
ATOM     23  C   UNL A   1      31.285  26.210  26.066  1.00  0.00     0.085 A 
ATOM     24  C   UNL A   1      32.507  26.891  26.208  1.00  0.00     0.033 A 
ATOM     25  C   UNL A   1      30.368  26.664  25.111  1.00  0.00     0.150 A 
ATOM     26  C   UNL A   1      32.859  27.904  25.314  1.00  0.00     0.041 A 
ATOM     27  C   UNL A   1      30.711  27.683  24.224  1.00  0.00     0.080 A 
ATOM     28  F   UNL A   1      29.177  26.073  24.962  1.00  0.00    -0.205 F 
ATOM     29  C   UNL A   1      31.965  28.272  24.316  1.00  0.00     0.126 A 
ATOM     30  F   UNL A   1      32.330  29.198  23.420  1.00  0.00    -0.207 F 
ENDBRANCH  21  23
ENDBRANCH  18  21
ENDBRANCH  13  18
ENDBRANCH   9  10
ENDBRANCH   6   8
ENDBRANCH   5   6
ENDBRANCH   4   5
ENDBRANCH   3   4
ENDBRANCH   2   3
ENDBRANCH   1   2
BRANCH   1  31
ATOM     31  C   UNL A   1      44.424  22.705  26.854  1.00  0.00     0.188 C 
BRANCH  31  32
ATOM     32  O   UNL A   1      44.630  22.685  25.457  1.00  0.00    -0.376 OA
BRANCH  32  33
ATOM     33  C   UNL A   1      44.881  23.925  24.813  1.00  0.00     0.202 C 
BRANCH  33  34
ATOM     34  C   UNL A   1      46.298  24.522  24.850  1.00  0.00     0.261 C 
BRANCH  34  35
ATOM     35  O   UNL A   1      46.533  25.581  25.789  1.00  0.00    -0.460 OA
BRANCH  35  36
ATOM     36  C   UNL A   1      46.143  26.824  25.429  1.00  0.00     0.338 C 
ATOM     37  O   UNL A   1      46.366  27.394  24.381  1.00  0.00    -0.246 OA
BRANCH  36  38
ATOM     38  C   UNL A   1      45.245  27.335  26.488  1.00  0.00     0.060 A 
ATOM     39  C   UNL A   1      45.045  28.716  26.603  1.00  0.00     0.016 A 
ATOM     40  C   UNL A   1      44.615  26.452  27.368  1.00  0.00     0.016 A 
ATOM     41  C   UNL A   1      44.228  29.219  27.620  1.00  0.00     0.010 A 
ATOM     42  C   UNL A   1      43.813  26.958  28.395  1.00  0.00     0.010 A 
ATOM     43  C   UNL A   1      43.637  28.345  28.542  1.00  0.00    -0.014 A 
BRANCH  43  44
ATOM     44  C   UNL A   1      42.974  28.881  29.756  1.00  0.00     0.031 A 
ATOM     45  C   UNL A   1      41.560  29.379  29.644  1.00  0.00     0.074 A 
ATOM     46  C   UNL A   1      43.611  28.925  30.939  1.00  0.00     0.049 A 
ATOM     47  N   UNL A   1      40.795  29.933  30.550  1.00  0.00    -0.248 NA
ATOM     48  C   UNL A   1      40.922  29.231  28.326  1.00  0.00     0.031 C 
ATOM     49  C   UNL A   1      44.967  28.441  31.186  1.00  0.00     0.029 A 
ATOM     50  N   UNL A   1      43.197  29.412  32.155  1.00  0.00    -0.354 N 
ATOM     51  C   UNL A   1      39.591  30.201  29.913  1.00  0.00     0.074 A 
ATOM     52  C   UNL A   1      39.734  29.776  28.537  1.00  0.00     0.031 C 
ATOM     53  C   UNL A   1      45.280  28.665  32.476  1.00  0.00     0.029 A 
ATOM     54  C   UNL A   1      44.158  29.335  33.133  1.00  0.00     0.049 A 
ATOM     55  H   UNL A   1      42.298  29.779  32.310  1.00  0.00     0.167 HD
ATOM     56  C   UNL A   1      38.463  30.743  30.430  1.00  0.00     0.037 A 
ATOM     57  C   UNL A   1      44.137  29.779  34.405  1.00  0.00     0.037 A 
ATOM     58  C   UNL A   1      38.323  31.175  31.795  1.00  0.00     0.049 A 
ATOM     59  C   UNL A   1      42.901  30.461  34.933  1.00  0.00     0.074 A 
ATOM     60  C   UNL A   1      37.218  31.727  32.418  1.00  0.00     0.029 A 
ATOM     61  N   UNL A   1      39.331  31.117  32.747  1.00  0.00    -0.354 N 
ATOM     62  N   UNL A   1      41.755  30.681  34.336  1.00  0.00    -0.248 NA
ATOM     63  C   UNL A   1      42.957  30.955  36.317  1.00  0.00     0.031 C 
ATOM     64  C   UNL A   1      37.572  32.047  33.734  1.00  0.00     0.029 A 
ATOM     65  C   UNL A   1      38.881  31.648  33.945  1.00  0.00     0.049 A 
ATOM     66  H   UNL A   1      40.233  30.753  32.593  1.00  0.00     0.167 HD
ATOM     67  C   UNL A   1      40.946  31.308  35.276  1.00  0.00     0.074 A 
ATOM     68  C   UNL A   1      41.728  31.425  36.489  1.00  0.00     0.031 C 
ATOM     69  C   UNL A   1      39.668  31.746  35.148  1.00  0.00     0.037 A 
BRANCH  56  70
ATOM     70  C   UNL A   1      37.298  30.923  29.502  1.00  0.00     0.064 A 
ATOM     71  C   UNL A   1      36.431  29.863  29.195  1.00  0.00     0.173 A 
ATOM     72  C   UNL A   1      37.036  32.173  28.924  1.00  0.00     0.173 A 
ATOM     73  F   UNL A   1      36.647  28.643  29.709  1.00  0.00    -0.203 F 
ATOM     74  C   UNL A   1      35.362  30.042  28.321  1.00  0.00     0.198 A 
ATOM     75  C   UNL A   1      35.950  32.357  28.074  1.00  0.00     0.198 A 
ATOM     76  F   UNL A   1      37.833  33.220  29.187  1.00  0.00    -0.203 F 
ATOM     77  F   UNL A   1      34.576  29.004  28.003  1.00  0.00    -0.200 F 
ATOM     78  C   UNL A   1      35.119  31.290  27.766  1.00  0.00     0.200 A 
ATOM     79  F   UNL A   1      35.709  33.565  27.546  1.00  0.00    -0.200 F 
ATOM     80  F   UNL A   1      34.087  31.463  26.928  1.00  0.00    -0.200 F 
ENDBRANCH  56  70
BRANCH  57  81
ATOM     81  C   UNL A   1      45.330  29.603  35.275  1.00  0.00     0.064 A 
ATOM     82  C   UNL A   1      46.356  30.557  35.294  1.00  0.00     0.173 A 
ATOM     83  C   UNL A   1      45.483  28.465  36.082  1.00  0.00     0.173 A 
ATOM     84  F   UNL A   1      46.270  31.647  34.517  1.00  0.00    -0.203 F 
ATOM     85  C   UNL A   1      47.497  30.373  36.072  1.00  0.00     0.198 A 
ATOM     86  C   UNL A   1      46.612  28.295  36.881  1.00  0.00     0.198 A 
ATOM     87  F   UNL A   1      44.533  27.518  36.094  1.00  0.00    -0.203 F 
ATOM     88  F   UNL A   1      48.486  31.279  36.033  1.00  0.00    -0.200 F 
ATOM     89  C   UNL A   1      47.622  29.246  36.869  1.00  0.00     0.200 A 
ATOM     90  F   UNL A   1      46.726  27.207  37.654  1.00  0.00    -0.200 F 
ATOM     91  F   UNL A   1      48.721  29.069  37.616  1.00  0.00    -0.200 F 
ENDBRANCH  57  81
BRANCH  69  92
ATOM     92  C   UNL A   1      39.019  32.351  36.359  1.00  0.00     0.064 A 
ATOM     93  C   UNL A   1      38.176  31.604  37.196  1.00  0.00     0.173 A 
ATOM     94  C   UNL A   1      39.280  33.684  36.712  1.00  0.00     0.173 A 
ATOM     95  F   UNL A   1      37.884  30.329  36.896  1.00  0.00    -0.203 F 
ATOM     96  C   UNL A   1      37.602  32.176  38.328  1.00  0.00     0.198 A 
ATOM     97  C   UNL A   1      38.727  34.244  37.860  1.00  0.00     0.198 A 
ATOM     98  F   UNL A   1      40.084  34.440  35.950  1.00  0.00    -0.203 F 
ATOM     99  F   UNL A   1      36.764  31.458  39.088  1.00  0.00    -0.200 F 
ATOM    100  C   UNL A   1      37.883  33.493  38.663  1.00  0.00     0.200 A 
ATOM    101  F   UNL A   1      39.011  35.512  38.189  1.00  0.00    -0.200 F 
ATOM    102  F   UNL A   1      37.334  34.040  39.757  1.00  0.00    -0.200 F 
ENDBRANCH  69  92
ENDBRANCH  43  44
ENDBRANCH  36  38
ENDBRANCH  35  36
ENDBRANCH  34  35
ENDBRANCH  33  34
ENDBRANCH  32  33
ENDBRANCH  31  32
ENDBRANCH   1  31
TORSDOF 22
ENDMDL
MODEL 2
REMARK VINA RESULT:     -10.1      1.329      2.372
REMARK SMILES COc1ccc(/C=C/C(=O)OCCOCCOCCOC(=O)c2ccc(-c3c4nc(c(-c5c(F)c(F)c(F)c(F)c5F)c5ccc([nH]5)c(-c5c(F)c(F)c(F)c(F)c5F)c5nc(c(-c6c(F)c(F)c(F)c(F)c6F)c6ccc3[nH]6)C=C5)C=C4)cc2)cc1S(=O)(=O)Nc1ccc(F)cc1F
REMARK SMILES IDX 15 1 14 2 13 3 12 4 11 5 9 6 10 7 8 8 7 9 6 10 3 11 4 12
REMARK SMILES IDX 87 13 5 14 86 15 2 16 1 17 88 18 89 19 90 20 91 21 92 23
REMARK SMILES IDX 93 24 98 25 94 26 97 27 99 28 95 29 96 30 16 31 17 32 18 33
REMARK SMILES IDX 19 34 20 35 21 36 22 37 23 38 24 39 85 40 25 41 84 42 26 43
REMARK SMILES IDX 27 44 28 45 78 46 29 47 83 48 77 49 79 50 30 51 82 52 76 53
REMARK SMILES IDX 75 54 31 56 63 57 43 58 62 59 44 60 47 61 61 62 80 63 45 64
REMARK SMILES IDX 46 65 60 67 81 68 48 69 32 70 33 71 41 72 34 73 35 74 39 75
REMARK SMILES IDX 42 76 36 77 37 78 40 79 38 80 64 81 65 82 73 83 66 84 67 85
REMARK SMILES IDX 71 86 74 87 68 88 69 89 72 90 70 91 49 92 50 93 58 94 51 95
REMARK SMILES IDX 52 96 56 97 59 98 53 99 54 100 57 101 55 102
REMARK H PARENT 91 22 79 55 47 66
REMARK Flexibility Score: inf
ROOT
ATOM      1  C   UNL A   1      43.440  23.027  26.768  1.00  0.00     0.188 C 
ENDROOT
BRANCH   1   2
ATOM      2  O   UNL A   1      42.103  23.222  27.219  1.00  0.00    -0.376 OA
BRANCH   2   3
ATOM      3  C   UNL A   1      41.405  22.140  27.829  1.00  0.00     0.202 C 
BRANCH   3   4
ATOM      4  C   UNL A   1      40.311  21.423  27.029  1.00  0.00     0.261 C 
BRANCH   4   5
ATOM      5  O   UNL A   1      39.529  22.279  26.176  1.00  0.00    -0.460 OA
BRANCH   5   6
ATOM      6  C   UNL A   1      38.491  21.665  25.568  1.00  0.00     0.330 C 
ATOM      7  O   UNL A   1      38.436  20.486  25.243  1.00  0.00    -0.247 OA
BRANCH   6   8
ATOM      8  C   UNL A   1      37.310  22.526  25.378  1.00  0.00     0.094 C 
ATOM      9  C   UNL A   1      36.159  22.324  24.711  1.00  0.00     0.015 C 
BRANCH   9  10
ATOM     10  C   UNL A   1      35.123  23.377  24.738  1.00  0.00    -0.024 A 
ATOM     11  C   UNL A   1      32.715  24.769  24.895  1.00  0.00     0.139 A 
ATOM     12  C   UNL A   1      33.479  24.583  26.041  1.00  0.00     0.048 A 
ATOM     13  C   UNL A   1      33.285  24.548  23.647  1.00  0.00     0.130 A 
ATOM     14  C   UNL A   1      34.697  23.920  25.957  1.00  0.00     0.012 A 
ATOM     15  C   UNL A   1      34.479  23.801  23.568  1.00  0.00     0.034 A 
BRANCH  11  16
ATOM     16  O   UNL A   1      31.419  25.124  25.120  1.00  0.00    -0.495 OA
ATOM     17  C   UNL A   1      30.873  24.420  26.239  1.00  0.00     0.278 C 
ENDBRANCH  11  16
BRANCH  13  18
ATOM     18  S   UNL A   1      32.652  25.205  22.123  1.00  0.00     0.265 S 
ATOM     19  O   UNL A   1      33.324  24.511  21.046  1.00  0.00    -0.201 OA
ATOM     20  O   UNL A   1      31.208  25.133  22.245  1.00  0.00    -0.201 OA
BRANCH  18  21
ATOM     21  N   UNL A   1      32.966  26.848  21.954  1.00  0.00    -0.277 N 
ATOM     22  H   UNL A   1      33.390  27.143  21.116  1.00  0.00     0.180 HD
BRANCH  21  23
ATOM     23  C   UNL A   1      32.667  27.849  22.927  1.00  0.00     0.085 A 
ATOM     24  C   UNL A   1      31.310  27.996  23.261  1.00  0.00     0.033 A 
ATOM     25  C   UNL A   1      33.617  28.609  23.618  1.00  0.00     0.150 A 
ATOM     26  C   UNL A   1      30.932  28.771  24.359  1.00  0.00     0.041 A 
ATOM     27  C   UNL A   1      33.244  29.394  24.708  1.00  0.00     0.080 A 
ATOM     28  F   UNL A   1      34.918  28.533  23.313  1.00  0.00    -0.205 F 
ATOM     29  C   UNL A   1      31.908  29.443  25.085  1.00  0.00     0.126 A 
ATOM     30  F   UNL A   1      31.553  30.133  26.176  1.00  0.00    -0.207 F 
ENDBRANCH  21  23
ENDBRANCH  18  21
ENDBRANCH  13  18
ENDBRANCH   9  10
ENDBRANCH   6   8
ENDBRANCH   5   6
ENDBRANCH   4   5
ENDBRANCH   3   4
ENDBRANCH   2   3
ENDBRANCH   1   2
BRANCH   1  31
ATOM     31  C   UNL A   1      43.727  22.025  25.631  1.00  0.00     0.188 C 
BRANCH  31  32
ATOM     32  O   UNL A   1      44.676  22.484  24.692  1.00  0.00    -0.376 OA
BRANCH  32  33
ATOM     33  C   UNL A   1      45.965  22.829  25.177  1.00  0.00     0.202 C 
BRANCH  33  34
ATOM     34  C   UNL A   1      46.395  24.306  25.195  1.00  0.00     0.261 C 
BRANCH  34  35
ATOM     35  O   UNL A   1      45.401  25.276  24.828  1.00  0.00    -0.460 OA
BRANCH  35  36
ATOM     36  C   UNL A   1      45.743  26.579  24.928  1.00  0.00     0.338 C 
ATOM     37  O   UNL A   1      46.486  27.207  24.200  1.00  0.00    -0.246 OA
BRANCH  36  38
ATOM     38  C   UNL A   1      44.925  27.175  26.007  1.00  0.00     0.060 A 
ATOM     39  C   UNL A   1      45.190  28.487  26.417  1.00  0.00     0.016 A 
ATOM     40  C   UNL A   1      43.910  26.433  26.615  1.00  0.00     0.016 A 
ATOM     41  C   UNL A   1      44.450  29.053  27.459  1.00  0.00     0.010 A 
ATOM     42  C   UNL A   1      43.184  26.995  27.669  1.00  0.00     0.010 A 
ATOM     43  C   UNL A   1      43.467  28.298  28.113  1.00  0.00    -0.014 A 
BRANCH  43  44
ATOM     44  C   UNL A   1      42.852  28.802  29.366  1.00  0.00     0.031 A 
ATOM     45  C   UNL A   1      41.446  29.331  29.316  1.00  0.00     0.074 A 
ATOM     46  C   UNL A   1      43.526  28.790  30.530  1.00  0.00     0.049 A 
ATOM     47  N   UNL A   1      40.721  29.866  30.264  1.00  0.00    -0.248 NA
ATOM     48  C   UNL A   1      40.766  29.243  28.014  1.00  0.00     0.031 C 
ATOM     49  C   UNL A   1      44.879  28.271  30.718  1.00  0.00     0.029 A 
ATOM     50  N   UNL A   1      43.159  29.240  31.774  1.00  0.00    -0.354 N 
ATOM     51  C   UNL A   1      39.504  30.180  29.676  1.00  0.00     0.074 A 
ATOM     52  C   UNL A   1      39.596  29.803  28.281  1.00  0.00     0.031 C 
ATOM     53  C   UNL A   1      45.235  28.442  32.004  1.00  0.00     0.029 A 
ATOM     54  C   UNL A   1      44.148  29.109  32.719  1.00  0.00     0.049 A 
ATOM     55  H   UNL A   1      42.272  29.619  31.971  1.00  0.00     0.167 HD
ATOM     56  C   UNL A   1      38.403  30.724  30.246  1.00  0.00     0.037 A 
ATOM     57  C   UNL A   1      44.174  29.507  34.007  1.00  0.00     0.037 A 
ATOM     58  C   UNL A   1      38.313  31.109  31.630  1.00  0.00     0.049 A 
ATOM     59  C   UNL A   1      42.968  30.192  34.597  1.00  0.00     0.074 A 
ATOM     60  C   UNL A   1      37.239  31.659  32.306  1.00  0.00     0.029 A 
ATOM     61  N   UNL A   1      39.348  30.997  32.547  1.00  0.00    -0.354 N 
ATOM     62  N   UNL A   1      41.809  30.457  34.043  1.00  0.00    -0.248 NA
ATOM     63  C   UNL A   1      43.076  30.634  35.995  1.00  0.00     0.031 C 
ATOM     64  C   UNL A   1      37.639  31.924  33.621  1.00  0.00     0.029 A 
ATOM     65  C   UNL A   1      38.946  31.491  33.777  1.00  0.00     0.049 A 
ATOM     66  H   UNL A   1      40.238  30.621  32.352  1.00  0.00     0.167 HD
ATOM     67  C   UNL A   1      41.042  31.064  35.030  1.00  0.00     0.074 A 
ATOM     68  C   UNL A   1      41.863  31.121  36.222  1.00  0.00     0.031 C 
ATOM     69  C   UNL A   1      39.771  31.530  34.957  1.00  0.00     0.037 A 
BRANCH  56  70
ATOM     70  C   UNL A   1      37.214  30.960  29.361  1.00  0.00     0.064 A 
ATOM     71  C   UNL A   1      36.287  29.943  29.087  1.00  0.00     0.173 A 
ATOM     72  C   UNL A   1      36.992  32.223  28.793  1.00  0.00     0.173 A 
ATOM     73  F   UNL A   1      36.464  28.714  29.594  1.00  0.00    -0.203 F 
ATOM     74  C   UNL A   1      35.196  30.174  28.254  1.00  0.00     0.198 A 
ATOM     75  C   UNL A   1      35.884  32.459  27.983  1.00  0.00     0.198 A 
ATOM     76  F   UNL A   1      37.846  33.230  29.026  1.00  0.00    -0.203 F 
ATOM     77  F   UNL A   1      34.351  29.175  27.965  1.00  0.00    -0.200 F 
ATOM     78  C   UNL A   1      34.993  31.433  27.707  1.00  0.00     0.200 A 
ATOM     79  F   UNL A   1      35.682  33.678  27.464  1.00  0.00    -0.200 F 
ATOM     80  F   UNL A   1      33.940  31.656  26.907  1.00  0.00    -0.200 F 
ENDBRANCH  56  70
BRANCH  57  81
ATOM     81  C   UNL A   1      45.389  29.276  34.832  1.00  0.00     0.064 A 
ATOM     82  C   UNL A   1      45.524  28.115  35.607  1.00  0.00     0.173 A 
ATOM     83  C   UNL A   1      46.423  30.222  34.889  1.00  0.00     0.173 A 
ATOM     84  F   UNL A   1      44.548  27.196  35.610  1.00  0.00    -0.203 F 
ATOM     85  C   UNL A   1      46.639  27.918  36.419  1.00  0.00     0.198 A 
ATOM     86  C   UNL A   1      47.551  30.010  35.679  1.00  0.00     0.198 A 
ATOM     87  F   UNL A   1      46.339  31.353  34.173  1.00  0.00    -0.203 F 
ATOM     88  F   UNL A   1      46.721  26.821  37.186  1.00  0.00    -0.200 F 
ATOM     89  C   UNL A   1      47.654  28.861  36.450  1.00  0.00     0.200 A 
ATOM     90  F   UNL A   1      48.532  30.922  35.702  1.00  0.00    -0.200 F 
ATOM     91  F   UNL A   1      48.726  28.671  37.232  1.00  0.00    -0.200 F 
ENDBRANCH  57  81
BRANCH  69  92
ATOM     92  C   UNL A   1      39.171  32.103  36.209  1.00  0.00     0.064 A 
ATOM     93  C   UNL A   1      39.466  33.404  36.642  1.00  0.00     0.173 A 
ATOM     94  C   UNL A   1      38.251  31.354  36.961  1.00  0.00     0.173 A 
ATOM     95  F   UNL A   1      40.349  34.156  35.966  1.00  0.00    -0.203 F 
ATOM     96  C   UNL A   1      38.882  33.926  37.793  1.00  0.00     0.198 A 
ATOM     97  C   UNL A   1      37.647  31.890  38.095  1.00  0.00     0.198 A 
ATOM     98  F   UNL A   1      37.928  30.107  36.587  1.00  0.00    -0.203 F 
ATOM     99  F   UNL A   1      39.213  35.154  38.214  1.00  0.00    -0.200 F 
ATOM    100  C   UNL A   1      37.968  33.171  38.515  1.00  0.00     0.200 A 
ATOM    101  F   UNL A   1      36.754  31.164  38.782  1.00  0.00    -0.200 F 
ATOM    102  F   UNL A   1      37.401  33.677  39.618  1.00  0.00    -0.200 F 
ENDBRANCH  69  92
ENDBRANCH  43  44
ENDBRANCH  36  38
ENDBRANCH  35  36
ENDBRANCH  34  35
ENDBRANCH  33  34
ENDBRANCH  32  33
ENDBRANCH  31  32
ENDBRANCH   1  31
TORSDOF 22
ENDMDL
MODEL 3
REMARK VINA RESULT:     -10.0      6.214     11.555
REMARK SMILES COc1ccc(/C=C/C(=O)OCCOCCOCCOC(=O)c2ccc(-c3c4nc(c(-c5c(F)c(F)c(F)c(F)c5F)c5ccc([nH]5)c(-c5c(F)c(F)c(F)c(F)c5F)c5nc(c(-c6c(F)c(F)c(F)c(F)c6F)c6ccc3[nH]6)C=C5)C=C4)cc2)cc1S(=O)(=O)Nc1ccc(F)cc1F
REMARK SMILES IDX 15 1 14 2 13 3 12 4 11 5 9 6 10 7 8 8 7 9 6 10 3 11 4 12
REMARK SMILES IDX 87 13 5 14 86 15 2 16 1 17 88 18 89 19 90 20 91 21 92 23
REMARK SMILES IDX 93 24 98 25 94 26 97 27 99 28 95 29 96 30 16 31 17 32 18 33
REMARK SMILES IDX 19 34 20 35 21 36 22 37 23 38 24 39 85 40 25 41 84 42 26 43
REMARK SMILES IDX 27 44 28 45 78 46 29 47 83 48 77 49 79 50 30 51 82 52 76 53
REMARK SMILES IDX 75 54 31 56 63 57 43 58 62 59 44 60 47 61 61 62 80 63 45 64
REMARK SMILES IDX 46 65 60 67 81 68 48 69 32 70 33 71 41 72 34 73 35 74 39 75
REMARK SMILES IDX 42 76 36 77 37 78 40 79 38 80 64 81 65 82 73 83 66 84 67 85
REMARK SMILES IDX 71 86 74 87 68 88 69 89 72 90 70 91 49 92 50 93 58 94 51 95
REMARK SMILES IDX 52 96 56 97 59 98 53 99 54 100 57 101 55 102
REMARK H PARENT 91 22 79 55 47 66
REMARK Flexibility Score: inf
ROOT
ATOM      1  C   UNL A   1      39.187  32.104  41.814  1.00  0.00     0.188 C 
ENDROOT
BRANCH   1   2
ATOM      2  O   UNL A   1      38.512  31.495  40.718  1.00  0.00    -0.376 OA
BRANCH   2   3
ATOM      3  C   UNL A   1      37.152  31.831  40.459  1.00  0.00     0.202 C 
BRANCH   3   4
ATOM      4  C   UNL A   1      36.782  32.409  39.087  1.00  0.00     0.261 C 
BRANCH   4   5
ATOM      5  O   UNL A   1      37.215  31.619  37.965  1.00  0.00    -0.460 OA
BRANCH   5   6
ATOM      6  C   UNL A   1      38.209  32.175  37.240  1.00  0.00     0.330 C 
ATOM      7  O   UNL A   1      39.398  32.194  37.533  1.00  0.00    -0.247 OA
BRANCH   6   8
ATOM      8  C   UNL A   1      37.773  32.724  35.942  1.00  0.00     0.094 C 
ATOM      9  C   UNL A   1      37.010  33.790  35.638  1.00  0.00     0.015 C 
BRANCH   9  10
ATOM     10  C   UNL A   1      36.778  34.119  34.216  1.00  0.00    -0.024 A 
ATOM     11  C   UNL A   1      36.007  34.059  31.540  1.00  0.00     0.139 A 
ATOM     12  C   UNL A   1      35.170  34.640  32.485  1.00  0.00     0.048 A 
ATOM     13  C   UNL A   1      37.333  33.800  31.865  1.00  0.00     0.130 A 
ATOM     14  C   UNL A   1      35.569  34.703  33.814  1.00  0.00     0.012 A 
ATOM     15  C   UNL A   1      37.709  33.783  33.225  1.00  0.00     0.034 A 
BRANCH  11  16
ATOM     16  O   UNL A   1      35.409  33.751  30.355  1.00  0.00    -0.495 OA
ATOM     17  C   UNL A   1      34.826  32.445  30.390  1.00  0.00     0.278 C 
ENDBRANCH  11  16
BRANCH  13  18
ATOM     18  S   UNL A   1      38.629  33.552  30.676  1.00  0.00     0.265 S 
ATOM     19  O   UNL A   1      38.585  34.669  29.757  1.00  0.00    -0.201 OA
ATOM     20  O   UNL A   1      39.825  33.301  31.458  1.00  0.00    -0.201 OA
BRANCH  18  21
ATOM     21  N   UNL A   1      38.420  32.142  29.785  1.00  0.00    -0.277 N 
ATOM     22  H   UNL A   1      38.119  32.237  28.853  1.00  0.00     0.180 HD
BRANCH  21  23
ATOM     23  C   UNL A   1      38.643  30.818  30.272  1.00  0.00     0.085 A 
ATOM     24  C   UNL A   1      37.597  30.256  31.023  1.00  0.00     0.033 A 
ATOM     25  C   UNL A   1      39.764  30.032  29.983  1.00  0.00     0.150 A 
ATOM     26  C   UNL A   1      37.610  28.897  31.345  1.00  0.00     0.041 A 
ATOM     27  C   UNL A   1      39.787  28.678  30.312  1.00  0.00     0.080 A 
ATOM     28  F   UNL A   1      40.802  30.533  29.302  1.00  0.00    -0.205 F 
ATOM     29  C   UNL A   1      38.696  28.118  30.964  1.00  0.00     0.126 A 
ATOM     30  F   UNL A   1      38.677  26.803  31.216  1.00  0.00    -0.207 F 
ENDBRANCH  21  23
ENDBRANCH  18  21
ENDBRANCH  13  18
ENDBRANCH   9  10
ENDBRANCH   6   8
ENDBRANCH   5   6
ENDBRANCH   4   5
ENDBRANCH   3   4
ENDBRANCH   2   3
ENDBRANCH   1   2
BRANCH   1  31
ATOM     31  C   UNL A   1      40.694  32.420  41.706  1.00  0.00     0.188 C 
BRANCH  31  32
ATOM     32  O   UNL A   1      41.009  33.361  40.702  1.00  0.00    -0.376 OA
BRANCH  32  33
ATOM     33  C   UNL A   1      40.303  34.591  40.710  1.00  0.00     0.202 C 
BRANCH  33  34
ATOM     34  C   UNL A   1      41.087  35.912  40.806  1.00  0.00     0.261 C 
BRANCH  34  35
ATOM     35  O   UNL A   1      41.552  36.481  39.574  1.00  0.00    -0.460 OA
BRANCH  35  36
ATOM     36  C   UNL A   1      40.638  36.670  38.596  1.00  0.00     0.338 C 
ATOM     37  O   UNL A   1      39.650  37.374  38.634  1.00  0.00    -0.246 OA
BRANCH  36  38
ATOM     38  C   UNL A   1      41.132  35.980  37.384  1.00  0.00     0.060 A 
ATOM     39  C   UNL A   1      40.219  35.625  36.383  1.00  0.00     0.016 A 
ATOM     40  C   UNL A   1      42.488  35.678  37.246  1.00  0.00     0.016 A 
ATOM     41  C   UNL A   1      40.662  34.942  35.247  1.00  0.00     0.010 A 
ATOM     42  C   UNL A   1      42.926  34.979  36.117  1.00  0.00     0.010 A 
ATOM     43  C   UNL A   1      42.012  34.585  35.125  1.00  0.00    -0.014 A 
BRANCH  43  44
ATOM     44  C   UNL A   1      42.442  33.656  34.050  1.00  0.00     0.031 A 
ATOM     45  C   UNL A   1      42.734  34.220  32.687  1.00  0.00     0.074 A 
ATOM     46  C   UNL A   1      42.573  32.338  34.276  1.00  0.00     0.049 A 
ATOM     47  N   UNL A   1      43.075  33.603  31.585  1.00  0.00    -0.248 NA
ATOM     48  C   UNL A   1      42.626  35.681  32.552  1.00  0.00     0.031 C 
ATOM     49  C   UNL A   1      42.355  31.675  35.560  1.00  0.00     0.029 A 
ATOM     50  N   UNL A   1      42.915  31.319  33.422  1.00  0.00    -0.354 N 
ATOM     51  C   UNL A   1      43.220  34.597  30.627  1.00  0.00     0.074 A 
ATOM     52  C   UNL A   1      42.902  35.855  31.269  1.00  0.00     0.031 C 
ATOM     53  C   UNL A   1      42.558  30.354  35.406  1.00  0.00     0.029 A 
ATOM     54  C   UNL A   1      42.889  30.077  34.009  1.00  0.00     0.049 A 
ATOM     55  H   UNL A   1      43.156  31.464  32.478  1.00  0.00     0.167 HD
ATOM     56  C   UNL A   1      43.594  34.476  29.331  1.00  0.00     0.037 A 
ATOM     57  C   UNL A   1      43.087  28.858  33.469  1.00  0.00     0.037 A 
ATOM     58  C   UNL A   1      43.899  33.225  28.689  1.00  0.00     0.049 A 
ATOM     59  C   UNL A   1      43.415  28.741  32.002  1.00  0.00     0.074 A 
ATOM     60  C   UNL A   1      44.298  32.998  27.384  1.00  0.00     0.029 A 
ATOM     61  N   UNL A   1      43.825  31.984  29.306  1.00  0.00    -0.354 N 
ATOM     62  N   UNL A   1      43.582  29.687  31.110  1.00  0.00    -0.248 NA
ATOM     63  C   UNL A   1      43.582  27.381  31.467  1.00  0.00     0.031 C 
ATOM     64  C   UNL A   1      44.418  31.616  27.198  1.00  0.00     0.029 A 
ATOM     65  C   UNL A   1      44.145  30.986  28.400  1.00  0.00     0.049 A 
ATOM     66  H   UNL A   1      43.581  31.836  30.249  1.00  0.00     0.167 HD
ATOM     67  C   UNL A   1      43.904  29.042  29.921  1.00  0.00     0.074 A 
ATOM     68  C   UNL A   1      43.919  27.623  30.208  1.00  0.00     0.031 C 
ATOM     69  C   UNL A   1      44.167  29.578  28.704  1.00  0.00     0.037 A 
BRANCH  56  70
ATOM     70  C   UNL A   1      43.665  35.733  28.515  1.00  0.00     0.064 A 
ATOM     71  C   UNL A   1      42.518  36.308  27.949  1.00  0.00     0.173 A 
ATOM     72  C   UNL A   1      44.893  36.377  28.309  1.00  0.00     0.173 A 
ATOM     73  F   UNL A   1      41.321  35.722  28.103  1.00  0.00    -0.203 F 
ATOM     74  C   UNL A   1      42.601  37.468  27.183  1.00  0.00     0.198 A 
ATOM     75  C   UNL A   1      44.970  37.553  27.567  1.00  0.00     0.198 A 
ATOM     76  F   UNL A   1      46.020  35.870  28.831  1.00  0.00    -0.203 F 
ATOM     77  F   UNL A   1      41.500  37.973  26.610  1.00  0.00    -0.200 F 
ATOM     78  C   UNL A   1      43.827  38.092  26.998  1.00  0.00     0.200 A 
ATOM     79  F   UNL A   1      46.152  38.161  27.397  1.00  0.00    -0.200 F 
ATOM     80  F   UNL A   1      43.906  39.211  26.263  1.00  0.00    -0.200 F 
ENDBRANCH  56  70
BRANCH  57  81
ATOM     81  C   UNL A   1      42.975  27.641  34.315  1.00  0.00     0.064 A 
ATOM     82  C   UNL A   1      41.748  26.982  34.470  1.00  0.00     0.173 A 
ATOM     83  C   UNL A   1      44.082  27.131  35.010  1.00  0.00     0.173 A 
ATOM     84  F   UNL A   1      40.655  27.449  33.851  1.00  0.00    -0.203 F 
ATOM     85  C   UNL A   1      41.629  25.869  35.300  1.00  0.00     0.198 A 
ATOM     86  C   UNL A   1      43.968  26.002  35.817  1.00  0.00     0.198 A 
ATOM     87  F   UNL A   1      45.277  27.730  34.901  1.00  0.00    -0.203 F 
ATOM     88  F   UNL A   1      40.432  25.286  35.468  1.00  0.00    -0.200 F 
ATOM     89  C   UNL A   1      42.738  25.376  35.969  1.00  0.00     0.200 A 
ATOM     90  F   UNL A   1      45.044  25.525  36.457  1.00  0.00    -0.200 F 
ATOM     91  F   UNL A   1      42.623  24.306  36.767  1.00  0.00    -0.200 F 
ENDBRANCH  57  81
BRANCH  69  92
ATOM     92  C   UNL A   1      44.537  28.632  27.597  1.00  0.00     0.064 A 
ATOM     93  C   UNL A   1      45.857  28.198  27.407  1.00  0.00     0.173 A 
ATOM     94  C   UNL A   1      43.547  28.117  26.744  1.00  0.00     0.173 A 
ATOM     95  F   UNL A   1      46.841  28.670  28.187  1.00  0.00    -0.203 F 
ATOM     96  C   UNL A   1      46.176  27.303  26.389  1.00  0.00     0.198 A 
ATOM     97  C   UNL A   1      43.866  27.201  25.746  1.00  0.00     0.198 A 
ATOM     98  F   UNL A   1      42.268  28.495  26.887  1.00  0.00    -0.203 F 
ATOM     99  F   UNL A   1      47.451  26.936  26.197  1.00  0.00    -0.200 F 
ATOM    100  C   UNL A   1      45.180  26.799  25.565  1.00  0.00     0.200 A 
ATOM    101  F   UNL A   1      42.900  26.706  24.960  1.00  0.00    -0.200 F 
ATOM    102  F   UNL A   1      45.489  25.932  24.591  1.00  0.00    -0.200 F 
ENDBRANCH  69  92
ENDBRANCH  43  44
ENDBRANCH  36  38
ENDBRANCH  35  36
ENDBRANCH  34  35
ENDBRANCH  33  34
ENDBRANCH  32  33
ENDBRANCH  31  32
ENDBRANCH   1  31
TORSDOF 22
ENDMDL
