MODEL 1
REMARK VINA RESULT:     -11.5      0.000      0.000
REMARK SMILES C[C@H](C[N@H+]1[C@@H]2CC[C@H]1C[C@H](CC(=O)OCCOCCOCCOC(=O)c1ccc(-c3c4nc(c(-c5c(F)c(F)c(F)c(F)c5F)c5ccc([nH]5)c(-c5c(F)c(F)c(F)c(F)c5F)c5nc(c(-c6c(F)c(F)c(F)c(F)c6F)c6ccc3[nH]6)C=C5)C=C4)cc1)C2)c1ccccc1
REMARK SMILES IDX 18 1 17 2 16 3 15 4 14 5 12 6 13 7 11 8 10 9 4 10 5 11 8 12
REMARK SMILES IDX 6 14 89 15 7 16 9 17 3 18 2 19 1 20 90 21 91 22 95 23 92 24
REMARK SMILES IDX 94 25 93 26 19 27 20 28 21 29 22 30 23 31 24 32 25 33 26 34
REMARK SMILES IDX 27 35 88 36 28 37 87 38 29 39 30 40 31 41 81 42 32 43 86 44
REMARK SMILES IDX 80 45 82 46 33 47 85 48 79 49 78 50 34 52 66 53 46 54 65 55
REMARK SMILES IDX 47 56 50 57 64 58 83 59 48 60 49 61 63 63 84 64 51 65 35 66
REMARK SMILES IDX 36 67 44 68 37 69 38 70 42 71 45 72 39 73 40 74 43 75 41 76
REMARK SMILES IDX 67 77 68 78 76 79 69 80 70 81 74 82 77 83 71 84 72 85 75 86
REMARK SMILES IDX 73 87 52 88 53 89 61 90 54 91 55 92 59 93 62 94 56 95 57 96
REMARK SMILES IDX 60 97 58 98
REMARK H PARENT 4 13 82 51 50 62
REMARK Flexibility Score: inf
ROOT
ATOM      1  C   UNL A   1      31.488  29.760  25.218  1.00  0.00     0.188 C 
ENDROOT
BRANCH   1   2
ATOM      2  O   UNL A   1      32.025  28.884  24.233  1.00  0.00    -0.376 OA
BRANCH   2   3
ATOM      3  C   UNL A   1      31.302  28.775  23.001  1.00  0.00     0.202 C 
BRANCH   3   4
ATOM      4  C   UNL A   1      31.335  27.404  22.304  1.00  0.00     0.261 C 
BRANCH   4   5
ATOM      5  O   UNL A   1      32.670  27.041  21.907  1.00  0.00    -0.463 OA
BRANCH   5   6
ATOM      6  C   UNL A   1      32.872  25.723  21.667  1.00  0.00     0.306 C 
ATOM      7  O   UNL A   1      33.246  25.249  20.601  1.00  0.00    -0.252 OA
BRANCH   6   8
ATOM      8  C   UNL A   1      32.775  24.897  22.930  1.00  0.00     0.126 C 
BRANCH   8   9
ATOM      9  C   UNL A   1      34.058  24.534  23.695  1.00  0.00     0.012 C 
ATOM     10  N   UNL A   1      34.798  22.281  25.428  1.00  0.00    -0.330 N 
ATOM     11  C   UNL A   1      35.399  22.327  24.112  1.00  0.00     0.184 C 
ATOM     12  C   UNL A   1      34.900  23.635  25.951  1.00  0.00     0.184 C 
ATOM     13  H   UNL A   1      35.326  21.563  25.924  1.00  0.00     0.348 HD
ATOM     14  C   UNL A   1      36.720  23.020  24.462  1.00  0.00     0.071 C 
ATOM     15  C   UNL A   1      34.596  23.192  23.132  1.00  0.00     0.069 C 
ATOM     16  C   UNL A   1      36.355  23.982  25.595  1.00  0.00     0.071 C 
ATOM     17  C   UNL A   1      33.885  24.529  25.226  1.00  0.00     0.069 C 
BRANCH  10  18
ATOM     18  C   UNL A   1      33.657  21.467  25.823  1.00  0.00     0.270 C 
BRANCH  18  19
ATOM     19  C   UNL A   1      32.721  20.635  24.879  1.00  0.00     0.071 C 
ATOM     20  C   UNL A   1      32.005  21.510  23.843  1.00  0.00     0.019 C 
BRANCH  19  21
ATOM     21  C   UNL A   1      33.341  19.339  24.371  1.00  0.00    -0.040 A 
ATOM     22  C   UNL A   1      32.543  18.472  23.606  1.00  0.00     0.004 A 
ATOM     23  C   UNL A   1      34.643  18.921  24.687  1.00  0.00     0.004 A 
ATOM     24  C   UNL A   1      32.987  17.195  23.266  1.00  0.00     0.000 A 
ATOM     25  C   UNL A   1      35.080  17.631  24.372  1.00  0.00     0.000 A 
ATOM     26  C   UNL A   1      34.246  16.763  23.676  1.00  0.00     0.000 A 
ENDBRANCH  19  21
ENDBRANCH  18  19
ENDBRANCH  10  18
ENDBRANCH   8   9
ENDBRANCH   6   8
ENDBRANCH   5   6
ENDBRANCH   4   5
ENDBRANCH   3   4
ENDBRANCH   2   3
ENDBRANCH   1   2
BRANCH   1  27
ATOM     27  C   UNL A   1      32.109  29.689  26.621  1.00  0.00     0.188 C 
BRANCH  27  28
ATOM     28  O   UNL A   1      32.455  30.953  27.174  1.00  0.00    -0.376 OA
BRANCH  28  29
ATOM     29  C   UNL A   1      31.575  32.046  26.906  1.00  0.00     0.202 C 
BRANCH  29  30
ATOM     30  C   UNL A   1      32.179  33.446  27.101  1.00  0.00     0.261 C 
BRANCH  30  31
ATOM     31  O   UNL A   1      32.464  33.753  28.480  1.00  0.00    -0.460 OA
BRANCH  31  32
ATOM     32  C   UNL A   1      33.519  34.566  28.716  1.00  0.00     0.338 C 
ATOM     33  O   UNL A   1      33.490  35.778  28.852  1.00  0.00    -0.246 OA
BRANCH  32  34
ATOM     34  C   UNL A   1      34.704  33.724  29.016  1.00  0.00     0.060 A 
ATOM     35  C   UNL A   1      34.491  32.460  29.580  1.00  0.00     0.016 A 
ATOM     36  C   UNL A   1      36.006  34.138  28.704  1.00  0.00     0.016 A 
ATOM     37  C   UNL A   1      35.576  31.641  29.897  1.00  0.00     0.010 A 
ATOM     38  C   UNL A   1      37.091  33.314  29.014  1.00  0.00     0.010 A 
ATOM     39  C   UNL A   1      36.883  32.083  29.657  1.00  0.00    -0.014 A 
BRANCH  39  40
ATOM     40  C   UNL A   1      38.025  31.366  30.279  1.00  0.00     0.031 A 
ATOM     41  C   UNL A   1      38.361  31.673  31.714  1.00  0.00     0.074 A 
ATOM     42  C   UNL A   1      38.729  30.435  29.610  1.00  0.00     0.049 A 
ATOM     43  N   UNL A   1      39.287  31.161  32.482  1.00  0.00    -0.248 NA
ATOM     44  C   UNL A   1      37.537  32.702  32.370  1.00  0.00     0.031 C 
ATOM     45  C   UNL A   1      38.499  30.030  28.226  1.00  0.00     0.029 A 
ATOM     46  N   UNL A   1      39.788  29.660  30.020  1.00  0.00    -0.354 N 
ATOM     47  C   UNL A   1      39.154  31.798  33.708  1.00  0.00     0.074 A 
ATOM     48  C   UNL A   1      38.092  32.769  33.571  1.00  0.00     0.031 C 
ATOM     49  C   UNL A   1      39.395  29.081  27.898  1.00  0.00     0.029 A 
ATOM     50  C   UNL A   1      40.270  28.825  29.043  1.00  0.00     0.049 A 
ATOM     51  H   UNL A   1      40.164  29.700  30.928  1.00  0.00     0.167 HD
ATOM     52  C   UNL A   1      39.840  31.584  34.855  1.00  0.00     0.037 A 
ATOM     53  C   UNL A   1      41.305  27.962  29.070  1.00  0.00     0.037 A 
ATOM     54  C   UNL A   1      40.899  30.623  35.001  1.00  0.00     0.049 A 
ATOM     55  C   UNL A   1      42.097  27.785  30.343  1.00  0.00     0.074 A 
ATOM     56  C   UNL A   1      41.639  30.321  36.130  1.00  0.00     0.029 A 
ATOM     57  N   UNL A   1      41.376  29.816  33.980  1.00  0.00    -0.354 N 
ATOM     58  N   UNL A   1      41.931  28.355  31.511  1.00  0.00    -0.248 NA
ATOM     59  C   UNL A   1      43.219  26.833  30.300  1.00  0.00     0.031 C 
ATOM     60  C   UNL A   1      42.600  29.367  35.780  1.00  0.00     0.029 A 
ATOM     61  C   UNL A   1      42.420  29.033  34.447  1.00  0.00     0.049 A 
ATOM     62  H   UNL A   1      41.027  29.802  33.059  1.00  0.00     0.167 HD
ATOM     63  C   UNL A   1      42.898  27.810  32.347  1.00  0.00     0.074 A 
ATOM     64  C   UNL A   1      43.645  26.855  31.555  1.00  0.00     0.031 C 
ATOM     65  C   UNL A   1      43.146  28.076  33.654  1.00  0.00     0.037 A 
BRANCH  52  66
ATOM     66  C   UNL A   1      39.470  32.420  36.044  1.00  0.00     0.064 A 
ATOM     67  C   UNL A   1      40.092  33.651  36.299  1.00  0.00     0.173 A 
ATOM     68  C   UNL A   1      38.465  31.995  36.926  1.00  0.00     0.173 A 
ATOM     69  F   UNL A   1      41.072  34.093  35.496  1.00  0.00    -0.203 F 
ATOM     70  C   UNL A   1      39.739  34.414  37.408  1.00  0.00     0.198 A 
ATOM     71  C   UNL A   1      38.094  32.775  38.017  1.00  0.00     0.198 A 
ATOM     72  F   UNL A   1      37.841  30.825  36.726  1.00  0.00    -0.203 F 
ATOM     73  F   UNL A   1      40.381  35.563  37.661  1.00  0.00    -0.200 F 
ATOM     74  C   UNL A   1      38.736  33.979  38.262  1.00  0.00     0.200 A 
ATOM     75  F   UNL A   1      37.119  32.358  38.835  1.00  0.00    -0.200 F 
ATOM     76  F   UNL A   1      38.394  34.718  39.326  1.00  0.00    -0.200 F 
ENDBRANCH  52  66
BRANCH  53  77
ATOM     77  C   UNL A   1      41.660  27.187  27.852  1.00  0.00     0.064 A 
ATOM     78  C   UNL A   1      41.131  25.910  27.624  1.00  0.00     0.173 A 
ATOM     79  C   UNL A   1      42.567  27.696  26.910  1.00  0.00     0.173 A 
ATOM     80  F   UNL A   1      40.283  25.369  28.511  1.00  0.00    -0.203 F 
ATOM     81  C   UNL A   1      41.510  25.162  26.511  1.00  0.00     0.198 A 
ATOM     82  C   UNL A   1      42.924  26.957  25.782  1.00  0.00     0.198 A 
ATOM     83  F   UNL A   1      43.107  28.911  27.085  1.00  0.00    -0.203 F 
ATOM     84  F   UNL A   1      41.028  23.922  26.345  1.00  0.00    -0.200 F 
ATOM     85  C   UNL A   1      42.401  25.688  25.589  1.00  0.00     0.200 A 
ATOM     86  F   UNL A   1      43.780  27.473  24.891  1.00  0.00    -0.200 F 
ATOM     87  F   UNL A   1      42.768  24.967  24.520  1.00  0.00    -0.200 F 
ENDBRANCH  53  77
BRANCH  65  88
ATOM     88  C   UNL A   1      44.239  27.298  34.331  1.00  0.00     0.064 A 
ATOM     89  C   UNL A   1      45.546  27.795  34.433  1.00  0.00     0.173 A 
ATOM     90  C   UNL A   1      43.959  26.061  34.934  1.00  0.00     0.173 A 
ATOM     91  F   UNL A   1      45.869  28.966  33.864  1.00  0.00    -0.203 F 
ATOM     92  C   UNL A   1      46.537  27.073  35.094  1.00  0.00     0.198 A 
ATOM     93  C   UNL A   1      44.944  25.357  35.620  1.00  0.00     0.198 A 
ATOM     94  F   UNL A   1      42.722  25.545  34.874  1.00  0.00    -0.203 F 
ATOM     95  F   UNL A   1      47.789  27.548  35.143  1.00  0.00    -0.200 F 
ATOM     96  C   UNL A   1      46.234  25.860  35.694  1.00  0.00     0.200 A 
ATOM     97  F   UNL A   1      44.645  24.193  36.214  1.00  0.00    -0.200 F 
ATOM     98  F   UNL A   1      47.186  25.173  36.340  1.00  0.00    -0.200 F 
ENDBRANCH  65  88
ENDBRANCH  39  40
ENDBRANCH  32  34
ENDBRANCH  31  32
ENDBRANCH  30  31
ENDBRANCH  29  30
ENDBRANCH  28  29
ENDBRANCH  27  28
ENDBRANCH   1  27
TORSDOF 21
ENDMDL
MODEL 2
REMARK VINA RESULT:     -11.5      5.339      9.666
REMARK SMILES C[C@H](C[N@H+]1[C@@H]2CC[C@H]1C[C@H](CC(=O)OCCOCCOCCOC(=O)c1ccc(-c3c4nc(c(-c5c(F)c(F)c(F)c(F)c5F)c5ccc([nH]5)c(-c5c(F)c(F)c(F)c(F)c5F)c5nc(c(-c6c(F)c(F)c(F)c(F)c6F)c6ccc3[nH]6)C=C5)C=C4)cc1)C2)c1ccccc1
REMARK SMILES IDX 18 1 17 2 16 3 15 4 14 5 12 6 13 7 11 8 10 9 4 10 5 11 8 12
REMARK SMILES IDX 6 14 89 15 7 16 9 17 3 18 2 19 1 20 90 21 91 22 95 23 92 24
REMARK SMILES IDX 94 25 93 26 19 27 20 28 21 29 22 30 23 31 24 32 25 33 26 34
REMARK SMILES IDX 27 35 88 36 28 37 87 38 29 39 30 40 31 41 81 42 32 43 86 44
REMARK SMILES IDX 80 45 82 46 33 47 85 48 79 49 78 50 34 52 66 53 46 54 65 55
REMARK SMILES IDX 47 56 50 57 64 58 83 59 48 60 49 61 63 63 84 64 51 65 35 66
REMARK SMILES IDX 36 67 44 68 37 69 38 70 42 71 45 72 39 73 40 74 43 75 41 76
REMARK SMILES IDX 67 77 68 78 76 79 69 80 70 81 74 82 77 83 71 84 72 85 75 86
REMARK SMILES IDX 73 87 52 88 53 89 61 90 54 91 55 92 59 93 62 94 56 95 57 96
REMARK SMILES IDX 60 97 58 98
REMARK H PARENT 4 13 82 51 50 62
REMARK Flexibility Score: inf
ROOT
ATOM      1  C   UNL A   1      35.399  22.924  25.104  1.00  0.00     0.188 C 
ENDROOT
BRANCH   1   2
ATOM      2  O   UNL A   1      35.260  23.244  26.484  1.00  0.00    -0.376 OA
BRANCH   2   3
ATOM      3  C   UNL A   1      34.433  22.376  27.269  1.00  0.00     0.202 C 
BRANCH   3   4
ATOM      4  C   UNL A   1      32.976  22.213  26.808  1.00  0.00     0.261 C 
BRANCH   4   5
ATOM      5  O   UNL A   1      32.071  22.987  27.618  1.00  0.00    -0.463 OA
BRANCH   5   6
ATOM      6  C   UNL A   1      31.058  23.591  26.952  1.00  0.00     0.306 C 
ATOM      7  O   UNL A   1      29.871  23.508  27.247  1.00  0.00    -0.252 OA
BRANCH   6   8
ATOM      8  C   UNL A   1      31.565  24.554  25.903  1.00  0.00     0.126 C 
BRANCH   8   9
ATOM      9  C   UNL A   1      32.139  25.912  26.340  1.00  0.00     0.012 C 
ATOM     10  N   UNL A   1      32.553  28.464  24.946  1.00  0.00    -0.330 N 
ATOM     11  C   UNL A   1      31.489  28.412  25.927  1.00  0.00     0.184 C 
ATOM     12  C   UNL A   1      33.692  27.811  25.572  1.00  0.00     0.184 C 
ATOM     13  H   UNL A   1      32.658  29.457  24.737  1.00  0.00     0.348 HD
ATOM     14  C   UNL A   1      32.239  28.964  27.143  1.00  0.00     0.071 C 
ATOM     15  C   UNL A   1      31.020  26.978  26.205  1.00  0.00     0.069 C 
ATOM     16  C   UNL A   1      33.671  28.452  26.970  1.00  0.00     0.071 C 
ATOM     17  C   UNL A   1      33.441  26.297  25.612  1.00  0.00     0.069 C 
BRANCH  10  18
ATOM     18  C   UNL A   1      32.396  28.357  23.502  1.00  0.00     0.270 C 
BRANCH  18  19
ATOM     19  C   UNL A   1      31.136  27.837  22.727  1.00  0.00     0.071 C 
ATOM     20  C   UNL A   1      31.017  26.308  22.759  1.00  0.00     0.019 C 
BRANCH  19  21
ATOM     21  C   UNL A   1      29.864  28.629  23.002  1.00  0.00    -0.040 A 
ATOM     22  C   UNL A   1      28.653  27.928  23.125  1.00  0.00     0.004 A 
ATOM     23  C   UNL A   1      29.817  30.031  23.063  1.00  0.00     0.004 A 
ATOM     24  C   UNL A   1      27.434  28.601  23.195  1.00  0.00     0.000 A 
ATOM     25  C   UNL A   1      28.594  30.707  23.104  1.00  0.00     0.000 A 
ATOM     26  C   UNL A   1      27.402  29.992  23.153  1.00  0.00     0.000 A 
ENDBRANCH  19  21
ENDBRANCH  18  19
ENDBRANCH  10  18
ENDBRANCH   8   9
ENDBRANCH   6   8
ENDBRANCH   5   6
ENDBRANCH   4   5
ENDBRANCH   3   4
ENDBRANCH   2   3
ENDBRANCH   1   2
BRANCH   1  27
ATOM     27  C   UNL A   1      36.630  22.097  24.705  1.00  0.00     0.188 C 
BRANCH  27  28
ATOM     28  O   UNL A   1      37.869  22.635  25.152  1.00  0.00    -0.376 OA
BRANCH  28  29
ATOM     29  C   UNL A   1      38.596  21.881  26.123  1.00  0.00     0.202 C 
BRANCH  29  30
ATOM     30  C   UNL A   1      39.193  20.557  25.622  1.00  0.00     0.261 C 
BRANCH  30  31
ATOM     31  O   UNL A   1      39.999  19.889  26.613  1.00  0.00    -0.460 OA
BRANCH  31  32
ATOM     32  C   UNL A   1      41.287  19.644  26.284  1.00  0.00     0.338 C 
ATOM     33  O   UNL A   1      41.726  18.637  25.752  1.00  0.00    -0.246 OA
BRANCH  32  34
ATOM     34  C   UNL A   1      42.065  20.896  26.462  1.00  0.00     0.060 A 
ATOM     35  C   UNL A   1      42.278  21.362  27.766  1.00  0.00     0.016 A 
ATOM     36  C   UNL A   1      42.625  21.582  25.377  1.00  0.00     0.016 A 
ATOM     37  C   UNL A   1      42.986  22.544  27.982  1.00  0.00     0.010 A 
ATOM     38  C   UNL A   1      43.341  22.762  25.594  1.00  0.00     0.010 A 
ATOM     39  C   UNL A   1      43.482  23.275  26.894  1.00  0.00    -0.014 A 
BRANCH  39  40
ATOM     40  C   UNL A   1      43.944  24.671  27.098  1.00  0.00     0.031 A 
ATOM     41  C   UNL A   1      42.932  25.697  27.533  1.00  0.00     0.074 A 
ATOM     42  C   UNL A   1      45.232  25.023  26.942  1.00  0.00     0.049 A 
ATOM     43  N   UNL A   1      43.095  26.967  27.803  1.00  0.00    -0.248 NA
ATOM     44  C   UNL A   1      41.546  25.224  27.684  1.00  0.00     0.031 C 
ATOM     45  C   UNL A   1      46.314  24.129  26.540  1.00  0.00     0.029 A 
ATOM     46  N   UNL A   1      45.844  26.243  27.106  1.00  0.00    -0.354 N 
ATOM     47  C   UNL A   1      41.839  27.440  28.159  1.00  0.00     0.074 A 
ATOM     48  C   UNL A   1      40.915  26.336  28.025  1.00  0.00     0.031 C 
ATOM     49  C   UNL A   1      47.460  24.831  26.487  1.00  0.00     0.029 A 
ATOM     50  C   UNL A   1      47.189  26.227  26.832  1.00  0.00     0.049 A 
ATOM     51  H   UNL A   1      45.363  27.052  27.393  1.00  0.00     0.167 HD
ATOM     52  C   UNL A   1      41.486  28.677  28.579  1.00  0.00     0.037 A 
ATOM     53  C   UNL A   1      48.092  27.227  26.850  1.00  0.00     0.037 A 
ATOM     54  C   UNL A   1      42.397  29.780  28.713  1.00  0.00     0.049 A 
ATOM     55  C   UNL A   1      47.662  28.615  27.262  1.00  0.00     0.074 A 
ATOM     56  C   UNL A   1      42.135  31.066  29.151  1.00  0.00     0.029 A 
ATOM     57  N   UNL A   1      43.746  29.730  28.399  1.00  0.00    -0.354 N 
ATOM     58  N   UNL A   1      46.483  29.039  27.645  1.00  0.00    -0.248 NA
ATOM     59  C   UNL A   1      48.697  29.661  27.251  1.00  0.00     0.031 C 
ATOM     60  C   UNL A   1      43.316  31.810  29.054  1.00  0.00     0.029 A 
ATOM     61  C   UNL A   1      44.326  30.972  28.610  1.00  0.00     0.049 A 
ATOM     62  H   UNL A   1      44.223  28.932  28.074  1.00  0.00     0.167 HD
ATOM     63  C   UNL A   1      46.641  30.386  27.952  1.00  0.00     0.074 A 
ATOM     64  C   UNL A   1      48.033  30.708  27.720  1.00  0.00     0.031 C 
ATOM     65  C   UNL A   1      45.715  31.277  28.388  1.00  0.00     0.037 A 
BRANCH  52  66
ATOM     66  C   UNL A   1      40.042  28.903  28.913  1.00  0.00     0.064 A 
ATOM     67  C   UNL A   1      39.558  28.756  30.221  1.00  0.00     0.173 A 
ATOM     68  C   UNL A   1      39.136  29.294  27.916  1.00  0.00     0.173 A 
ATOM     69  F   UNL A   1      40.381  28.366  31.207  1.00  0.00    -0.203 F 
ATOM     70  C   UNL A   1      38.213  28.968  30.514  1.00  0.00     0.198 A 
ATOM     71  C   UNL A   1      37.799  29.534  28.218  1.00  0.00     0.198 A 
ATOM     72  F   UNL A   1      39.549  29.448  26.649  1.00  0.00    -0.203 F 
ATOM     73  F   UNL A   1      37.763  28.772  31.761  1.00  0.00    -0.200 F 
ATOM     74  C   UNL A   1      37.337  29.363  29.515  1.00  0.00     0.200 A 
ATOM     75  F   UNL A   1      36.955  29.925  27.254  1.00  0.00    -0.200 F 
ATOM     76  F   UNL A   1      36.044  29.571  29.800  1.00  0.00    -0.200 F 
ENDBRANCH  52  66
BRANCH  53  77
ATOM     77  C   UNL A   1      49.505  26.962  26.469  1.00  0.00     0.064 A 
ATOM     78  C   UNL A   1      49.919  27.028  25.132  1.00  0.00     0.173 A 
ATOM     79  C   UNL A   1      50.459  26.600  27.431  1.00  0.00     0.173 A 
ATOM     80  F   UNL A   1      49.036  27.341  24.171  1.00  0.00    -0.203 F 
ATOM     81  C   UNL A   1      51.230  26.723  24.768  1.00  0.00     0.198 A 
ATOM     82  C   UNL A   1      51.777  26.323  27.070  1.00  0.00     0.198 A 
ATOM     83  F   UNL A   1      50.111  26.516  28.723  1.00  0.00    -0.203 F 
ATOM     84  F   UNL A   1      51.586  26.743  23.476  1.00  0.00    -0.200 F 
ATOM     85  C   UNL A   1      52.158  26.376  25.738  1.00  0.00     0.200 A 
ATOM     86  F   UNL A   1      52.671  25.994  28.011  1.00  0.00    -0.200 F 
ATOM     87  F   UNL A   1      53.417  26.080  25.388  1.00  0.00    -0.200 F 
ENDBRANCH  53  77
BRANCH  65  88
ATOM     88  C   UNL A   1      46.177  32.675  28.688  1.00  0.00     0.064 A 
ATOM     89  C   UNL A   1      46.690  33.031  29.943  1.00  0.00     0.173 A 
ATOM     90  C   UNL A   1      46.157  33.658  27.685  1.00  0.00     0.173 A 
ATOM     91  F   UNL A   1      46.720  32.132  30.940  1.00  0.00    -0.203 F 
ATOM     92  C   UNL A   1      47.144  34.324  30.191  1.00  0.00     0.198 A 
ATOM     93  C   UNL A   1      46.640  34.940  27.927  1.00  0.00     0.198 A 
ATOM     94  F   UNL A   1      45.685  33.367  26.463  1.00  0.00    -0.203 F 
ATOM     95  F   UNL A   1      47.591  34.653  31.411  1.00  0.00    -0.200 F 
ATOM     96  C   UNL A   1      47.127  35.275  29.181  1.00  0.00     0.200 A 
ATOM     97  F   UNL A   1      46.638  35.853  26.945  1.00  0.00    -0.200 F 
ATOM     98  F   UNL A   1      47.576  36.515  29.418  1.00  0.00    -0.200 F 
ENDBRANCH  65  88
ENDBRANCH  39  40
ENDBRANCH  32  34
ENDBRANCH  31  32
ENDBRANCH  30  31
ENDBRANCH  29  30
ENDBRANCH  28  29
ENDBRANCH  27  28
ENDBRANCH   1  27
TORSDOF 21
ENDMDL
MODEL 3
REMARK VINA RESULT:     -11.5      1.300      2.508
REMARK SMILES C[C@H](C[N@H+]1[C@@H]2CC[C@H]1C[C@H](CC(=O)OCCOCCOCCOC(=O)c1ccc(-c3c4nc(c(-c5c(F)c(F)c(F)c(F)c5F)c5ccc([nH]5)c(-c5c(F)c(F)c(F)c(F)c5F)c5nc(c(-c6c(F)c(F)c(F)c(F)c6F)c6ccc3[nH]6)C=C5)C=C4)cc1)C2)c1ccccc1
REMARK SMILES IDX 18 1 17 2 16 3 15 4 14 5 12 6 13 7 11 8 10 9 4 10 5 11 8 12
REMARK SMILES IDX 6 14 89 15 7 16 9 17 3 18 2 19 1 20 90 21 91 22 95 23 92 24
REMARK SMILES IDX 94 25 93 26 19 27 20 28 21 29 22 30 23 31 24 32 25 33 26 34
REMARK SMILES IDX 27 35 88 36 28 37 87 38 29 39 30 40 31 41 81 42 32 43 86 44
REMARK SMILES IDX 80 45 82 46 33 47 85 48 79 49 78 50 34 52 66 53 46 54 65 55
REMARK SMILES IDX 47 56 50 57 64 58 83 59 48 60 49 61 63 63 84 64 51 65 35 66
REMARK SMILES IDX 36 67 44 68 37 69 38 70 42 71 45 72 39 73 40 74 43 75 41 76
REMARK SMILES IDX 67 77 68 78 76 79 69 80 70 81 74 82 77 83 71 84 72 85 75 86
REMARK SMILES IDX 73 87 52 88 53 89 61 90 54 91 55 92 59 93 62 94 56 95 57 96
REMARK SMILES IDX 60 97 58 98
REMARK H PARENT 4 13 82 51 50 62
REMARK Flexibility Score: inf
ROOT
ATOM      1  C   UNL A   1      29.884  29.144  22.362  1.00  0.00     0.188 C 
ENDROOT
BRANCH   1   2
ATOM      2  O   UNL A   1      30.366  27.869  21.954  1.00  0.00    -0.376 OA
BRANCH   2   3
ATOM      3  C   UNL A   1      31.368  27.262  22.779  1.00  0.00     0.202 C 
BRANCH   3   4
ATOM      4  C   UNL A   1      32.832  27.553  22.408  1.00  0.00     0.261 C 
BRANCH   4   5
ATOM      5  O   UNL A   1      33.672  26.402  22.612  1.00  0.00    -0.463 OA
BRANCH   5   6
ATOM      6  C   UNL A   1      33.360  25.310  21.872  1.00  0.00     0.306 C 
ATOM      7  O   UNL A   1      33.219  25.300  20.655  1.00  0.00    -0.252 OA
BRANCH   6   8
ATOM      8  C   UNL A   1      33.397  24.041  22.693  1.00  0.00     0.126 C 
BRANCH   8   9
ATOM      9  C   UNL A   1      32.502  23.921  23.938  1.00  0.00     0.012 C 
ATOM     10  N   UNL A   1      32.650  22.282  26.371  1.00  0.00    -0.330 N 
ATOM     11  C   UNL A   1      32.933  23.696  26.508  1.00  0.00     0.184 C 
ATOM     12  C   UNL A   1      31.459  22.202  25.539  1.00  0.00     0.184 C 
ATOM     13  H   UNL A   1      32.557  21.947  27.330  1.00  0.00     0.348 HD
ATOM     14  C   UNL A   1      31.547  24.190  26.935  1.00  0.00     0.071 C 
ATOM     15  C   UNL A   1      33.335  24.344  25.177  1.00  0.00     0.069 C 
ATOM     16  C   UNL A   1      30.572  23.279  26.186  1.00  0.00     0.071 C 
ATOM     17  C   UNL A   1      31.837  22.540  24.091  1.00  0.00     0.069 C 
BRANCH  10  18
ATOM     18  C   UNL A   1      33.636  21.214  26.280  1.00  0.00     0.270 C 
BRANCH  18  19
ATOM     19  C   UNL A   1      34.384  20.730  24.989  1.00  0.00     0.071 C 
ATOM     20  C   UNL A   1      35.889  21.017  25.041  1.00  0.00     0.019 C 
BRANCH  19  21
ATOM     21  C   UNL A   1      33.966  19.346  24.509  1.00  0.00    -0.040 A 
ATOM     22  C   UNL A   1      34.923  18.318  24.519  1.00  0.00     0.004 A 
ATOM     23  C   UNL A   1      32.697  19.052  23.983  1.00  0.00     0.004 A 
ATOM     24  C   UNL A   1      34.661  17.083  23.927  1.00  0.00     0.000 A 
ATOM     25  C   UNL A   1      32.443  17.825  23.364  1.00  0.00     0.000 A 
ATOM     26  C   UNL A   1      33.430  16.847  23.322  1.00  0.00     0.000 A 
ENDBRANCH  19  21
ENDBRANCH  18  19
ENDBRANCH  10  18
ENDBRANCH   8   9
ENDBRANCH   6   8
ENDBRANCH   5   6
ENDBRANCH   4   5
ENDBRANCH   3   4
ENDBRANCH   2   3
ENDBRANCH   1   2
BRANCH   1  27
ATOM     27  C   UNL A   1      29.865  29.427  23.872  1.00  0.00     0.188 C 
BRANCH  27  28
ATOM     28  O   UNL A   1      30.869  30.333  24.312  1.00  0.00    -0.376 OA
BRANCH  28  29
ATOM     29  C   UNL A   1      31.529  30.030  25.543  1.00  0.00     0.202 C 
BRANCH  29  30
ATOM     30  C   UNL A   1      31.756  31.223  26.484  1.00  0.00     0.261 C 
BRANCH  30  31
ATOM     31  O   UNL A   1      32.852  31.022  27.398  1.00  0.00    -0.460 OA
BRANCH  31  32
ATOM     32  C   UNL A   1      33.634  32.096  27.653  1.00  0.00     0.338 C 
ATOM     33  O   UNL A   1      33.274  33.259  27.731  1.00  0.00    -0.246 OA
BRANCH  32  34
ATOM     34  C   UNL A   1      34.979  31.613  28.056  1.00  0.00     0.060 A 
ATOM     35  C   UNL A   1      35.189  30.230  28.131  1.00  0.00     0.016 A 
ATOM     36  C   UNL A   1      36.039  32.493  28.308  1.00  0.00     0.016 A 
ATOM     37  C   UNL A   1      36.431  29.729  28.524  1.00  0.00     0.010 A 
ATOM     38  C   UNL A   1      37.284  31.992  28.694  1.00  0.00     0.010 A 
ATOM     39  C   UNL A   1      37.471  30.609  28.851  1.00  0.00    -0.014 A 
BRANCH  39  40
ATOM     40  C   UNL A   1      38.666  30.096  29.567  1.00  0.00     0.031 A 
ATOM     41  C   UNL A   1      38.901  30.558  30.980  1.00  0.00     0.074 A 
ATOM     42  C   UNL A   1      39.508  29.211  29.002  1.00  0.00     0.049 A 
ATOM     43  N   UNL A   1      39.852  30.231  31.818  1.00  0.00    -0.248 NA
ATOM     44  C   UNL A   1      37.929  31.522  31.521  1.00  0.00     0.031 C 
ATOM     45  C   UNL A   1      39.389  28.671  27.651  1.00  0.00     0.029 A 
ATOM     46  N   UNL A   1      40.637  28.614  29.509  1.00  0.00    -0.354 N 
ATOM     47  C   UNL A   1      39.589  30.943  32.980  1.00  0.00     0.074 A 
ATOM     48  C   UNL A   1      38.420  31.756  32.728  1.00  0.00     0.031 C 
ATOM     49  C   UNL A   1      40.409  27.820  27.433  1.00  0.00     0.029 A 
ATOM     50  C   UNL A   1      41.260  27.771  28.623  1.00  0.00     0.049 A 
ATOM     51  H   UNL A   1      40.968  28.774  30.422  1.00  0.00     0.167 HD
ATOM     52  C   UNL A   1      40.248  30.911  34.163  1.00  0.00     0.037 A 
ATOM     53  C   UNL A   1      42.393  27.052  28.755  1.00  0.00     0.037 A 
ATOM     54  C   UNL A   1      41.412  30.108  34.422  1.00  0.00     0.049 A 
ATOM     55  C   UNL A   1      43.147  27.081  30.063  1.00  0.00     0.074 A 
ATOM     56  C   UNL A   1      42.136  29.995  35.595  1.00  0.00     0.029 A 
ATOM     57  N   UNL A   1      42.028  29.289  33.489  1.00  0.00    -0.354 N 
ATOM     58  N   UNL A   1      42.862  27.717  31.172  1.00  0.00    -0.248 NA
ATOM     59  C   UNL A   1      44.380  26.280  30.136  1.00  0.00     0.031 C 
ATOM     60  C   UNL A   1      43.222  29.146  35.358  1.00  0.00     0.029 A 
ATOM     61  C   UNL A   1      43.141  28.686  34.053  1.00  0.00     0.049 A 
ATOM     62  H   UNL A   1      41.722  29.156  32.563  1.00  0.00     0.167 HD
ATOM     63  C   UNL A   1      43.855  27.369  32.081  1.00  0.00     0.074 A 
ATOM     64  C   UNL A   1      44.747  26.456  31.397  1.00  0.00     0.031 C 
ATOM     65  C   UNL A   1      44.013  27.769  33.368  1.00  0.00     0.037 A 
BRANCH  52  66
ATOM     66  C   UNL A   1      39.727  31.785  35.264  1.00  0.00     0.064 A 
ATOM     67  C   UNL A   1      38.726  31.345  36.142  1.00  0.00     0.173 A 
ATOM     68  C   UNL A   1      40.253  33.071  35.458  1.00  0.00     0.173 A 
ATOM     69  F   UNL A   1      38.178  30.130  35.986  1.00  0.00    -0.203 F 
ATOM     70  C   UNL A   1      38.251  32.169  37.157  1.00  0.00     0.198 A 
ATOM     71  C   UNL A   1      39.797  33.882  36.493  1.00  0.00     0.198 A 
ATOM     72  F   UNL A   1      41.211  33.540  34.645  1.00  0.00    -0.203 F 
ATOM     73  F   UNL A   1      37.259  31.747  37.952  1.00  0.00    -0.200 F 
ATOM     74  C   UNL A   1      38.792  33.434  37.336  1.00  0.00     0.200 A 
ATOM     75  F   UNL A   1      40.327  35.100  36.671  1.00  0.00    -0.200 F 
ATOM     76  F   UNL A   1      38.338  34.225  38.319  1.00  0.00    -0.200 F 
ENDBRANCH  52  66
BRANCH  53  77
ATOM     77  C   UNL A   1      42.893  26.234  27.619  1.00  0.00     0.064 A 
ATOM     78  C   UNL A   1      43.854  26.736  26.731  1.00  0.00     0.173 A 
ATOM     79  C   UNL A   1      42.390  24.947  27.377  1.00  0.00     0.173 A 
ATOM     80  F   UNL A   1      44.343  27.973  26.903  1.00  0.00    -0.203 F 
ATOM     81  C   UNL A   1      44.279  25.991  25.633  1.00  0.00     0.198 A 
ATOM     82  C   UNL A   1      42.837  24.191  26.294  1.00  0.00     0.198 A 
ATOM     83  F   UNL A   1      41.464  24.423  28.193  1.00  0.00    -0.203 F 
ATOM     84  F   UNL A   1      45.160  26.516  24.771  1.00  0.00    -0.200 F 
ATOM     85  C   UNL A   1      43.775  24.717  25.419  1.00  0.00     0.200 A 
ATOM     86  F   UNL A   1      42.351  22.958  26.096  1.00  0.00    -0.200 F 
ATOM     87  F   UNL A   1      44.181  24.001  24.361  1.00  0.00    -0.200 F 
ENDBRANCH  53  77
BRANCH  65  88
ATOM     88  C   UNL A   1      45.165  27.193  34.142  1.00  0.00     0.064 A 
ATOM     89  C   UNL A   1      46.402  27.848  34.222  1.00  0.00     0.173 A 
ATOM     90  C   UNL A   1      45.009  25.996  34.860  1.00  0.00     0.173 A 
ATOM     91  F   UNL A   1      46.607  28.989  33.546  1.00  0.00    -0.203 F 
ATOM     92  C   UNL A   1      47.447  27.316  34.973  1.00  0.00     0.198 A 
ATOM     93  C   UNL A   1      46.045  25.483  35.634  1.00  0.00     0.198 A 
ATOM     94  F   UNL A   1      43.842  25.335  34.825  1.00  0.00    -0.203 F 
ATOM     95  F   UNL A   1      48.634  27.937  35.001  1.00  0.00    -0.200 F 
ATOM     96  C   UNL A   1      47.266  26.138  35.685  1.00  0.00     0.200 A 
ATOM     97  F   UNL A   1      45.862  24.355  36.334  1.00  0.00    -0.200 F 
ATOM     98  F   UNL A   1      48.269  25.634  36.416  1.00  0.00    -0.200 F 
ENDBRANCH  65  88
ENDBRANCH  39  40
ENDBRANCH  32  34
ENDBRANCH  31  32
ENDBRANCH  30  31
ENDBRANCH  29  30
ENDBRANCH  28  29
ENDBRANCH  27  28
ENDBRANCH   1  27
TORSDOF 21
ENDMDL
