MODEL 1
REMARK VINA RESULT:      -9.6      0.000      0.000
REMARK SMILES CC[N@H+]1CCC[C@@H]1C[N@@H+](C)C[C@H]([NH3+])C(=O)OCCOCCOCCOC(=O)c1ccc(-c2c3nc(c(-c4c(F)c(F)c(F)c(F)c4F)c4ccc([nH]4)c(-c4c(F)c(F)c(F)c(F)c4F)c4nc(c(-c5c(F)c(F)c(F)c(F)c5F)c5ccc2[nH]5)C=C4)C=C3)cc1
REMARK SMILES IDX 19 1 18 2 17 3 16 4 14 5 15 6 12 7 11 8 9 9 10 10 8 12 7 13
REMARK SMILES IDX 3 14 4 15 5 17 6 18 2 19 1 20 13 21 20 25 21 26 22 27 23 28
REMARK SMILES IDX 24 29 25 30 26 31 27 32 28 33 29 34 90 35 30 36 89 37 31 38
REMARK SMILES IDX 32 39 33 40 83 41 34 42 88 43 82 44 84 45 35 46 87 47 81 48
REMARK SMILES IDX 80 49 36 51 68 52 48 53 67 54 49 55 52 56 66 57 85 58 50 59
REMARK SMILES IDX 51 60 65 62 86 63 53 64 37 65 38 66 46 67 39 68 40 69 44 70
REMARK SMILES IDX 47 71 41 72 42 73 45 74 43 75 69 76 70 77 78 78 71 79 72 80
REMARK SMILES IDX 76 81 79 82 73 83 74 84 77 85 75 86 54 87 55 88 63 89 56 90
REMARK SMILES IDX 57 91 61 92 64 93 58 94 59 95 62 96 60 97
REMARK H PARENT 9 11 3 16 13 22 13 23 13 24 84 50 52 61
REMARK Flexibility Score: inf
ROOT
ATOM      1  O   UNL A   1      36.372  22.830  24.932  1.00  0.00    -0.376 OA
ENDROOT
BRANCH   1   2
ATOM      2  C   UNL A   1      35.501  23.954  24.911  1.00  0.00     0.202 C 
BRANCH   2   3
ATOM      3  C   UNL A   1      34.559  24.129  26.102  1.00  0.00     0.261 C 
BRANCH   3   4
ATOM      4  O   UNL A   1      33.139  24.242  25.815  1.00  0.00    -0.459 OA
BRANCH   4   5
ATOM      5  C   UNL A   1      32.313  23.355  26.452  1.00  0.00     0.370 C 
ATOM      6  O   UNL A   1      32.692  22.577  27.325  1.00  0.00    -0.245 OA
BRANCH   5   7
ATOM      7  C   UNL A   1      30.837  23.405  25.997  1.00  0.00     0.347 C 
BRANCH   7   8
ATOM      8  C   UNL A   1      30.209  24.811  25.763  1.00  0.00     0.340 C 
BRANCH   8   9
ATOM      9  N   UNL A   1      29.861  25.336  24.432  1.00  0.00    -0.327 N 
ATOM     10  C   UNL A   1      30.515  24.522  23.395  1.00  0.00     0.333 C 
ATOM     11  H   UNL A   1      28.844  25.266  24.388  1.00  0.00     0.348 HD
BRANCH   9  12
ATOM     12  C   UNL A   1      30.133  26.769  24.193  1.00  0.00     0.327 C 
BRANCH  12  13
ATOM     13  C   UNL A   1      31.296  27.574  24.869  1.00  0.00     0.239 C 
ATOM     14  N   UNL A   1      32.645  27.089  24.505  1.00  0.00    -0.328 N 
ATOM     15  C   UNL A   1      33.575  27.701  25.457  1.00  0.00     0.262 C 
ATOM     16  H   UNL A   1      32.572  26.072  24.561  1.00  0.00     0.348 HD
ATOM     17  C   UNL A   1      32.853  27.559  26.776  1.00  0.00     0.068 C 
ATOM     18  C   UNL A   1      31.379  27.525  26.402  1.00  0.00     0.077 C 
BRANCH  14  19
ATOM     19  C   UNL A   1      33.135  27.188  23.135  1.00  0.00     0.259 C 
ATOM     20  C   UNL A   1      33.953  28.431  22.801  1.00  0.00     0.071 C 
ENDBRANCH  14  19
ENDBRANCH  12  13
ENDBRANCH   9  12
ENDBRANCH   8   9
ENDBRANCH   7   8
BRANCH   7  21
ATOM     21  N   UNL A   1      29.925  22.598  26.855  1.00  0.00    -0.341 N 
ATOM     22  H   UNL A   1      30.406  21.753  27.161  1.00  0.00     0.345 HD
ATOM     23  H   UNL A   1      29.094  22.341  26.321  1.00  0.00     0.345 HD
ATOM     24  H   UNL A   1      29.650  23.147  27.669  1.00  0.00     0.345 HD
ENDBRANCH   7  21
ENDBRANCH   5   7
ENDBRANCH   4   5
ENDBRANCH   3   4
ENDBRANCH   2   3
ENDBRANCH   1   2
BRANCH   1  25
ATOM     25  C   UNL A   1      35.938  21.712  25.691  1.00  0.00     0.188 C 
BRANCH  25  26
ATOM     26  C   UNL A   1      35.823  20.370  24.947  1.00  0.00     0.188 C 
BRANCH  26  27
ATOM     27  O   UNL A   1      36.998  19.592  24.960  1.00  0.00    -0.376 OA
BRANCH  27  28
ATOM     28  C   UNL A   1      38.223  20.251  25.247  1.00  0.00     0.202 C 
BRANCH  28  29
ATOM     29  C   UNL A   1      39.464  19.478  25.746  1.00  0.00     0.261 C 
BRANCH  29  30
ATOM     30  O   UNL A   1      40.703  20.197  25.858  1.00  0.00    -0.460 OA
BRANCH  30  31
ATOM     31  C   UNL A   1      41.310  20.281  27.065  1.00  0.00     0.338 C 
ATOM     32  O   UNL A   1      41.858  19.379  27.674  1.00  0.00    -0.246 OA
BRANCH  31  33
ATOM     33  C   UNL A   1      41.455  21.731  27.370  1.00  0.00     0.060 A 
ATOM     34  C   UNL A   1      40.720  22.658  26.611  1.00  0.00     0.016 A 
ATOM     35  C   UNL A   1      42.187  22.165  28.480  1.00  0.00     0.016 A 
ATOM     36  C   UNL A   1      40.724  24.015  26.952  1.00  0.00     0.010 A 
ATOM     37  C   UNL A   1      42.223  23.527  28.797  1.00  0.00     0.010 A 
ATOM     38  C   UNL A   1      41.517  24.461  28.017  1.00  0.00    -0.014 A 
BRANCH  38  39
ATOM     39  C   UNL A   1      41.867  25.901  28.118  1.00  0.00     0.031 A 
ATOM     40  C   UNL A   1      43.200  26.314  27.553  1.00  0.00     0.074 A 
ATOM     41  C   UNL A   1      41.063  26.818  28.685  1.00  0.00     0.049 A 
ATOM     42  N   UNL A   1      43.802  27.475  27.584  1.00  0.00    -0.248 NA
ATOM     43  C   UNL A   1      43.962  25.260  26.861  1.00  0.00     0.031 C 
ATOM     44  C   UNL A   1      39.728  26.566  29.220  1.00  0.00     0.029 A 
ATOM     45  N   UNL A   1      41.272  28.158  28.912  1.00  0.00    -0.354 N 
ATOM     46  C   UNL A   1      45.008  27.286  26.924  1.00  0.00     0.074 A 
ATOM     47  C   UNL A   1      45.069  25.898  26.525  1.00  0.00     0.031 C 
ATOM     48  C   UNL A   1      39.245  27.712  29.737  1.00  0.00     0.029 A 
ATOM     49  C   UNL A   1      40.249  28.768  29.597  1.00  0.00     0.049 A 
ATOM     50  H   UNL A   1      42.079  28.635  28.613  1.00  0.00     0.167 HD
ATOM     51  C   UNL A   1      45.982  28.188  26.668  1.00  0.00     0.037 A 
ATOM     52  C   UNL A   1      40.154  30.025  30.077  1.00  0.00     0.037 A 
ATOM     53  C   UNL A   1      45.936  29.564  27.077  1.00  0.00     0.049 A 
ATOM     54  C   UNL A   1      41.296  30.992  29.860  1.00  0.00     0.074 A 
ATOM     55  C   UNL A   1      46.873  30.558  26.865  1.00  0.00     0.029 A 
ATOM     56  N   UNL A   1      44.897  30.134  27.796  1.00  0.00    -0.354 N 
ATOM     57  N   UNL A   1      42.426  30.816  29.218  1.00  0.00    -0.248 NA
ATOM     58  C   UNL A   1      41.149  32.336  30.440  1.00  0.00     0.031 C 
ATOM     59  C   UNL A   1      46.424  31.719  27.501  1.00  0.00     0.029 A 
ATOM     60  C   UNL A   1      45.181  31.463  28.058  1.00  0.00     0.049 A 
ATOM     61  H   UNL A   1      44.078  29.664  28.077  1.00  0.00     0.167 HD
ATOM     62  C   UNL A   1      43.104  32.028  29.288  1.00  0.00     0.074 A 
ATOM     63  C   UNL A   1      42.256  32.938  30.028  1.00  0.00     0.031 C 
ATOM     64  C   UNL A   1      44.318  32.359  28.783  1.00  0.00     0.037 A 
BRANCH  51  65
ATOM     65  C   UNL A   1      47.198  27.695  25.942  1.00  0.00     0.064 A 
ATOM     66  C   UNL A   1      48.326  27.225  26.630  1.00  0.00     0.173 A 
ATOM     67  C   UNL A   1      47.231  27.689  24.540  1.00  0.00     0.173 A 
ATOM     68  F   UNL A   1      48.352  27.235  27.972  1.00  0.00    -0.203 F 
ATOM     69  C   UNL A   1      49.455  26.791  25.939  1.00  0.00     0.198 A 
ATOM     70  C   UNL A   1      48.349  27.226  23.853  1.00  0.00     0.198 A 
ATOM     71  F   UNL A   1      46.179  28.134  23.836  1.00  0.00    -0.203 F 
ATOM     72  F   UNL A   1      50.542  26.397  26.617  1.00  0.00    -0.200 F 
ATOM     73  C   UNL A   1      49.462  26.785  24.553  1.00  0.00     0.200 A 
ATOM     74  F   UNL A   1      48.352  27.214  22.513  1.00  0.00    -0.200 F 
ATOM     75  F   UNL A   1      50.547  26.362  23.889  1.00  0.00    -0.200 F 
ENDBRANCH  51  65
BRANCH  52  76
ATOM     76  C   UNL A   1      38.948  30.452  30.837  1.00  0.00     0.064 A 
ATOM     77  C   UNL A   1      37.830  30.985  30.178  1.00  0.00     0.173 A 
ATOM     78  C   UNL A   1      38.906  30.383  32.236  1.00  0.00     0.173 A 
ATOM     79  F   UNL A   1      37.834  31.107  28.843  1.00  0.00    -0.203 F 
ATOM     80  C   UNL A   1      36.724  31.448  30.893  1.00  0.00     0.198 A 
ATOM     81  C   UNL A   1      37.790  30.820  32.948  1.00  0.00     0.198 A 
ATOM     82  F   UNL A   1      39.954  29.897  32.916  1.00  0.00    -0.203 F 
ATOM     83  F   UNL A   1      35.693  32.003  30.241  1.00  0.00    -0.200 F 
ATOM     84  C   UNL A   1      36.703  31.360  32.276  1.00  0.00     0.200 A 
ATOM     85  F   UNL A   1      37.772  30.731  34.285  1.00  0.00    -0.200 F 
ATOM     86  F   UNL A   1      35.643  31.809  32.962  1.00  0.00    -0.200 F 
ENDBRANCH  52  76
BRANCH  64  87
ATOM     87  C   UNL A   1      44.789  33.774  28.966  1.00  0.00     0.064 A 
ATOM     88  C   UNL A   1      45.608  34.148  30.040  1.00  0.00     0.173 A 
ATOM     89  C   UNL A   1      44.468  34.754  28.013  1.00  0.00     0.173 A 
ATOM     90  F   UNL A   1      45.935  33.252  30.984  1.00  0.00    -0.203 F 
ATOM     91  C   UNL A   1      46.070  35.456  30.167  1.00  0.00     0.198 A 
ATOM     92  C   UNL A   1      44.959  36.052  28.125  1.00  0.00     0.198 A 
ATOM     93  F   UNL A   1      43.698  34.446  26.959  1.00  0.00    -0.203 F 
ATOM     94  F   UNL A   1      46.818  35.801  31.224  1.00  0.00    -0.200 F 
ATOM     95  C   UNL A   1      45.753  36.403  29.205  1.00  0.00     0.200 A 
ATOM     96  F   UNL A   1      44.665  36.961  27.185  1.00  0.00    -0.200 F 
ATOM     97  F   UNL A   1      46.210  37.658  29.322  1.00  0.00    -0.200 F 
ENDBRANCH  64  87
ENDBRANCH  38  39
ENDBRANCH  31  33
ENDBRANCH  30  31
ENDBRANCH  29  30
ENDBRANCH  28  29
ENDBRANCH  27  28
ENDBRANCH  26  27
ENDBRANCH  25  26
ENDBRANCH   1  25
TORSDOF 23
ENDMDL
MODEL 2
REMARK VINA RESULT:      -9.5      1.079      2.368
REMARK SMILES CC[N@H+]1CCC[C@@H]1C[N@@H+](C)C[C@H]([NH3+])C(=O)OCCOCCOCCOC(=O)c1ccc(-c2c3nc(c(-c4c(F)c(F)c(F)c(F)c4F)c4ccc([nH]4)c(-c4c(F)c(F)c(F)c(F)c4F)c4nc(c(-c5c(F)c(F)c(F)c(F)c5F)c5ccc2[nH]5)C=C4)C=C3)cc1
REMARK SMILES IDX 19 1 18 2 17 3 16 4 14 5 15 6 12 7 11 8 9 9 10 10 8 12 7 13
REMARK SMILES IDX 3 14 4 15 5 17 6 18 2 19 1 20 13 21 20 25 21 26 22 27 23 28
REMARK SMILES IDX 24 29 25 30 26 31 27 32 28 33 29 34 90 35 30 36 89 37 31 38
REMARK SMILES IDX 32 39 33 40 83 41 34 42 88 43 82 44 84 45 35 46 87 47 81 48
REMARK SMILES IDX 80 49 36 51 68 52 48 53 67 54 49 55 52 56 66 57 85 58 50 59
REMARK SMILES IDX 51 60 65 62 86 63 53 64 37 65 38 66 46 67 39 68 40 69 44 70
REMARK SMILES IDX 47 71 41 72 42 73 45 74 43 75 69 76 70 77 78 78 71 79 72 80
REMARK SMILES IDX 76 81 79 82 73 83 74 84 77 85 75 86 54 87 55 88 63 89 56 90
REMARK SMILES IDX 57 91 61 92 64 93 58 94 59 95 62 96 60 97
REMARK H PARENT 9 11 3 16 13 22 13 23 13 24 84 50 52 61
REMARK Flexibility Score: inf
ROOT
ATOM      1  O   UNL A   1      36.051  22.879  25.099  1.00  0.00    -0.376 OA
ENDROOT
BRANCH   1   2
ATOM      2  C   UNL A   1      34.850  23.638  25.163  1.00  0.00     0.202 C 
BRANCH   2   3
ATOM      3  C   UNL A   1      33.816  23.400  24.062  1.00  0.00     0.261 C 
BRANCH   3   4
ATOM      4  O   UNL A   1      33.267  24.573  23.402  1.00  0.00    -0.459 OA
BRANCH   4   5
ATOM      5  C   UNL A   1      33.063  24.477  22.052  1.00  0.00     0.370 C 
ATOM      6  O   UNL A   1      33.250  23.448  21.406  1.00  0.00    -0.245 OA
BRANCH   5   7
ATOM      7  C   UNL A   1      32.562  25.775  21.379  1.00  0.00     0.347 C 
BRANCH   7   8
ATOM      8  C   UNL A   1      31.215  26.369  21.888  1.00  0.00     0.340 C 
BRANCH   8   9
ATOM      9  N   UNL A   1      31.095  27.194  23.101  1.00  0.00    -0.327 N 
ATOM     10  C   UNL A   1      30.004  28.168  22.929  1.00  0.00     0.333 C 
ATOM     11  H   UNL A   1      30.896  26.526  23.846  1.00  0.00     0.348 HD
BRANCH   9  12
ATOM     12  C   UNL A   1      32.319  27.886  23.557  1.00  0.00     0.327 C 
BRANCH  12  13
ATOM     13  C   UNL A   1      32.633  28.237  25.051  1.00  0.00     0.239 C 
ATOM     14  N   UNL A   1      31.774  27.527  26.023  1.00  0.00    -0.328 N 
ATOM     15  C   UNL A   1      31.955  28.205  27.309  1.00  0.00     0.262 C 
ATOM     16  H   UNL A   1      30.836  27.591  25.626  1.00  0.00     0.348 HD
ATOM     17  C   UNL A   1      31.929  29.666  26.928  1.00  0.00     0.068 C 
ATOM     18  C   UNL A   1      32.411  29.694  25.486  1.00  0.00     0.077 C 
BRANCH  14  19
ATOM     19  C   UNL A   1      31.841  26.076  26.166  1.00  0.00     0.259 C 
ATOM     20  C   UNL A   1      30.539  25.317  25.933  1.00  0.00     0.071 C 
ENDBRANCH  14  19
ENDBRANCH  12  13
ENDBRANCH   9  12
ENDBRANCH   8   9
ENDBRANCH   7   8
BRANCH   7  21
ATOM     21  N   UNL A   1      32.533  25.699  19.892  1.00  0.00    -0.341 N 
ATOM     22  H   UNL A   1      32.357  24.737  19.604  1.00  0.00     0.345 HD
ATOM     23  H   UNL A   1      33.431  26.007  19.518  1.00  0.00     0.345 HD
ATOM     24  H   UNL A   1      31.792  26.302  19.535  1.00  0.00     0.345 HD
ENDBRANCH   7  21
ENDBRANCH   5   7
ENDBRANCH   4   5
ENDBRANCH   3   4
ENDBRANCH   2   3
ENDBRANCH   1   2
BRANCH   1  25
ATOM     25  C   UNL A   1      36.066  21.661  25.827  1.00  0.00     0.188 C 
BRANCH  25  26
ATOM     26  C   UNL A   1      36.002  20.361  25.006  1.00  0.00     0.188 C 
BRANCH  26  27
ATOM     27  O   UNL A   1      37.250  19.744  24.790  1.00  0.00    -0.376 OA
BRANCH  27  28
ATOM     28  C   UNL A   1      38.391  20.337  25.391  1.00  0.00     0.202 C 
BRANCH  28  29
ATOM     29  C   UNL A   1      39.615  19.495  25.817  1.00  0.00     0.261 C 
BRANCH  29  30
ATOM     30  O   UNL A   1      40.891  20.153  25.890  1.00  0.00    -0.460 OA
BRANCH  30  31
ATOM     31  C   UNL A   1      41.505  20.267  27.090  1.00  0.00     0.338 C 
ATOM     32  O   UNL A   1      42.070  19.384  27.711  1.00  0.00    -0.246 OA
BRANCH  31  33
ATOM     33  C   UNL A   1      41.634  21.725  27.366  1.00  0.00     0.060 A 
ATOM     34  C   UNL A   1      40.981  22.634  26.516  1.00  0.00     0.016 A 
ATOM     35  C   UNL A   1      42.262  22.186  28.528  1.00  0.00     0.016 A 
ATOM     36  C   UNL A   1      40.964  24.000  26.819  1.00  0.00     0.010 A 
ATOM     37  C   UNL A   1      42.279  23.556  28.809  1.00  0.00     0.010 A 
ATOM     38  C   UNL A   1      41.658  24.472  27.940  1.00  0.00    -0.014 A 
BRANCH  38  39
ATOM     39  C   UNL A   1      42.009  25.912  28.033  1.00  0.00     0.031 A 
ATOM     40  C   UNL A   1      43.335  26.324  27.450  1.00  0.00     0.074 A 
ATOM     41  C   UNL A   1      41.212  26.830  28.608  1.00  0.00     0.049 A 
ATOM     42  N   UNL A   1      43.937  27.485  27.470  1.00  0.00    -0.248 NA
ATOM     43  C   UNL A   1      44.087  25.268  26.750  1.00  0.00     0.031 C 
ATOM     44  C   UNL A   1      39.884  26.580  29.162  1.00  0.00     0.029 A 
ATOM     45  N   UNL A   1      41.424  28.171  28.830  1.00  0.00    -0.354 N 
ATOM     46  C   UNL A   1      45.134  27.294  26.795  1.00  0.00     0.074 A 
ATOM     47  C   UNL A   1      45.190  25.906  26.399  1.00  0.00     0.031 C 
ATOM     48  C   UNL A   1      39.408  27.727  29.682  1.00  0.00     0.029 A 
ATOM     49  C   UNL A   1      40.410  28.782  29.526  1.00  0.00     0.049 A 
ATOM     50  H   UNL A   1      42.228  28.647  28.519  1.00  0.00     0.167 HD
ATOM     51  C   UNL A   1      46.105  28.196  26.524  1.00  0.00     0.037 A 
ATOM     52  C   UNL A   1      40.322  30.040  30.005  1.00  0.00     0.037 A 
ATOM     53  C   UNL A   1      46.064  29.573  26.931  1.00  0.00     0.049 A 
ATOM     54  C   UNL A   1      41.461  31.007  29.771  1.00  0.00     0.074 A 
ATOM     55  C   UNL A   1      46.997  30.566  26.705  1.00  0.00     0.029 A 
ATOM     56  N   UNL A   1      45.034  30.145  27.662  1.00  0.00    -0.354 N 
ATOM     57  N   UNL A   1      42.582  30.829  29.115  1.00  0.00    -0.248 NA
ATOM     58  C   UNL A   1      41.320  32.353  30.350  1.00  0.00     0.031 C 
ATOM     59  C   UNL A   1      46.557  31.729  27.344  1.00  0.00     0.029 A 
ATOM     60  C   UNL A   1      45.321  31.474  27.918  1.00  0.00     0.049 A 
ATOM     61  H   UNL A   1      44.219  29.675  27.955  1.00  0.00     0.167 HD
ATOM     62  C   UNL A   1      43.260  32.041  29.172  1.00  0.00     0.074 A 
ATOM     63  C   UNL A   1      42.422  32.953  29.922  1.00  0.00     0.031 C 
ATOM     64  C   UNL A   1      44.467  32.372  28.651  1.00  0.00     0.037 A 
BRANCH  51  65
ATOM     65  C   UNL A   1      47.311  27.701  25.784  1.00  0.00     0.064 A 
ATOM     66  C   UNL A   1      48.433  27.197  26.458  1.00  0.00     0.173 A 
ATOM     67  C   UNL A   1      47.341  27.728  24.382  1.00  0.00     0.173 A 
ATOM     68  F   UNL A   1      48.462  27.175  27.799  1.00  0.00    -0.203 F 
ATOM     69  C   UNL A   1      49.553  26.762  25.754  1.00  0.00     0.198 A 
ATOM     70  C   UNL A   1      48.450  27.264  23.682  1.00  0.00     0.198 A 
ATOM     71  F   UNL A   1      46.295  28.207  23.692  1.00  0.00    -0.203 F 
ATOM     72  F   UNL A   1      50.635  26.334  26.419  1.00  0.00    -0.200 F 
ATOM     73  C   UNL A   1      49.557  26.789  24.368  1.00  0.00     0.200 A 
ATOM     74  F   UNL A   1      48.450  27.284  22.342  1.00  0.00    -0.200 F 
ATOM     75  F   UNL A   1      50.634  26.365  23.692  1.00  0.00    -0.200 F 
ENDBRANCH  51  65
BRANCH  52  76
ATOM     76  C   UNL A   1      39.125  30.469  30.779  1.00  0.00     0.064 A 
ATOM     77  C   UNL A   1      39.052  30.274  32.166  1.00  0.00     0.173 A 
ATOM     78  C   UNL A   1      38.011  31.035  30.143  1.00  0.00     0.173 A 
ATOM     79  F   UNL A   1      40.075  29.703  32.816  1.00  0.00    -0.203 F 
ATOM     80  C   UNL A   1      37.904  30.614  32.883  1.00  0.00     0.198 A 
ATOM     81  C   UNL A   1      36.875  31.400  30.864  1.00  0.00     0.198 A 
ATOM     82  F   UNL A   1      38.022  31.229  28.816  1.00  0.00    -0.203 F 
ATOM     83  F   UNL A   1      37.841  30.366  34.199  1.00  0.00    -0.200 F 
ATOM     84  C   UNL A   1      36.820  31.181  32.233  1.00  0.00     0.200 A 
ATOM     85  F   UNL A   1      35.830  31.951  30.233  1.00  0.00    -0.200 F 
ATOM     86  F   UNL A   1      35.716  31.503  32.921  1.00  0.00    -0.200 F 
ENDBRANCH  52  76
BRANCH  64  87
ATOM     87  C   UNL A   1      44.941  33.787  28.825  1.00  0.00     0.064 A 
ATOM     88  C   UNL A   1      44.596  34.799  27.918  1.00  0.00     0.173 A 
ATOM     89  C   UNL A   1      45.696  34.146  29.952  1.00  0.00     0.173 A 
ATOM     90  F   UNL A   1      43.885  34.507  26.818  1.00  0.00    -0.203 F 
ATOM     91  C   UNL A   1      45.009  36.114  28.121  1.00  0.00     0.198 A 
ATOM     92  C   UNL A   1      46.080  35.466  30.170  1.00  0.00     0.198 A 
ATOM     93  F   UNL A   1      46.042  33.218  30.858  1.00  0.00    -0.203 F 
ATOM     94  F   UNL A   1      44.703  37.058  27.220  1.00  0.00    -0.200 F 
ATOM     95  C   UNL A   1      45.741  36.447  29.251  1.00  0.00     0.200 A 
ATOM     96  F   UNL A   1      46.773  35.789  31.270  1.00  0.00    -0.200 F 
ATOM     97  F   UNL A   1      46.127  37.716  29.451  1.00  0.00    -0.200 F 
ENDBRANCH  64  87
ENDBRANCH  38  39
ENDBRANCH  31  33
ENDBRANCH  30  31
ENDBRANCH  29  30
ENDBRANCH  28  29
ENDBRANCH  27  28
ENDBRANCH  26  27
ENDBRANCH  25  26
ENDBRANCH   1  25
TORSDOF 23
ENDMDL
MODEL 3
REMARK VINA RESULT:      -9.5      0.484      2.161
REMARK SMILES CC[N@H+]1CCC[C@@H]1C[N@@H+](C)C[C@H]([NH3+])C(=O)OCCOCCOCCOC(=O)c1ccc(-c2c3nc(c(-c4c(F)c(F)c(F)c(F)c4F)c4ccc([nH]4)c(-c4c(F)c(F)c(F)c(F)c4F)c4nc(c(-c5c(F)c(F)c(F)c(F)c5F)c5ccc2[nH]5)C=C4)C=C3)cc1
REMARK SMILES IDX 19 1 18 2 17 3 16 4 14 5 15 6 12 7 11 8 9 9 10 10 8 12 7 13
REMARK SMILES IDX 3 14 4 15 5 17 6 18 2 19 1 20 13 21 20 25 21 26 22 27 23 28
REMARK SMILES IDX 24 29 25 30 26 31 27 32 28 33 29 34 90 35 30 36 89 37 31 38
REMARK SMILES IDX 32 39 33 40 83 41 34 42 88 43 82 44 84 45 35 46 87 47 81 48
REMARK SMILES IDX 80 49 36 51 68 52 48 53 67 54 49 55 52 56 66 57 85 58 50 59
REMARK SMILES IDX 51 60 65 62 86 63 53 64 37 65 38 66 46 67 39 68 40 69 44 70
REMARK SMILES IDX 47 71 41 72 42 73 45 74 43 75 69 76 70 77 78 78 71 79 72 80
REMARK SMILES IDX 76 81 79 82 73 83 74 84 77 85 75 86 54 87 55 88 63 89 56 90
REMARK SMILES IDX 57 91 61 92 64 93 58 94 59 95 62 96 60 97
REMARK H PARENT 9 11 3 16 13 22 13 23 13 24 84 50 52 61
REMARK Flexibility Score: inf
ROOT
ATOM      1  O   UNL A   1      35.877  23.220  25.723  1.00  0.00    -0.376 OA
ENDROOT
BRANCH   1   2
ATOM      2  C   UNL A   1      35.082  23.642  24.622  1.00  0.00     0.202 C 
BRANCH   2   3
ATOM      3  C   UNL A   1      33.598  23.894  24.889  1.00  0.00     0.261 C 
BRANCH   3   4
ATOM      4  O   UNL A   1      33.217  24.238  26.249  1.00  0.00    -0.459 OA
BRANCH   4   5
ATOM      5  C   UNL A   1      32.225  23.485  26.816  1.00  0.00     0.370 C 
ATOM      6  O   UNL A   1      32.361  22.856  27.863  1.00  0.00    -0.245 OA
BRANCH   5   7
ATOM      7  C   UNL A   1      30.888  23.485  26.039  1.00  0.00     0.347 C 
BRANCH   7   8
ATOM      8  C   UNL A   1      30.156  24.850  25.879  1.00  0.00     0.340 C 
BRANCH   8   9
ATOM      9  N   UNL A   1      29.817  25.445  24.576  1.00  0.00    -0.327 N 
ATOM     10  C   UNL A   1      30.311  24.576  23.494  1.00  0.00     0.333 C 
ATOM     11  H   UNL A   1      28.799  25.508  24.580  1.00  0.00     0.348 HD
BRANCH   9  12
ATOM     12  C   UNL A   1      30.261  26.835  24.346  1.00  0.00     0.327 C 
BRANCH  12  13
ATOM     13  C   UNL A   1      31.758  27.298  24.348  1.00  0.00     0.239 C 
ATOM     14  N   UNL A   1      31.953  28.680  24.838  1.00  0.00    -0.328 N 
ATOM     15  C   UNL A   1      33.316  29.065  24.462  1.00  0.00     0.262 C 
ATOM     16  H   UNL A   1      31.210  29.216  24.387  1.00  0.00     0.348 HD
ATOM     17  C   UNL A   1      33.436  28.547  23.049  1.00  0.00     0.068 C 
ATOM     18  C   UNL A   1      32.466  27.376  22.987  1.00  0.00     0.077 C 
BRANCH  14  19
ATOM     19  C   UNL A   1      31.656  29.036  26.222  1.00  0.00     0.259 C 
ATOM     20  C   UNL A   1      32.558  28.415  27.284  1.00  0.00     0.071 C 
ENDBRANCH  14  19
ENDBRANCH  12  13
ENDBRANCH   9  12
ENDBRANCH   8   9
ENDBRANCH   7   8
BRANCH   7  21
ATOM     21  N   UNL A   1      29.920  22.464  26.527  1.00  0.00    -0.341 N 
ATOM     22  H   UNL A   1      30.318  21.533  26.405  1.00  0.00     0.345 HD
ATOM     23  H   UNL A   1      29.053  22.535  25.994  1.00  0.00     0.345 HD
ATOM     24  H   UNL A   1      29.726  22.624  27.515  1.00  0.00     0.345 HD
ENDBRANCH   7  21
ENDBRANCH   5   7
ENDBRANCH   4   5
ENDBRANCH   3   4
ENDBRANCH   2   3
ENDBRANCH   1   2
BRANCH   1  25
ATOM     25  C   UNL A   1      35.634  21.908  26.208  1.00  0.00     0.188 C 
BRANCH  25  26
ATOM     26  C   UNL A   1      35.844  20.751  25.214  1.00  0.00     0.188 C 
BRANCH  26  27
ATOM     27  O   UNL A   1      37.131  20.697  24.644  1.00  0.00    -0.376 OA
BRANCH  27  28
ATOM     28  C   UNL A   1      38.242  20.927  25.498  1.00  0.00     0.202 C 
BRANCH  28  29
ATOM     29  C   UNL A   1      39.381  19.894  25.645  1.00  0.00     0.261 C 
BRANCH  29  30
ATOM     30  O   UNL A   1      40.718  20.389  25.828  1.00  0.00    -0.460 OA
BRANCH  30  31
ATOM     31  C   UNL A   1      41.226  20.468  27.080  1.00  0.00     0.338 C 
ATOM     32  O   UNL A   1      41.691  19.556  27.741  1.00  0.00    -0.246 OA
BRANCH  31  33
ATOM     33  C   UNL A   1      41.395  21.917  27.380  1.00  0.00     0.060 A 
ATOM     34  C   UNL A   1      40.719  22.856  26.584  1.00  0.00     0.016 A 
ATOM     35  C   UNL A   1      42.089  22.341  28.519  1.00  0.00     0.016 A 
ATOM     36  C   UNL A   1      40.743  24.215  26.915  1.00  0.00     0.010 A 
ATOM     37  C   UNL A   1      42.146  23.704  28.828  1.00  0.00     0.010 A 
ATOM     38  C   UNL A   1      41.501  24.650  28.010  1.00  0.00    -0.014 A 
BRANCH  38  39
ATOM     39  C   UNL A   1      41.883  26.080  28.116  1.00  0.00     0.031 A 
ATOM     40  C   UNL A   1      43.223  26.466  27.547  1.00  0.00     0.074 A 
ATOM     41  C   UNL A   1      41.102  27.012  28.692  1.00  0.00     0.049 A 
ATOM     42  N   UNL A   1      43.850  27.613  27.580  1.00  0.00    -0.248 NA
ATOM     43  C   UNL A   1      43.957  25.399  26.845  1.00  0.00     0.031 C 
ATOM     44  C   UNL A   1      39.765  26.789  29.233  1.00  0.00     0.029 A 
ATOM     45  N   UNL A   1      41.343  28.346  28.924  1.00  0.00    -0.354 N 
ATOM     46  C   UNL A   1      45.049  27.400  26.913  1.00  0.00     0.074 A 
ATOM     47  C   UNL A   1      45.076  26.014  26.507  1.00  0.00     0.031 C 
ATOM     48  C   UNL A   1      39.311  27.943  29.758  1.00  0.00     0.029 A 
ATOM     49  C   UNL A   1      40.338  28.976  29.617  1.00  0.00     0.049 A 
ATOM     50  H   UNL A   1      42.160  28.806  28.624  1.00  0.00     0.167 HD
ATOM     51  C   UNL A   1      46.042  28.282  26.656  1.00  0.00     0.037 A 
ATOM     52  C   UNL A   1      40.274  30.233  30.104  1.00  0.00     0.037 A 
ATOM     53  C   UNL A   1      46.028  29.656  27.072  1.00  0.00     0.049 A 
ATOM     54  C   UNL A   1      41.436  31.175  29.886  1.00  0.00     0.074 A 
ATOM     55  C   UNL A   1      46.986  30.630  26.860  1.00  0.00     0.029 A 
ATOM     56  N   UNL A   1      45.006  30.246  27.799  1.00  0.00    -0.354 N 
ATOM     57  N   UNL A   1      42.558  30.976  29.237  1.00  0.00    -0.248 NA
ATOM     58  C   UNL A   1      41.321  32.519  30.473  1.00  0.00     0.031 C 
ATOM     59  C   UNL A   1      46.567  31.798  27.504  1.00  0.00     0.029 A 
ATOM     60  C   UNL A   1      45.321  31.567  28.066  1.00  0.00     0.049 A 
ATOM     61  H   UNL A   1      44.179  29.793  28.082  1.00  0.00     0.167 HD
ATOM     62  C   UNL A   1      43.263  32.172  29.309  1.00  0.00     0.074 A 
ATOM     63  C   UNL A   1      42.440  33.097  30.058  1.00  0.00     0.031 C 
ATOM     64  C   UNL A   1      44.482  32.479  28.799  1.00  0.00     0.037 A 
BRANCH  51  65
ATOM     65  C   UNL A   1      47.242  27.765  25.921  1.00  0.00     0.064 A 
ATOM     66  C   UNL A   1      47.304  27.765  24.520  1.00  0.00     0.173 A 
ATOM     67  C   UNL A   1      48.345  27.266  26.629  1.00  0.00     0.173 A 
ATOM     68  F   UNL A   1      46.263  28.208  23.798  1.00  0.00    -0.203 F 
ATOM     69  C   UNL A   1      48.418  27.261  23.854  1.00  0.00     0.198 A 
ATOM     70  C   UNL A   1      49.468  26.791  25.961  1.00  0.00     0.198 A 
ATOM     71  F   UNL A   1      48.331  27.238  27.971  1.00  0.00    -0.203 F 
ATOM     72  F   UNL A   1      48.434  27.222  22.514  1.00  0.00    -0.200 F 
ATOM     73  C   UNL A   1      49.501  26.782  24.575  1.00  0.00     0.200 A 
ATOM     74  F   UNL A   1      50.518  26.335  26.658  1.00  0.00    -0.200 F 
ATOM     75  F   UNL A   1      50.575  26.301  23.932  1.00  0.00    -0.200 F 
ENDBRANCH  51  65
BRANCH  52  76
ATOM     76  C   UNL A   1      39.081  30.683  30.872  1.00  0.00     0.064 A 
ATOM     77  C   UNL A   1      39.008  30.512  32.262  1.00  0.00     0.173 A 
ATOM     78  C   UNL A   1      37.970  31.246  30.227  1.00  0.00     0.173 A 
ATOM     79  F   UNL A   1      40.028  29.944  32.921  1.00  0.00    -0.203 F 
ATOM     80  C   UNL A   1      37.863  30.872  32.974  1.00  0.00     0.198 A 
ATOM     81  C   UNL A   1      36.838  31.632  30.943  1.00  0.00     0.198 A 
ATOM     82  F   UNL A   1      37.981  31.418  28.897  1.00  0.00    -0.203 F 
ATOM     83  F   UNL A   1      37.800  30.647  34.294  1.00  0.00    -0.200 F 
ATOM     84  C   UNL A   1      36.782  31.436  32.315  1.00  0.00     0.200 A 
ATOM     85  F   UNL A   1      35.796  32.179  30.303  1.00  0.00    -0.200 F 
ATOM     86  F   UNL A   1      35.681  31.777  32.999  1.00  0.00    -0.200 F 
ENDBRANCH  52  76
BRANCH  64  87
ATOM     87  C   UNL A   1      44.986  33.882  28.987  1.00  0.00     0.064 A 
ATOM     88  C   UNL A   1      44.671  34.908  28.085  1.00  0.00     0.173 A 
ATOM     89  C   UNL A   1      45.740  34.215  30.123  1.00  0.00     0.173 A 
ATOM     90  F   UNL A   1      43.962  34.639  26.978  1.00  0.00    -0.203 F 
ATOM     91  C   UNL A   1      45.112  36.211  28.301  1.00  0.00     0.198 A 
ATOM     92  C   UNL A   1      46.152  35.525  30.352  1.00  0.00     0.198 A 
ATOM     93  F   UNL A   1      46.058  33.274  31.024  1.00  0.00    -0.203 F 
ATOM     94  F   UNL A   1      44.834  37.168  27.404  1.00  0.00    -0.200 F 
ATOM     95  C   UNL A   1      45.843  36.520  29.438  1.00  0.00     0.200 A 
ATOM     96  F   UNL A   1      46.843  35.824  31.461  1.00  0.00    -0.200 F 
ATOM     97  F   UNL A   1      46.255  37.778  29.650  1.00  0.00    -0.200 F 
ENDBRANCH  64  87
ENDBRANCH  38  39
ENDBRANCH  31  33
ENDBRANCH  30  31
ENDBRANCH  29  30
ENDBRANCH  28  29
ENDBRANCH  27  28
ENDBRANCH  26  27
ENDBRANCH  25  26
ENDBRANCH   1  25
TORSDOF 23
ENDMDL
