MODEL 1
REMARK VINA RESULT:     -11.5      0.000      0.000
REMARK SMILES C[C@H](C(=O)OCCOCCOCCOC(=O)c1ccc(-c2c3nc(c(-c4c(F)c(F)c(F)c(F)c4F)c4ccc([nH]4)c(-c4c(F)c(F)c(F)c(F)c4F)c4nc(c(-c5c(F)c(F)c(F)c(F)c5F)c5ccc2[nH]5)C=C4)C=C3)cc1)c1cccc(C(=O)c2ccccc2)c1
REMARK SMILES IDX 9 1 8 2 7 3 6 4 5 5 3 6 4 7 2 8 1 9 80 10 81 11 93 12 82 13
REMARK SMILES IDX 84 14 83 15 85 16 86 17 87 18 88 19 92 20 89 21 91 22 90 23
REMARK SMILES IDX 10 24 11 25 12 26 13 27 14 28 15 29 16 30 17 31 18 32 79 33
REMARK SMILES IDX 19 34 78 35 20 36 21 37 22 38 72 39 23 40 77 41 71 42 73 43
REMARK SMILES IDX 24 44 76 45 70 46 69 47 25 49 57 50 37 51 56 52 38 53 41 54
REMARK SMILES IDX 55 55 74 56 39 57 40 58 54 60 75 61 42 62 26 63 27 64 35 65
REMARK SMILES IDX 28 66 29 67 33 68 36 69 30 70 31 71 34 72 32 73 58 74 59 75
REMARK SMILES IDX 67 76 60 77 61 78 65 79 68 80 62 81 63 82 66 83 64 84 43 85
REMARK SMILES IDX 44 86 52 87 45 88 46 89 50 90 53 91 47 92 48 93 51 94 49 95
REMARK H PARENT 73 48 41 59
REMARK Flexibility Score: inf
ROOT
ATOM      1  C   UNL A   1      33.729  27.765  26.357  1.00  0.00     0.188 C 
ENDROOT
BRANCH   1   2
ATOM      2  O   UNL A   1      32.970  26.572  26.438  1.00  0.00    -0.376 OA
BRANCH   2   3
ATOM      3  C   UNL A   1      33.571  25.404  25.875  1.00  0.00     0.202 C 
BRANCH   3   4
ATOM      4  C   UNL A   1      34.377  25.598  24.581  1.00  0.00     0.261 C 
BRANCH   4   5
ATOM      5  O   UNL A   1      33.729  25.094  23.382  1.00  0.00    -0.463 OA
BRANCH   5   6
ATOM      6  C   UNL A   1      33.362  26.046  22.477  1.00  0.00     0.313 C 
ATOM      7  O   UNL A   1      33.603  25.968  21.274  1.00  0.00    -0.252 OA
BRANCH   6   8
ATOM      8  C   UNL A   1      32.528  27.204  23.035  1.00  0.00     0.126 C 
ATOM      9  C   UNL A   1      32.998  28.510  22.390  1.00  0.00     0.025 C 
BRANCH   8  10
ATOM     10  C   UNL A   1      31.014  27.011  23.168  1.00  0.00    -0.033 A 
ATOM     11  C   UNL A   1      30.583  25.830  23.800  1.00  0.00     0.004 A 
ATOM     12  C   UNL A   1      30.043  28.012  22.891  1.00  0.00     0.016 A 
ATOM     13  C   UNL A   1      29.251  25.650  24.157  1.00  0.00     0.001 A 
ATOM     14  C   UNL A   1      28.693  27.839  23.254  1.00  0.00     0.023 A 
ATOM     15  C   UNL A   1      28.317  26.648  23.893  1.00  0.00     0.012 A 
BRANCH  14  16
ATOM     16  C   UNL A   1      27.614  28.874  23.146  1.00  0.00     0.193 C 
ATOM     17  O   UNL A   1      26.458  28.570  23.448  1.00  0.00    -0.289 OA
BRANCH  16  18
ATOM     18  C   UNL A   1      27.795  30.242  22.631  1.00  0.00     0.022 A 
ATOM     19  C   UNL A   1      27.979  30.475  21.266  1.00  0.00     0.012 A 
ATOM     20  C   UNL A   1      28.005  31.281  23.550  1.00  0.00     0.012 A 
ATOM     21  C   UNL A   1      28.297  31.765  20.822  1.00  0.00     0.001 A 
ATOM     22  C   UNL A   1      28.292  32.573  23.099  1.00  0.00     0.001 A 
ATOM     23  C   UNL A   1      28.434  32.815  21.734  1.00  0.00     0.000 A 
ENDBRANCH  16  18
ENDBRANCH  14  16
ENDBRANCH   8  10
ENDBRANCH   6   8
ENDBRANCH   5   6
ENDBRANCH   4   5
ENDBRANCH   3   4
ENDBRANCH   2   3
ENDBRANCH   1   2
BRANCH   1  24
ATOM     24  C   UNL A   1      33.309  28.932  27.260  1.00  0.00     0.188 C 
BRANCH  24  25
ATOM     25  O   UNL A   1      33.494  30.230  26.715  1.00  0.00    -0.376 OA
BRANCH  25  26
ATOM     26  C   UNL A   1      32.650  31.254  27.242  1.00  0.00     0.202 C 
BRANCH  26  27
ATOM     27  C   UNL A   1      33.364  32.596  27.517  1.00  0.00     0.261 C 
BRANCH  27  28
ATOM     28  O   UNL A   1      32.522  33.740  27.790  1.00  0.00    -0.460 OA
BRANCH  28  29
ATOM     29  C   UNL A   1      33.095  34.708  28.539  1.00  0.00     0.338 C 
ATOM     30  O   UNL A   1      32.670  35.837  28.665  1.00  0.00    -0.246 OA
BRANCH  29  31
ATOM     31  C   UNL A   1      34.187  34.192  29.396  1.00  0.00     0.060 A 
ATOM     32  C   UNL A   1      35.491  34.449  28.953  1.00  0.00     0.016 A 
ATOM     33  C   UNL A   1      33.985  33.471  30.572  1.00  0.00     0.016 A 
ATOM     34  C   UNL A   1      36.589  33.927  29.619  1.00  0.00     0.010 A 
ATOM     35  C   UNL A   1      35.094  32.963  31.262  1.00  0.00     0.010 A 
ATOM     36  C   UNL A   1      36.397  33.163  30.769  1.00  0.00    -0.014 A 
BRANCH  36  37
ATOM     37  C   UNL A   1      37.573  32.526  31.398  1.00  0.00     0.031 A 
ATOM     38  C   UNL A   1      38.273  31.399  30.699  1.00  0.00     0.074 A 
ATOM     39  C   UNL A   1      38.064  33.022  32.547  1.00  0.00     0.049 A 
ATOM     40  N   UNL A   1      39.319  30.711  31.076  1.00  0.00    -0.248 NA
ATOM     41  C   UNL A   1      37.738  31.010  29.386  1.00  0.00     0.031 C 
ATOM     42  C   UNL A   1      37.522  34.175  33.266  1.00  0.00     0.029 A 
ATOM     43  N   UNL A   1      39.126  32.615  33.311  1.00  0.00    -0.354 N 
ATOM     44  C   UNL A   1      39.577  29.821  30.041  1.00  0.00     0.074 A 
ATOM     45  C   UNL A   1      38.566  30.040  29.029  1.00  0.00     0.031 C 
ATOM     46  C   UNL A   1      38.241  34.367  34.383  1.00  0.00     0.029 A 
ATOM     47  C   UNL A   1      39.258  33.325  34.479  1.00  0.00     0.049 A 
ATOM     48  H   UNL A   1      39.734  31.887  33.048  1.00  0.00     0.167 HD
ATOM     49  C   UNL A   1      40.569  28.903  29.951  1.00  0.00     0.037 A 
ATOM     50  C   UNL A   1      40.076  33.120  35.527  1.00  0.00     0.037 A 
ATOM     51  C   UNL A   1      41.539  28.657  30.985  1.00  0.00     0.049 A 
ATOM     52  C   UNL A   1      41.070  31.992  35.471  1.00  0.00     0.074 A 
ATOM     53  C   UNL A   1      42.559  27.723  31.010  1.00  0.00     0.029 A 
ATOM     54  N   UNL A   1      41.592  29.341  32.192  1.00  0.00    -0.354 N 
ATOM     55  N   UNL A   1      41.306  31.147  34.496  1.00  0.00    -0.248 NA
ATOM     56  C   UNL A   1      41.906  31.787  36.661  1.00  0.00     0.031 C 
ATOM     57  C   UNL A   1      43.192  27.802  32.256  1.00  0.00     0.029 A 
ATOM     58  C   UNL A   1      42.602  28.823  32.985  1.00  0.00     0.049 A 
ATOM     59  H   UNL A   1      41.000  30.085  32.447  1.00  0.00     0.167 HD
ATOM     60  C   UNL A   1      42.330  30.324  34.944  1.00  0.00     0.074 A 
ATOM     61  C   UNL A   1      42.677  30.779  36.275  1.00  0.00     0.031 C 
ATOM     62  C   UNL A   1      42.930  29.287  34.309  1.00  0.00     0.037 A 
BRANCH  49  63
ATOM     63  C   UNL A   1      40.618  28.061  28.712  1.00  0.00     0.064 A 
ATOM     64  C   UNL A   1      41.369  28.444  27.590  1.00  0.00     0.173 A 
ATOM     65  C   UNL A   1      39.925  26.842  28.654  1.00  0.00     0.173 A 
ATOM     66  F   UNL A   1      42.032  29.610  27.588  1.00  0.00    -0.203 F 
ATOM     67  C   UNL A   1      41.413  27.643  26.451  1.00  0.00     0.198 A 
ATOM     68  C   UNL A   1      39.989  26.034  27.523  1.00  0.00     0.198 A 
ATOM     69  F   UNL A   1      39.189  26.435  29.699  1.00  0.00    -0.203 F 
ATOM     70  F   UNL A   1      42.107  28.045  25.377  1.00  0.00    -0.200 F 
ATOM     71  C   UNL A   1      40.728  26.436  26.422  1.00  0.00     0.200 A 
ATOM     72  F   UNL A   1      39.331  24.867  27.498  1.00  0.00    -0.200 F 
ATOM     73  F   UNL A   1      40.774  25.666  25.326  1.00  0.00    -0.200 F 
ENDBRANCH  49  63
BRANCH  50  74
ATOM     74  C   UNL A   1      39.942  33.972  36.736  1.00  0.00     0.064 A 
ATOM     75  C   UNL A   1      39.092  33.616  37.790  1.00  0.00     0.173 A 
ATOM     76  C   UNL A   1      40.677  35.162  36.861  1.00  0.00     0.173 A 
ATOM     77  F   UNL A   1      38.352  32.502  37.705  1.00  0.00    -0.203 F 
ATOM     78  C   UNL A   1      38.975  34.421  38.921  1.00  0.00     0.198 A 
ATOM     79  C   UNL A   1      40.581  35.952  38.003  1.00  0.00     0.198 A 
ATOM     80  F   UNL A   1      41.503  35.548  35.877  1.00  0.00    -0.203 F 
ATOM     81  F   UNL A   1      38.128  34.078  39.901  1.00  0.00    -0.200 F 
ATOM     82  C   UNL A   1      39.726  35.584  39.031  1.00  0.00     0.200 A 
ATOM     83  F   UNL A   1      41.318  37.066  38.109  1.00  0.00    -0.200 F 
ATOM     84  F   UNL A   1      39.620  36.351  40.123  1.00  0.00    -0.200 F 
ENDBRANCH  50  74
BRANCH  62  85
ATOM     85  C   UNL A   1      44.041  28.590  35.038  1.00  0.00     0.064 A 
ATOM     86  C   UNL A   1      43.801  27.467  35.844  1.00  0.00     0.173 A 
ATOM     87  C   UNL A   1      45.366  29.029  34.897  1.00  0.00     0.173 A 
ATOM     88  F   UNL A   1      42.548  27.019  36.021  1.00  0.00    -0.203 F 
ATOM     89  C   UNL A   1      44.845  26.824  36.502  1.00  0.00     0.198 A 
ATOM     90  C   UNL A   1      46.411  28.365  35.535  1.00  0.00     0.198 A 
ATOM     91  F   UNL A   1      45.649  30.093  34.132  1.00  0.00    -0.203 F 
ATOM     92  F   UNL A   1      44.588  25.781  37.304  1.00  0.00    -0.200 F 
ATOM     93  C   UNL A   1      46.149  27.269  36.342  1.00  0.00     0.200 A 
ATOM     94  F   UNL A   1      47.672  28.788  35.369  1.00  0.00    -0.200 F 
ATOM     95  F   UNL A   1      47.153  26.644  36.972  1.00  0.00    -0.200 F 
ENDBRANCH  62  85
ENDBRANCH  36  37
ENDBRANCH  29  31
ENDBRANCH  28  29
ENDBRANCH  27  28
ENDBRANCH  26  27
ENDBRANCH  25  26
ENDBRANCH  24  25
ENDBRANCH   1  24
TORSDOF 20
ENDMDL
MODEL 2
REMARK VINA RESULT:     -11.2      1.522      7.671
REMARK SMILES C[C@H](C(=O)OCCOCCOCCOC(=O)c1ccc(-c2c3nc(c(-c4c(F)c(F)c(F)c(F)c4F)c4ccc([nH]4)c(-c4c(F)c(F)c(F)c(F)c4F)c4nc(c(-c5c(F)c(F)c(F)c(F)c5F)c5ccc2[nH]5)C=C4)C=C3)cc1)c1cccc(C(=O)c2ccccc2)c1
REMARK SMILES IDX 9 1 8 2 7 3 6 4 5 5 3 6 4 7 2 8 1 9 80 10 81 11 93 12 82 13
REMARK SMILES IDX 84 14 83 15 85 16 86 17 87 18 88 19 92 20 89 21 91 22 90 23
REMARK SMILES IDX 10 24 11 25 12 26 13 27 14 28 15 29 16 30 17 31 18 32 79 33
REMARK SMILES IDX 19 34 78 35 20 36 21 37 22 38 72 39 23 40 77 41 71 42 73 43
REMARK SMILES IDX 24 44 76 45 70 46 69 47 25 49 57 50 37 51 56 52 38 53 41 54
REMARK SMILES IDX 55 55 74 56 39 57 40 58 54 60 75 61 42 62 26 63 27 64 35 65
REMARK SMILES IDX 28 66 29 67 33 68 36 69 30 70 31 71 34 72 32 73 58 74 59 75
REMARK SMILES IDX 67 76 60 77 61 78 65 79 68 80 62 81 63 82 66 83 64 84 43 85
REMARK SMILES IDX 44 86 52 87 45 88 46 89 50 90 53 91 47 92 48 93 51 94 49 95
REMARK H PARENT 73 48 41 59
REMARK Flexibility Score: inf
ROOT
ATOM      1  C   UNL A   1      34.639  32.625  28.417  1.00  0.00     0.188 C 
ENDROOT
BRANCH   1   2
ATOM      2  O   UNL A   1      34.689  31.218  28.263  1.00  0.00    -0.376 OA
BRANCH   2   3
ATOM      3  C   UNL A   1      33.826  30.663  27.266  1.00  0.00     0.202 C 
BRANCH   3   4
ATOM      4  C   UNL A   1      33.837  29.134  27.116  1.00  0.00     0.261 C 
BRANCH   4   5
ATOM      5  O   UNL A   1      32.817  28.605  26.226  1.00  0.00    -0.463 OA
BRANCH   5   6
ATOM      6  C   UNL A   1      33.244  27.637  25.366  1.00  0.00     0.313 C 
ATOM      7  O   UNL A   1      33.979  26.709  25.698  1.00  0.00    -0.252 OA
BRANCH   6   8
ATOM      8  C   UNL A   1      32.669  27.711  23.948  1.00  0.00     0.126 C 
ATOM      9  C   UNL A   1      33.664  27.073  22.975  1.00  0.00     0.025 C 
BRANCH   8  10
ATOM     10  C   UNL A   1      31.191  27.362  23.744  1.00  0.00    -0.033 A 
ATOM     11  C   UNL A   1      30.781  26.086  24.171  1.00  0.00     0.004 A 
ATOM     12  C   UNL A   1      30.187  28.290  23.353  1.00  0.00     0.016 A 
ATOM     13  C   UNL A   1      29.433  25.745  24.224  1.00  0.00     0.001 A 
ATOM     14  C   UNL A   1      28.821  27.953  23.407  1.00  0.00     0.023 A 
ATOM     15  C   UNL A   1      28.464  26.672  23.853  1.00  0.00     0.012 A 
BRANCH  14  16
ATOM     16  C   UNL A   1      27.675  28.887  23.161  1.00  0.00     0.193 C 
ATOM     17  O   UNL A   1      26.525  28.492  23.364  1.00  0.00    -0.289 OA
BRANCH  16  18
ATOM     18  C   UNL A   1      27.789  30.250  22.616  1.00  0.00     0.022 A 
ATOM     19  C   UNL A   1      27.971  30.461  21.247  1.00  0.00     0.012 A 
ATOM     20  C   UNL A   1      27.937  31.319  23.512  1.00  0.00     0.012 A 
ATOM     21  C   UNL A   1      28.225  31.755  20.775  1.00  0.00     0.001 A 
ATOM     22  C   UNL A   1      28.161  32.614  23.033  1.00  0.00     0.001 A 
ATOM     23  C   UNL A   1      28.301  32.831  21.664  1.00  0.00     0.000 A 
ENDBRANCH  16  18
ENDBRANCH  14  16
ENDBRANCH   8  10
ENDBRANCH   6   8
ENDBRANCH   5   6
ENDBRANCH   4   5
ENDBRANCH   3   4
ENDBRANCH   2   3
ENDBRANCH   1   2
BRANCH   1  24
ATOM     24  C   UNL A   1      33.362  33.341  27.959  1.00  0.00     0.188 C 
BRANCH  24  25
ATOM     25  O   UNL A   1      32.824  34.285  28.873  1.00  0.00    -0.376 OA
BRANCH  25  26
ATOM     26  C   UNL A   1      33.581  35.482  29.051  1.00  0.00     0.202 C 
BRANCH  26  27
ATOM     27  C   UNL A   1      32.871  36.573  29.884  1.00  0.00     0.261 C 
BRANCH  27  28
ATOM     28  O   UNL A   1      33.280  36.710  31.265  1.00  0.00    -0.460 OA
BRANCH  28  29
ATOM     29  C   UNL A   1      32.889  35.705  32.079  1.00  0.00     0.338 C 
ATOM     30  O   UNL A   1      31.745  35.326  32.221  1.00  0.00    -0.246 OA
BRANCH  29  31
ATOM     31  C   UNL A   1      34.032  34.936  32.623  1.00  0.00     0.060 A 
ATOM     32  C   UNL A   1      35.293  35.530  32.489  1.00  0.00     0.016 A 
ATOM     33  C   UNL A   1      33.917  33.683  33.225  1.00  0.00     0.016 A 
ATOM     34  C   UNL A   1      36.445  34.858  32.868  1.00  0.00     0.010 A 
ATOM     35  C   UNL A   1      35.076  33.011  33.633  1.00  0.00     0.010 A 
ATOM     36  C   UNL A   1      36.346  33.583  33.425  1.00  0.00    -0.014 A 
BRANCH  36  37
ATOM     37  C   UNL A   1      37.591  32.843  33.719  1.00  0.00     0.031 A 
ATOM     38  C   UNL A   1      38.332  33.110  34.995  1.00  0.00     0.074 A 
ATOM     39  C   UNL A   1      38.001  31.872  32.885  1.00  0.00     0.049 A 
ATOM     40  N   UNL A   1      39.436  32.569  35.442  1.00  0.00    -0.248 NA
ATOM     41  C   UNL A   1      37.737  34.101  35.904  1.00  0.00     0.031 C 
ATOM     42  C   UNL A   1      37.307  31.462  31.664  1.00  0.00     0.029 A 
ATOM     43  N   UNL A   1      39.102  31.058  32.939  1.00  0.00    -0.354 N 
ATOM     44  C   UNL A   1      39.658  33.141  36.688  1.00  0.00     0.074 A 
ATOM     45  C   UNL A   1      38.587  34.087  36.919  1.00  0.00     0.031 C 
ATOM     46  C   UNL A   1      38.014  30.489  31.069  1.00  0.00     0.029 A 
ATOM     47  C   UNL A   1      39.229  30.244  31.841  1.00  0.00     0.049 A 
ATOM     48  H   UNL A   1      39.737  31.056  33.691  1.00  0.00     0.167 HD
ATOM     49  C   UNL A   1      40.669  32.897  37.555  1.00  0.00     0.037 A 
ATOM     50  C   UNL A   1      40.239  29.432  31.479  1.00  0.00     0.037 A 
ATOM     51  C   UNL A   1      41.758  31.993  37.294  1.00  0.00     0.049 A 
ATOM     52  C   UNL A   1      41.430  29.295  32.388  1.00  0.00     0.074 A 
ATOM     53  C   UNL A   1      42.852  31.705  38.089  1.00  0.00     0.029 A 
ATOM     54  N   UNL A   1      41.897  31.245  36.133  1.00  0.00    -0.354 N 
ATOM     55  N   UNL A   1      41.641  29.843  33.560  1.00  0.00    -0.248 NA
ATOM     56  C   UNL A   1      42.522  28.432  31.921  1.00  0.00     0.031 C 
ATOM     57  C   UNL A   1      43.685  30.828  37.384  1.00  0.00     0.029 A 
ATOM     58  C   UNL A   1      43.080  30.526  36.174  1.00  0.00     0.049 A 
ATOM     59  H   UNL A   1      41.251  31.228  35.391  1.00  0.00     0.167 HD
ATOM     60  C   UNL A   1      42.878  29.375  33.982  1.00  0.00     0.074 A 
ATOM     61  C   UNL A   1      43.365  28.490  32.944  1.00  0.00     0.031 C 
ATOM     62  C   UNL A   1      43.549  29.653  35.128  1.00  0.00     0.037 A 
BRANCH  49  63
ATOM     63  C   UNL A   1      40.669  33.662  38.845  1.00  0.00     0.064 A 
ATOM     64  C   UNL A   1      39.868  33.277  39.930  1.00  0.00     0.173 A 
ATOM     65  C   UNL A   1      41.503  34.779  39.007  1.00  0.00     0.173 A 
ATOM     66  F   UNL A   1      39.038  32.229  39.817  1.00  0.00    -0.203 F 
ATOM     67  C   UNL A   1      39.890  33.992  41.125  1.00  0.00     0.198 A 
ATOM     68  C   UNL A   1      41.539  35.478  40.210  1.00  0.00     0.198 A 
ATOM     69  F   UNL A   1      42.285  35.189  37.997  1.00  0.00    -0.203 F 
ATOM     70  F   UNL A   1      39.088  33.630  42.137  1.00  0.00    -0.200 F 
ATOM     71  C   UNL A   1      40.730  35.087  41.266  1.00  0.00     0.200 A 
ATOM     72  F   UNL A   1      42.356  36.532  40.346  1.00  0.00    -0.200 F 
ATOM     73  F   UNL A   1      40.753  35.772  42.417  1.00  0.00    -0.200 F 
ENDBRANCH  49  63
BRANCH  50  74
ATOM     74  C   UNL A   1      40.184  28.737  30.168  1.00  0.00     0.064 A 
ATOM     75  C   UNL A   1      40.756  29.298  29.019  1.00  0.00     0.173 A 
ATOM     76  C   UNL A   1      39.560  27.486  30.044  1.00  0.00     0.173 A 
ATOM     77  F   UNL A   1      41.341  30.502  29.083  1.00  0.00    -0.203 F 
ATOM     78  C   UNL A   1      40.701  28.636  27.794  1.00  0.00     0.198 A 
ATOM     79  C   UNL A   1      39.530  26.812  28.826  1.00  0.00     0.198 A 
ATOM     80  F   UNL A   1      38.994  26.909  31.115  1.00  0.00    -0.203 F 
ATOM     81  F   UNL A   1      41.225  29.208  26.702  1.00  0.00    -0.200 F 
ATOM     82  C   UNL A   1      40.096  27.390  27.700  1.00  0.00     0.200 A 
ATOM     83  F   UNL A   1      38.955  25.605  28.744  1.00  0.00    -0.200 F 
ATOM     84  F   UNL A   1      40.052  26.751  26.524  1.00  0.00    -0.200 F 
ENDBRANCH  50  74
BRANCH  62  85
ATOM     85  C   UNL A   1      44.871  28.971  35.328  1.00  0.00     0.064 A 
ATOM     86  C   UNL A   1      46.072  29.557  34.902  1.00  0.00     0.173 A 
ATOM     87  C   UNL A   1      44.938  27.735  35.987  1.00  0.00     0.173 A 
ATOM     88  F   UNL A   1      46.057  30.732  34.254  1.00  0.00    -0.203 F 
ATOM     89  C   UNL A   1      47.291  28.918  35.109  1.00  0.00     0.198 A 
ATOM     90  C   UNL A   1      46.162  27.112  36.216  1.00  0.00     0.198 A 
ATOM     91  F   UNL A   1      43.818  27.136  36.419  1.00  0.00    -0.203 F 
ATOM     92  F   UNL A   1      48.422  29.474  34.653  1.00  0.00    -0.200 F 
ATOM     93  C   UNL A   1      47.336  27.700  35.771  1.00  0.00     0.200 A 
ATOM     94  F   UNL A   1      46.205  25.941  36.868  1.00  0.00    -0.200 F 
ATOM     95  F   UNL A   1      48.512  27.089  35.973  1.00  0.00    -0.200 F 
ENDBRANCH  62  85
ENDBRANCH  36  37
ENDBRANCH  29  31
ENDBRANCH  28  29
ENDBRANCH  27  28
ENDBRANCH  26  27
ENDBRANCH  25  26
ENDBRANCH  24  25
ENDBRANCH   1  24
TORSDOF 20
ENDMDL
MODEL 3
REMARK VINA RESULT:     -11.2      0.856      2.132
REMARK SMILES C[C@H](C(=O)OCCOCCOCCOC(=O)c1ccc(-c2c3nc(c(-c4c(F)c(F)c(F)c(F)c4F)c4ccc([nH]4)c(-c4c(F)c(F)c(F)c(F)c4F)c4nc(c(-c5c(F)c(F)c(F)c(F)c5F)c5ccc2[nH]5)C=C4)C=C3)cc1)c1cccc(C(=O)c2ccccc2)c1
REMARK SMILES IDX 9 1 8 2 7 3 6 4 5 5 3 6 4 7 2 8 1 9 80 10 81 11 93 12 82 13
REMARK SMILES IDX 84 14 83 15 85 16 86 17 87 18 88 19 92 20 89 21 91 22 90 23
REMARK SMILES IDX 10 24 11 25 12 26 13 27 14 28 15 29 16 30 17 31 18 32 79 33
REMARK SMILES IDX 19 34 78 35 20 36 21 37 22 38 72 39 23 40 77 41 71 42 73 43
REMARK SMILES IDX 24 44 76 45 70 46 69 47 25 49 57 50 37 51 56 52 38 53 41 54
REMARK SMILES IDX 55 55 74 56 39 57 40 58 54 60 75 61 42 62 26 63 27 64 35 65
REMARK SMILES IDX 28 66 29 67 33 68 36 69 30 70 31 71 34 72 32 73 58 74 59 75
REMARK SMILES IDX 67 76 60 77 61 78 65 79 68 80 62 81 63 82 66 83 64 84 43 85
REMARK SMILES IDX 44 86 52 87 45 88 46 89 50 90 53 91 47 92 48 93 51 94 49 95
REMARK H PARENT 73 48 41 59
REMARK Flexibility Score: inf
ROOT
ATOM      1  C   UNL A   1      33.671  28.510  25.420  1.00  0.00     0.188 C 
ENDROOT
BRANCH   1   2
ATOM      2  O   UNL A   1      33.004  28.079  24.247  1.00  0.00    -0.376 OA
BRANCH   2   3
ATOM      3  C   UNL A   1      33.819  27.916  23.083  1.00  0.00     0.202 C 
BRANCH   3   4
ATOM      4  C   UNL A   1      33.354  26.872  22.056  1.00  0.00     0.261 C 
BRANCH   4   5
ATOM      5  O   UNL A   1      34.079  25.613  22.101  1.00  0.00    -0.463 OA
BRANCH   5   6
ATOM      6  C   UNL A   1      33.340  24.507  21.804  1.00  0.00     0.313 C 
ATOM      7  O   UNL A   1      33.196  24.072  20.663  1.00  0.00    -0.252 OA
BRANCH   6   8
ATOM      8  C   UNL A   1      32.758  23.756  23.005  1.00  0.00     0.126 C 
ATOM      9  C   UNL A   1      33.881  22.982  23.699  1.00  0.00     0.025 C 
BRANCH   8  10
ATOM     10  C   UNL A   1      31.771  24.495  23.916  1.00  0.00    -0.033 A 
ATOM     11  C   UNL A   1      32.176  24.701  25.247  1.00  0.00     0.004 A 
ATOM     12  C   UNL A   1      30.593  25.153  23.466  1.00  0.00     0.016 A 
ATOM     13  C   UNL A   1      31.456  25.533  26.097  1.00  0.00     0.001 A 
ATOM     14  C   UNL A   1      29.861  26.001  24.321  1.00  0.00     0.023 A 
ATOM     15  C   UNL A   1      30.314  26.182  25.635  1.00  0.00     0.012 A 
BRANCH  14  16
ATOM     16  C   UNL A   1      28.696  26.855  23.922  1.00  0.00     0.193 C 
ATOM     17  O   UNL A   1      27.552  26.436  24.113  1.00  0.00    -0.289 OA
BRANCH  16  18
ATOM     18  C   UNL A   1      28.787  28.156  23.239  1.00  0.00     0.022 A 
ATOM     19  C   UNL A   1      27.641  28.912  22.980  1.00  0.00     0.012 A 
ATOM     20  C   UNL A   1      30.008  28.521  22.653  1.00  0.00     0.012 A 
ATOM     21  C   UNL A   1      27.738  30.071  22.200  1.00  0.00     0.001 A 
ATOM     22  C   UNL A   1      30.107  29.695  21.900  1.00  0.00     0.001 A 
ATOM     23  C   UNL A   1      28.971  30.471  21.677  1.00  0.00     0.000 A 
ENDBRANCH  16  18
ENDBRANCH  14  16
ENDBRANCH   8  10
ENDBRANCH   6   8
ENDBRANCH   5   6
ENDBRANCH   4   5
ENDBRANCH   3   4
ENDBRANCH   2   3
ENDBRANCH   1   2
BRANCH   1  24
ATOM     24  C   UNL A   1      32.814  29.123  26.535  1.00  0.00     0.188 C 
BRANCH  24  25
ATOM     25  O   UNL A   1      33.379  30.241  27.203  1.00  0.00    -0.376 OA
BRANCH  25  26
ATOM     26  C   UNL A   1      32.638  31.457  27.120  1.00  0.00     0.202 C 
BRANCH  26  27
ATOM     27  C   UNL A   1      33.312  32.668  27.805  1.00  0.00     0.261 C 
BRANCH  27  28
ATOM     28  O   UNL A   1      32.571  33.911  27.810  1.00  0.00    -0.460 OA
BRANCH  28  29
ATOM     29  C   UNL A   1      33.073  34.873  28.616  1.00  0.00     0.338 C 
ATOM     30  O   UNL A   1      32.587  35.973  28.775  1.00  0.00    -0.246 OA
BRANCH  29  31
ATOM     31  C   UNL A   1      34.164  34.375  29.485  1.00  0.00     0.060 A 
ATOM     32  C   UNL A   1      35.457  34.442  28.948  1.00  0.00     0.016 A 
ATOM     33  C   UNL A   1      33.970  33.845  30.759  1.00  0.00     0.016 A 
ATOM     34  C   UNL A   1      36.542  33.912  29.629  1.00  0.00     0.010 A 
ATOM     35  C   UNL A   1      35.069  33.331  31.461  1.00  0.00     0.010 A 
ATOM     36  C   UNL A   1      36.352  33.333  30.883  1.00  0.00    -0.014 A 
BRANCH  36  37
ATOM     37  C   UNL A   1      37.503  32.678  31.539  1.00  0.00     0.031 A 
ATOM     38  C   UNL A   1      38.197  31.536  30.858  1.00  0.00     0.074 A 
ATOM     39  C   UNL A   1      37.977  33.168  32.698  1.00  0.00     0.049 A 
ATOM     40  N   UNL A   1      39.222  30.830  31.260  1.00  0.00    -0.248 NA
ATOM     41  C   UNL A   1      37.684  31.153  29.535  1.00  0.00     0.031 C 
ATOM     42  C   UNL A   1      37.440  34.333  33.401  1.00  0.00     0.029 A 
ATOM     43  N   UNL A   1      39.015  32.745  33.486  1.00  0.00    -0.354 N 
ATOM     44  C   UNL A   1      39.487  29.933  30.234  1.00  0.00     0.074 A 
ATOM     45  C   UNL A   1      38.502  30.167  29.199  1.00  0.00     0.031 C 
ATOM     46  C   UNL A   1      38.138  34.516  34.533  1.00  0.00     0.029 A 
ATOM     47  C   UNL A   1      39.134  33.455  34.654  1.00  0.00     0.049 A 
ATOM     48  H   UNL A   1      39.615  32.005  33.238  1.00  0.00     0.167 HD
ATOM     49  C   UNL A   1      40.463  28.997  30.168  1.00  0.00     0.037 A 
ATOM     50  C   UNL A   1      39.926  33.239  35.721  1.00  0.00     0.037 A 
ATOM     51  C   UNL A   1      41.406  28.737  31.223  1.00  0.00     0.049 A 
ATOM     52  C   UNL A   1      40.899  32.093  35.689  1.00  0.00     0.074 A 
ATOM     53  C   UNL A   1      42.408  27.785  31.273  1.00  0.00     0.029 A 
ATOM     54  N   UNL A   1      41.445  29.423  32.429  1.00  0.00    -0.354 N 
ATOM     55  N   UNL A   1      41.141  31.241  34.722  1.00  0.00    -0.248 NA
ATOM     56  C   UNL A   1      41.705  31.876  36.897  1.00  0.00     0.031 C 
ATOM     57  C   UNL A   1      43.015  27.855  32.532  1.00  0.00     0.029 A 
ATOM     58  C   UNL A   1      42.428  28.889  33.245  1.00  0.00     0.049 A 
ATOM     59  H   UNL A   1      40.861  30.178  32.669  1.00  0.00     0.167 HD
ATOM     60  C   UNL A   1      42.140  30.401  35.194  1.00  0.00     0.074 A 
ATOM     61  C   UNL A   1      42.467  30.854  36.531  1.00  0.00     0.031 C 
ATOM     62  C   UNL A   1      42.735  29.351  34.575  1.00  0.00     0.037 A 
BRANCH  49  63
ATOM     63  C   UNL A   1      40.524  28.151  28.931  1.00  0.00     0.064 A 
ATOM     64  C   UNL A   1      39.803  26.953  28.822  1.00  0.00     0.173 A 
ATOM     65  C   UNL A   1      41.293  28.558  27.831  1.00  0.00     0.173 A 
ATOM     66  F   UNL A   1      39.069  26.510  29.855  1.00  0.00    -0.203 F 
ATOM     67  C   UNL A   1      39.861  26.186  27.661  1.00  0.00     0.198 A 
ATOM     68  C   UNL A   1      41.332  27.801  26.664  1.00  0.00     0.198 A 
ATOM     69  F   UNL A   1      42.004  29.694  27.888  1.00  0.00    -0.203 F 
ATOM     70  F   UNL A   1      39.195  25.025  27.591  1.00  0.00    -0.200 F 
ATOM     71  C   UNL A   1      40.621  26.614  26.581  1.00  0.00     0.200 A 
ATOM     72  F   UNL A   1      42.062  28.218  25.620  1.00  0.00    -0.200 F 
ATOM     73  F   UNL A   1      40.674  25.876  25.464  1.00  0.00    -0.200 F 
ENDBRANCH  49  63
BRANCH  50  74
ATOM     74  C   UNL A   1      39.781  34.096  36.924  1.00  0.00     0.064 A 
ATOM     75  C   UNL A   1      38.953  33.725  37.990  1.00  0.00     0.173 A 
ATOM     76  C   UNL A   1      40.482  35.308  37.031  1.00  0.00     0.173 A 
ATOM     77  F   UNL A   1      38.244  32.589  37.923  1.00  0.00    -0.203 F 
ATOM     78  C   UNL A   1      38.826  34.536  39.116  1.00  0.00     0.198 A 
ATOM     79  C   UNL A   1      40.376  36.104  38.168  1.00  0.00     0.198 A 
ATOM     80  F   UNL A   1      41.285  35.710  36.034  1.00  0.00    -0.203 F 
ATOM     81  F   UNL A   1      38.001  34.177  40.109  1.00  0.00    -0.200 F 
ATOM     82  C   UNL A   1      39.544  35.720  39.208  1.00  0.00     0.200 A 
ATOM     83  F   UNL A   1      41.081  37.240  38.256  1.00  0.00    -0.200 F 
ATOM     84  F   UNL A   1      39.428  36.494  40.295  1.00  0.00    -0.200 F 
ENDBRANCH  50  74
BRANCH  62  85
ATOM     85  C   UNL A   1      43.818  28.636  35.330  1.00  0.00     0.064 A 
ATOM     86  C   UNL A   1      45.169  28.983  35.182  1.00  0.00     0.173 A 
ATOM     87  C   UNL A   1      43.494  27.618  36.239  1.00  0.00     0.173 A 
ATOM     88  F   UNL A   1      45.528  29.941  34.313  1.00  0.00    -0.203 F 
ATOM     89  C   UNL A   1      46.159  28.319  35.900  1.00  0.00     0.198 A 
ATOM     90  C   UNL A   1      44.485  26.975  36.976  1.00  0.00     0.198 A 
ATOM     91  F   UNL A   1      42.216  27.254  36.421  1.00  0.00    -0.203 F 
ATOM     92  F   UNL A   1      47.447  28.635  35.710  1.00  0.00    -0.200 F 
ATOM     93  C   UNL A   1      45.816  27.321  36.801  1.00  0.00     0.200 A 
ATOM     94  F   UNL A   1      44.152  26.020  37.855  1.00  0.00    -0.200 F 
ATOM     95  F   UNL A   1      46.772  26.688  37.495  1.00  0.00    -0.200 F 
ENDBRANCH  62  85
ENDBRANCH  36  37
ENDBRANCH  29  31
ENDBRANCH  28  29
ENDBRANCH  27  28
ENDBRANCH  26  27
ENDBRANCH  25  26
ENDBRANCH  24  25
ENDBRANCH   1  24
TORSDOF 20
ENDMDL
