MODEL 1
REMARK VINA RESULT:     -11.6      0.000      0.000
REMARK SMILES CC1=C([C@H](NC(=O)[C@@H]2[C@H](C)c3cc(F)ccc3N2C)C(=O)OCCOCCOCCOC(=O)c2ccc(-c3c4nc(c(-c5c(F)c(F)c(F)c(F)c5F)c5ccc([nH]5)c(-c5c(F)c(F)c(F)c(F)c5F)c5nc(c(-c6c(F)c(F)c(F)c(F)c6F)c6ccc3[nH]6)C=C5)C=C4)cc2)[C@@H](C)N=N1
REMARK SMILES IDX 26 1 25 2 24 3 23 4 22 5 20 6 21 7 4 8 3 9 1 10 2 11 100 12
REMARK SMILES IDX 97 13 99 14 98 15 5 16 6 17 7 19 8 20 9 21 18 22 11 23 10 24
REMARK SMILES IDX 17 25 19 26 12 27 16 28 13 29 15 30 14 31 27 32 28 33 29 34
REMARK SMILES IDX 30 35 31 36 32 37 33 38 34 39 35 40 96 41 36 42 95 43 37 44
REMARK SMILES IDX 38 45 39 46 89 47 40 48 94 49 88 50 90 51 41 52 93 53 87 54
REMARK SMILES IDX 86 55 42 57 74 58 54 59 73 60 55 61 58 62 72 63 91 64 56 65
REMARK SMILES IDX 57 66 71 68 92 69 59 70 43 71 44 72 52 73 45 74 46 75 50 76
REMARK SMILES IDX 53 77 47 78 48 79 51 80 49 81 75 82 76 83 84 84 77 85 78 86
REMARK SMILES IDX 82 87 85 88 79 89 80 90 83 91 81 92 60 93 61 94 69 95 62 96
REMARK SMILES IDX 63 97 67 98 70 99 64 100 65 101 68 102 66 103
REMARK H PARENT 5 18 90 56 58 67
REMARK Flexibility Score: inf
ROOT
ATOM      1  C   UNL A   1      40.937  21.005  27.125  1.00  0.00     0.188 C 
ENDROOT
BRANCH   1   2
ATOM      2  O   UNL A   1      39.661  21.654  27.157  1.00  0.00    -0.376 OA
BRANCH   2   3
ATOM      3  C   UNL A   1      39.152  22.493  25.947  1.00  0.00     0.202 C 
BRANCH   3   4
ATOM      4  C   UNL A   1      37.234  23.453  25.559  1.00  0.00     0.261 C 
BRANCH   4   5
ATOM      5  O   UNL A   1      35.899  22.862  24.538  1.00  0.00    -0.461 OA
BRANCH   5   6
ATOM      6  C   UNL A   1      34.871  23.444  23.768  1.00  0.00     0.333 C 
ATOM      7  O   UNL A   1      35.094  23.964  22.677  1.00  0.00    -0.249 OA
BRANCH   6   8
ATOM      8  C   UNL A   1      33.169  22.965  24.237  1.00  0.00     0.223 C 
BRANCH   8   9
ATOM      9  C   UNL A   1      33.004  21.715  24.990  1.00  0.00     0.012 C 
ATOM     10  C   UNL A   1      32.635  19.948  23.195  1.00  0.00     0.069 C 
ATOM     11  C   UNL A   1      32.708  20.465  24.605  1.00  0.00     0.064 C 
ATOM     12  N   UNL A   1      32.641  19.631  25.698  1.00  0.00    -0.160 NA
ATOM     13  C   UNL A   1      33.642  21.531  26.296  1.00  0.00     0.156 C 
ATOM     14  N   UNL A   1      32.999  20.276  26.741  1.00  0.00    -0.181 NA
ATOM     15  C   UNL A   1      33.588  22.755  27.164  1.00  0.00     0.040 C 
ENDBRANCH   8   9
BRANCH   8  16
ATOM     16  N   UNL A   1      31.830  22.992  23.520  1.00  0.00    -0.337 N 
ATOM     17  C   UNL A   1      30.911  24.032  23.485  1.00  0.00     0.244 C 
ATOM     18  H   UNL A   1      31.585  22.179  23.024  1.00  0.00     0.164 HD
ATOM     19  O   UNL A   1      29.753  23.895  23.131  1.00  0.00    -0.273 OA
BRANCH  17  20
ATOM     20  C   UNL A   1      31.596  25.254  23.914  1.00  0.00     0.178 C 
ATOM     21  C   UNL A   1      31.012  25.709  25.311  1.00  0.00     0.050 C 
ATOM     22  N   UNL A   1      32.144  26.350  23.098  1.00  0.00    -0.362 N 
ATOM     23  C   UNL A   1      31.817  26.880  25.601  1.00  0.00    -0.016 A 
ATOM     24  C   UNL A   1      29.635  25.442  25.797  1.00  0.00     0.015 C 
ATOM     25  C   UNL A   1      32.784  27.099  24.085  1.00  0.00     0.041 A 
ATOM     26  C   UNL A   1      32.541  26.236  21.723  1.00  0.00     0.144 C 
ATOM     27  C   UNL A   1      32.228  27.686  27.138  1.00  0.00     0.045 A 
ATOM     28  C   UNL A   1      34.152  28.214  24.095  1.00  0.00     0.029 A 
ATOM     29  C   UNL A   1      33.599  28.836  27.114  1.00  0.00     0.123 A 
ATOM     30  C   UNL A   1      34.594  29.052  25.635  1.00  0.00     0.041 A 
ATOM     31  F   UNL A   1      33.822  29.610  28.185  1.00  0.00    -0.207 F 
ENDBRANCH  17  20
ENDBRANCH   8  16
ENDBRANCH   6   8
ENDBRANCH   5   6
ENDBRANCH   4   5
ENDBRANCH   3   4
ENDBRANCH   2   3
ENDBRANCH   1   2
BRANCH   1  32
ATOM     32  C   UNL A   1      41.180  19.709  26.338  1.00  0.00     0.188 C 
BRANCH  32  33
ATOM     33  O   UNL A   1      41.994  18.787  26.972  1.00  0.00    -0.376 OA
BRANCH  33  34
ATOM     34  C   UNL A   1      43.142  18.431  26.262  1.00  0.00     0.202 C 
BRANCH  34  35
ATOM     35  C   UNL A   1      44.105  19.516  25.668  1.00  0.00     0.261 C 
BRANCH  35  36
ATOM     36  O   UNL A   1      43.811  20.226  24.392  1.00  0.00    -0.460 OA
BRANCH  36  37
ATOM     37  C   UNL A   1      44.480  21.367  24.011  1.00  0.00     0.338 C 
ATOM     38  O   UNL A   1      44.721  21.648  22.846  1.00  0.00    -0.246 OA
BRANCH  37  39
ATOM     39  C   UNL A   1      44.563  22.428  25.152  1.00  0.00     0.060 A 
ATOM     40  C   UNL A   1      45.465  22.414  26.231  1.00  0.00     0.016 A 
ATOM     41  C   UNL A   1      43.515  23.365  25.253  1.00  0.00     0.016 A 
ATOM     42  C   UNL A   1      45.245  23.212  27.417  1.00  0.00     0.010 A 
ATOM     43  C   UNL A   1      43.309  24.167  26.420  1.00  0.00     0.010 A 
ATOM     44  C   UNL A   1      44.112  24.050  27.575  1.00  0.00    -0.014 A 
BRANCH  44  45
ATOM     45  C   UNL A   1      43.914  25.050  28.717  1.00  0.00     0.031 A 
ATOM     46  C   UNL A   1      42.598  25.669  28.481  1.00  0.00     0.074 A 
ATOM     47  C   UNL A   1      44.573  25.557  29.819  1.00  0.00     0.049 A 
ATOM     48  N   UNL A   1      42.459  26.878  28.049  1.00  0.00    -0.248 NA
ATOM     49  C   UNL A   1      41.398  24.839  28.403  1.00  0.00     0.031 C 
ATOM     50  C   UNL A   1      45.984  25.540  30.211  1.00  0.00     0.029 A 
ATOM     51  N   UNL A   1      44.024  26.268  30.916  1.00  0.00    -0.354 N 
ATOM     52  C   UNL A   1      41.110  27.024  27.802  1.00  0.00     0.074 A 
ATOM     53  C   UNL A   1      40.556  25.696  27.826  1.00  0.00     0.031 C 
ATOM     54  C   UNL A   1      46.150  26.002  31.480  1.00  0.00     0.029 A 
ATOM     55  C   UNL A   1      44.853  26.324  32.078  1.00  0.00     0.049 A 
ATOM     56  H   UNL A   1      43.137  26.693  30.878  1.00  0.00     0.167 HD
ATOM     57  C   UNL A   1      40.546  28.256  27.873  1.00  0.00     0.037 A 
ATOM     58  C   UNL A   1      44.789  27.062  33.242  1.00  0.00     0.037 A 
ATOM     59  C   UNL A   1      41.547  29.294  27.752  1.00  0.00     0.049 A 
ATOM     60  C   UNL A   1      44.136  28.335  32.876  1.00  0.00     0.074 A 
ATOM     61  C   UNL A   1      42.459  29.663  26.780  1.00  0.00     0.029 A 
ATOM     62  N   UNL A   1      41.963  29.920  28.902  1.00  0.00    -0.354 N 
ATOM     63  N   UNL A   1      44.741  29.245  32.169  1.00  0.00    -0.248 NA
ATOM     64  C   UNL A   1      42.682  28.340  32.840  1.00  0.00     0.031 C 
ATOM     65  C   UNL A   1      43.613  30.111  27.486  1.00  0.00     0.029 A 
ATOM     66  C   UNL A   1      43.324  30.066  28.845  1.00  0.00     0.049 A 
ATOM     67  H   UNL A   1      41.382  30.215  29.640  1.00  0.00     0.167 HD
ATOM     68  C   UNL A   1      43.790  29.613  31.234  1.00  0.00     0.074 A 
ATOM     69  C   UNL A   1      42.528  29.051  31.720  1.00  0.00     0.031 C 
ATOM     70  C   UNL A   1      44.166  30.076  30.009  1.00  0.00     0.037 A 
BRANCH  57  71
ATOM     71  C   UNL A   1      39.191  28.492  28.493  1.00  0.00     0.064 A 
ATOM     72  C   UNL A   1      38.293  29.351  27.828  1.00  0.00     0.173 A 
ATOM     73  C   UNL A   1      38.848  28.177  29.827  1.00  0.00     0.173 A 
ATOM     74  F   UNL A   1      38.517  29.724  26.559  1.00  0.00    -0.203 F 
ATOM     75  C   UNL A   1      37.209  29.933  28.484  1.00  0.00     0.198 A 
ATOM     76  C   UNL A   1      37.737  28.720  30.462  1.00  0.00     0.198 A 
ATOM     77  F   UNL A   1      39.618  27.427  30.621  1.00  0.00    -0.203 F 
ATOM     78  F   UNL A   1      36.471  30.854  27.853  1.00  0.00    -0.200 F 
ATOM     79  C   UNL A   1      36.938  29.625  29.805  1.00  0.00     0.200 A 
ATOM     80  F   UNL A   1      37.505  28.419  31.748  1.00  0.00    -0.200 F 
ATOM     81  F   UNL A   1      35.941  30.234  30.457  1.00  0.00    -0.200 F 
ENDBRANCH  57  71
BRANCH  58  82
ATOM     82  C   UNL A   1      44.637  26.544  34.668  1.00  0.00     0.064 A 
ATOM     83  C   UNL A   1      43.563  25.711  35.064  1.00  0.00     0.173 A 
ATOM     84  C   UNL A   1      45.624  26.718  35.654  1.00  0.00     0.173 A 
ATOM     85  F   UNL A   1      42.585  25.412  34.194  1.00  0.00    -0.203 F 
ATOM     86  C   UNL A   1      43.492  25.115  36.342  1.00  0.00     0.198 A 
ATOM     87  C   UNL A   1      45.540  26.157  36.938  1.00  0.00     0.198 A 
ATOM     88  F   UNL A   1      46.768  27.338  35.361  1.00  0.00    -0.203 F 
ATOM     89  F   UNL A   1      42.485  24.281  36.648  1.00  0.00    -0.200 F 
ATOM     90  C   UNL A   1      44.480  25.345  37.282  1.00  0.00     0.200 A 
ATOM     91  F   UNL A   1      46.533  26.362  37.817  1.00  0.00    -0.200 F 
ATOM     92  F   UNL A   1      44.443  24.749  38.483  1.00  0.00    -0.200 F 
ENDBRANCH  58  82
BRANCH  70  93
ATOM     93  C   UNL A   1      45.619  30.382  29.790  1.00  0.00     0.064 A 
ATOM     94  C   UNL A   1      46.506  29.460  29.216  1.00  0.00     0.173 A 
ATOM     95  C   UNL A   1      46.086  31.684  29.976  1.00  0.00     0.173 A 
ATOM     96  F   UNL A   1      46.061  28.267  28.822  1.00  0.00    -0.203 F 
ATOM     97  C   UNL A   1      47.826  29.793  28.919  1.00  0.00     0.198 A 
ATOM     98  C   UNL A   1      47.388  32.037  29.624  1.00  0.00     0.198 A 
ATOM     99  F   UNL A   1      45.250  32.635  30.421  1.00  0.00    -0.203 F 
ATOM    100  F   UNL A   1      48.646  28.882  28.375  1.00  0.00    -0.200 F 
ATOM    101  C   UNL A   1      48.265  31.088  29.120  1.00  0.00     0.200 A 
ATOM    102  F   UNL A   1      47.778  33.316  29.724  1.00  0.00    -0.200 F 
ATOM    103  F   UNL A   1      49.512  31.437  28.774  1.00  0.00    -0.200 F 
ENDBRANCH  70  93
ENDBRANCH  44  45
ENDBRANCH  37  39
ENDBRANCH  36  37
ENDBRANCH  35  36
ENDBRANCH  34  35
ENDBRANCH  33  34
ENDBRANCH  32  33
ENDBRANCH   1  32
TORSDOF 20
ENDMDL
MODEL 2
REMARK VINA RESULT:     -11.4      4.198      8.889
REMARK SMILES CC1=C([C@H](NC(=O)[C@@H]2[C@H](C)c3cc(F)ccc3N2C)C(=O)OCCOCCOCCOC(=O)c2ccc(-c3c4nc(c(-c5c(F)c(F)c(F)c(F)c5F)c5ccc([nH]5)c(-c5c(F)c(F)c(F)c(F)c5F)c5nc(c(-c6c(F)c(F)c(F)c(F)c6F)c6ccc3[nH]6)C=C5)C=C4)cc2)[C@@H](C)N=N1
REMARK SMILES IDX 26 1 25 2 24 3 23 4 22 5 20 6 21 7 4 8 3 9 1 10 2 11 100 12
REMARK SMILES IDX 97 13 99 14 98 15 5 16 6 17 7 19 8 20 9 21 18 22 11 23 10 24
REMARK SMILES IDX 17 25 19 26 12 27 16 28 13 29 15 30 14 31 27 32 28 33 29 34
REMARK SMILES IDX 30 35 31 36 32 37 33 38 34 39 35 40 96 41 36 42 95 43 37 44
REMARK SMILES IDX 38 45 39 46 89 47 40 48 94 49 88 50 90 51 41 52 93 53 87 54
REMARK SMILES IDX 86 55 42 57 74 58 54 59 73 60 55 61 58 62 72 63 91 64 56 65
REMARK SMILES IDX 57 66 71 68 92 69 59 70 43 71 44 72 52 73 45 74 46 75 50 76
REMARK SMILES IDX 53 77 47 78 48 79 51 80 49 81 75 82 76 83 84 84 77 85 78 86
REMARK SMILES IDX 82 87 85 88 79 89 80 90 83 91 81 92 60 93 61 94 69 95 62 96
REMARK SMILES IDX 63 97 67 98 70 99 64 100 65 101 68 102 66 103
REMARK H PARENT 5 18 90 56 58 67
REMARK Flexibility Score: inf
ROOT
ATOM      1  C   UNL A   1      40.678  23.796  26.925  1.00  0.00     0.188 C 
ENDROOT
BRANCH   1   2
ATOM      2  O   UNL A   1      39.458  23.104  27.210  1.00  0.00    -0.376 OA
BRANCH   2   3
ATOM      3  C   UNL A   1      38.763  22.217  26.134  1.00  0.00     0.202 C 
BRANCH   3   4
ATOM      4  C   UNL A   1      36.731  22.229  25.344  1.00  0.00     0.261 C 
BRANCH   4   5
ATOM      5  O   UNL A   1      35.735  23.638  24.901  1.00  0.00    -0.461 OA
BRANCH   5   6
ATOM      6  C   UNL A   1      35.063  24.088  23.746  1.00  0.00     0.333 C 
ATOM      7  O   UNL A   1      35.155  23.498  22.672  1.00  0.00    -0.249 OA
BRANCH   6   8
ATOM      8  C   UNL A   1      33.703  25.276  24.040  1.00  0.00     0.223 C 
BRANCH   8   9
ATOM      9  C   UNL A   1      33.745  26.544  23.301  1.00  0.00     0.012 C 
ATOM     10  C   UNL A   1      32.843  25.950  20.995  1.00  0.00     0.069 C 
ATOM     11  C   UNL A   1      33.471  26.850  22.024  1.00  0.00     0.064 C 
ATOM     12  N   UNL A   1      33.682  28.191  21.797  1.00  0.00    -0.160 NA
ATOM     13  C   UNL A   1      33.622  27.828  23.995  1.00  0.00     0.156 C 
ATOM     14  N   UNL A   1      33.963  28.765  22.904  1.00  0.00    -0.181 NA
ATOM     15  C   UNL A   1      34.375  27.877  25.293  1.00  0.00     0.040 C 
ENDBRANCH   8   9
BRANCH   8  16
ATOM     16  N   UNL A   1      32.962  25.745  25.281  1.00  0.00    -0.337 N 
ATOM     17  C   UNL A   1      32.035  25.035  26.030  1.00  0.00     0.244 C 
ATOM     18  H   UNL A   1      33.162  26.659  25.588  1.00  0.00     0.164 HD
ATOM     19  O   UNL A   1      31.282  25.554  26.836  1.00  0.00    -0.273 OA
BRANCH  17  20
ATOM     20  C   UNL A   1      32.165  23.618  25.684  1.00  0.00     0.178 C 
ATOM     21  C   UNL A   1      31.460  23.360  24.293  1.00  0.00     0.050 C 
ATOM     22  N   UNL A   1      32.210  22.443  26.569  1.00  0.00    -0.362 N 
ATOM     23  C   UNL A   1      31.720  21.948  24.086  1.00  0.00    -0.016 A 
ATOM     24  C   UNL A   1      30.317  24.136  23.750  1.00  0.00     0.015 C 
ATOM     25  C   UNL A   1      32.499  21.442  25.642  1.00  0.00     0.041 A 
ATOM     26  C   UNL A   1      32.606  22.465  27.949  1.00  0.00     0.144 C 
ATOM     27  C   UNL A   1      31.780  20.957  22.604  1.00  0.00     0.045 A 
ATOM     28  C   UNL A   1      33.293  19.869  25.730  1.00  0.00     0.029 A 
ATOM     29  C   UNL A   1      32.563  19.353  22.729  1.00  0.00     0.123 A 
ATOM     30  C   UNL A   1      33.369  18.836  24.248  1.00  0.00     0.041 A 
ATOM     31  F   UNL A   1      32.461  18.494  21.704  1.00  0.00    -0.207 F 
ENDBRANCH  17  20
ENDBRANCH   8  16
ENDBRANCH   6   8
ENDBRANCH   5   6
ENDBRANCH   4   5
ENDBRANCH   3   4
ENDBRANCH   2   3
ENDBRANCH   1   2
BRANCH   1  32
ATOM     32  C   UNL A   1      41.908  23.705  27.841  1.00  0.00     0.188 C 
BRANCH  32  33
ATOM     33  O   UNL A   1      42.437  22.434  27.979  1.00  0.00    -0.376 OA
BRANCH  33  34
ATOM     34  C   UNL A   1      43.665  22.378  28.640  1.00  0.00     0.202 C 
BRANCH  34  35
ATOM     35  C   UNL A   1      44.809  23.403  28.327  1.00  0.00     0.261 C 
BRANCH  35  36
ATOM     36  O   UNL A   1      44.916  24.713  29.028  1.00  0.00    -0.460 OA
BRANCH  36  37
ATOM     37  C   UNL A   1      44.421  24.914  30.297  1.00  0.00     0.338 C 
ATOM     38  O   UNL A   1      44.710  24.207  31.252  1.00  0.00    -0.246 OA
BRANCH  37  39
ATOM     39  C   UNL A   1      43.774  26.321  30.476  1.00  0.00     0.060 A 
ATOM     40  C   UNL A   1      43.816  27.109  31.640  1.00  0.00     0.016 A 
ATOM     41  C   UNL A   1      42.882  26.765  29.479  1.00  0.00     0.016 A 
ATOM     42  C   UNL A   1      42.904  28.214  31.845  1.00  0.00     0.010 A 
ATOM     43  C   UNL A   1      41.993  27.868  29.676  1.00  0.00     0.010 A 
ATOM     44  C   UNL A   1      41.910  28.570  30.898  1.00  0.00    -0.014 A 
BRANCH  44  45
ATOM     45  C   UNL A   1      41.041  29.828  30.970  1.00  0.00     0.031 A 
ATOM     46  C   UNL A   1      41.918  30.942  30.568  1.00  0.00     0.074 A 
ATOM     47  C   UNL A   1      39.767  30.227  31.321  1.00  0.00     0.049 A 
ATOM     48  N   UNL A   1      42.383  31.806  31.408  1.00  0.00    -0.248 NA
ATOM     49  C   UNL A   1      42.572  30.928  29.262  1.00  0.00     0.031 C 
ATOM     50  C   UNL A   1      38.719  29.577  32.112  1.00  0.00     0.029 A 
ATOM     51  N   UNL A   1      39.108  31.438  30.992  1.00  0.00    -0.354 N 
ATOM     52  C   UNL A   1      43.277  32.570  30.687  1.00  0.00     0.074 A 
ATOM     53  C   UNL A   1      43.510  31.855  29.460  1.00  0.00     0.031 C 
ATOM     54  C   UNL A   1      37.547  30.264  32.040  1.00  0.00     0.029 A 
ATOM     55  C   UNL A   1      37.687  31.416  31.147  1.00  0.00     0.049 A 
ATOM     56  H   UNL A   1      39.593  32.235  30.679  1.00  0.00     0.167 HD
ATOM     57  C   UNL A   1      43.522  33.849  31.064  1.00  0.00     0.037 A 
ATOM     58  C   UNL A   1      36.727  32.407  31.134  1.00  0.00     0.037 A 
ATOM     59  C   UNL A   1      43.143  34.065  32.445  1.00  0.00     0.049 A 
ATOM     60  C   UNL A   1      37.395  33.622  31.644  1.00  0.00     0.074 A 
ATOM     61  C   UNL A   1      43.533  33.531  33.660  1.00  0.00     0.029 A 
ATOM     62  N   UNL A   1      41.952  34.704  32.690  1.00  0.00    -0.354 N 
ATOM     63  N   UNL A   1      37.719  33.760  32.896  1.00  0.00    -0.248 NA
ATOM     64  C   UNL A   1      38.156  34.403  30.683  1.00  0.00     0.031 C 
ATOM     65  C   UNL A   1      42.351  33.484  34.454  1.00  0.00     0.029 A 
ATOM     66  C   UNL A   1      41.320  34.058  33.719  1.00  0.00     0.049 A 
ATOM     67  H   UNL A   1      41.611  35.492  32.208  1.00  0.00     0.167 HD
ATOM     68  C   UNL A   1      39.012  34.249  32.844  1.00  0.00     0.074 A 
ATOM     69  C   UNL A   1      39.215  34.663  31.454  1.00  0.00     0.031 C 
ATOM     70  C   UNL A   1      39.892  33.995  33.853  1.00  0.00     0.037 A 
BRANCH  57  71
ATOM     71  C   UNL A   1      43.671  34.974  30.070  1.00  0.00     0.064 A 
ATOM     72  C   UNL A   1      42.584  35.262  29.222  1.00  0.00     0.173 A 
ATOM     73  C   UNL A   1      44.900  35.566  29.700  1.00  0.00     0.173 A 
ATOM     74  F   UNL A   1      41.368  34.753  29.470  1.00  0.00    -0.203 F 
ATOM     75  C   UNL A   1      42.744  35.988  28.042  1.00  0.00     0.198 A 
ATOM     76  C   UNL A   1      45.044  36.331  28.549  1.00  0.00     0.198 A 
ATOM     77  F   UNL A   1      46.043  35.348  30.357  1.00  0.00    -0.203 F 
ATOM     78  F   UNL A   1      41.714  36.111  27.196  1.00  0.00    -0.200 F 
ATOM     79  C   UNL A   1      43.977  36.513  27.700  1.00  0.00     0.200 A 
ATOM     80  F   UNL A   1      46.254  36.815  28.230  1.00  0.00    -0.200 F 
ATOM     81  F   UNL A   1      44.150  37.149  26.535  1.00  0.00    -0.200 F 
ENDBRANCH  57  71
BRANCH  58  82
ATOM     82  C   UNL A   1      35.561  32.564  30.165  1.00  0.00     0.064 A 
ATOM     83  C   UNL A   1      34.655  33.651  30.235  1.00  0.00     0.173 A 
ATOM     84  C   UNL A   1      35.385  31.740  29.040  1.00  0.00     0.173 A 
ATOM     85  F   UNL A   1      34.756  34.550  31.227  1.00  0.00    -0.203 F 
ATOM     86  C   UNL A   1      33.661  33.878  29.259  1.00  0.00     0.198 A 
ATOM     87  C   UNL A   1      34.374  31.940  28.086  1.00  0.00     0.198 A 
ATOM     88  F   UNL A   1      36.270  30.782  28.760  1.00  0.00    -0.203 F 
ATOM     89  F   UNL A   1      32.867  34.959  29.336  1.00  0.00    -0.200 F 
ATOM     90  C   UNL A   1      33.517  33.016  28.187  1.00  0.00     0.200 A 
ATOM     91  F   UNL A   1      34.283  31.114  27.034  1.00  0.00    -0.200 F 
ATOM     92  F   UNL A   1      32.603  33.247  27.233  1.00  0.00    -0.200 F 
ENDBRANCH  58  82
BRANCH  70  93
ATOM     93  C   UNL A   1      39.356  33.368  35.108  1.00  0.00     0.064 A 
ATOM     94  C   UNL A   1      38.845  34.127  36.171  1.00  0.00     0.173 A 
ATOM     95  C   UNL A   1      39.171  31.987  35.166  1.00  0.00     0.173 A 
ATOM     96  F   UNL A   1      38.803  35.457  36.078  1.00  0.00    -0.203 F 
ATOM     97  C   UNL A   1      38.252  33.534  37.283  1.00  0.00     0.198 A 
ATOM     98  C   UNL A   1      38.525  31.393  36.249  1.00  0.00     0.198 A 
ATOM     99  F   UNL A   1      39.543  31.221  34.129  1.00  0.00    -0.203 F 
ATOM    100  F   UNL A   1      37.780  34.293  38.282  1.00  0.00    -0.200 F 
ATOM    101  C   UNL A   1      38.088  32.161  37.318  1.00  0.00     0.200 A 
ATOM    102  F   UNL A   1      38.276  30.076  36.232  1.00  0.00    -0.200 F 
ATOM    103  F   UNL A   1      37.458  31.585  38.351  1.00  0.00    -0.200 F 
ENDBRANCH  70  93
ENDBRANCH  44  45
ENDBRANCH  37  39
ENDBRANCH  36  37
ENDBRANCH  35  36
ENDBRANCH  34  35
ENDBRANCH  33  34
ENDBRANCH  32  33
ENDBRANCH   1  32
TORSDOF 20
ENDMDL
MODEL 3
REMARK VINA RESULT:     -11.4      2.000      3.612
REMARK SMILES CC1=C([C@H](NC(=O)[C@@H]2[C@H](C)c3cc(F)ccc3N2C)C(=O)OCCOCCOCCOC(=O)c2ccc(-c3c4nc(c(-c5c(F)c(F)c(F)c(F)c5F)c5ccc([nH]5)c(-c5c(F)c(F)c(F)c(F)c5F)c5nc(c(-c6c(F)c(F)c(F)c(F)c6F)c6ccc3[nH]6)C=C5)C=C4)cc2)[C@@H](C)N=N1
REMARK SMILES IDX 26 1 25 2 24 3 23 4 22 5 20 6 21 7 4 8 3 9 1 10 2 11 100 12
REMARK SMILES IDX 97 13 99 14 98 15 5 16 6 17 7 19 8 20 9 21 18 22 11 23 10 24
REMARK SMILES IDX 17 25 19 26 12 27 16 28 13 29 15 30 14 31 27 32 28 33 29 34
REMARK SMILES IDX 30 35 31 36 32 37 33 38 34 39 35 40 96 41 36 42 95 43 37 44
REMARK SMILES IDX 38 45 39 46 89 47 40 48 94 49 88 50 90 51 41 52 93 53 87 54
REMARK SMILES IDX 86 55 42 57 74 58 54 59 73 60 55 61 58 62 72 63 91 64 56 65
REMARK SMILES IDX 57 66 71 68 92 69 59 70 43 71 44 72 52 73 45 74 46 75 50 76
REMARK SMILES IDX 53 77 47 78 48 79 51 80 49 81 75 82 76 83 84 84 77 85 78 86
REMARK SMILES IDX 82 87 85 88 79 89 80 90 83 91 81 92 60 93 61 94 69 95 62 96
REMARK SMILES IDX 63 97 67 98 70 99 64 100 65 101 68 102 66 103
REMARK H PARENT 5 18 90 56 58 67
REMARK Flexibility Score: inf
ROOT
ATOM      1  C   UNL A   1      41.766  22.419  26.800  1.00  0.00     0.188 C 
ENDROOT
BRANCH   1   2
ATOM      2  O   UNL A   1      40.450  22.627  27.326  1.00  0.00    -0.376 OA
BRANCH   2   3
ATOM      3  C   UNL A   1      39.405  23.496  26.565  1.00  0.00     0.202 C 
BRANCH   3   4
ATOM      4  C   UNL A   1      37.425  23.024  25.788  1.00  0.00     0.261 C 
BRANCH   4   5
ATOM      5  O   UNL A   1      36.194  24.151  25.164  1.00  0.00    -0.461 OA
BRANCH   5   6
ATOM      6  C   UNL A   1      35.367  24.228  24.025  1.00  0.00     0.333 C 
ATOM      7  O   UNL A   1      35.448  23.413  23.109  1.00  0.00    -0.249 OA
BRANCH   6   8
ATOM      8  C   UNL A   1      33.884  25.285  24.199  1.00  0.00     0.223 C 
BRANCH   8   9
ATOM      9  C   UNL A   1      33.826  26.506  23.386  1.00  0.00     0.012 C 
ATOM     10  C   UNL A   1      32.836  25.733  21.171  1.00  0.00     0.069 C 
ATOM     11  C   UNL A   1      33.473  26.720  22.110  1.00  0.00     0.064 C 
ATOM     12  N   UNL A   1      33.608  28.053  21.794  1.00  0.00    -0.160 NA
ATOM     13  C   UNL A   1      33.679  27.823  24.009  1.00  0.00     0.156 C 
ATOM     14  N   UNL A   1      33.917  28.705  22.848  1.00  0.00    -0.181 NA
ATOM     15  C   UNL A   1      34.495  27.984  25.259  1.00  0.00     0.040 C 
ENDBRANCH   8   9
BRANCH   8  16
ATOM     16  N   UNL A   1      33.050  25.745  25.383  1.00  0.00    -0.337 N 
ATOM     17  C   UNL A   1      32.025  25.054  26.014  1.00  0.00     0.244 C 
ATOM     18  H   UNL A   1      33.260  26.636  25.743  1.00  0.00     0.164 HD
ATOM     19  O   UNL A   1      31.223  25.580  26.766  1.00  0.00    -0.273 OA
BRANCH  17  20
ATOM     20  C   UNL A   1      32.125  23.645  25.626  1.00  0.00     0.178 C 
ATOM     21  C   UNL A   1      31.458  23.454  24.205  1.00  0.00     0.050 C 
ATOM     22  N   UNL A   1      32.106  22.442  26.473  1.00  0.00    -0.362 N 
ATOM     23  C   UNL A   1      31.683  22.042  23.960  1.00  0.00    -0.016 A 
ATOM     24  C   UNL A   1      30.357  24.281  23.651  1.00  0.00     0.015 C 
ATOM     25  C   UNL A   1      32.395  21.463  25.523  1.00  0.00     0.041 A 
ATOM     26  C   UNL A   1      32.456  22.408  27.865  1.00  0.00     0.144 C 
ATOM     27  C   UNL A   1      31.763  21.097  22.449  1.00  0.00     0.045 A 
ATOM     28  C   UNL A   1      33.138  19.863  25.585  1.00  0.00     0.029 A 
ATOM     29  C   UNL A   1      32.493  19.466  22.547  1.00  0.00     0.123 A 
ATOM     30  C   UNL A   1      33.232  18.876  24.073  1.00  0.00     0.041 A 
ATOM     31  F   UNL A   1      32.399  18.644  21.492  1.00  0.00    -0.207 F 
ENDBRANCH  17  20
ENDBRANCH   8  16
ENDBRANCH   6   8
ENDBRANCH   5   6
ENDBRANCH   4   5
ENDBRANCH   3   4
ENDBRANCH   2   3
ENDBRANCH   1   2
BRANCH   1  32
ATOM     32  C   UNL A   1      42.436  21.037  26.786  1.00  0.00     0.188 C 
BRANCH  32  33
ATOM     33  O   UNL A   1      42.671  20.517  25.526  1.00  0.00    -0.376 OA
BRANCH  33  34
ATOM     34  C   UNL A   1      43.967  20.040  25.320  1.00  0.00     0.202 C 
BRANCH  34  35
ATOM     35  C   UNL A   1      44.807  20.471  24.069  1.00  0.00     0.261 C 
BRANCH  35  36
ATOM     36  O   UNL A   1      45.020  21.900  23.708  1.00  0.00    -0.460 OA
BRANCH  36  37
ATOM     37  C   UNL A   1      45.945  22.693  24.348  1.00  0.00     0.338 C 
ATOM     38  O   UNL A   1      47.031  22.984  23.866  1.00  0.00    -0.246 OA
BRANCH  37  39
ATOM     39  C   UNL A   1      45.338  23.479  25.551  1.00  0.00     0.060 A 
ATOM     40  C   UNL A   1      44.766  24.762  25.497  1.00  0.00     0.016 A 
ATOM     41  C   UNL A   1      45.568  22.974  26.847  1.00  0.00     0.016 A 
ATOM     42  C   UNL A   1      44.560  25.554  26.690  1.00  0.00     0.010 A 
ATOM     43  C   UNL A   1      45.348  23.753  28.027  1.00  0.00     0.010 A 
ATOM     44  C   UNL A   1      44.925  25.099  27.983  1.00  0.00    -0.014 A 
BRANCH  44  45
ATOM     45  C   UNL A   1      44.573  25.806  29.293  1.00  0.00     0.031 A 
ATOM     46  C   UNL A   1      43.207  26.327  29.111  1.00  0.00     0.074 A 
ATOM     47  C   UNL A   1      45.129  26.130  30.515  1.00  0.00     0.049 A 
ATOM     48  N   UNL A   1      42.952  27.580  28.933  1.00  0.00    -0.248 NA
ATOM     49  C   UNL A   1      42.110  25.416  28.788  1.00  0.00     0.031 C 
ATOM     50  C   UNL A   1      46.517  26.171  30.980  1.00  0.00     0.029 A 
ATOM     51  N   UNL A   1      44.463  26.532  31.700  1.00  0.00    -0.354 N 
ATOM     52  C   UNL A   1      41.606  27.640  28.639  1.00  0.00     0.074 A 
ATOM     53  C   UNL A   1      41.202  26.289  28.352  1.00  0.00     0.031 C 
ATOM     54  C   UNL A   1      46.582  26.365  32.326  1.00  0.00     0.029 A 
ATOM     55  C   UNL A   1      45.235  26.420  32.897  1.00  0.00     0.049 A 
ATOM     56  H   UNL A   1      43.536  26.863  31.698  1.00  0.00     0.167 HD
ATOM     57  C   UNL A   1      40.906  28.765  28.930  1.00  0.00     0.037 A 
ATOM     58  C   UNL A   1      45.043  26.882  34.183  1.00  0.00     0.037 A 
ATOM     59  C   UNL A   1      41.790  29.900  29.090  1.00  0.00     0.049 A 
ATOM     60  C   UNL A   1      44.268  28.132  34.051  1.00  0.00     0.074 A 
ATOM     61  C   UNL A   1      42.692  30.558  28.274  1.00  0.00     0.029 A 
ATOM     62  N   UNL A   1      42.089  30.304  30.368  1.00  0.00    -0.354 N 
ATOM     63  N   UNL A   1      44.795  29.228  33.588  1.00  0.00    -0.248 NA
ATOM     64  C   UNL A   1      42.826  27.999  33.928  1.00  0.00     0.031 C 
ATOM     65  C   UNL A   1      43.761  30.957  29.127  1.00  0.00     0.029 A 
ATOM     66  C   UNL A   1      43.426  30.594  30.427  1.00  0.00     0.049 A 
ATOM     67  H   UNL A   1      41.451  30.375  31.115  1.00  0.00     0.167 HD
ATOM     68  C   UNL A   1      43.847  29.690  32.694  1.00  0.00     0.074 A 
ATOM     69  C   UNL A   1      42.637  28.914  32.974  1.00  0.00     0.031 C 
ATOM     70  C   UNL A   1      44.216  30.440  31.616  1.00  0.00     0.037 A 
BRANCH  57  71
ATOM     71  C   UNL A   1      39.510  28.727  29.502  1.00  0.00     0.064 A 
ATOM     72  C   UNL A   1      38.481  29.377  28.793  1.00  0.00     0.173 A 
ATOM     73  C   UNL A   1      39.192  28.362  30.829  1.00  0.00     0.173 A 
ATOM     74  F   UNL A   1      38.668  29.775  27.525  1.00  0.00    -0.203 F 
ATOM     75  C   UNL A   1      37.278  29.732  29.403  1.00  0.00     0.198 A 
ATOM     76  C   UNL A   1      37.972  28.673  31.418  1.00  0.00     0.198 A 
ATOM     77  F   UNL A   1      40.070  27.793  31.661  1.00  0.00    -0.203 F 
ATOM     78  F   UNL A   1      36.391  30.478  28.732  1.00  0.00    -0.200 F 
ATOM     79  C   UNL A   1      37.028  29.390  30.719  1.00  0.00     0.200 A 
ATOM     80  F   UNL A   1      37.760  28.344  32.701  1.00  0.00    -0.200 F 
ATOM     81  F   UNL A   1      35.906  29.789  31.328  1.00  0.00    -0.200 F 
ENDBRANCH  57  71
BRANCH  58  82
ATOM     82  C   UNL A   1      44.895  26.059  35.458  1.00  0.00     0.064 A 
ATOM     83  C   UNL A   1      44.881  24.643  35.451  1.00  0.00     0.173 A 
ATOM     84  C   UNL A   1      44.921  26.628  36.743  1.00  0.00     0.173 A 
ATOM     85  F   UNL A   1      44.920  23.974  34.288  1.00  0.00    -0.203 F 
ATOM     86  C   UNL A   1      44.886  23.875  36.636  1.00  0.00     0.198 A 
ATOM     87  C   UNL A   1      44.888  25.870  37.924  1.00  0.00     0.198 A 
ATOM     88  F   UNL A   1      45.104  27.940  36.896  1.00  0.00    -0.203 F 
ATOM     89  F   UNL A   1      44.937  22.534  36.577  1.00  0.00    -0.200 F 
ATOM     90  C   UNL A   1      44.883  24.492  37.874  1.00  0.00     0.200 A 
ATOM     91  F   UNL A   1      44.928  26.492  39.112  1.00  0.00    -0.200 F 
ATOM     92  F   UNL A   1      44.930  23.772  39.004  1.00  0.00    -0.200 F 
ENDBRANCH  58  82
BRANCH  70  93
ATOM     93  C   UNL A   1      45.634  30.930  31.556  1.00  0.00     0.064 A 
ATOM     94  C   UNL A   1      46.638  30.248  30.853  1.00  0.00     0.173 A 
ATOM     95  C   UNL A   1      45.947  32.199  32.043  1.00  0.00     0.173 A 
ATOM     96  F   UNL A   1      46.342  29.131  30.188  1.00  0.00    -0.203 F 
ATOM     97  C   UNL A   1      47.923  30.767  30.714  1.00  0.00     0.198 A 
ATOM     98  C   UNL A   1      47.214  32.749  31.854  1.00  0.00     0.198 A 
ATOM     99  F   UNL A   1      44.996  32.942  32.630  1.00  0.00    -0.203 F 
ATOM    100  F   UNL A   1      48.858  30.084  30.039  1.00  0.00    -0.200 F 
ATOM    101  C   UNL A   1      48.209  32.025  31.213  1.00  0.00     0.200 A 
ATOM    102  F   UNL A   1      47.457  34.007  32.247  1.00  0.00    -0.200 F 
ATOM    103  F   UNL A   1      49.422  32.564  31.025  1.00  0.00    -0.200 F 
ENDBRANCH  70  93
ENDBRANCH  44  45
ENDBRANCH  37  39
ENDBRANCH  36  37
ENDBRANCH  35  36
ENDBRANCH  34  35
ENDBRANCH  33  34
ENDBRANCH  32  33
ENDBRANCH   1  32
TORSDOF 20
ENDMDL
