MODEL 1
REMARK VINA RESULT:     -11.4      0.000      0.000
REMARK SMILES O=C(COc1ccc(N2C[C@@H](C(=O)OCCOCCOCCOC(=O)c3ccc(-c4c5nc(c(-c6c(F)c(F)c(F)c(F)c6F)c6ccc([nH]6)c(-c6c(F)c(F)c(F)c(F)c6F)c6nc(c(-c7c(F)c(F)c(F)c(F)c7F)c7ccc4[nH]7)C=C6)C=C5)cc3)CC2=O)cc1)Nc1ccc(Cl)cc1Cl
REMARK SMILES IDX 17 1 16 2 15 3 14 4 12 5 13 6 11 7 9 8 10 9 90 10 89 11
REMARK SMILES IDX 91 12 8 13 5 14 6 15 93 16 7 17 92 18 4 19 3 20 2 21 1 22
REMARK SMILES IDX 94 23 95 25 96 26 101 27 97 28 100 29 102 30 98 31 99 32
REMARK SMILES IDX 18 33 19 34 20 35 21 36 22 37 23 38 24 39 25 40 26 41 27 42
REMARK SMILES IDX 88 43 28 44 87 45 29 46 30 47 31 48 81 49 32 50 86 51 80 52
REMARK SMILES IDX 82 53 33 54 85 55 79 56 78 57 34 59 66 60 46 61 65 62 47 63
REMARK SMILES IDX 50 64 64 65 83 66 48 67 49 68 63 70 84 71 51 72 35 73 36 74
REMARK SMILES IDX 44 75 37 76 38 77 42 78 45 79 39 80 40 81 43 82 41 83 67 84
REMARK SMILES IDX 68 85 76 86 69 87 70 88 74 89 77 90 71 91 72 92 75 93 73 94
REMARK SMILES IDX 52 95 53 96 61 97 54 98 55 99 59 100 62 101 56 102 57 103
REMARK SMILES IDX 60 104 58 105
REMARK H PARENT 94 24 82 58 50 69
REMARK Flexibility Score: inf
ROOT
ATOM      1  O   UNL A   1      30.985  28.230  24.993  1.00  0.00    -0.376 OA
ENDROOT
BRANCH   1   2
ATOM      2  C   UNL A   1      30.379  27.609  23.864  1.00  0.00     0.202 C 
BRANCH   2   3
ATOM      3  C   UNL A   1      31.218  27.409  22.591  1.00  0.00     0.261 C 
BRANCH   3   4
ATOM      4  O   UNL A   1      31.418  26.033  22.208  1.00  0.00    -0.463 OA
BRANCH   4   5
ATOM      5  C   UNL A   1      32.664  25.531  22.372  1.00  0.00     0.311 C 
ATOM      6  O   UNL A   1      33.468  25.359  21.462  1.00  0.00    -0.252 OA
BRANCH   5   7
ATOM      7  C   UNL A   1      33.045  25.254  23.811  1.00  0.00     0.128 C 
ATOM      8  N   UNL A   1      34.626  23.932  24.919  1.00  0.00    -0.312 N 
ATOM      9  C   UNL A   1      34.492  24.807  23.790  1.00  0.00     0.141 C 
ATOM     10  C   UNL A   1      33.400  23.511  25.417  1.00  0.00     0.227 C 
ATOM     11  C   UNL A   1      32.330  24.166  24.608  1.00  0.00     0.117 C 
ATOM     12  O   UNL A   1      33.175  22.737  26.336  1.00  0.00    -0.274 OA
BRANCH   8  13
ATOM     13  C   UNL A   1      35.825  23.241  25.130  1.00  0.00     0.044 A 
ATOM     14  C   UNL A   1      38.240  21.862  25.347  1.00  0.00     0.120 A 
ATOM     15  C   UNL A   1      38.109  23.129  25.916  1.00  0.00     0.048 A 
ATOM     16  C   UNL A   1      37.156  21.293  24.685  1.00  0.00     0.048 A 
ATOM     17  C   UNL A   1      36.909  23.835  25.778  1.00  0.00     0.030 A 
ATOM     18  C   UNL A   1      35.953  21.966  24.593  1.00  0.00     0.030 A 
BRANCH  14  19
ATOM     19  O   UNL A   1      39.399  21.169  25.575  1.00  0.00    -0.484 OA
BRANCH  19  20
ATOM     20  C   UNL A   1      40.010  21.454  26.835  1.00  0.00     0.329 C 
BRANCH  20  21
ATOM     21  C   UNL A   1      41.501  21.815  26.812  1.00  0.00     0.262 C 
ATOM     22  O   UNL A   1      42.121  21.980  27.859  1.00  0.00    -0.271 OA
ATOM     23  N   UNL A   1      41.981  22.053  25.527  1.00  0.00    -0.322 N 
ATOM     24  H   UNL A   1      41.406  21.811  24.765  1.00  0.00     0.170 HD
BRANCH  23  25
ATOM     25  C   UNL A   1      43.249  22.623  25.250  1.00  0.00     0.060 A 
ATOM     26  C   UNL A   1      43.281  24.023  25.121  1.00  0.00     0.029 A 
ATOM     27  C   UNL A   1      44.455  21.907  25.138  1.00  0.00     0.066 A 
ATOM     28  C   UNL A   1      44.495  24.699  24.974  1.00  0.00     0.023 A 
ATOM     29  C   UNL A   1      45.670  22.590  24.998  1.00  0.00     0.043 A 
ATOM     30  Cl  UNL A   1      44.520  20.186  24.966  1.00  0.00    -0.082 Cl
ATOM     31  C   UNL A   1      45.685  23.979  24.931  1.00  0.00     0.042 A 
ATOM     32  Cl  UNL A   1      47.182  24.811  24.762  1.00  0.00    -0.084 Cl
ENDBRANCH  23  25
ENDBRANCH  20  21
ENDBRANCH  19  20
ENDBRANCH  14  19
ENDBRANCH   8  13
ENDBRANCH   5   7
ENDBRANCH   4   5
ENDBRANCH   3   4
ENDBRANCH   2   3
ENDBRANCH   1   2
BRANCH   1  33
ATOM     33  C   UNL A   1      31.873  29.325  24.801  1.00  0.00     0.188 C 
BRANCH  33  34
ATOM     34  C   UNL A   1      32.810  29.754  25.941  1.00  0.00     0.188 C 
BRANCH  34  35
ATOM     35  O   UNL A   1      32.224  30.574  26.920  1.00  0.00    -0.376 OA
BRANCH  35  36
ATOM     36  C   UNL A   1      31.436  31.662  26.484  1.00  0.00     0.202 C 
BRANCH  36  37
ATOM     37  C   UNL A   1      31.753  33.065  27.031  1.00  0.00     0.261 C 
BRANCH  37  38
ATOM     38  O   UNL A   1      33.081  33.280  27.549  1.00  0.00    -0.460 OA
BRANCH  38  39
ATOM     39  C   UNL A   1      33.256  34.301  28.417  1.00  0.00     0.338 C 
ATOM     40  O   UNL A   1      32.492  35.236  28.612  1.00  0.00    -0.246 OA
BRANCH  39  41
ATOM     41  C   UNL A   1      34.420  33.981  29.278  1.00  0.00     0.060 A 
ATOM     42  C   UNL A   1      35.717  34.195  28.787  1.00  0.00     0.016 A 
ATOM     43  C   UNL A   1      34.235  33.479  30.568  1.00  0.00     0.016 A 
ATOM     44  C   UNL A   1      36.831  33.880  29.572  1.00  0.00     0.010 A 
ATOM     45  C   UNL A   1      35.351  33.142  31.343  1.00  0.00     0.010 A 
ATOM     46  C   UNL A   1      36.654  33.312  30.841  1.00  0.00    -0.014 A 
BRANCH  46  47
ATOM     47  C   UNL A   1      37.811  32.719  31.563  1.00  0.00     0.031 A 
ATOM     48  C   UNL A   1      38.466  31.494  30.983  1.00  0.00     0.074 A 
ATOM     49  C   UNL A   1      38.281  33.249  32.706  1.00  0.00     0.049 A 
ATOM     50  N   UNL A   1      39.425  30.748  31.470  1.00  0.00    -0.248 NA
ATOM     51  C   UNL A   1      37.964  31.050  29.673  1.00  0.00     0.031 C 
ATOM     52  C   UNL A   1      37.772  34.453  33.354  1.00  0.00     0.029 A 
ATOM     53  N   UNL A   1      39.292  32.821  33.536  1.00  0.00    -0.354 N 
ATOM     54  C   UNL A   1      39.635  29.745  30.532  1.00  0.00     0.074 A 
ATOM     55  C   UNL A   1      38.681  29.957  29.464  1.00  0.00     0.031 C 
ATOM     56  C   UNL A   1      38.456  34.658  34.494  1.00  0.00     0.029 A 
ATOM     57  C   UNL A   1      39.426  33.578  34.674  1.00  0.00     0.049 A 
ATOM     58  H   UNL A   1      39.865  32.047  33.333  1.00  0.00     0.167 HD
ATOM     59  C   UNL A   1      40.547  28.744  30.552  1.00  0.00     0.037 A 
ATOM     60  C   UNL A   1      40.218  33.399  35.752  1.00  0.00     0.037 A 
ATOM     61  C   UNL A   1      41.490  28.526  31.617  1.00  0.00     0.049 A 
ATOM     62  C   UNL A   1      41.167  32.227  35.791  1.00  0.00     0.074 A 
ATOM     63  C   UNL A   1      42.456  27.540  31.726  1.00  0.00     0.029 A 
ATOM     64  N   UNL A   1      41.580  29.300  32.764  1.00  0.00    -0.354 N 
ATOM     65  N   UNL A   1      41.374  31.293  34.894  1.00  0.00    -0.248 NA
ATOM     66  C   UNL A   1      41.999  32.086  36.996  1.00  0.00     0.031 C 
ATOM     67  C   UNL A   1      43.089  27.683  32.965  1.00  0.00     0.029 A 
ATOM     68  C   UNL A   1      42.567  28.799  33.598  1.00  0.00     0.049 A 
ATOM     69  H   UNL A   1      41.024  30.089  32.957  1.00  0.00     0.167 HD
ATOM     70  C   UNL A   1      42.377  30.478  35.410  1.00  0.00     0.074 A 
ATOM     71  C   UNL A   1      42.749  31.036  36.691  1.00  0.00     0.031 C 
ATOM     72  C   UNL A   1      42.938  29.369  34.869  1.00  0.00     0.037 A 
BRANCH  59  73
ATOM     73  C   UNL A   1      40.550  27.788  29.392  1.00  0.00     0.064 A 
ATOM     74  C   UNL A   1      41.429  27.943  28.310  1.00  0.00     0.173 A 
ATOM     75  C   UNL A   1      39.684  26.684  29.379  1.00  0.00     0.173 A 
ATOM     76  F   UNL A   1      42.268  28.989  28.265  1.00  0.00    -0.203 F 
ATOM     77  C   UNL A   1      41.420  27.047  27.244  1.00  0.00     0.198 A 
ATOM     78  C   UNL A   1      39.701  25.771  28.328  1.00  0.00     0.198 A 
ATOM     79  F   UNL A   1      38.826  26.485  30.391  1.00  0.00    -0.203 F 
ATOM     80  F   UNL A   1      42.232  27.245  26.197  1.00  0.00    -0.200 F 
ATOM     81  C   UNL A   1      40.563  25.957  27.259  1.00  0.00     0.200 A 
ATOM     82  F   UNL A   1      38.882  24.710  28.352  1.00  0.00    -0.200 F 
ATOM     83  F   UNL A   1      40.561  25.090  26.237  1.00  0.00    -0.200 F 
ENDBRANCH  59  73
BRANCH  60  84
ATOM     84  C   UNL A   1      40.136  34.340  36.903  1.00  0.00     0.064 A 
ATOM     85  C   UNL A   1      40.957  35.474  36.976  1.00  0.00     0.173 A 
ATOM     86  C   UNL A   1      39.258  34.104  37.971  1.00  0.00     0.173 A 
ATOM     87  F   UNL A   1      41.835  35.728  35.994  1.00  0.00    -0.203 F 
ATOM     88  C   UNL A   1      40.921  36.320  38.083  1.00  0.00     0.198 A 
ATOM     89  C   UNL A   1      39.198  34.970  39.062  1.00  0.00     0.198 A 
ATOM     90  F   UNL A   1      38.453  33.031  37.956  1.00  0.00    -0.203 F 
ATOM     91  F   UNL A   1      41.760  37.364  38.153  1.00  0.00    -0.200 F 
ATOM     92  C   UNL A   1      40.037  36.072  39.122  1.00  0.00     0.200 A 
ATOM     93  F   UNL A   1      38.333  34.731  40.057  1.00  0.00    -0.200 F 
ATOM     94  F   UNL A   1      40.001  36.886  40.184  1.00  0.00    -0.200 F 
ENDBRANCH  60  84
BRANCH  72  95
ATOM     95  C   UNL A   1      44.051  28.706  35.634  1.00  0.00     0.064 A 
ATOM     96  C   UNL A   1      43.804  27.708  36.590  1.00  0.00     0.173 A 
ATOM     97  C   UNL A   1      45.388  29.049  35.380  1.00  0.00     0.173 A 
ATOM     98  F   UNL A   1      42.545  27.348  36.880  1.00  0.00    -0.203 F 
ATOM     99  C   UNL A   1      44.852  27.103  37.281  1.00  0.00     0.198 A 
ATOM    100  C   UNL A   1      46.434  28.417  36.047  1.00  0.00     0.198 A 
ATOM    101  F   UNL A   1      45.683  29.990  34.470  1.00  0.00    -0.203 F 
ATOM    102  F   UNL A   1      44.587  26.192  38.229  1.00  0.00    -0.200 F 
ATOM    103  C   UNL A   1      46.164  27.452  37.004  1.00  0.00     0.200 A 
ATOM    104  F   UNL A   1      47.703  28.744  35.765  1.00  0.00    -0.200 F 
ATOM    105  F   UNL A   1      47.170  26.863  37.666  1.00  0.00    -0.200 F 
ENDBRANCH  72  95
ENDBRANCH  46  47
ENDBRANCH  39  41
ENDBRANCH  38  39
ENDBRANCH  37  38
ENDBRANCH  36  37
ENDBRANCH  35  36
ENDBRANCH  34  35
ENDBRANCH  33  34
ENDBRANCH   1  33
TORSDOF 22
ENDMDL
MODEL 2
REMARK VINA RESULT:     -11.0      1.170      6.881
REMARK SMILES O=C(COc1ccc(N2C[C@@H](C(=O)OCCOCCOCCOC(=O)c3ccc(-c4c5nc(c(-c6c(F)c(F)c(F)c(F)c6F)c6ccc([nH]6)c(-c6c(F)c(F)c(F)c(F)c6F)c6nc(c(-c7c(F)c(F)c(F)c(F)c7F)c7ccc4[nH]7)C=C6)C=C5)cc3)CC2=O)cc1)Nc1ccc(Cl)cc1Cl
REMARK SMILES IDX 17 1 16 2 15 3 14 4 12 5 13 6 11 7 9 8 10 9 90 10 89 11
REMARK SMILES IDX 91 12 8 13 5 14 6 15 93 16 7 17 92 18 4 19 3 20 2 21 1 22
REMARK SMILES IDX 94 23 95 25 96 26 101 27 97 28 100 29 102 30 98 31 99 32
REMARK SMILES IDX 18 33 19 34 20 35 21 36 22 37 23 38 24 39 25 40 26 41 27 42
REMARK SMILES IDX 88 43 28 44 87 45 29 46 30 47 31 48 81 49 32 50 86 51 80 52
REMARK SMILES IDX 82 53 33 54 85 55 79 56 78 57 34 59 66 60 46 61 65 62 47 63
REMARK SMILES IDX 50 64 64 65 83 66 48 67 49 68 63 70 84 71 51 72 35 73 36 74
REMARK SMILES IDX 44 75 37 76 38 77 42 78 45 79 39 80 40 81 43 82 41 83 67 84
REMARK SMILES IDX 68 85 76 86 69 87 70 88 74 89 77 90 71 91 72 92 75 93 73 94
REMARK SMILES IDX 52 95 53 96 61 97 54 98 55 99 59 100 62 101 56 102 57 103
REMARK SMILES IDX 60 104 58 105
REMARK H PARENT 94 24 82 58 50 69
REMARK Flexibility Score: inf
ROOT
ATOM      1  O   UNL A   1      31.110  28.172  25.153  1.00  0.00    -0.376 OA
ENDROOT
BRANCH   1   2
ATOM      2  C   UNL A   1      30.475  27.459  24.096  1.00  0.00     0.202 C 
BRANCH   2   3
ATOM      3  C   UNL A   1      31.239  27.258  22.777  1.00  0.00     0.261 C 
BRANCH   3   4
ATOM      4  O   UNL A   1      31.536  25.884  22.454  1.00  0.00    -0.463 OA
BRANCH   4   5
ATOM      5  C   UNL A   1      32.822  25.490  22.598  1.00  0.00     0.311 C 
ATOM      6  O   UNL A   1      33.657  25.502  21.700  1.00  0.00    -0.252 OA
BRANCH   5   7
ATOM      7  C   UNL A   1      33.200  25.086  24.008  1.00  0.00     0.128 C 
ATOM      8  N   UNL A   1      34.653  23.538  24.994  1.00  0.00    -0.312 N 
ATOM      9  C   UNL A   1      34.591  24.491  23.923  1.00  0.00     0.141 C 
ATOM     10  C   UNL A   1      33.400  23.219  25.499  1.00  0.00     0.227 C 
ATOM     11  C   UNL A   1      32.389  24.032  24.758  1.00  0.00     0.117 C 
ATOM     12  O   UNL A   1      33.111  22.419  26.376  1.00  0.00    -0.274 OA
BRANCH   8  13
ATOM     13  C   UNL A   1      35.775  22.714  25.132  1.00  0.00     0.044 A 
ATOM     14  C   UNL A   1      37.986  21.014  25.211  1.00  0.00     0.120 A 
ATOM     15  C   UNL A   1      38.151  22.381  25.432  1.00  0.00     0.048 A 
ATOM     16  C   UNL A   1      36.713  20.509  24.964  1.00  0.00     0.048 A 
ATOM     17  C   UNL A   1      37.049  23.239  25.359  1.00  0.00     0.030 A 
ATOM     18  C   UNL A   1      35.614  21.346  24.942  1.00  0.00     0.030 A 
BRANCH  14  19
ATOM     19  O   UNL A   1      39.074  20.198  25.373  1.00  0.00    -0.484 OA
BRANCH  19  20
ATOM     20  C   UNL A   1      39.873  20.513  26.515  1.00  0.00     0.329 C 
BRANCH  20  21
ATOM     21  C   UNL A   1      41.365  20.767  26.263  1.00  0.00     0.262 C 
ATOM     22  O   UNL A   1      42.202  19.916  26.551  1.00  0.00    -0.271 OA
ATOM     23  N   UNL A   1      41.628  22.063  25.827  1.00  0.00    -0.322 N 
ATOM     24  H   UNL A   1      40.865  22.626  25.558  1.00  0.00     0.170 HD
BRANCH  23  25
ATOM     25  C   UNL A   1      42.928  22.621  25.745  1.00  0.00     0.060 A 
ATOM     26  C   UNL A   1      43.542  22.570  24.481  1.00  0.00     0.029 A 
ATOM     27  C   UNL A   1      43.614  23.244  26.803  1.00  0.00     0.066 A 
ATOM     28  C   UNL A   1      44.769  23.202  24.256  1.00  0.00     0.023 A 
ATOM     29  C   UNL A   1      44.838  23.883  26.572  1.00  0.00     0.043 A 
ATOM     30  Cl  UNL A   1      43.122  23.108  28.457  1.00  0.00    -0.082 Cl
ATOM     31  C   UNL A   1      45.401  23.871  25.300  1.00  0.00     0.042 A 
ATOM     32  Cl  UNL A   1      46.905  24.659  25.023  1.00  0.00    -0.084 Cl
ENDBRANCH  23  25
ENDBRANCH  20  21
ENDBRANCH  19  20
ENDBRANCH  14  19
ENDBRANCH   8  13
ENDBRANCH   5   7
ENDBRANCH   4   5
ENDBRANCH   3   4
ENDBRANCH   2   3
ENDBRANCH   1   2
BRANCH   1  33
ATOM     33  C   UNL A   1      31.970  29.264  24.848  1.00  0.00     0.188 C 
BRANCH  33  34
ATOM     34  C   UNL A   1      32.950  29.781  25.912  1.00  0.00     0.188 C 
BRANCH  34  35
ATOM     35  O   UNL A   1      32.382  30.606  26.897  1.00  0.00    -0.376 OA
BRANCH  35  36
ATOM     36  C   UNL A   1      31.491  31.619  26.476  1.00  0.00     0.202 C 
BRANCH  36  37
ATOM     37  C   UNL A   1      31.670  33.038  27.046  1.00  0.00     0.261 C 
BRANCH  37  38
ATOM     38  O   UNL A   1      33.022  33.495  27.248  1.00  0.00    -0.460 OA
BRANCH  38  39
ATOM     39  C   UNL A   1      33.255  34.315  28.297  1.00  0.00     0.338 C 
ATOM     40  O   UNL A   1      32.572  35.269  28.647  1.00  0.00    -0.246 OA
BRANCH  39  41
ATOM     41  C   UNL A   1      34.347  33.729  29.110  1.00  0.00     0.060 A 
ATOM     42  C   UNL A   1      35.660  34.192  28.931  1.00  0.00     0.016 A 
ATOM     43  C   UNL A   1      34.080  32.732  30.050  1.00  0.00     0.016 A 
ATOM     44  C   UNL A   1      36.711  33.639  29.670  1.00  0.00     0.010 A 
ATOM     45  C   UNL A   1      35.136  32.162  30.771  1.00  0.00     0.010 A 
ATOM     46  C   UNL A   1      36.461  32.590  30.565  1.00  0.00    -0.014 A 
BRANCH  46  47
ATOM     47  C   UNL A   1      37.589  31.812  31.141  1.00  0.00     0.031 A 
ATOM     48  C   UNL A   1      38.027  32.121  32.548  1.00  0.00     0.074 A 
ATOM     49  C   UNL A   1      38.216  30.848  30.444  1.00  0.00     0.049 A 
ATOM     50  N   UNL A   1      39.036  31.645  33.233  1.00  0.00    -0.248 NA
ATOM     51  C   UNL A   1      37.214  33.106  33.278  1.00  0.00     0.031 C 
ATOM     52  C   UNL A   1      37.868  30.418  29.093  1.00  0.00     0.029 A 
ATOM     53  N   UNL A   1      39.298  30.067  30.780  1.00  0.00    -0.354 N 
ATOM     54  C   UNL A   1      38.983  32.278  34.469  1.00  0.00     0.074 A 
ATOM     55  C   UNL A   1      37.865  33.196  34.428  1.00  0.00     0.031 C 
ATOM     56  C   UNL A   1      38.734  29.465  28.703  1.00  0.00     0.029 A 
ATOM     57  C   UNL A   1      39.719  29.245  29.763  1.00  0.00     0.049 A 
ATOM     58  H   UNL A   1      39.728  30.093  31.664  1.00  0.00     0.167 HD
ATOM     59  C   UNL A   1      39.786  32.103  35.546  1.00  0.00     0.037 A 
ATOM     60  C   UNL A   1      40.794  28.434  29.685  1.00  0.00     0.037 A 
ATOM     61  C   UNL A   1      40.904  31.197  35.586  1.00  0.00     0.049 A 
ATOM     62  C   UNL A   1      41.726  28.319  30.867  1.00  0.00     0.074 A 
ATOM     63  C   UNL A   1      41.776  30.947  36.633  1.00  0.00     0.029 A 
ATOM     64  N   UNL A   1      41.313  30.399  34.528  1.00  0.00    -0.354 N 
ATOM     65  N   UNL A   1      41.660  28.905  32.038  1.00  0.00    -0.248 NA
ATOM     66  C   UNL A   1      42.882  27.423  30.716  1.00  0.00     0.031 C 
ATOM     67  C   UNL A   1      42.746  30.043  36.189  1.00  0.00     0.029 A 
ATOM     68  C   UNL A   1      42.439  29.675  34.888  1.00  0.00     0.049 A 
ATOM     69  H   UNL A   1      40.869  30.354  33.651  1.00  0.00     0.167 HD
ATOM     70  C   UNL A   1      42.741  28.426  32.770  1.00  0.00     0.074 A 
ATOM     71  C   UNL A   1      43.438  27.488  31.918  1.00  0.00     0.031 C 
ATOM     72  C   UNL A   1      43.121  28.735  34.035  1.00  0.00     0.037 A 
BRANCH  59  73
ATOM     73  C   UNL A   1      39.498  32.930  36.766  1.00  0.00     0.064 A 
ATOM     74  C   UNL A   1      40.179  34.130  37.023  1.00  0.00     0.173 A 
ATOM     75  C   UNL A   1      38.504  32.534  37.675  1.00  0.00     0.173 A 
ATOM     76  F   UNL A   1      41.148  34.547  36.194  1.00  0.00    -0.203 F 
ATOM     77  C   UNL A   1      39.897  34.886  38.159  1.00  0.00     0.198 A 
ATOM     78  C   UNL A   1      38.202  33.310  38.791  1.00  0.00     0.198 A 
ATOM     79  F   UNL A   1      37.819  31.398  37.476  1.00  0.00    -0.203 F 
ATOM     80  F   UNL A   1      40.597  36.000  38.410  1.00  0.00    -0.200 F 
ATOM     81  C   UNL A   1      38.904  34.480  39.036  1.00  0.00     0.200 A 
ATOM     82  F   UNL A   1      37.230  32.924  39.630  1.00  0.00    -0.200 F 
ATOM     83  F   UNL A   1      38.627  35.213  40.124  1.00  0.00    -0.200 F 
ENDBRANCH  59  73
BRANCH  60  84
ATOM     84  C   UNL A   1      41.071  27.680  28.432  1.00  0.00     0.064 A 
ATOM     85  C   UNL A   1      40.465  26.442  28.179  1.00  0.00     0.173 A 
ATOM     86  C   UNL A   1      41.978  28.166  27.478  1.00  0.00     0.173 A 
ATOM     87  F   UNL A   1      39.614  25.919  29.074  1.00  0.00    -0.203 F 
ATOM     88  C   UNL A   1      40.772  25.708  27.035  1.00  0.00     0.198 A 
ATOM     89  C   UNL A   1      42.258  27.448  26.317  1.00  0.00     0.198 A 
ATOM     90  F   UNL A   1      42.592  29.342  27.671  1.00  0.00    -0.203 F 
ATOM     91  F   UNL A   1      40.221  24.500  26.847  1.00  0.00    -0.200 F 
ATOM     92  C   UNL A   1      41.663  26.215  26.100  1.00  0.00     0.200 A 
ATOM     93  F   UNL A   1      43.111  27.948  25.412  1.00  0.00    -0.200 F 
ATOM     94  F   UNL A   1      41.956  25.511  24.999  1.00  0.00    -0.200 F 
ENDBRANCH  60  84
BRANCH  72  95
ATOM     95  C   UNL A   1      44.318  28.019  34.599  1.00  0.00     0.064 A 
ATOM     96  C   UNL A   1      44.202  26.789  35.264  1.00  0.00     0.173 A 
ATOM     97  C   UNL A   1      45.606  28.555  34.437  1.00  0.00     0.173 A 
ATOM     98  F   UNL A   1      42.995  26.236  35.457  1.00  0.00    -0.203 F 
ATOM     99  C   UNL A   1      45.326  26.140  35.772  1.00  0.00     0.198 A 
ATOM    100  C   UNL A   1      46.729  27.886  34.914  1.00  0.00     0.198 A 
ATOM    101  F   UNL A   1      45.776  29.724  33.800  1.00  0.00    -0.203 F 
ATOM    102  F   UNL A   1      45.184  24.993  36.452  1.00  0.00    -0.200 F 
ATOM    103  C   UNL A   1      46.588  26.684  35.590  1.00  0.00     0.200 A 
ATOM    104  F   UNL A   1      47.950  28.406  34.720  1.00  0.00    -0.200 F 
ATOM    105  F   UNL A   1      47.668  26.054  36.073  1.00  0.00    -0.200 F 
ENDBRANCH  72  95
ENDBRANCH  46  47
ENDBRANCH  39  41
ENDBRANCH  38  39
ENDBRANCH  37  38
ENDBRANCH  36  37
ENDBRANCH  35  36
ENDBRANCH  34  35
ENDBRANCH  33  34
ENDBRANCH   1  33
TORSDOF 22
ENDMDL
MODEL 3
REMARK VINA RESULT:     -10.8      1.101      2.159
REMARK SMILES O=C(COc1ccc(N2C[C@@H](C(=O)OCCOCCOCCOC(=O)c3ccc(-c4c5nc(c(-c6c(F)c(F)c(F)c(F)c6F)c6ccc([nH]6)c(-c6c(F)c(F)c(F)c(F)c6F)c6nc(c(-c7c(F)c(F)c(F)c(F)c7F)c7ccc4[nH]7)C=C6)C=C5)cc3)CC2=O)cc1)Nc1ccc(Cl)cc1Cl
REMARK SMILES IDX 17 1 16 2 15 3 14 4 12 5 13 6 11 7 9 8 10 9 90 10 89 11
REMARK SMILES IDX 91 12 8 13 5 14 6 15 93 16 7 17 92 18 4 19 3 20 2 21 1 22
REMARK SMILES IDX 94 23 95 25 96 26 101 27 97 28 100 29 102 30 98 31 99 32
REMARK SMILES IDX 18 33 19 34 20 35 21 36 22 37 23 38 24 39 25 40 26 41 27 42
REMARK SMILES IDX 88 43 28 44 87 45 29 46 30 47 31 48 81 49 32 50 86 51 80 52
REMARK SMILES IDX 82 53 33 54 85 55 79 56 78 57 34 59 66 60 46 61 65 62 47 63
REMARK SMILES IDX 50 64 64 65 83 66 48 67 49 68 63 70 84 71 51 72 35 73 36 74
REMARK SMILES IDX 44 75 37 76 38 77 42 78 45 79 39 80 40 81 43 82 41 83 67 84
REMARK SMILES IDX 68 85 76 86 69 87 70 88 74 89 77 90 71 91 72 92 75 93 73 94
REMARK SMILES IDX 52 95 53 96 61 97 54 98 55 99 59 100 62 101 56 102 57 103
REMARK SMILES IDX 60 104 58 105
REMARK H PARENT 94 24 82 58 50 69
REMARK Flexibility Score: inf
ROOT
ATOM      1  O   UNL A   1      32.032  27.832  24.978  1.00  0.00    -0.376 OA
ENDROOT
BRANCH   1   2
ATOM      2  C   UNL A   1      31.269  28.091  23.804  1.00  0.00     0.202 C 
BRANCH   2   3
ATOM      3  C   UNL A   1      31.876  27.736  22.435  1.00  0.00     0.261 C 
BRANCH   3   4
ATOM      4  O   UNL A   1      31.464  26.461  21.903  1.00  0.00    -0.463 OA
BRANCH   4   5
ATOM      5  C   UNL A   1      32.428  25.523  21.758  1.00  0.00     0.311 C 
ATOM      6  O   UNL A   1      33.280  25.533  20.876  1.00  0.00    -0.252 OA
BRANCH   5   7
ATOM      7  C   UNL A   1      32.436  24.459  22.837  1.00  0.00     0.128 C 
ATOM      8  N   UNL A   1      34.060  23.327  24.085  1.00  0.00    -0.312 N 
ATOM      9  C   UNL A   1      33.733  24.637  23.601  1.00  0.00     0.141 C 
ATOM     10  C   UNL A   1      33.345  22.325  23.443  1.00  0.00     0.227 C 
ATOM     11  C   UNL A   1      32.422  22.978  22.467  1.00  0.00     0.117 C 
ATOM     12  O   UNL A   1      33.422  21.115  23.595  1.00  0.00    -0.274 OA
BRANCH   8  13
ATOM     13  C   UNL A   1      35.276  23.109  24.743  1.00  0.00     0.044 A 
ATOM     14  C   UNL A   1      37.794  22.728  25.881  1.00  0.00     0.120 A 
ATOM     15  C   UNL A   1      36.930  23.686  26.411  1.00  0.00     0.048 A 
ATOM     16  C   UNL A   1      37.385  21.963  24.794  1.00  0.00     0.048 A 
ATOM     17  C   UNL A   1      35.680  23.901  25.820  1.00  0.00     0.030 A 
ATOM     18  C   UNL A   1      36.131  22.136  24.240  1.00  0.00     0.030 A 
BRANCH  14  19
ATOM     19  O   UNL A   1      38.973  22.490  26.538  1.00  0.00    -0.484 OA
BRANCH  19  20
ATOM     20  C   UNL A   1      39.668  21.328  26.084  1.00  0.00     0.329 C 
BRANCH  20  21
ATOM     21  C   UNL A   1      41.169  21.487  25.806  1.00  0.00     0.262 C 
ATOM     22  O   UNL A   1      41.904  20.505  25.760  1.00  0.00    -0.271 OA
ATOM     23  N   UNL A   1      41.573  22.818  25.761  1.00  0.00    -0.322 N 
ATOM     24  H   UNL A   1      40.876  23.514  25.734  1.00  0.00     0.170 HD
BRANCH  23  25
ATOM     25  C   UNL A   1      42.928  23.233  25.751  1.00  0.00     0.060 A 
ATOM     26  C   UNL A   1      43.671  22.884  24.609  1.00  0.00     0.029 A 
ATOM     27  C   UNL A   1      43.555  23.987  26.760  1.00  0.00     0.066 A 
ATOM     28  C   UNL A   1      44.978  23.350  24.437  1.00  0.00     0.023 A 
ATOM     29  C   UNL A   1      44.862  24.457  26.580  1.00  0.00     0.043 A 
ATOM     30  Cl  UNL A   1      42.868  24.217  28.332  1.00  0.00    -0.082 Cl
ATOM     31  C   UNL A   1      45.560  24.149  25.417  1.00  0.00     0.042 A 
ATOM     32  Cl  UNL A   1      47.164  24.733  25.202  1.00  0.00    -0.084 Cl
ENDBRANCH  23  25
ENDBRANCH  20  21
ENDBRANCH  19  20
ENDBRANCH  14  19
ENDBRANCH   8  13
ENDBRANCH   5   7
ENDBRANCH   4   5
ENDBRANCH   3   4
ENDBRANCH   2   3
ENDBRANCH   1   2
BRANCH   1  33
ATOM     33  C   UNL A   1      33.078  28.723  25.348  1.00  0.00     0.188 C 
BRANCH  33  34
ATOM     34  C   UNL A   1      32.759  29.960  26.201  1.00  0.00     0.188 C 
BRANCH  34  35
ATOM     35  O   UNL A   1      33.568  30.127  27.337  1.00  0.00    -0.376 OA
BRANCH  35  36
ATOM     36  C   UNL A   1      33.967  31.440  27.676  1.00  0.00     0.202 C 
BRANCH  36  37
ATOM     37  C   UNL A   1      32.960  32.588  27.475  1.00  0.00     0.261 C 
BRANCH  37  38
ATOM     38  O   UNL A   1      33.488  33.929  27.487  1.00  0.00    -0.460 OA
BRANCH  38  39
ATOM     39  C   UNL A   1      33.433  34.613  28.651  1.00  0.00     0.338 C 
ATOM     40  O   UNL A   1      32.501  35.294  29.057  1.00  0.00    -0.246 OA
BRANCH  39  41
ATOM     41  C   UNL A   1      34.595  34.211  29.479  1.00  0.00     0.060 A 
ATOM     42  C   UNL A   1      35.893  34.434  28.996  1.00  0.00     0.016 A 
ATOM     43  C   UNL A   1      34.408  33.622  30.732  1.00  0.00     0.016 A 
ATOM     44  C   UNL A   1      37.005  34.043  29.748  1.00  0.00     0.010 A 
ATOM     45  C   UNL A   1      35.521  33.209  31.473  1.00  0.00     0.010 A 
ATOM     46  C   UNL A   1      36.825  33.389  30.975  1.00  0.00    -0.014 A 
BRANCH  46  47
ATOM     47  C   UNL A   1      37.974  32.725  31.645  1.00  0.00     0.031 A 
ATOM     48  C   UNL A   1      38.661  31.592  30.931  1.00  0.00     0.074 A 
ATOM     49  C   UNL A   1      38.409  33.111  32.857  1.00  0.00     0.049 A 
ATOM     50  N   UNL A   1      39.620  30.802  31.344  1.00  0.00    -0.248 NA
ATOM     51  C   UNL A   1      38.197  31.311  29.564  1.00  0.00     0.031 C 
ATOM     52  C   UNL A   1      37.866  34.218  33.639  1.00  0.00     0.029 A 
ATOM     53  N   UNL A   1      39.407  32.595  33.651  1.00  0.00    -0.354 N 
ATOM     54  C   UNL A   1      39.868  29.929  30.292  1.00  0.00     0.074 A 
ATOM     55  C   UNL A   1      38.936  30.262  29.236  1.00  0.00     0.031 C 
ATOM     56  C   UNL A   1      38.520  34.285  34.812  1.00  0.00     0.029 A 
ATOM     57  C   UNL A   1      39.503  33.203  34.879  1.00  0.00     0.049 A 
ATOM     58  H   UNL A   1      39.997  31.860  33.366  1.00  0.00     0.167 HD
ATOM     59  C   UNL A   1      40.795  28.945  30.208  1.00  0.00     0.037 A 
ATOM     60  C   UNL A   1      40.273  32.900  35.944  1.00  0.00     0.037 A 
ATOM     61  C   UNL A   1      41.717  28.606  31.260  1.00  0.00     0.049 A 
ATOM     62  C   UNL A   1      41.239  31.744  35.859  1.00  0.00     0.074 A 
ATOM     63  C   UNL A   1      42.696  27.627  31.268  1.00  0.00     0.029 A 
ATOM     64  N   UNL A   1      41.767  29.230  32.497  1.00  0.00    -0.354 N 
ATOM     65  N   UNL A   1      41.482  30.934  34.857  1.00  0.00    -0.248 NA
ATOM     66  C   UNL A   1      42.045  31.463  37.057  1.00  0.00     0.031 C 
ATOM     67  C   UNL A   1      43.298  27.620  32.530  1.00  0.00     0.029 A 
ATOM     68  C   UNL A   1      42.743  28.640  33.286  1.00  0.00     0.049 A 
ATOM     69  H   UNL A   1      41.195  29.981  32.775  1.00  0.00     0.167 HD
ATOM     70  C   UNL A   1      42.485  30.074  35.290  1.00  0.00     0.074 A 
ATOM     71  C   UNL A   1      42.818  30.470  36.641  1.00  0.00     0.031 C 
ATOM     72  C   UNL A   1      43.075  29.049  34.627  1.00  0.00     0.037 A 
BRANCH  59  73
ATOM     73  C   UNL A   1      40.840  28.144  28.938  1.00  0.00     0.064 A 
ATOM     74  C   UNL A   1      40.059  26.991  28.763  1.00  0.00     0.173 A 
ATOM     75  C   UNL A   1      41.653  28.552  27.869  1.00  0.00     0.173 A 
ATOM     76  F   UNL A   1      39.276  26.549  29.759  1.00  0.00    -0.203 F 
ATOM     77  C   UNL A   1      40.112  26.261  27.578  1.00  0.00     0.198 A 
ATOM     78  C   UNL A   1      41.678  27.839  26.673  1.00  0.00     0.198 A 
ATOM     79  F   UNL A   1      42.417  29.648  27.980  1.00  0.00    -0.203 F 
ATOM     80  F   UNL A   1      39.397  25.135  27.454  1.00  0.00    -0.200 F 
ATOM     81  C   UNL A   1      40.914  26.691  26.532  1.00  0.00     0.200 A 
ATOM     82  F   UNL A   1      42.442  28.264  25.657  1.00  0.00    -0.200 F 
ATOM     83  F   UNL A   1      40.958  25.993  25.388  1.00  0.00    -0.200 F 
ENDBRANCH  59  73
BRANCH  60  84
ATOM     84  C   UNL A   1      40.149  33.687  37.202  1.00  0.00     0.064 A 
ATOM     85  C   UNL A   1      39.226  33.329  38.195  1.00  0.00     0.173 A 
ATOM     86  C   UNL A   1      40.926  34.834  37.421  1.00  0.00     0.173 A 
ATOM     87  F   UNL A   1      38.437  32.258  38.021  1.00  0.00    -0.203 F 
ATOM     88  C   UNL A   1      39.068  34.102  39.344  1.00  0.00     0.198 A 
ATOM     89  C   UNL A   1      40.792  35.586  38.586  1.00  0.00     0.198 A 
ATOM     90  F   UNL A   1      41.820  35.225  36.501  1.00  0.00    -0.203 F 
ATOM     91  F   UNL A   1      38.136  33.769  40.250  1.00  0.00    -0.200 F 
ATOM     92  C   UNL A   1      39.856  35.225  39.543  1.00  0.00     0.200 A 
ATOM     93  F   UNL A   1      41.564  36.664  38.778  1.00  0.00    -0.200 F 
ATOM     94  F   UNL A   1      39.705  35.966  40.649  1.00  0.00    -0.200 F 
ENDBRANCH  60  84
BRANCH  72  95
ATOM     95  C   UNL A   1      44.181  28.309  35.331  1.00  0.00     0.064 A 
ATOM     96  C   UNL A   1      45.519  28.725  35.255  1.00  0.00     0.173 A 
ATOM     97  C   UNL A   1      43.890  27.187  36.123  1.00  0.00     0.173 A 
ATOM     98  F   UNL A   1      45.855  29.784  34.504  1.00  0.00    -0.203 F 
ATOM     99  C   UNL A   1      46.525  28.028  35.921  1.00  0.00     0.198 A 
ATOM    100  C   UNL A   1      44.894  26.515  36.816  1.00  0.00     0.198 A 
ATOM    101  F   UNL A   1      42.627  26.750  36.239  1.00  0.00    -0.203 F 
ATOM    102  F   UNL A   1      47.803  28.413  35.788  1.00  0.00    -0.200 F 
ATOM    103  C   UNL A   1      46.212  26.930  36.706  1.00  0.00     0.200 A 
ATOM    104  F   UNL A   1      44.585  25.464  37.589  1.00  0.00    -0.200 F 
ATOM    105  F   UNL A   1      47.180  26.266  37.351  1.00  0.00    -0.200 F 
ENDBRANCH  72  95
ENDBRANCH  46  47
ENDBRANCH  39  41
ENDBRANCH  38  39
ENDBRANCH  37  38
ENDBRANCH  36  37
ENDBRANCH  35  36
ENDBRANCH  34  35
ENDBRANCH  33  34
ENDBRANCH   1  33
TORSDOF 22
ENDMDL
