MODEL 1
REMARK VINA RESULT:      -9.6      0.000      0.000
REMARK SMILES C[C@H](Cc1cccs1)N(C)C(=O)[C@@H]([NH3+])CCC(=O)OCCOCCOCCOC(=O)c1ccc(-c2c3nc(c(-c4c(F)c(F)c(F)c(F)c4F)c4ccc([nH]4)c(-c4c(F)c(F)c(F)c(F)c4F)c4nc(c(-c5c(F)c(F)c(F)c(F)c5F)c5ccc2[nH]5)C=C4)C=C3)cc1
REMARK SMILES IDX 21 1 20 2 19 3 17 4 18 5 16 6 15 7 13 8 11 9 12 10 9 11
REMARK SMILES IDX 10 12 2 13 1 14 3 15 4 16 5 17 8 18 6 19 7 20 14 21 22 25
REMARK SMILES IDX 23 26 24 27 25 28 26 29 27 30 28 31 29 32 30 33 31 34 32 35
REMARK SMILES IDX 93 36 33 37 92 38 34 39 35 40 36 41 86 42 37 43 91 44 85 45
REMARK SMILES IDX 87 46 38 47 90 48 84 49 83 50 39 52 71 53 51 54 70 55 52 56
REMARK SMILES IDX 55 57 69 58 88 59 53 60 54 61 68 63 89 64 56 65 40 66 41 67
REMARK SMILES IDX 49 68 42 69 43 70 47 71 50 72 44 73 45 74 48 75 46 76 72 77
REMARK SMILES IDX 73 78 81 79 74 80 75 81 79 82 82 83 76 84 77 85 80 86 78 87
REMARK SMILES IDX 57 88 58 89 66 90 59 91 60 92 64 93 67 94 61 95 62 96 65 97
REMARK SMILES IDX 63 98
REMARK H PARENT 14 22 14 23 14 24 87 51 55 62
REMARK Flexibility Score: inf
ROOT
ATOM      1  C   UNL A   1      34.346  27.062  25.788  1.00  0.00     0.202 C 
ENDROOT
BRANCH   1   2
ATOM      2  C   UNL A   1      34.057  27.243  24.289  1.00  0.00     0.261 C 
BRANCH   2   3
ATOM      3  O   UNL A   1      32.740  26.801  23.899  1.00  0.00    -0.463 OA
BRANCH   3   4
ATOM      4  C   UNL A   1      32.437  26.905  22.581  1.00  0.00     0.306 C 
ATOM      5  O   UNL A   1      33.232  26.732  21.663  1.00  0.00    -0.252 OA
BRANCH   4   6
ATOM      6  C   UNL A   1      30.955  27.106  22.305  1.00  0.00     0.129 C 
BRANCH   6   7
ATOM      7  C   UNL A   1      29.956  27.308  23.453  1.00  0.00     0.087 C 
BRANCH   7   8
ATOM      8  C   UNL A   1      29.347  26.033  24.041  1.00  0.00     0.271 C 
BRANCH   8   9
ATOM      9  C   UNL A   1      30.094  25.595  25.314  1.00  0.00     0.280 C 
ATOM     10  O   UNL A   1      30.151  26.431  26.220  1.00  0.00    -0.268 OA
BRANCH   9  11
ATOM     11  N   UNL A   1      30.530  24.290  25.508  1.00  0.00    -0.338 N 
ATOM     12  C   UNL A   1      30.210  23.478  26.679  1.00  0.00     0.147 C 
BRANCH  11  13
ATOM     13  C   UNL A   1      31.561  23.734  24.592  1.00  0.00     0.087 C 
ATOM     14  C   UNL A   1      30.947  23.369  23.237  1.00  0.00     0.031 C 
BRANCH  13  15
ATOM     15  C   UNL A   1      32.502  22.679  25.246  1.00  0.00     0.071 C 
BRANCH  15  16
ATOM     16  C   UNL A   1      33.972  23.008  25.304  1.00  0.00     0.007 A 
ATOM     17  C   UNL A   1      34.861  22.812  26.346  1.00  0.00     0.015 A 
ATOM     18  S   UNL A   1      34.784  23.634  23.924  1.00  0.00    -0.149 S 
ATOM     19  C   UNL A   1      36.143  23.369  26.079  1.00  0.00     0.012 A 
ATOM     20  C   UNL A   1      36.221  23.892  24.810  1.00  0.00     0.065 A 
ENDBRANCH  15  16
ENDBRANCH  13  15
ENDBRANCH  11  13
ENDBRANCH   9  11
ENDBRANCH   8   9
BRANCH   8  21
ATOM     21  N   UNL A   1      27.888  26.147  24.221  1.00  0.00    -0.347 N 
ATOM     22  H   UNL A   1      27.463  25.222  24.151  1.00  0.00     0.345 HD
ATOM     23  H   UNL A   1      27.503  26.753  23.496  1.00  0.00     0.345 HD
ATOM     24  H   UNL A   1      27.688  26.545  25.139  1.00  0.00     0.345 HD
ENDBRANCH   8  21
ENDBRANCH   7   8
ENDBRANCH   6   7
ENDBRANCH   4   6
ENDBRANCH   3   4
ENDBRANCH   2   3
ENDBRANCH   1   2
BRANCH   1  25
ATOM     25  O   UNL A   1      33.267  27.354  26.680  1.00  0.00    -0.376 OA
BRANCH  25  26
ATOM     26  C   UNL A   1      33.250  28.660  27.246  1.00  0.00     0.188 C 
BRANCH  26  27
ATOM     27  C   UNL A   1      31.893  29.361  27.258  1.00  0.00     0.188 C 
BRANCH  27  28
ATOM     28  O   UNL A   1      31.466  29.908  26.021  1.00  0.00    -0.376 OA
BRANCH  28  29
ATOM     29  C   UNL A   1      31.307  31.327  25.941  1.00  0.00     0.202 C 
BRANCH  29  30
ATOM     30  C   UNL A   1      31.691  32.194  27.163  1.00  0.00     0.261 C 
BRANCH  30  31
ATOM     31  O   UNL A   1      32.880  33.005  27.030  1.00  0.00    -0.460 OA
BRANCH  31  32
ATOM     32  C   UNL A   1      33.419  33.522  28.156  1.00  0.00     0.338 C 
ATOM     33  O   UNL A   1      32.847  34.232  28.968  1.00  0.00    -0.246 OA
BRANCH  32  34
ATOM     34  C   UNL A   1      34.741  32.875  28.407  1.00  0.00     0.060 A 
ATOM     35  C   UNL A   1      34.763  31.482  28.562  1.00  0.00     0.016 A 
ATOM     36  C   UNL A   1      35.947  33.587  28.425  1.00  0.00     0.016 A 
ATOM     37  C   UNL A   1      35.962  30.813  28.824  1.00  0.00     0.010 A 
ATOM     38  C   UNL A   1      37.151  32.917  28.697  1.00  0.00     0.010 A 
ATOM     39  C   UNL A   1      37.154  31.534  28.959  1.00  0.00    -0.014 A 
BRANCH  39  40
ATOM     40  C   UNL A   1      38.305  30.885  29.647  1.00  0.00     0.031 A 
ATOM     41  C   UNL A   1      38.534  31.224  31.100  1.00  0.00     0.074 A 
ATOM     42  C   UNL A   1      39.076  29.953  29.056  1.00  0.00     0.049 A 
ATOM     43  N   UNL A   1      39.430  30.764  31.938  1.00  0.00    -0.248 NA
ATOM     44  C   UNL A   1      37.621  32.217  31.688  1.00  0.00     0.031 C 
ATOM     45  C   UNL A   1      38.946  29.492  27.677  1.00  0.00     0.029 A 
ATOM     46  N   UNL A   1      40.128  29.220  29.558  1.00  0.00    -0.354 N 
ATOM     47  C   UNL A   1      39.187  31.414  33.142  1.00  0.00     0.074 A 
ATOM     48  C   UNL A   1      38.092  32.329  32.919  1.00  0.00     0.031 C 
ATOM     49  C   UNL A   1      39.882  28.555  27.441  1.00  0.00     0.029 A 
ATOM     50  C   UNL A   1      40.694  28.365  28.644  1.00  0.00     0.049 A 
ATOM     51  H   UNL A   1      40.445  29.302  30.486  1.00  0.00     0.167 HD
ATOM     52  C   UNL A   1      39.806  31.255  34.336  1.00  0.00     0.037 A 
ATOM     53  C   UNL A   1      41.751  27.535  28.764  1.00  0.00     0.037 A 
ATOM     54  C   UNL A   1      40.895  30.345  34.573  1.00  0.00     0.049 A 
ATOM     55  C   UNL A   1      42.468  27.422  30.089  1.00  0.00     0.074 A 
ATOM     56  C   UNL A   1      41.582  30.111  35.752  1.00  0.00     0.029 A 
ATOM     57  N   UNL A   1      41.460  29.523  33.611  1.00  0.00    -0.354 N 
ATOM     58  N   UNL A   1      42.214  28.021  31.228  1.00  0.00    -0.248 NA
ATOM     59  C   UNL A   1      43.613  26.502  30.147  1.00  0.00     0.031 C 
ATOM     60  C   UNL A   1      42.602  29.191  35.488  1.00  0.00     0.029 A 
ATOM     61  C   UNL A   1      42.502  28.795  34.165  1.00  0.00     0.049 A 
ATOM     62  H   UNL A   1      41.166  29.464  32.673  1.00  0.00     0.167 HD
ATOM     63  C   UNL A   1      43.135  27.518  32.141  1.00  0.00     0.074 A 
ATOM     64  C   UNL A   1      43.945  26.555  31.429  1.00  0.00     0.031 C 
ATOM     65  C   UNL A   1      43.292  27.823  33.454  1.00  0.00     0.037 A 
BRANCH  52  66
ATOM     66  C   UNL A   1      39.337  32.110  35.479  1.00  0.00     0.064 A 
ATOM     67  C   UNL A   1      39.738  33.448  35.617  1.00  0.00     0.173 A 
ATOM     68  C   UNL A   1      38.450  31.589  36.432  1.00  0.00     0.173 A 
ATOM     69  F   UNL A   1      40.601  33.989  34.744  1.00  0.00    -0.203 F 
ATOM     70  C   UNL A   1      39.288  34.224  36.682  1.00  0.00     0.198 A 
ATOM     71  C   UNL A   1      37.974  32.378  37.476  1.00  0.00     0.198 A 
ATOM     72  F   UNL A   1      38.034  30.317  36.347  1.00  0.00    -0.203 F 
ATOM     73  F   UNL A   1      39.726  35.482  36.824  1.00  0.00    -0.200 F 
ATOM     74  C   UNL A   1      38.400  33.692  37.606  1.00  0.00     0.200 A 
ATOM     75  F   UNL A   1      37.106  31.866  38.359  1.00  0.00    -0.200 F 
ATOM     76  F   UNL A   1      37.959  34.443  38.624  1.00  0.00    -0.200 F 
ENDBRANCH  52  66
BRANCH  53  77
ATOM     77  C   UNL A   1      42.217  26.735  27.596  1.00  0.00     0.064 A 
ATOM     78  C   UNL A   1      41.721  25.447  27.347  1.00  0.00     0.173 A 
ATOM     79  C   UNL A   1      43.217  27.221  26.740  1.00  0.00     0.173 A 
ATOM     80  F   UNL A   1      40.787  24.922  28.155  1.00  0.00    -0.203 F 
ATOM     81  C   UNL A   1      42.227  24.666  26.310  1.00  0.00     0.198 A 
ATOM     82  C   UNL A   1      43.699  26.452  25.681  1.00  0.00     0.198 A 
ATOM     83  F   UNL A   1      43.734  28.442  26.937  1.00  0.00    -0.203 F 
ATOM     84  F   UNL A   1      41.784  23.413  26.139  1.00  0.00    -0.200 F 
ATOM     85  C   UNL A   1      43.212  25.170  25.475  1.00  0.00     0.200 A 
ATOM     86  F   UNL A   1      44.646  26.947  24.874  1.00  0.00    -0.200 F 
ATOM     87  F   UNL A   1      43.704  24.416  24.482  1.00  0.00    -0.200 F 
ENDBRANCH  53  77
BRANCH  65  88
ATOM     88  C   UNL A   1      44.329  27.056  34.229  1.00  0.00     0.064 A 
ATOM     89  C   UNL A   1      44.045  25.831  34.854  1.00  0.00     0.173 A 
ATOM     90  C   UNL A   1      45.640  27.551  34.333  1.00  0.00     0.173 A 
ATOM     91  F   UNL A   1      42.810  25.314  34.793  1.00  0.00    -0.203 F 
ATOM     92  C   UNL A   1      45.019  25.159  35.591  1.00  0.00     0.198 A 
ATOM     93  C   UNL A   1      46.620  26.857  35.038  1.00  0.00     0.198 A 
ATOM     94  F   UNL A   1      45.975  28.709  33.745  1.00  0.00    -0.203 F 
ATOM     95  F   UNL A   1      44.703  24.027  36.236  1.00  0.00    -0.200 F 
ATOM     96  C   UNL A   1      46.305  25.669  35.678  1.00  0.00     0.200 A 
ATOM     97  F   UNL A   1      47.868  27.342  35.103  1.00  0.00    -0.200 F 
ATOM     98  F   UNL A   1      47.238  25.021  36.388  1.00  0.00    -0.200 F 
ENDBRANCH  65  88
ENDBRANCH  39  40
ENDBRANCH  32  34
ENDBRANCH  31  32
ENDBRANCH  30  31
ENDBRANCH  29  30
ENDBRANCH  28  29
ENDBRANCH  27  28
ENDBRANCH  26  27
ENDBRANCH  25  26
ENDBRANCH   1  25
TORSDOF 25
ENDMDL
MODEL 2
REMARK VINA RESULT:      -9.5      4.186      7.106
REMARK SMILES C[C@H](Cc1cccs1)N(C)C(=O)[C@@H]([NH3+])CCC(=O)OCCOCCOCCOC(=O)c1ccc(-c2c3nc(c(-c4c(F)c(F)c(F)c(F)c4F)c4ccc([nH]4)c(-c4c(F)c(F)c(F)c(F)c4F)c4nc(c(-c5c(F)c(F)c(F)c(F)c5F)c5ccc2[nH]5)C=C4)C=C3)cc1
REMARK SMILES IDX 21 1 20 2 19 3 17 4 18 5 16 6 15 7 13 8 11 9 12 10 9 11
REMARK SMILES IDX 10 12 2 13 1 14 3 15 4 16 5 17 8 18 6 19 7 20 14 21 22 25
REMARK SMILES IDX 23 26 24 27 25 28 26 29 27 30 28 31 29 32 30 33 31 34 32 35
REMARK SMILES IDX 93 36 33 37 92 38 34 39 35 40 36 41 86 42 37 43 91 44 85 45
REMARK SMILES IDX 87 46 38 47 90 48 84 49 83 50 39 52 71 53 51 54 70 55 52 56
REMARK SMILES IDX 55 57 69 58 88 59 53 60 54 61 68 63 89 64 56 65 40 66 41 67
REMARK SMILES IDX 49 68 42 69 43 70 47 71 50 72 44 73 45 74 48 75 46 76 72 77
REMARK SMILES IDX 73 78 81 79 74 80 75 81 79 82 82 83 76 84 77 85 80 86 78 87
REMARK SMILES IDX 57 88 58 89 66 90 59 91 60 92 64 93 67 94 61 95 62 96 65 97
REMARK SMILES IDX 63 98
REMARK H PARENT 14 22 14 23 14 24 87 51 55 62
REMARK Flexibility Score: inf
ROOT
ATOM      1  C   UNL A   1      33.551  24.125  24.611  1.00  0.00     0.202 C 
ENDROOT
BRANCH   1   2
ATOM      2  C   UNL A   1      34.058  24.362  23.178  1.00  0.00     0.261 C 
BRANCH   2   3
ATOM      3  O   UNL A   1      33.065  24.098  22.166  1.00  0.00    -0.463 OA
BRANCH   3   4
ATOM      4  C   UNL A   1      32.822  25.103  21.286  1.00  0.00     0.306 C 
ATOM      5  O   UNL A   1      33.275  25.163  20.148  1.00  0.00    -0.252 OA
BRANCH   4   6
ATOM      6  C   UNL A   1      31.788  26.107  21.771  1.00  0.00     0.129 C 
BRANCH   6   7
ATOM      7  C   UNL A   1      32.209  27.498  22.269  1.00  0.00     0.087 C 
BRANCH   7   8
ATOM      8  C   UNL A   1      31.069  28.428  22.691  1.00  0.00     0.271 C 
BRANCH   8   9
ATOM      9  C   UNL A   1      31.020  28.590  24.221  1.00  0.00     0.280 C 
ATOM     10  O   UNL A   1      30.652  29.693  24.635  1.00  0.00    -0.268 OA
BRANCH   9  11
ATOM     11  N   UNL A   1      31.213  27.522  25.088  1.00  0.00    -0.338 N 
ATOM     12  C   UNL A   1      30.267  26.423  25.267  1.00  0.00     0.147 C 
BRANCH  11  13
ATOM     13  C   UNL A   1      32.334  27.580  26.063  1.00  0.00     0.087 C 
ATOM     14  C   UNL A   1      31.811  27.816  27.484  1.00  0.00     0.031 C 
BRANCH  13  15
ATOM     15  C   UNL A   1      33.542  28.450  25.604  1.00  0.00     0.071 C 
BRANCH  15  16
ATOM     16  C   UNL A   1      34.106  29.428  26.602  1.00  0.00     0.007 A 
ATOM     17  C   UNL A   1      35.263  29.324  27.354  1.00  0.00     0.015 A 
ATOM     18  S   UNL A   1      33.347  30.948  26.866  1.00  0.00    -0.149 S 
ATOM     19  C   UNL A   1      35.403  30.389  28.289  1.00  0.00     0.012 A 
ATOM     20  C   UNL A   1      34.398  31.319  28.160  1.00  0.00     0.065 A 
ENDBRANCH  15  16
ENDBRANCH  13  15
ENDBRANCH  11  13
ENDBRANCH   9  11
ENDBRANCH   8   9
BRANCH   8  21
ATOM     21  N   UNL A   1      31.101  29.710  21.962  1.00  0.00    -0.347 N 
ATOM     22  H   UNL A   1      30.545  29.629  21.109  1.00  0.00     0.345 HD
ATOM     23  H   UNL A   1      32.064  29.939  21.718  1.00  0.00     0.345 HD
ATOM     24  H   UNL A   1      30.714  30.447  22.551  1.00  0.00     0.345 HD
ENDBRANCH   8  21
ENDBRANCH   7   8
ENDBRANCH   6   7
ENDBRANCH   4   6
ENDBRANCH   3   4
ENDBRANCH   2   3
ENDBRANCH   1   2
BRANCH   1  25
ATOM     25  O   UNL A   1      32.746  22.961  24.812  1.00  0.00    -0.376 OA
BRANCH  25  26
ATOM     26  C   UNL A   1      32.734  22.420  26.129  1.00  0.00     0.188 C 
BRANCH  26  27
ATOM     27  C   UNL A   1      33.818  21.388  26.434  1.00  0.00     0.188 C 
BRANCH  27  28
ATOM     28  O   UNL A   1      34.241  20.591  25.340  1.00  0.00    -0.376 OA
BRANCH  28  29
ATOM     29  C   UNL A   1      35.631  20.605  25.007  1.00  0.00     0.202 C 
BRANCH  29  30
ATOM     30  C   UNL A   1      36.379  21.958  24.965  1.00  0.00     0.261 C 
BRANCH  30  31
ATOM     31  O   UNL A   1      37.806  21.899  24.737  1.00  0.00    -0.460 OA
BRANCH  31  32
ATOM     32  C   UNL A   1      38.589  21.473  25.751  1.00  0.00     0.338 C 
ATOM     33  O   UNL A   1      38.889  20.314  25.993  1.00  0.00    -0.246 OA
BRANCH  32  34
ATOM     34  C   UNL A   1      39.261  22.649  26.378  1.00  0.00     0.060 A 
ATOM     35  C   UNL A   1      38.717  23.918  26.127  1.00  0.00     0.016 A 
ATOM     36  C   UNL A   1      40.354  22.531  27.246  1.00  0.00     0.016 A 
ATOM     37  C   UNL A   1      39.309  25.065  26.661  1.00  0.00     0.010 A 
ATOM     38  C   UNL A   1      40.954  23.685  27.776  1.00  0.00     0.010 A 
ATOM     39  C   UNL A   1      40.471  24.962  27.434  1.00  0.00    -0.014 A 
BRANCH  39  40
ATOM     40  C   UNL A   1      41.311  26.178  27.624  1.00  0.00     0.031 A 
ATOM     41  C   UNL A   1      40.747  27.292  28.472  1.00  0.00     0.074 A 
ATOM     42  C   UNL A   1      42.568  26.276  27.152  1.00  0.00     0.049 A 
ATOM     43  N   UNL A   1      41.289  28.430  28.831  1.00  0.00    -0.248 NA
ATOM     44  C   UNL A   1      39.384  27.091  28.989  1.00  0.00     0.031 C 
ATOM     45  C   UNL A   1      43.261  25.265  26.359  1.00  0.00     0.029 A 
ATOM     46  N   UNL A   1      43.491  27.289  27.286  1.00  0.00    -0.354 N 
ATOM     47  C   UNL A   1      40.333  29.073  29.608  1.00  0.00     0.074 A 
ATOM     48  C   UNL A   1      39.165  28.224  29.635  1.00  0.00     0.031 C 
ATOM     49  C   UNL A   1      44.499  25.708  26.074  1.00  0.00     0.029 A 
ATOM     50  C   UNL A   1      44.680  27.043  26.645  1.00  0.00     0.049 A 
ATOM     51  H   UNL A   1      43.314  28.113  27.794  1.00  0.00     0.167 HD
ATOM     52  C   UNL A   1      40.420  30.258  30.258  1.00  0.00     0.037 A 
ATOM     53  C   UNL A   1      45.783  27.812  26.525  1.00  0.00     0.037 A 
ATOM     54  C   UNL A   1      41.578  31.111  30.242  1.00  0.00     0.049 A 
ATOM     55  C   UNL A   1      45.832  29.161  27.206  1.00  0.00     0.074 A 
ATOM     56  C   UNL A   1      41.761  32.328  30.876  1.00  0.00     0.029 A 
ATOM     57  N   UNL A   1      42.748  30.840  29.551  1.00  0.00    -0.354 N 
ATOM     58  N   UNL A   1      44.933  29.748  27.959  1.00  0.00    -0.248 NA
ATOM     59  C   UNL A   1      47.062  29.947  27.029  1.00  0.00     0.031 C 
ATOM     60  C   UNL A   1      43.020  32.822  30.520  1.00  0.00     0.029 A 
ATOM     61  C   UNL A   1      43.651  31.877  29.727  1.00  0.00     0.049 A 
ATOM     62  H   UNL A   1      42.915  30.031  29.015  1.00  0.00     0.167 HD
ATOM     63  C   UNL A   1      45.506  30.944  28.380  1.00  0.00     0.074 A 
ATOM     64  C   UNL A   1      46.833  30.994  27.809  1.00  0.00     0.031 C 
ATOM     65  C   UNL A   1      44.980  31.912  29.172  1.00  0.00     0.037 A 
BRANCH  52  66
ATOM     66  C   UNL A   1      39.212  30.718  31.023  1.00  0.00     0.064 A 
ATOM     67  C   UNL A   1      38.204  31.488  30.423  1.00  0.00     0.173 A 
ATOM     68  C   UNL A   1      39.048  30.358  32.368  1.00  0.00     0.173 A 
ATOM     69  F   UNL A   1      38.321  31.877  29.144  1.00  0.00    -0.203 F 
ATOM     70  C   UNL A   1      37.090  31.902  31.149  1.00  0.00     0.198 A 
ATOM     71  C   UNL A   1      37.917  30.743  33.082  1.00  0.00     0.198 A 
ATOM     72  F   UNL A   1      39.982  29.622  32.990  1.00  0.00    -0.203 F 
ATOM     73  F   UNL A   1      36.167  32.681  30.571  1.00  0.00    -0.200 F 
ATOM     74  C   UNL A   1      36.943  31.522  32.475  1.00  0.00     0.200 A 
ATOM     75  F   UNL A   1      37.771  30.363  34.359  1.00  0.00    -0.200 F 
ATOM     76  F   UNL A   1      35.866  31.911  33.170  1.00  0.00    -0.200 F 
ENDBRANCH  52  66
BRANCH  53  77
ATOM     77  C   UNL A   1      46.945  27.342  25.720  1.00  0.00     0.064 A 
ATOM     78  C   UNL A   1      48.032  26.687  26.319  1.00  0.00     0.173 A 
ATOM     79  C   UNL A   1      47.022  27.597  24.343  1.00  0.00     0.173 A 
ATOM     80  F   UNL A   1      48.024  26.449  27.639  1.00  0.00    -0.203 F 
ATOM     81  C   UNL A   1      49.159  26.334  25.579  1.00  0.00     0.198 A 
ATOM     82  C   UNL A   1      48.135  27.212  23.597  1.00  0.00     0.198 A 
ATOM     83  F   UNL A   1      46.017  28.229  23.720  1.00  0.00    -0.203 F 
ATOM     84  F   UNL A   1      50.210  25.772  26.192  1.00  0.00    -0.200 F 
ATOM     85  C   UNL A   1      49.208  26.592  24.218  1.00  0.00     0.200 A 
ATOM     86  F   UNL A   1      48.174  27.458  22.280  1.00  0.00    -0.200 F 
ATOM     87  F   UNL A   1      50.295  26.258  23.508  1.00  0.00    -0.200 F 
ENDBRANCH  53  77
BRANCH  65  88
ATOM     88  C   UNL A   1      45.864  33.075  29.533  1.00  0.00     0.064 A 
ATOM     89  C   UNL A   1      45.902  34.253  28.771  1.00  0.00     0.173 A 
ATOM     90  C   UNL A   1      46.678  33.013  30.677  1.00  0.00     0.173 A 
ATOM     91  F   UNL A   1      45.152  34.365  27.665  1.00  0.00    -0.203 F 
ATOM     92  C   UNL A   1      46.755  35.301  29.112  1.00  0.00     0.198 A 
ATOM     93  C   UNL A   1      47.499  34.079  31.037  1.00  0.00     0.198 A 
ATOM     94  F   UNL A   1      46.673  31.919  31.453  1.00  0.00    -0.203 F 
ATOM     95  F   UNL A   1      46.824  36.386  28.328  1.00  0.00    -0.200 F 
ATOM     96  C   UNL A   1      47.547  35.216  30.246  1.00  0.00     0.200 A 
ATOM     97  F   UNL A   1      48.249  34.001  32.145  1.00  0.00    -0.200 F 
ATOM     98  F   UNL A   1      48.367  36.225  30.571  1.00  0.00    -0.200 F 
ENDBRANCH  65  88
ENDBRANCH  39  40
ENDBRANCH  32  34
ENDBRANCH  31  32
ENDBRANCH  30  31
ENDBRANCH  29  30
ENDBRANCH  28  29
ENDBRANCH  27  28
ENDBRANCH  26  27
ENDBRANCH  25  26
ENDBRANCH   1  25
TORSDOF 25
ENDMDL
MODEL 3
REMARK VINA RESULT:      -9.3      3.761      8.935
REMARK SMILES C[C@H](Cc1cccs1)N(C)C(=O)[C@@H]([NH3+])CCC(=O)OCCOCCOCCOC(=O)c1ccc(-c2c3nc(c(-c4c(F)c(F)c(F)c(F)c4F)c4ccc([nH]4)c(-c4c(F)c(F)c(F)c(F)c4F)c4nc(c(-c5c(F)c(F)c(F)c(F)c5F)c5ccc2[nH]5)C=C4)C=C3)cc1
REMARK SMILES IDX 21 1 20 2 19 3 17 4 18 5 16 6 15 7 13 8 11 9 12 10 9 11
REMARK SMILES IDX 10 12 2 13 1 14 3 15 4 16 5 17 8 18 6 19 7 20 14 21 22 25
REMARK SMILES IDX 23 26 24 27 25 28 26 29 27 30 28 31 29 32 30 33 31 34 32 35
REMARK SMILES IDX 93 36 33 37 92 38 34 39 35 40 36 41 86 42 37 43 91 44 85 45
REMARK SMILES IDX 87 46 38 47 90 48 84 49 83 50 39 52 71 53 51 54 70 55 52 56
REMARK SMILES IDX 55 57 69 58 88 59 53 60 54 61 68 63 89 64 56 65 40 66 41 67
REMARK SMILES IDX 49 68 42 69 43 70 47 71 50 72 44 73 45 74 48 75 46 76 72 77
REMARK SMILES IDX 73 78 81 79 74 80 75 81 79 82 82 83 76 84 77 85 80 86 78 87
REMARK SMILES IDX 57 88 58 89 66 90 59 91 60 92 64 93 67 94 61 95 62 96 65 97
REMARK SMILES IDX 63 98
REMARK H PARENT 14 22 14 23 14 24 87 51 55 62
REMARK Flexibility Score: inf
ROOT
ATOM      1  C   UNL A   1      41.052  20.830  27.239  1.00  0.00     0.202 C 
ENDROOT
BRANCH   1   2
ATOM      2  C   UNL A   1      40.328  21.620  26.136  1.00  0.00     0.261 C 
BRANCH   2   3
ATOM      3  O   UNL A   1      39.012  21.112  25.835  1.00  0.00    -0.463 OA
BRANCH   3   4
ATOM      4  C   UNL A   1      38.061  22.039  25.553  1.00  0.00     0.306 C 
ATOM      5  O   UNL A   1      37.984  23.147  26.074  1.00  0.00    -0.252 OA
BRANCH   4   6
ATOM      6  C   UNL A   1      37.154  21.656  24.395  1.00  0.00     0.129 C 
BRANCH   6   7
ATOM      7  C   UNL A   1      35.744  22.250  24.263  1.00  0.00     0.087 C 
BRANCH   7   8
ATOM      8  C   UNL A   1      34.680  21.658  25.190  1.00  0.00     0.271 C 
BRANCH   8   9
ATOM      9  C   UNL A   1      33.310  22.323  24.963  1.00  0.00     0.280 C 
ATOM     10  O   UNL A   1      32.617  21.838  24.066  1.00  0.00    -0.268 OA
BRANCH   9  11
ATOM     11  N   UNL A   1      32.807  23.297  25.817  1.00  0.00    -0.338 N 
ATOM     12  C   UNL A   1      32.111  23.016  27.070  1.00  0.00     0.147 C 
BRANCH  11  13
ATOM     13  C   UNL A   1      32.768  24.709  25.353  1.00  0.00     0.087 C 
ATOM     14  C   UNL A   1      34.165  25.337  25.397  1.00  0.00     0.031 C 
BRANCH  13  15
ATOM     15  C   UNL A   1      31.598  25.550  25.946  1.00  0.00     0.071 C 
BRANCH  15  16
ATOM     16  C   UNL A   1      31.051  26.666  25.095  1.00  0.00     0.007 A 
ATOM     17  C   UNL A   1      30.065  26.610  24.125  1.00  0.00     0.015 A 
ATOM     18  S   UNL A   1      31.581  28.285  25.325  1.00  0.00    -0.149 S 
ATOM     19  C   UNL A   1      29.906  27.847  23.438  1.00  0.00     0.012 A 
ATOM     20  C   UNL A   1      30.709  28.832  23.962  1.00  0.00     0.065 A 
ENDBRANCH  15  16
ENDBRANCH  13  15
ENDBRANCH  11  13
ENDBRANCH   9  11
ENDBRANCH   8   9
BRANCH   8  21
ATOM     21  N   UNL A   1      34.640  20.185  25.118  1.00  0.00    -0.347 N 
ATOM     22  H   UNL A   1      33.940  19.831  25.771  1.00  0.00     0.345 HD
ATOM     23  H   UNL A   1      35.555  19.808  25.366  1.00  0.00     0.345 HD
ATOM     24  H   UNL A   1      34.397  19.896  24.170  1.00  0.00     0.345 HD
ENDBRANCH   8  21
ENDBRANCH   7   8
ENDBRANCH   6   7
ENDBRANCH   4   6
ENDBRANCH   3   4
ENDBRANCH   2   3
ENDBRANCH   1   2
BRANCH   1  25
ATOM     25  O   UNL A   1      42.419  20.499  26.985  1.00  0.00    -0.376 OA
BRANCH  25  26
ATOM     26  C   UNL A   1      42.719  19.993  25.688  1.00  0.00     0.188 C 
BRANCH  26  27
ATOM     27  C   UNL A   1      44.168  20.153  25.232  1.00  0.00     0.188 C 
BRANCH  27  28
ATOM     28  O   UNL A   1      44.976  21.011  26.020  1.00  0.00    -0.376 OA
BRANCH  28  29
ATOM     29  C   UNL A   1      45.704  22.041  25.346  1.00  0.00     0.202 C 
BRANCH  29  30
ATOM     30  C   UNL A   1      45.658  23.481  25.907  1.00  0.00     0.261 C 
BRANCH  30  31
ATOM     31  O   UNL A   1      44.918  24.451  25.132  1.00  0.00    -0.460 OA
BRANCH  31  32
ATOM     32  C   UNL A   1      43.582  24.283  25.023  1.00  0.00     0.338 C 
ATOM     33  O   UNL A   1      43.015  23.417  24.375  1.00  0.00    -0.246 OA
BRANCH  32  34
ATOM     34  C   UNL A   1      42.897  25.145  26.032  1.00  0.00     0.060 A 
ATOM     35  C   UNL A   1      43.157  26.522  25.993  1.00  0.00     0.016 A 
ATOM     36  C   UNL A   1      41.969  24.648  26.956  1.00  0.00     0.016 A 
ATOM     37  C   UNL A   1      42.570  27.385  26.922  1.00  0.00     0.010 A 
ATOM     38  C   UNL A   1      41.385  25.513  27.895  1.00  0.00     0.010 A 
ATOM     39  C   UNL A   1      41.732  26.877  27.922  1.00  0.00    -0.014 A 
BRANCH  39  40
ATOM     40  C   UNL A   1      41.472  27.713  29.127  1.00  0.00     0.031 A 
ATOM     41  C   UNL A   1      40.255  28.605  29.111  1.00  0.00     0.074 A 
ATOM     42  C   UNL A   1      42.220  27.633  30.244  1.00  0.00     0.049 A 
ATOM     43  N   UNL A   1      39.778  29.392  30.044  1.00  0.00    -0.248 NA
ATOM     44  C   UNL A   1      39.463  28.603  27.870  1.00  0.00     0.031 C 
ATOM     45  C   UNL A   1      43.395  26.786  30.422  1.00  0.00     0.029 A 
ATOM     46  N   UNL A   1      42.085  28.281  31.451  1.00  0.00    -0.354 N 
ATOM     47  C   UNL A   1      38.641  29.975  29.499  1.00  0.00     0.074 A 
ATOM     48  C   UNL A   1      38.519  29.488  28.145  1.00  0.00     0.031 C 
ATOM     49  C   UNL A   1      43.877  26.966  31.665  1.00  0.00     0.029 A 
ATOM     50  C   UNL A   1      43.059  27.958  32.365  1.00  0.00     0.049 A 
ATOM     51  H   UNL A   1      41.359  28.917  31.642  1.00  0.00     0.167 HD
ATOM     52  C   UNL A   1      37.761  30.828  30.076  1.00  0.00     0.037 A 
ATOM     53  C   UNL A   1      43.270  28.418  33.616  1.00  0.00     0.037 A 
ATOM     54  C   UNL A   1      37.868  31.318  31.425  1.00  0.00     0.049 A 
ATOM     55  C   UNL A   1      42.310  29.420  34.216  1.00  0.00     0.074 A 
ATOM     56  C   UNL A   1      37.022  32.181  32.099  1.00  0.00     0.029 A 
ATOM     57  N   UNL A   1      38.889  30.992  32.304  1.00  0.00    -0.354 N 
ATOM     58  N   UNL A   1      41.224  29.945  33.702  1.00  0.00    -0.248 NA
ATOM     59  C   UNL A   1      42.603  29.881  35.581  1.00  0.00     0.031 C 
ATOM     60  C   UNL A   1      37.562  32.425  33.365  1.00  0.00     0.029 A 
ATOM     61  C   UNL A   1      38.704  31.654  33.508  1.00  0.00     0.049 A 
ATOM     62  H   UNL A   1      39.636  30.381  32.104  1.00  0.00     0.167 HD
ATOM     63  C   UNL A   1      40.684  30.758  34.693  1.00  0.00     0.074 A 
ATOM     64  C   UNL A   1      41.554  30.648  35.843  1.00  0.00     0.031 C 
ATOM     65  C   UNL A   1      39.564  31.524  34.656  1.00  0.00     0.037 A 
BRANCH  52  66
ATOM     66  C   UNL A   1      36.614  31.312  29.236  1.00  0.00     0.064 A 
ATOM     67  C   UNL A   1      35.557  30.466  28.867  1.00  0.00     0.173 A 
ATOM     68  C   UNL A   1      36.560  32.650  28.819  1.00  0.00     0.173 A 
ATOM     69  F   UNL A   1      35.570  29.172  29.223  1.00  0.00    -0.203 F 
ATOM     70  C   UNL A   1      34.501  30.936  28.090  1.00  0.00     0.198 A 
ATOM     71  C   UNL A   1      35.485  33.126  28.072  1.00  0.00     0.198 A 
ATOM     72  F   UNL A   1      37.544  33.501  29.144  1.00  0.00    -0.203 F 
ATOM     73  F   UNL A   1      33.530  30.098  27.705  1.00  0.00    -0.200 F 
ATOM     74  C   UNL A   1      34.461  32.267  27.701  1.00  0.00     0.200 A 
ATOM     75  F   UNL A   1      35.443  34.415  27.708  1.00  0.00    -0.200 F 
ATOM     76  F   UNL A   1      33.440  32.721  26.963  1.00  0.00    -0.200 F 
ENDBRANCH  52  66
BRANCH  53  77
ATOM     77  C   UNL A   1      44.444  27.949  34.403  1.00  0.00     0.064 A 
ATOM     78  C   UNL A   1      44.349  26.856  35.277  1.00  0.00     0.173 A 
ATOM     79  C   UNL A   1      45.671  28.627  34.345  1.00  0.00     0.173 A 
ATOM     80  F   UNL A   1      43.188  26.193  35.396  1.00  0.00    -0.203 F 
ATOM     81  C   UNL A   1      45.423  26.479  36.082  1.00  0.00     0.198 A 
ATOM     82  C   UNL A   1      46.756  28.227  35.125  1.00  0.00     0.198 A 
ATOM     83  F   UNL A   1      45.816  29.684  33.534  1.00  0.00    -0.203 F 
ATOM     84  F   UNL A   1      45.280  25.475  36.959  1.00  0.00    -0.200 F 
ATOM     85  C   UNL A   1      46.627  27.162  36.003  1.00  0.00     0.200 A 
ATOM     86  F   UNL A   1      47.919  28.887  35.038  1.00  0.00    -0.200 F 
ATOM     87  F   UNL A   1      47.657  26.804  36.781  1.00  0.00    -0.200 F 
ENDBRANCH  53  77
BRANCH  65  88
ATOM     88  C   UNL A   1      39.170  32.246  35.916  1.00  0.00     0.064 A 
ATOM     89  C   UNL A   1      39.613  33.547  36.205  1.00  0.00     0.173 A 
ATOM     90  C   UNL A   1      38.317  31.628  36.846  1.00  0.00     0.173 A 
ATOM     91  F   UNL A   1      40.434  34.183  35.357  1.00  0.00    -0.203 F 
ATOM     92  C   UNL A   1      39.258  34.178  37.395  1.00  0.00     0.198 A 
ATOM     93  C   UNL A   1      37.932  32.278  38.016  1.00  0.00     0.198 A 
ATOM     94  F   UNL A   1      37.850  30.392  36.618  1.00  0.00    -0.203 F 
ATOM     95  F   UNL A   1      39.751  35.392  37.679  1.00  0.00    -0.200 F 
ATOM     96  C   UNL A   1      38.414  33.547  38.296  1.00  0.00     0.200 A 
ATOM     97  F   UNL A   1      37.100  31.673  38.874  1.00  0.00    -0.200 F 
ATOM     98  F   UNL A   1      38.075  34.156  39.440  1.00  0.00    -0.200 F 
ENDBRANCH  65  88
ENDBRANCH  39  40
ENDBRANCH  32  34
ENDBRANCH  31  32
ENDBRANCH  30  31
ENDBRANCH  29  30
ENDBRANCH  28  29
ENDBRANCH  27  28
ENDBRANCH  26  27
ENDBRANCH  25  26
ENDBRANCH   1  25
TORSDOF 25
ENDMDL
