MODEL 1
REMARK VINA RESULT:     -13.3      0.000      0.000
REMARK SMILES O=C(C[C@]12CSc3[nH]c(=O)sc3[C@H]1c1cc(Cl)ccc1OC2=O)OCCOCCOCCOC(=O)c1ccc(-c2c3nc(c(-c4c(F)c(F)c(F)c(F)c4F)c4ccc([nH]4)c(-c4c(F)c(F)c(F)c(F)c4F)c4nc(c(-c5c(F)c(F)c(F)c(F)c5F)c5ccc2[nH]5)C=C4)C=C3)cc1
REMARK SMILES IDX 29 1 28 2 27 3 26 4 25 5 24 6 2 7 1 8 3 9 4 10 5 11 13 12
REMARK SMILES IDX 22 13 6 14 12 15 14 16 21 17 23 18 7 19 11 20 15 21 20 22
REMARK SMILES IDX 8 23 9 24 16 25 19 26 10 28 17 29 18 30 30 31 31 32 32 33
REMARK SMILES IDX 33 34 34 35 35 36 36 37 37 38 98 39 38 40 97 41 39 42 40 43
REMARK SMILES IDX 41 44 91 45 42 46 96 47 90 48 92 49 43 50 95 51 89 52 88 53
REMARK SMILES IDX 44 55 76 56 56 57 75 58 57 59 60 60 74 61 93 62 58 63 59 64
REMARK SMILES IDX 73 66 94 67 61 68 45 69 46 70 54 71 47 72 48 73 52 74 55 75
REMARK SMILES IDX 49 76 50 77 53 78 51 79 77 80 78 81 86 82 79 83 80 84 84 85
REMARK SMILES IDX 87 86 81 87 82 88 85 89 83 90 62 91 63 92 71 93 64 94 65 95
REMARK SMILES IDX 69 96 72 97 66 98 67 99 70 100 68 101
REMARK H PARENT 8 27 92 54 60 65
REMARK Flexibility Score: inf
ROOT
ATOM      1  C   UNL A   1      40.074  20.080  26.213  1.00  0.00     0.188 C 
ENDROOT
BRANCH   1   2
ATOM      2  C   UNL A   1      40.725  21.276  27.010  1.00  0.00     0.188 C 
BRANCH   2   3
ATOM      3  O   UNL A   1      40.013  22.486  26.731  1.00  0.00    -0.376 OA
BRANCH   3   4
ATOM      4  C   UNL A   1      38.661  22.742  26.297  1.00  0.00     0.202 C 
BRANCH   4   5
ATOM      5  C   UNL A   1      37.807  24.108  26.131  1.00  0.00     0.261 C 
BRANCH   5   6
ATOM      6  O   UNL A   1      36.169  24.182  25.516  1.00  0.00    -0.463 OA
BRANCH   6   7
ATOM      7  C   UNL A   1      34.457  24.965  25.528  1.00  0.00     0.307 C 
ATOM      8  O   UNL A   1      33.899  25.443  26.546  1.00  0.00    -0.252 OA
BRANCH   7   9
ATOM      9  C   UNL A   1      33.373  24.858  24.317  1.00  0.00     0.143 C 
BRANCH   9  10
ATOM     10  C   UNL A   1      33.010  26.115  23.464  1.00  0.00     0.100 C 
ATOM     11  C   UNL A   1      34.105  27.194  23.573  1.00  0.00     0.097 C 
ATOM     12  C   UNL A   1      31.662  26.669  23.933  1.00  0.00     0.085 C 
ATOM     13  C   UNL A   1      32.918  25.653  21.996  1.00  0.00     0.319 C 
ATOM     14  S   UNL A   1      33.728  28.850  22.896  1.00  0.00    -0.106 SA
ATOM     15  C   UNL A   1      31.207  27.828  23.105  1.00  0.00     0.049 A 
ATOM     16  C   UNL A   1      30.897  25.360  24.023  1.00  0.00     0.006 A 
ATOM     17  O   UNL A   1      32.301  24.450  21.782  1.00  0.00    -0.426 OA
ATOM     18  O   UNL A   1      33.358  26.293  21.047  1.00  0.00    -0.251 OA
ATOM     19  C   UNL A   1      32.045  28.771  22.651  1.00  0.00     0.090 A 
ATOM     20  S   UNL A   1      29.565  28.244  22.699  1.00  0.00    -0.077 S 
ATOM     21  C   UNL A   1      30.390  24.805  25.714  1.00  0.00     0.028 A 
ATOM     22  C   UNL A   1      31.597  24.084  22.907  1.00  0.00     0.134 A 
ATOM     23  N   UNL A   1      31.439  29.792  21.980  1.00  0.00    -0.307 N 
ATOM     24  C   UNL A   1      30.085  29.730  21.896  1.00  0.00     0.305 A 
ATOM     25  C   UNL A   1      30.499  23.055  26.206  1.00  0.00     0.041 A 
ATOM     26  C   UNL A   1      31.856  22.403  23.499  1.00  0.00     0.049 A 
ATOM     27  H   UNL A   1      31.954  30.529  21.579  1.00  0.00     0.171 HD
ATOM     28  O   UNL A   1      29.330  30.561  21.384  1.00  0.00    -0.257 OA
ATOM     29  Cl  UNL A   1      29.749  22.512  27.655  1.00  0.00    -0.084 Cl
ATOM     30  C   UNL A   1      31.298  21.905  25.122  1.00  0.00     0.024 A 
ENDBRANCH   9  10
ENDBRANCH   7   9
ENDBRANCH   6   7
ENDBRANCH   5   6
ENDBRANCH   4   5
ENDBRANCH   3   4
ENDBRANCH   2   3
ENDBRANCH   1   2
BRANCH   1  31
ATOM     31  O   UNL A   1      41.002  19.150  25.687  1.00  0.00    -0.376 OA
BRANCH  31  32
ATOM     32  C   UNL A   1      42.246  19.165  26.365  1.00  0.00     0.202 C 
BRANCH  32  33
ATOM     33  C   UNL A   1      43.451  18.738  25.490  1.00  0.00     0.261 C 
BRANCH  33  34
ATOM     34  O   UNL A   1      43.842  19.728  24.482  1.00  0.00    -0.460 OA
BRANCH  34  35
ATOM     35  C   UNL A   1      44.982  20.442  24.734  1.00  0.00     0.338 C 
ATOM     36  O   UNL A   1      46.102  20.149  24.349  1.00  0.00    -0.246 OA
BRANCH  35  37
ATOM     37  C   UNL A   1      44.662  21.807  25.289  1.00  0.00     0.060 A 
ATOM     38  C   UNL A   1      43.590  22.592  24.867  1.00  0.00     0.016 A 
ATOM     39  C   UNL A   1      45.556  22.353  26.232  1.00  0.00     0.016 A 
ATOM     40  C   UNL A   1      43.415  23.887  25.409  1.00  0.00     0.010 A 
ATOM     41  C   UNL A   1      45.404  23.660  26.737  1.00  0.00     0.010 A 
ATOM     42  C   UNL A   1      44.320  24.444  26.350  1.00  0.00    -0.014 A 
BRANCH  42  43
ATOM     43  C   UNL A   1      43.914  25.682  27.088  1.00  0.00     0.031 A 
ATOM     44  C   UNL A   1      44.856  26.818  26.864  1.00  0.00     0.074 A 
ATOM     45  C   UNL A   1      42.769  26.039  27.727  1.00  0.00     0.049 A 
ATOM     46  N   UNL A   1      45.568  27.475  27.723  1.00  0.00    -0.248 NA
ATOM     47  C   UNL A   1      45.042  27.240  25.467  1.00  0.00     0.031 C 
ATOM     48  C   UNL A   1      41.482  25.355  27.711  1.00  0.00     0.029 A 
ATOM     49  N   UNL A   1      42.509  27.137  28.535  1.00  0.00    -0.354 N 
ATOM     50  C   UNL A   1      46.180  28.497  26.997  1.00  0.00     0.074 A 
ATOM     51  C   UNL A   1      45.909  28.240  25.605  1.00  0.00     0.031 C 
ATOM     52  C   UNL A   1      40.585  26.016  28.469  1.00  0.00     0.029 A 
ATOM     53  C   UNL A   1      41.181  27.242  28.952  1.00  0.00     0.049 A 
ATOM     54  H   UNL A   1      43.202  27.788  28.791  1.00  0.00     0.167 HD
ATOM     55  C   UNL A   1      46.720  29.596  27.589  1.00  0.00     0.037 A 
ATOM     56  C   UNL A   1      40.534  28.270  29.566  1.00  0.00     0.037 A 
ATOM     57  C   UNL A   1      47.009  29.382  28.978  1.00  0.00     0.049 A 
ATOM     58  C   UNL A   1      41.536  29.176  30.169  1.00  0.00     0.074 A 
ATOM     59  C   UNL A   1      47.788  28.483  29.682  1.00  0.00     0.029 A 
ATOM     60  N   UNL A   1      46.235  29.997  29.928  1.00  0.00    -0.354 N 
ATOM     61  N   UNL A   1      42.251  28.898  31.221  1.00  0.00    -0.248 NA
ATOM     62  C   UNL A   1      42.036  30.257  29.336  1.00  0.00     0.031 C 
ATOM     63  C   UNL A   1      47.071  28.239  30.890  1.00  0.00     0.029 A 
ATOM     64  C   UNL A   1      45.926  29.035  30.855  1.00  0.00     0.049 A 
ATOM     65  H   UNL A   1      45.957  30.941  29.942  1.00  0.00     0.167 HD
ATOM     66  C   UNL A   1      43.494  29.442  30.947  1.00  0.00     0.074 A 
ATOM     67  C   UNL A   1      43.279  30.333  29.811  1.00  0.00     0.031 C 
ATOM     68  C   UNL A   1      44.634  28.921  31.488  1.00  0.00     0.037 A 
BRANCH  55  69
ATOM     69  C   UNL A   1      46.722  30.963  26.956  1.00  0.00     0.064 A 
ATOM     70  C   UNL A   1      47.908  31.717  26.915  1.00  0.00     0.173 A 
ATOM     71  C   UNL A   1      45.539  31.664  26.635  1.00  0.00     0.173 A 
ATOM     72  F   UNL A   1      49.083  31.160  27.248  1.00  0.00    -0.203 F 
ATOM     73  C   UNL A   1      47.903  33.083  26.618  1.00  0.00     0.198 A 
ATOM     74  C   UNL A   1      45.544  33.012  26.283  1.00  0.00     0.198 A 
ATOM     75  F   UNL A   1      44.330  31.099  26.755  1.00  0.00    -0.203 F 
ATOM     76  F   UNL A   1      49.041  33.787  26.704  1.00  0.00    -0.200 F 
ATOM     77  C   UNL A   1      46.721  33.728  26.301  1.00  0.00     0.200 A 
ATOM     78  F   UNL A   1      44.385  33.626  26.003  1.00  0.00    -0.200 F 
ATOM     79  F   UNL A   1      46.708  35.047  26.067  1.00  0.00    -0.200 F 
ENDBRANCH  55  69
BRANCH  56  80
ATOM     80  C   UNL A   1      39.097  28.643  29.420  1.00  0.00     0.064 A 
ATOM     81  C   UNL A   1      38.232  28.766  30.520  1.00  0.00     0.173 A 
ATOM     82  C   UNL A   1      38.585  29.105  28.187  1.00  0.00     0.173 A 
ATOM     83  F   UNL A   1      38.643  28.412  31.747  1.00  0.00    -0.203 F 
ATOM     84  C   UNL A   1      36.943  29.307  30.390  1.00  0.00     0.198 A 
ATOM     85  C   UNL A   1      37.296  29.616  28.052  1.00  0.00     0.198 A 
ATOM     86  F   UNL A   1      39.356  29.150  27.092  1.00  0.00    -0.203 F 
ATOM     87  F   UNL A   1      36.166  29.457  31.471  1.00  0.00    -0.200 F 
ATOM     88  C   UNL A   1      36.478  29.730  29.155  1.00  0.00     0.200 A 
ATOM     89  F   UNL A   1      36.877  30.044  26.853  1.00  0.00    -0.200 F 
ATOM     90  F   UNL A   1      35.263  30.284  29.035  1.00  0.00    -0.200 F 
ENDBRANCH  56  80
BRANCH  68  91
ATOM     91  C   UNL A   1      44.518  27.960  32.639  1.00  0.00     0.064 A 
ATOM     92  C   UNL A   1      44.401  28.346  33.984  1.00  0.00     0.173 A 
ATOM     93  C   UNL A   1      44.359  26.595  32.351  1.00  0.00     0.173 A 
ATOM     94  F   UNL A   1      44.392  29.640  34.340  1.00  0.00    -0.203 F 
ATOM     95  C   UNL A   1      44.177  27.404  34.990  1.00  0.00     0.198 A 
ATOM     96  C   UNL A   1      44.081  25.666  33.351  1.00  0.00     0.198 A 
ATOM     97  F   UNL A   1      44.414  26.166  31.079  1.00  0.00    -0.203 F 
ATOM     98  F   UNL A   1      44.046  27.809  36.262  1.00  0.00    -0.200 F 
ATOM     99  C   UNL A   1      43.998  26.070  34.672  1.00  0.00     0.200 A 
ATOM    100  F   UNL A   1      43.858  24.385  33.027  1.00  0.00    -0.200 F 
ATOM    101  F   UNL A   1      43.706  25.182  35.632  1.00  0.00    -0.200 F 
ENDBRANCH  68  91
ENDBRANCH  42  43
ENDBRANCH  35  37
ENDBRANCH  34  35
ENDBRANCH  33  34
ENDBRANCH  32  33
ENDBRANCH  31  32
ENDBRANCH   1  31
TORSDOF 18
ENDMDL
MODEL 2
REMARK VINA RESULT:     -13.2      1.826      2.785
REMARK SMILES O=C(C[C@]12CSc3[nH]c(=O)sc3[C@H]1c1cc(Cl)ccc1OC2=O)OCCOCCOCCOC(=O)c1ccc(-c2c3nc(c(-c4c(F)c(F)c(F)c(F)c4F)c4ccc([nH]4)c(-c4c(F)c(F)c(F)c(F)c4F)c4nc(c(-c5c(F)c(F)c(F)c(F)c5F)c5ccc2[nH]5)C=C4)C=C3)cc1
REMARK SMILES IDX 29 1 28 2 27 3 26 4 25 5 24 6 2 7 1 8 3 9 4 10 5 11 13 12
REMARK SMILES IDX 22 13 6 14 12 15 14 16 21 17 23 18 7 19 11 20 15 21 20 22
REMARK SMILES IDX 8 23 9 24 16 25 19 26 10 28 17 29 18 30 30 31 31 32 32 33
REMARK SMILES IDX 33 34 34 35 35 36 36 37 37 38 98 39 38 40 97 41 39 42 40 43
REMARK SMILES IDX 41 44 91 45 42 46 96 47 90 48 92 49 43 50 95 51 89 52 88 53
REMARK SMILES IDX 44 55 76 56 56 57 75 58 57 59 60 60 74 61 93 62 58 63 59 64
REMARK SMILES IDX 73 66 94 67 61 68 45 69 46 70 54 71 47 72 48 73 52 74 55 75
REMARK SMILES IDX 49 76 50 77 53 78 51 79 77 80 78 81 86 82 79 83 80 84 84 85
REMARK SMILES IDX 87 86 81 87 82 88 85 89 83 90 62 91 63 92 71 93 64 94 65 95
REMARK SMILES IDX 69 96 72 97 66 98 67 99 70 100 68 101
REMARK H PARENT 8 27 92 54 60 65
REMARK Flexibility Score: inf
ROOT
ATOM      1  C   UNL A   1      40.343  21.794  27.343  1.00  0.00     0.188 C 
ENDROOT
BRANCH   1   2
ATOM      2  C   UNL A   1      39.329  22.346  26.266  1.00  0.00     0.188 C 
BRANCH   2   3
ATOM      3  O   UNL A   1      38.629  21.254  25.659  1.00  0.00    -0.376 OA
BRANCH   3   4
ATOM      4  C   UNL A   1      37.442  21.193  24.842  1.00  0.00     0.202 C 
BRANCH   4   5
ATOM      5  C   UNL A   1      36.867  22.157  23.674  1.00  0.00     0.261 C 
BRANCH   5   6
ATOM      6  O   UNL A   1      35.974  23.636  23.961  1.00  0.00    -0.463 OA
BRANCH   6   7
ATOM      7  C   UNL A   1      34.795  24.647  25.023  1.00  0.00     0.307 C 
ATOM      8  O   UNL A   1      35.004  24.960  26.221  1.00  0.00    -0.252 OA
BRANCH   7   9
ATOM      9  C   UNL A   1      33.248  24.985  24.638  1.00  0.00     0.143 C 
BRANCH   9  10
ATOM     10  C   UNL A   1      32.907  26.207  23.727  1.00  0.00     0.100 C 
ATOM     11  C   UNL A   1      33.949  27.330  23.892  1.00  0.00     0.097 C 
ATOM     12  C   UNL A   1      31.506  26.718  24.075  1.00  0.00     0.085 C 
ATOM     13  C   UNL A   1      32.947  25.707  22.269  1.00  0.00     0.319 C 
ATOM     14  S   UNL A   1      33.565  28.953  23.144  1.00  0.00    -0.106 SA
ATOM     15  C   UNL A   1      31.075  27.838  23.185  1.00  0.00     0.049 A 
ATOM     16  C   UNL A   1      30.786  25.383  24.141  1.00  0.00     0.006 A 
ATOM     17  O   UNL A   1      32.394  24.475  22.040  1.00  0.00    -0.426 OA
ATOM     18  O   UNL A   1      33.436  26.341  21.340  1.00  0.00    -0.251 OA
ATOM     19  C   UNL A   1      31.910  28.802  22.772  1.00  0.00     0.090 A 
ATOM     20  S   UNL A   1      29.455  28.181  22.642  1.00  0.00    -0.077 S 
ATOM     21  C   UNL A   1      30.169  24.848  25.801  1.00  0.00     0.028 A 
ATOM     22  C   UNL A   1      31.618  24.109  23.116  1.00  0.00     0.134 A 
ATOM     23  N   UNL A   1      31.321  29.783  22.029  1.00  0.00    -0.307 N 
ATOM     24  C   UNL A   1      29.982  29.666  21.843  1.00  0.00     0.305 A 
ATOM     25  C   UNL A   1      30.304  23.116  26.347  1.00  0.00     0.041 A 
ATOM     26  C   UNL A   1      31.892  22.454  23.771  1.00  0.00     0.049 A 
ATOM     27  H   UNL A   1      31.838  30.531  21.650  1.00  0.00     0.171 HD
ATOM     28  O   UNL A   1      29.238  30.455  21.251  1.00  0.00    -0.257 OA
ATOM     29  Cl  UNL A   1      29.463  22.578  27.747  1.00  0.00    -0.084 Cl
ATOM     30  C   UNL A   1      31.228  21.972  25.358  1.00  0.00     0.024 A 
ENDBRANCH   9  10
ENDBRANCH   7   9
ENDBRANCH   6   7
ENDBRANCH   5   6
ENDBRANCH   4   5
ENDBRANCH   3   4
ENDBRANCH   2   3
ENDBRANCH   1   2
BRANCH   1  31
ATOM     31  O   UNL A   1      40.529  20.392  27.309  1.00  0.00    -0.376 OA
BRANCH  31  32
ATOM     32  C   UNL A   1      41.894  20.015  27.259  1.00  0.00     0.202 C 
BRANCH  32  33
ATOM     33  C   UNL A   1      42.612  20.407  25.943  1.00  0.00     0.261 C 
BRANCH  33  34
ATOM     34  O   UNL A   1      43.636  21.443  26.102  1.00  0.00    -0.460 OA
BRANCH  34  35
ATOM     35  C   UNL A   1      43.501  22.563  25.327  1.00  0.00     0.338 C 
ATOM     36  O   UNL A   1      43.465  22.581  24.107  1.00  0.00    -0.246 OA
BRANCH  35  37
ATOM     37  C   UNL A   1      43.095  23.756  26.155  1.00  0.00     0.060 A 
ATOM     38  C   UNL A   1      43.547  24.000  27.451  1.00  0.00     0.016 A 
ATOM     39  C   UNL A   1      42.133  24.630  25.608  1.00  0.00     0.016 A 
ATOM     40  C   UNL A   1      43.053  25.118  28.164  1.00  0.00     0.010 A 
ATOM     41  C   UNL A   1      41.611  25.718  26.338  1.00  0.00     0.010 A 
ATOM     42  C   UNL A   1      42.076  25.993  27.622  1.00  0.00    -0.014 A 
BRANCH  42  43
ATOM     43  C   UNL A   1      41.825  27.300  28.309  1.00  0.00     0.031 A 
ATOM     44  C   UNL A   1      42.928  28.282  28.095  1.00  0.00     0.074 A 
ATOM     45  C   UNL A   1      40.719  27.836  28.890  1.00  0.00     0.049 A 
ATOM     46  N   UNL A   1      43.693  28.859  28.966  1.00  0.00    -0.248 NA
ATOM     47  C   UNL A   1      43.225  28.629  26.697  1.00  0.00     0.031 C 
ATOM     48  C   UNL A   1      39.349  27.342  28.838  1.00  0.00     0.029 A 
ATOM     49  N   UNL A   1      40.588  28.986  29.657  1.00  0.00    -0.354 N 
ATOM     50  C   UNL A   1      44.473  29.759  28.239  1.00  0.00     0.074 A 
ATOM     51  C   UNL A   1      44.221  29.499  26.845  1.00  0.00     0.031 C 
ATOM     52  C   UNL A   1      38.528  28.147  29.539  1.00  0.00     0.029 A 
ATOM     53  C   UNL A   1      39.275  29.291  30.014  1.00  0.00     0.049 A 
ATOM     54  H   UNL A   1      41.357  29.539  29.924  1.00  0.00     0.167 HD
ATOM     55  C   UNL A   1      45.141  30.789  28.824  1.00  0.00     0.037 A 
ATOM     56  C   UNL A   1      38.759  30.420  30.573  1.00  0.00     0.037 A 
ATOM     57  C   UNL A   1      45.344  30.581  30.230  1.00  0.00     0.049 A 
ATOM     58  C   UNL A   1      39.857  31.194  31.193  1.00  0.00     0.074 A 
ATOM     59  C   UNL A   1      45.959  29.604  30.989  1.00  0.00     0.029 A 
ATOM     60  N   UNL A   1      44.630  31.330  31.130  1.00  0.00    -0.354 N 
ATOM     61  N   UNL A   1      40.484  30.851  32.282  1.00  0.00    -0.248 NA
ATOM     62  C   UNL A   1      40.537  32.165  30.353  1.00  0.00     0.031 C 
ATOM     63  C   UNL A   1      45.169  29.503  32.172  1.00  0.00     0.029 A 
ATOM     64  C   UNL A   1      44.152  30.452  32.068  1.00  0.00     0.049 A 
ATOM     65  H   UNL A   1      44.490  32.305  31.106  1.00  0.00     0.167 HD
ATOM     66  C   UNL A   1      41.802  31.204  32.046  1.00  0.00     0.074 A 
ATOM     67  C   UNL A   1      41.760  32.079  30.879  1.00  0.00     0.031 C 
ATOM     68  C   UNL A   1      42.834  30.544  32.648  1.00  0.00     0.037 A 
BRANCH  55  69
ATOM     69  C   UNL A   1      45.363  32.120  28.156  1.00  0.00     0.064 A 
ATOM     70  C   UNL A   1      44.280  32.998  27.960  1.00  0.00     0.173 A 
ATOM     71  C   UNL A   1      46.547  32.445  27.458  1.00  0.00     0.173 A 
ATOM     72  F   UNL A   1      43.094  32.757  28.540  1.00  0.00    -0.203 F 
ATOM     73  C   UNL A   1      44.367  34.093  27.096  1.00  0.00     0.198 A 
ATOM     74  C   UNL A   1      46.648  33.569  26.642  1.00  0.00     0.198 A 
ATOM     75  F   UNL A   1      47.610  31.629  27.456  1.00  0.00    -0.203 F 
ATOM     76  F   UNL A   1      43.277  34.834  26.852  1.00  0.00    -0.200 F 
ATOM     77  C   UNL A   1      45.550  34.379  26.440  1.00  0.00     0.200 A 
ATOM     78  F   UNL A   1      47.795  33.815  25.994  1.00  0.00    -0.200 F 
ATOM     79  F   UNL A   1      45.619  35.396  25.572  1.00  0.00    -0.200 F 
ENDBRANCH  55  69
BRANCH  56  80
ATOM     80  C   UNL A   1      37.396  30.988  30.356  1.00  0.00     0.064 A 
ATOM     81  C   UNL A   1      36.538  31.321  31.418  1.00  0.00     0.173 A 
ATOM     82  C   UNL A   1      36.983  31.426  29.078  1.00  0.00     0.173 A 
ATOM     83  F   UNL A   1      36.868  31.005  32.679  1.00  0.00    -0.203 F 
ATOM     84  C   UNL A   1      35.348  32.035  31.209  1.00  0.00     0.198 A 
ATOM     85  C   UNL A   1      35.788  32.110  28.867  1.00  0.00     0.198 A 
ATOM     86  F   UNL A   1      37.774  31.274  28.006  1.00  0.00    -0.203 F 
ATOM     87  F   UNL A   1      34.580  32.380  32.253  1.00  0.00    -0.200 F 
ATOM     88  C   UNL A   1      34.975  32.427  29.934  1.00  0.00     0.200 A 
ATOM     89  F   UNL A   1      35.461  32.503  27.628  1.00  0.00    -0.200 F 
ATOM     90  F   UNL A   1      33.858  33.143  29.737  1.00  0.00    -0.200 F 
ENDBRANCH  56  80
BRANCH  68  91
ATOM     91  C   UNL A   1      42.538  29.647  33.819  1.00  0.00     0.064 A 
ATOM     92  C   UNL A   1      41.988  28.359  33.709  1.00  0.00     0.173 A 
ATOM     93  C   UNL A   1      42.978  30.046  35.091  1.00  0.00     0.173 A 
ATOM     94  F   UNL A   1      41.675  27.834  32.515  1.00  0.00    -0.203 F 
ATOM     95  C   UNL A   1      41.850  27.534  34.827  1.00  0.00     0.198 A 
ATOM     96  C   UNL A   1      42.888  29.199  36.193  1.00  0.00     0.198 A 
ATOM     97  F   UNL A   1      43.555  31.248  35.255  1.00  0.00    -0.203 F 
ATOM     98  F   UNL A   1      41.342  26.301  34.684  1.00  0.00    -0.200 F 
ATOM     99  C   UNL A   1      42.317  27.946  36.063  1.00  0.00     0.200 A 
ATOM    100  F   UNL A   1      43.391  29.587  37.373  1.00  0.00    -0.200 F 
ATOM    101  F   UNL A   1      42.253  27.120  37.116  1.00  0.00    -0.200 F 
ENDBRANCH  68  91
ENDBRANCH  42  43
ENDBRANCH  35  37
ENDBRANCH  34  35
ENDBRANCH  33  34
ENDBRANCH  32  33
ENDBRANCH  31  32
ENDBRANCH   1  31
TORSDOF 18
ENDMDL
MODEL 3
REMARK VINA RESULT:     -12.7      3.310      8.988
REMARK SMILES O=C(C[C@]12CSc3[nH]c(=O)sc3[C@H]1c1cc(Cl)ccc1OC2=O)OCCOCCOCCOC(=O)c1ccc(-c2c3nc(c(-c4c(F)c(F)c(F)c(F)c4F)c4ccc([nH]4)c(-c4c(F)c(F)c(F)c(F)c4F)c4nc(c(-c5c(F)c(F)c(F)c(F)c5F)c5ccc2[nH]5)C=C4)C=C3)cc1
REMARK SMILES IDX 29 1 28 2 27 3 26 4 25 5 24 6 2 7 1 8 3 9 4 10 5 11 13 12
REMARK SMILES IDX 22 13 6 14 12 15 14 16 21 17 23 18 7 19 11 20 15 21 20 22
REMARK SMILES IDX 8 23 9 24 16 25 19 26 10 28 17 29 18 30 30 31 31 32 32 33
REMARK SMILES IDX 33 34 34 35 35 36 36 37 37 38 98 39 38 40 97 41 39 42 40 43
REMARK SMILES IDX 41 44 91 45 42 46 96 47 90 48 92 49 43 50 95 51 89 52 88 53
REMARK SMILES IDX 44 55 76 56 56 57 75 58 57 59 60 60 74 61 93 62 58 63 59 64
REMARK SMILES IDX 73 66 94 67 61 68 45 69 46 70 54 71 47 72 48 73 52 74 55 75
REMARK SMILES IDX 49 76 50 77 53 78 51 79 77 80 78 81 86 82 79 83 80 84 84 85
REMARK SMILES IDX 87 86 81 87 82 88 85 89 83 90 62 91 63 92 71 93 64 94 65 95
REMARK SMILES IDX 69 96 72 97 66 98 67 99 70 100 68 101
REMARK H PARENT 8 27 92 54 60 65
REMARK Flexibility Score: inf
ROOT
ATOM      1  C   UNL A   1      35.228  30.772  28.088  1.00  0.00     0.188 C 
ENDROOT
BRANCH   1   2
ATOM      2  C   UNL A   1      34.745  29.611  27.134  1.00  0.00     0.188 C 
BRANCH   2   3
ATOM      3  O   UNL A   1      33.472  29.948  26.571  1.00  0.00    -0.376 OA
BRANCH   3   4
ATOM      4  C   UNL A   1      32.130  29.512  26.869  1.00  0.00     0.202 C 
BRANCH   4   5
ATOM      5  C   UNL A   1      31.548  28.200  27.620  1.00  0.00     0.261 C 
BRANCH   5   6
ATOM      6  O   UNL A   1      31.692  26.565  27.010  1.00  0.00    -0.463 OA
BRANCH   6   7
ATOM      7  C   UNL A   1      30.935  25.081  26.133  1.00  0.00     0.307 C 
ATOM      8  O   UNL A   1      29.964  24.414  26.568  1.00  0.00    -0.252 OA
BRANCH   7   9
ATOM      9  C   UNL A   1      31.612  24.295  24.877  1.00  0.00     0.143 C 
BRANCH   9  10
ATOM     10  C   UNL A   1      32.772  23.275  25.112  1.00  0.00     0.100 C 
ATOM     11  C   UNL A   1      32.559  22.485  26.418  1.00  0.00     0.097 C 
ATOM     12  C   UNL A   1      34.104  24.029  25.151  1.00  0.00     0.085 C 
ATOM     13  C   UNL A   1      32.751  22.287  23.928  1.00  0.00     0.319 C 
ATOM     14  S   UNL A   1      33.951  21.463  27.021  1.00  0.00    -0.106 SA
ATOM     15  C   UNL A   1      35.273  23.107  25.289  1.00  0.00     0.049 A 
ATOM     16  C   UNL A   1      33.892  24.928  23.946  1.00  0.00     0.006 A 
ATOM     17  O   UNL A   1      32.527  22.834  22.693  1.00  0.00    -0.426 OA
ATOM     18  O   UNL A   1      32.918  21.078  24.041  1.00  0.00    -0.251 OA
ATOM     19  C   UNL A   1      35.251  22.017  26.070  1.00  0.00     0.090 A 
ATOM     20  S   UNL A   1      36.863  23.323  24.612  1.00  0.00    -0.077 S 
ATOM     21  C   UNL A   1      33.734  26.742  24.276  1.00  0.00     0.028 A 
ATOM     22  C   UNL A   1      32.710  24.197  22.749  1.00  0.00     0.134 A 
ATOM     23  N   UNL A   1      36.433  21.341  26.132  1.00  0.00    -0.307 N 
ATOM     24  C   UNL A   1      37.465  21.878  25.432  1.00  0.00     0.305 A 
ATOM     25  C   UNL A   1      32.518  27.762  23.382  1.00  0.00     0.041 A 
ATOM     26  C   UNL A   1      31.407  25.209  22.028  1.00  0.00     0.049 A 
ATOM     27  H   UNL A   1      36.531  20.511  26.654  1.00  0.00     0.171 HD
ATOM     28  O   UNL A   1      38.628  21.467  25.383  1.00  0.00    -0.257 OA
ATOM     29  Cl  UNL A   1      32.588  29.478  23.476  1.00  0.00    -0.084 Cl
ATOM     30  C   UNL A   1      31.330  26.966  22.336  1.00  0.00     0.024 A 
ENDBRANCH   9  10
ENDBRANCH   7   9
ENDBRANCH   6   7
ENDBRANCH   5   6
ENDBRANCH   4   5
ENDBRANCH   3   4
ENDBRANCH   2   3
ENDBRANCH   1   2
BRANCH   1  31
ATOM     31  O   UNL A   1      34.933  32.075  27.624  1.00  0.00    -0.376 OA
BRANCH  31  32
ATOM     32  C   UNL A   1      34.056  32.784  28.483  1.00  0.00     0.202 C 
BRANCH  32  33
ATOM     33  C   UNL A   1      34.704  33.240  29.814  1.00  0.00     0.261 C 
BRANCH  33  34
ATOM     34  O   UNL A   1      34.396  32.379  30.959  1.00  0.00    -0.460 OA
BRANCH  34  35
ATOM     35  C   UNL A   1      35.316  32.350  31.972  1.00  0.00     0.338 C 
ATOM     36  O   UNL A   1      35.108  32.679  33.128  1.00  0.00    -0.246 OA
BRANCH  35  37
ATOM     37  C   UNL A   1      36.547  31.577  31.571  1.00  0.00     0.060 A 
ATOM     38  C   UNL A   1      37.802  32.150  31.373  1.00  0.00     0.016 A 
ATOM     39  C   UNL A   1      36.391  30.202  31.298  1.00  0.00     0.016 A 
ATOM     40  C   UNL A   1      38.878  31.342  30.935  1.00  0.00     0.010 A 
ATOM     41  C   UNL A   1      37.455  29.410  30.820  1.00  0.00     0.010 A 
ATOM     42  C   UNL A   1      38.723  29.961  30.649  1.00  0.00    -0.014 A 
BRANCH  42  43
ATOM     43  C   UNL A   1      39.951  29.122  30.477  1.00  0.00     0.031 A 
ATOM     44  C   UNL A   1      40.718  28.960  31.747  1.00  0.00     0.074 A 
ATOM     45  C   UNL A   1      40.380  28.314  29.471  1.00  0.00     0.049 A 
ATOM     46  N   UNL A   1      41.936  29.306  32.020  1.00  0.00    -0.248 NA
ATOM     47  C   UNL A   1      39.988  28.355  32.872  1.00  0.00     0.031 C 
ATOM     48  C   UNL A   1      39.638  27.868  28.300  1.00  0.00     0.029 A 
ATOM     49  N   UNL A   1      41.607  27.689  29.298  1.00  0.00    -0.354 N 
ATOM     50  C   UNL A   1      42.180  28.825  33.307  1.00  0.00     0.074 A 
ATOM     51  C   UNL A   1      40.921  28.348  33.821  1.00  0.00     0.031 C 
ATOM     52  C   UNL A   1      40.403  27.072  27.528  1.00  0.00     0.029 A 
ATOM     53  C   UNL A   1      41.670  26.845  28.188  1.00  0.00     0.049 A 
ATOM     54  H   UNL A   1      42.368  27.827  29.907  1.00  0.00     0.167 HD
ATOM     55  C   UNL A   1      43.435  28.678  33.809  1.00  0.00     0.037 A 
ATOM     56  C   UNL A   1      42.618  25.936  27.831  1.00  0.00     0.037 A 
ATOM     57  C   UNL A   1      44.402  29.472  33.106  1.00  0.00     0.049 A 
ATOM     58  C   UNL A   1      43.869  26.236  28.561  1.00  0.00     0.074 A 
ATOM     59  C   UNL A   1      44.546  30.820  32.841  1.00  0.00     0.029 A 
ATOM     60  N   UNL A   1      45.311  28.854  32.286  1.00  0.00    -0.354 N 
ATOM     61  N   UNL A   1      44.646  27.252  28.318  1.00  0.00    -0.248 NA
ATOM     62  C   UNL A   1      44.044  25.605  29.858  1.00  0.00     0.031 C 
ATOM     63  C   UNL A   1      45.122  30.883  31.538  1.00  0.00     0.029 A 
ATOM     64  C   UNL A   1      45.325  29.569  31.117  1.00  0.00     0.049 A 
ATOM     65  H   UNL A   1      45.847  28.054  32.497  1.00  0.00     0.167 HD
ATOM     66  C   UNL A   1      45.075  27.664  29.568  1.00  0.00     0.074 A 
ATOM     67  C   UNL A   1      44.738  26.566  30.468  1.00  0.00     0.031 C 
ATOM     68  C   UNL A   1      45.420  28.962  29.811  1.00  0.00     0.037 A 
BRANCH  55  69
ATOM     69  C   UNL A   1      43.821  27.586  34.772  1.00  0.00     0.064 A 
ATOM     70  C   UNL A   1      44.413  27.912  36.006  1.00  0.00     0.173 A 
ATOM     71  C   UNL A   1      43.879  26.223  34.407  1.00  0.00     0.173 A 
ATOM     72  F   UNL A   1      44.454  29.186  36.426  1.00  0.00    -0.203 F 
ATOM     73  C   UNL A   1      45.053  26.951  36.792  1.00  0.00     0.198 A 
ATOM     74  C   UNL A   1      44.467  25.257  35.220  1.00  0.00     0.198 A 
ATOM     75  F   UNL A   1      43.466  25.797  33.206  1.00  0.00    -0.203 F 
ATOM     76  F   UNL A   1      45.703  27.327  37.903  1.00  0.00    -0.200 F 
ATOM     77  C   UNL A   1      45.078  25.625  36.400  1.00  0.00     0.200 A 
ATOM     78  F   UNL A   1      44.504  23.982  34.811  1.00  0.00    -0.200 F 
ATOM     79  F   UNL A   1      45.736  24.712  37.127  1.00  0.00    -0.200 F 
ENDBRANCH  55  69
BRANCH  56  80
ATOM     80  C   UNL A   1      42.404  24.659  27.090  1.00  0.00     0.064 A 
ATOM     81  C   UNL A   1      43.072  24.360  25.890  1.00  0.00     0.173 A 
ATOM     82  C   UNL A   1      41.684  23.591  27.670  1.00  0.00     0.173 A 
ATOM     83  F   UNL A   1      43.832  25.287  25.290  1.00  0.00    -0.203 F 
ATOM     84  C   UNL A   1      43.014  23.082  25.311  1.00  0.00     0.198 A 
ATOM     85  C   UNL A   1      41.604  22.330  27.081  1.00  0.00     0.198 A 
ATOM     86  F   UNL A   1      41.107  23.719  28.872  1.00  0.00    -0.203 F 
ATOM     87  F   UNL A   1      43.707  22.820  24.194  1.00  0.00    -0.200 F 
ATOM     88  C   UNL A   1      42.280  22.070  25.908  1.00  0.00     0.200 A 
ATOM     89  F   UNL A   1      40.910  21.359  27.690  1.00  0.00    -0.200 F 
ATOM     90  F   UNL A   1      42.255  20.839  25.379  1.00  0.00    -0.200 F 
ENDBRANCH  56  80
BRANCH  68  91
ATOM     91  C   UNL A   1      45.646  29.884  28.643  1.00  0.00     0.064 A 
ATOM     92  C   UNL A   1      44.633  30.626  28.013  1.00  0.00     0.173 A 
ATOM     93  C   UNL A   1      46.968  30.146  28.250  1.00  0.00     0.173 A 
ATOM     94  F   UNL A   1      43.358  30.552  28.422  1.00  0.00    -0.203 F 
ATOM     95  C   UNL A   1      44.933  31.552  27.012  1.00  0.00     0.198 A 
ATOM     96  C   UNL A   1      47.266  31.111  27.291  1.00  0.00     0.198 A 
ATOM     97  F   UNL A   1      47.986  29.504  28.846  1.00  0.00    -0.203 F 
ATOM     98  F   UNL A   1      43.944  32.262  26.447  1.00  0.00    -0.200 F 
ATOM     99  C   UNL A   1      46.247  31.808  26.666  1.00  0.00     0.200 A 
ATOM    100  F   UNL A   1      48.544  31.388  26.999  1.00  0.00    -0.200 F 
ATOM    101  F   UNL A   1      46.533  32.754  25.760  1.00  0.00    -0.200 F 
ENDBRANCH  68  91
ENDBRANCH  42  43
ENDBRANCH  35  37
ENDBRANCH  34  35
ENDBRANCH  33  34
ENDBRANCH  32  33
ENDBRANCH  31  32
ENDBRANCH   1  31
TORSDOF 18
ENDMDL
