MODEL 1
REMARK VINA RESULT:     -10.8      0.000      0.000
REMARK SMILES CC1(C)C(=O)N([C@H]2COC[C@@H]2C(=O)OCCOCCOCCOC(=O)c2ccc(-c3c4nc(c(-c5c(F)c(F)c(F)c(F)c5F)c5ccc([nH]5)c(-c5c(F)c(F)c(F)c(F)c5F)c5nc(c(-c6c(F)c(F)c(F)c(F)c6F)c6ccc3[nH]6)C=C5)C=C4)cc2)S1(=O)=O
REMARK SMILES IDX 19 1 18 2 17 3 16 4 15 5 14 6 12 7 13 8 11 9 7 10 8 11 9 12
REMARK SMILES IDX 10 13 6 14 1 15 2 16 3 17 4 18 89 19 5 20 90 21 91 22 20 23
REMARK SMILES IDX 21 24 22 25 23 26 24 27 25 28 26 29 27 30 88 31 28 32 87 33
REMARK SMILES IDX 29 34 30 35 31 36 81 37 32 38 86 39 80 40 82 41 33 42 85 43
REMARK SMILES IDX 79 44 78 45 34 47 66 48 46 49 65 50 47 51 50 52 64 53 83 54
REMARK SMILES IDX 48 55 49 56 63 58 84 59 51 60 35 61 36 62 44 63 37 64 38 65
REMARK SMILES IDX 42 66 45 67 39 68 40 69 43 70 41 71 67 72 68 73 76 74 69 75
REMARK SMILES IDX 70 76 74 77 77 78 71 79 72 80 75 81 73 82 52 83 53 84 61 85
REMARK SMILES IDX 54 86 55 87 59 88 62 89 56 90 57 91 60 92 58 93
REMARK H PARENT 82 46 50 57
REMARK Flexibility Score: inf
ROOT
ATOM      1  C   UNL A   1      40.440  21.358  26.648  1.00  0.00     0.188 C 
ENDROOT
BRANCH   1   2
ATOM      2  C   UNL A   1      39.088  21.828  26.078  1.00  0.00     0.188 C 
BRANCH   2   3
ATOM      3  O   UNL A   1      38.672  23.173  26.292  1.00  0.00    -0.376 OA
BRANCH   3   4
ATOM      4  C   UNL A   1      37.418  23.610  25.772  1.00  0.00     0.202 C 
BRANCH   4   5
ATOM      5  C   UNL A   1      36.797  22.854  24.588  1.00  0.00     0.261 C 
BRANCH   5   6
ATOM      6  O   UNL A   1      35.609  23.477  24.065  1.00  0.00    -0.463 OA
BRANCH   6   7
ATOM      7  C   UNL A   1      34.505  22.697  23.977  1.00  0.00     0.313 C 
ATOM      8  O   UNL A   1      34.493  21.494  24.219  1.00  0.00    -0.252 OA
BRANCH   7   9
ATOM      9  C   UNL A   1      33.229  23.478  23.695  1.00  0.00     0.151 C 
ATOM     10  C   UNL A   1      33.326  24.792  24.441  1.00  0.00     0.145 C 
ATOM     11  C   UNL A   1      32.709  24.406  25.786  1.00  0.00     0.187 C 
ATOM     12  O   UNL A   1      31.683  23.441  25.514  1.00  0.00    -0.378 OA
ATOM     13  C   UNL A   1      31.940  22.875  24.225  1.00  0.00     0.177 C 
BRANCH  10  14
ATOM     14  N   UNL A   1      32.566  25.929  23.870  1.00  0.00    -0.231 N 
ATOM     15  C   UNL A   1      31.599  28.993  22.927  1.00  0.00     0.041 C 
ATOM     16  C   UNL A   1      32.755  28.010  23.068  1.00  0.00     0.165 C 
ATOM     17  C   UNL A   1      34.097  28.702  22.807  1.00  0.00     0.041 C 
ATOM     18  C   UNL A   1      32.736  27.230  24.380  1.00  0.00     0.259 C 
ATOM     19  S   UNL A   1      32.576  26.440  22.293  1.00  0.00     0.252 S 
ATOM     20  O   UNL A   1      32.931  27.514  25.556  1.00  0.00    -0.272 OA
ATOM     21  O   UNL A   1      31.264  26.234  21.732  1.00  0.00    -0.205 OA
ATOM     22  O   UNL A   1      33.787  26.013  21.633  1.00  0.00    -0.205 OA
ENDBRANCH  10  14
ENDBRANCH   7   9
ENDBRANCH   6   7
ENDBRANCH   5   6
ENDBRANCH   4   5
ENDBRANCH   3   4
ENDBRANCH   2   3
ENDBRANCH   1   2
BRANCH   1  23
ATOM     23  O   UNL A   1      41.245  20.669  25.720  1.00  0.00    -0.376 OA
BRANCH  23  24
ATOM     24  C   UNL A   1      42.562  20.315  26.116  1.00  0.00     0.202 C 
BRANCH  24  25
ATOM     25  C   UNL A   1      43.778  21.133  25.634  1.00  0.00     0.261 C 
BRANCH  25  26
ATOM     26  O   UNL A   1      43.989  22.421  26.235  1.00  0.00    -0.460 OA
BRANCH  26  27
ATOM     27  C   UNL A   1      43.736  23.512  25.477  1.00  0.00     0.338 C 
ATOM     28  O   UNL A   1      43.801  23.599  24.266  1.00  0.00    -0.246 OA
BRANCH  27  29
ATOM     29  C   UNL A   1      43.148  24.542  26.364  1.00  0.00     0.060 A 
ATOM     30  C   UNL A   1      43.727  25.819  26.406  1.00  0.00     0.016 A 
ATOM     31  C   UNL A   1      42.024  24.252  27.139  1.00  0.00     0.016 A 
ATOM     32  C   UNL A   1      43.193  26.804  27.240  1.00  0.00     0.010 A 
ATOM     33  C   UNL A   1      41.508  25.230  27.994  1.00  0.00     0.010 A 
ATOM     34  C   UNL A   1      42.105  26.502  28.069  1.00  0.00    -0.014 A 
BRANCH  34  35
ATOM     35  C   UNL A   1      41.706  27.439  29.148  1.00  0.00     0.031 A 
ATOM     36  C   UNL A   1      42.475  27.406  30.440  1.00  0.00     0.074 A 
ATOM     37  C   UNL A   1      40.685  28.299  28.993  1.00  0.00     0.049 A 
ATOM     38  N   UNL A   1      42.262  28.056  31.556  1.00  0.00    -0.248 NA
ATOM     39  C   UNL A   1      43.641  26.508  30.477  1.00  0.00     0.031 C 
ATOM     40  C   UNL A   1      39.894  28.464  27.778  1.00  0.00     0.029 A 
ATOM     41  N   UNL A   1      40.130  29.188  29.882  1.00  0.00    -0.354 N 
ATOM     42  C   UNL A   1      43.259  27.637  32.429  1.00  0.00     0.074 A 
ATOM     43  C   UNL A   1      44.059  26.660  31.725  1.00  0.00     0.031 C 
ATOM     44  C   UNL A   1      38.940  29.386  28.000  1.00  0.00     0.029 A 
ATOM     45  C   UNL A   1      39.033  29.849  29.386  1.00  0.00     0.049 A 
ATOM     46  H   UNL A   1      40.485  29.338  30.788  1.00  0.00     0.167 HD
ATOM     47  C   UNL A   1      43.488  28.038  33.702  1.00  0.00     0.037 A 
ATOM     48  C   UNL A   1      38.187  30.705  29.992  1.00  0.00     0.037 A 
ATOM     49  C   UNL A   1      42.689  29.010  34.401  1.00  0.00     0.049 A 
ATOM     50  C   UNL A   1      38.415  31.074  31.437  1.00  0.00     0.074 A 
ATOM     51  C   UNL A   1      42.853  29.497  35.685  1.00  0.00     0.029 A 
ATOM     52  N   UNL A   1      41.568  29.636  33.874  1.00  0.00    -0.354 N 
ATOM     53  N   UNL A   1      39.371  30.696  32.251  1.00  0.00    -0.248 NA
ATOM     54  C   UNL A   1      37.444  31.994  32.048  1.00  0.00     0.031 C 
ATOM     55  C   UNL A   1      41.797  30.373  35.957  1.00  0.00     0.029 A 
ATOM     56  C   UNL A   1      41.013  30.482  34.820  1.00  0.00     0.049 A 
ATOM     57  H   UNL A   1      41.220  29.498  32.964  1.00  0.00     0.167 HD
ATOM     58  C   UNL A   1      39.136  31.354  33.453  1.00  0.00     0.074 A 
ATOM     59  C   UNL A   1      37.954  32.165  33.259  1.00  0.00     0.031 C 
ATOM     60  C   UNL A   1      39.840  31.294  34.611  1.00  0.00     0.037 A 
BRANCH  47  61
ATOM     61  C   UNL A   1      44.630  27.397  34.434  1.00  0.00     0.064 A 
ATOM     62  C   UNL A   1      45.908  27.973  34.465  1.00  0.00     0.173 A 
ATOM     63  C   UNL A   1      44.433  26.200  35.142  1.00  0.00     0.173 A 
ATOM     64  F   UNL A   1      46.153  29.109  33.793  1.00  0.00    -0.203 F 
ATOM     65  C   UNL A   1      46.953  27.363  35.154  1.00  0.00     0.198 A 
ATOM     66  C   UNL A   1      45.472  25.610  35.856  1.00  0.00     0.198 A 
ATOM     67  F   UNL A   1      43.230  25.608  35.148  1.00  0.00    -0.203 F 
ATOM     68  F   UNL A   1      48.178  27.906  35.128  1.00  0.00    -0.200 F 
ATOM     69  C   UNL A   1      46.733  26.188  35.855  1.00  0.00     0.200 A 
ATOM     70  F   UNL A   1      45.253  24.480  36.544  1.00  0.00    -0.200 F 
ATOM     71  F   UNL A   1      47.737  25.606  36.525  1.00  0.00    -0.200 F 
ENDBRANCH  47  61
BRANCH  48  72
ATOM     72  C   UNL A   1      37.032  31.269  29.243  1.00  0.00     0.064 A 
ATOM     73  C   UNL A   1      37.018  32.611  28.840  1.00  0.00     0.173 A 
ATOM     74  C   UNL A   1      35.908  30.487  28.939  1.00  0.00     0.173 A 
ATOM     75  F   UNL A   1      38.057  33.408  29.132  1.00  0.00    -0.203 F 
ATOM     76  C   UNL A   1      35.918  33.154  28.179  1.00  0.00     0.198 A 
ATOM     77  C   UNL A   1      34.821  31.023  28.252  1.00  0.00     0.198 A 
ATOM     78  F   UNL A   1      35.866  29.198  29.309  1.00  0.00    -0.203 F 
ATOM     79  F   UNL A   1      35.911  34.453  27.851  1.00  0.00    -0.200 F 
ATOM     80  C   UNL A   1      34.823  32.359  27.880  1.00  0.00     0.200 A 
ATOM     81  F   UNL A   1      33.769  30.248  27.957  1.00  0.00    -0.200 F 
ATOM     82  F   UNL A   1      33.766  32.880  27.244  1.00  0.00    -0.200 F 
ENDBRANCH  48  72
BRANCH  60  83
ATOM     83  C   UNL A   1      39.383  32.163  35.749  1.00  0.00     0.064 A 
ATOM     84  C   UNL A   1      39.833  33.482  35.902  1.00  0.00     0.173 A 
ATOM     85  C   UNL A   1      38.441  31.681  36.672  1.00  0.00     0.173 A 
ATOM     86  F   UNL A   1      40.743  33.988  35.055  1.00  0.00    -0.203 F 
ATOM     87  C   UNL A   1      39.379  34.277  36.952  1.00  0.00     0.198 A 
ATOM     88  C   UNL A   1      37.963  32.490  37.701  1.00  0.00     0.198 A 
ATOM     89  F   UNL A   1      37.969  30.430  36.566  1.00  0.00    -0.203 F 
ATOM     90  F   UNL A   1      39.862  35.517  37.108  1.00  0.00    -0.200 F 
ATOM     91  C   UNL A   1      38.440  33.783  37.845  1.00  0.00     0.200 A 
ATOM     92  F   UNL A   1      37.042  32.016  38.551  1.00  0.00    -0.200 F 
ATOM     93  F   UNL A   1      37.997  34.554  38.849  1.00  0.00    -0.200 F 
ENDBRANCH  60  83
ENDBRANCH  34  35
ENDBRANCH  27  29
ENDBRANCH  26  27
ENDBRANCH  25  26
ENDBRANCH  24  25
ENDBRANCH  23  24
ENDBRANCH   1  23
TORSDOF 18
ENDMDL
MODEL 2
REMARK VINA RESULT:     -10.8      2.756      8.844
REMARK SMILES CC1(C)C(=O)N([C@H]2COC[C@@H]2C(=O)OCCOCCOCCOC(=O)c2ccc(-c3c4nc(c(-c5c(F)c(F)c(F)c(F)c5F)c5ccc([nH]5)c(-c5c(F)c(F)c(F)c(F)c5F)c5nc(c(-c6c(F)c(F)c(F)c(F)c6F)c6ccc3[nH]6)C=C5)C=C4)cc2)S1(=O)=O
REMARK SMILES IDX 19 1 18 2 17 3 16 4 15 5 14 6 12 7 13 8 11 9 7 10 8 11 9 12
REMARK SMILES IDX 10 13 6 14 1 15 2 16 3 17 4 18 89 19 5 20 90 21 91 22 20 23
REMARK SMILES IDX 21 24 22 25 23 26 24 27 25 28 26 29 27 30 88 31 28 32 87 33
REMARK SMILES IDX 29 34 30 35 31 36 81 37 32 38 86 39 80 40 82 41 33 42 85 43
REMARK SMILES IDX 79 44 78 45 34 47 66 48 46 49 65 50 47 51 50 52 64 53 83 54
REMARK SMILES IDX 48 55 49 56 63 58 84 59 51 60 35 61 36 62 44 63 37 64 38 65
REMARK SMILES IDX 42 66 45 67 39 68 40 69 43 70 41 71 67 72 68 73 76 74 69 75
REMARK SMILES IDX 70 76 74 77 77 78 71 79 72 80 75 81 73 82 52 83 53 84 61 85
REMARK SMILES IDX 54 86 55 87 59 88 62 89 56 90 57 91 60 92 58 93
REMARK H PARENT 82 46 50 57
REMARK Flexibility Score: inf
ROOT
ATOM      1  C   UNL A   1      31.787  29.492  25.691  1.00  0.00     0.188 C 
ENDROOT
BRANCH   1   2
ATOM      2  C   UNL A   1      30.969  29.760  24.413  1.00  0.00     0.188 C 
BRANCH   2   3
ATOM      3  O   UNL A   1      30.093  28.751  23.923  1.00  0.00    -0.376 OA
BRANCH   3   4
ATOM      4  C   UNL A   1      30.401  28.088  22.698  1.00  0.00     0.202 C 
BRANCH   4   5
ATOM      5  C   UNL A   1      31.472  26.986  22.697  1.00  0.00     0.261 C 
BRANCH   5   6
ATOM      6  O   UNL A   1      31.648  26.353  23.978  1.00  0.00    -0.463 OA
BRANCH   6   7
ATOM      7  C   UNL A   1      32.912  26.000  24.310  1.00  0.00     0.313 C 
ATOM      8  O   UNL A   1      33.817  26.802  24.520  1.00  0.00    -0.252 OA
BRANCH   7   9
ATOM      9  C   UNL A   1      33.084  24.507  24.551  1.00  0.00     0.151 C 
ATOM     10  C   UNL A   1      34.153  24.013  23.598  1.00  0.00     0.145 C 
ATOM     11  C   UNL A   1      33.306  23.647  22.378  1.00  0.00     0.187 C 
ATOM     12  O   UNL A   1      32.051  23.158  22.873  1.00  0.00    -0.378 OA
ATOM     13  C   UNL A   1      31.892  23.629  24.215  1.00  0.00     0.177 C 
BRANCH  10  14
ATOM     14  N   UNL A   1      34.918  22.819  24.030  1.00  0.00    -0.231 N 
ATOM     15  C   UNL A   1      37.384  20.734  24.916  1.00  0.00     0.041 C 
ATOM     16  C   UNL A   1      36.810  22.143  25.016  1.00  0.00     0.165 C 
ATOM     17  C   UNL A   1      37.807  23.095  25.685  1.00  0.00     0.041 C 
ATOM     18  C   UNL A   1      36.276  22.680  23.690  1.00  0.00     0.259 C 
ATOM     19  S   UNL A   1      35.152  22.298  25.586  1.00  0.00     0.252 S 
ATOM     20  O   UNL A   1      36.788  23.042  22.638  1.00  0.00    -0.272 OA
ATOM     21  O   UNL A   1      34.491  21.028  25.753  1.00  0.00    -0.205 OA
ATOM     22  O   UNL A   1      34.992  23.393  26.514  1.00  0.00    -0.205 OA
ENDBRANCH  10  14
ENDBRANCH   7   9
ENDBRANCH   6   7
ENDBRANCH   5   6
ENDBRANCH   4   5
ENDBRANCH   3   4
ENDBRANCH   2   3
ENDBRANCH   1   2
BRANCH   1  23
ATOM     23  O   UNL A   1      32.282  30.656  26.310  1.00  0.00    -0.376 OA
BRANCH  23  24
ATOM     24  C   UNL A   1      31.393  31.750  26.478  1.00  0.00     0.202 C 
BRANCH  24  25
ATOM     25  C   UNL A   1      31.878  33.072  27.108  1.00  0.00     0.261 C 
BRANCH  25  26
ATOM     26  O   UNL A   1      33.273  33.391  26.985  1.00  0.00    -0.460 OA
BRANCH  26  27
ATOM     27  C   UNL A   1      33.862  34.026  28.024  1.00  0.00     0.338 C 
ATOM     28  O   UNL A   1      33.454  35.006  28.615  1.00  0.00    -0.246 OA
BRANCH  27  29
ATOM     29  C   UNL A   1      34.999  33.187  28.470  1.00  0.00     0.060 A 
ATOM     30  C   UNL A   1      34.763  31.853  28.835  1.00  0.00     0.016 A 
ATOM     31  C   UNL A   1      36.292  33.711  28.513  1.00  0.00     0.016 A 
ATOM     32  C   UNL A   1      35.819  31.046  29.265  1.00  0.00     0.010 A 
ATOM     33  C   UNL A   1      37.343  32.910  28.968  1.00  0.00     0.010 A 
ATOM     34  C   UNL A   1      37.108  31.582  29.372  1.00  0.00    -0.014 A 
BRANCH  34  35
ATOM     35  C   UNL A   1      38.173  30.830  30.080  1.00  0.00     0.031 A 
ATOM     36  C   UNL A   1      38.419  31.140  31.530  1.00  0.00     0.074 A 
ATOM     37  C   UNL A   1      38.909  29.895  29.455  1.00  0.00     0.049 A 
ATOM     38  N   UNL A   1      39.347  30.687  32.336  1.00  0.00    -0.248 NA
ATOM     39  C   UNL A   1      37.495  32.100  32.155  1.00  0.00     0.031 C 
ATOM     40  C   UNL A   1      38.738  29.468  28.070  1.00  0.00     0.029 A 
ATOM     41  N   UNL A   1      39.967  29.146  29.913  1.00  0.00    -0.354 N 
ATOM     42  C   UNL A   1      39.123  31.315  33.555  1.00  0.00     0.074 A 
ATOM     43  C   UNL A   1      37.993  32.199  33.378  1.00  0.00     0.031 C 
ATOM     44  C   UNL A   1      39.671  28.543  27.781  1.00  0.00     0.029 A 
ATOM     45  C   UNL A   1      40.527  28.342  28.951  1.00  0.00     0.049 A 
ATOM     46  H   UNL A   1      40.291  29.182  30.841  1.00  0.00     0.167 HD
ATOM     47  C   UNL A   1      39.799  31.162  34.719  1.00  0.00     0.037 A 
ATOM     48  C   UNL A   1      41.621  27.557  29.004  1.00  0.00     0.037 A 
ATOM     49  C   UNL A   1      40.925  30.282  34.891  1.00  0.00     0.049 A 
ATOM     50  C   UNL A   1      42.406  27.465  30.290  1.00  0.00     0.074 A 
ATOM     51  C   UNL A   1      41.663  30.043  36.036  1.00  0.00     0.029 A 
ATOM     52  N   UNL A   1      41.481  29.505  33.886  1.00  0.00    -0.354 N 
ATOM     53  N   UNL A   1      42.178  28.040  31.445  1.00  0.00    -0.248 NA
ATOM     54  C   UNL A   1      43.603  26.611  30.276  1.00  0.00     0.031 C 
ATOM     55  C   UNL A   1      42.702  29.166  35.710  1.00  0.00     0.029 A 
ATOM     56  C   UNL A   1      42.572  28.808  34.377  1.00  0.00     0.049 A 
ATOM     57  H   UNL A   1      41.149  29.457  32.960  1.00  0.00     0.167 HD
ATOM     58  C   UNL A   1      43.177  27.593  32.302  1.00  0.00     0.074 A 
ATOM     59  C   UNL A   1      44.008  26.689  31.536  1.00  0.00     0.031 C 
ATOM     60  C   UNL A   1      43.386  27.902  33.606  1.00  0.00     0.037 A 
BRANCH  47  61
ATOM     61  C   UNL A   1      39.358  31.993  35.888  1.00  0.00     0.064 A 
ATOM     62  C   UNL A   1      38.391  31.539  36.797  1.00  0.00     0.173 A 
ATOM     63  C   UNL A   1      39.936  33.251  36.120  1.00  0.00     0.173 A 
ATOM     64  F   UNL A   1      37.797  30.350  36.613  1.00  0.00    -0.203 F 
ATOM     65  C   UNL A   1      38.000  32.324  37.879  1.00  0.00     0.198 A 
ATOM     66  C   UNL A   1      39.565  34.020  37.219  1.00  0.00     0.198 A 
ATOM     67  F   UNL A   1      40.868  33.732  35.282  1.00  0.00    -0.203 F 
ATOM     68  F   UNL A   1      37.038  31.891  38.705  1.00  0.00    -0.200 F 
ATOM     69  C   UNL A   1      38.592  33.559  38.093  1.00  0.00     0.200 A 
ATOM     70  F   UNL A   1      40.149  35.207  37.432  1.00  0.00    -0.200 F 
ATOM     71  F   UNL A   1      38.221  34.310  39.139  1.00  0.00    -0.200 F 
ENDBRANCH  47  61
BRANCH  48  72
ATOM     72  C   UNL A   1      42.055  26.798  27.800  1.00  0.00     0.064 A 
ATOM     73  C   UNL A   1      41.572  25.508  27.546  1.00  0.00     0.173 A 
ATOM     74  C   UNL A   1      42.982  27.336  26.895  1.00  0.00     0.173 A 
ATOM     75  F   UNL A   1      40.705  24.938  28.397  1.00  0.00    -0.203 F 
ATOM     76  C   UNL A   1      42.012  24.776  26.444  1.00  0.00     0.198 A 
ATOM     77  C   UNL A   1      43.398  26.616  25.777  1.00  0.00     0.198 A 
ATOM     78  F   UNL A   1      43.482  28.564  27.095  1.00  0.00    -0.203 F 
ATOM     79  F   UNL A   1      41.571  23.525  26.255  1.00  0.00    -0.200 F 
ATOM     80  C   UNL A   1      42.920  25.333  25.557  1.00  0.00     0.200 A 
ATOM     81  F   UNL A   1      44.269  27.162  24.917  1.00  0.00    -0.200 F 
ATOM     82  F   UNL A   1      43.342  24.631  24.498  1.00  0.00    -0.200 F 
ENDBRANCH  48  72
BRANCH  60  83
ATOM     83  C   UNL A   1      44.528  27.222  34.308  1.00  0.00     0.064 A 
ATOM     84  C   UNL A   1      44.383  25.969  34.920  1.00  0.00     0.173 A 
ATOM     85  C   UNL A   1      45.801  27.816  34.324  1.00  0.00     0.173 A 
ATOM     86  F   UNL A   1      43.185  25.365  34.945  1.00  0.00    -0.203 F 
ATOM     87  C   UNL A   1      45.461  25.348  35.547  1.00  0.00     0.198 A 
ATOM     88  C   UNL A   1      46.885  27.176  34.921  1.00  0.00     0.198 A 
ATOM     89  F   UNL A   1      45.998  29.009  33.744  1.00  0.00    -0.203 F 
ATOM     90  F   UNL A   1      45.287  24.175  36.169  1.00  0.00    -0.200 F 
ATOM     91  C   UNL A   1      46.712  25.948  35.539  1.00  0.00     0.200 A 
ATOM     92  F   UNL A   1      48.096  27.750  34.897  1.00  0.00    -0.200 F 
ATOM     93  F   UNL A   1      47.750  25.344  36.134  1.00  0.00    -0.200 F 
ENDBRANCH  60  83
ENDBRANCH  34  35
ENDBRANCH  27  29
ENDBRANCH  26  27
ENDBRANCH  25  26
ENDBRANCH  24  25
ENDBRANCH  23  24
ENDBRANCH   1  23
TORSDOF 18
ENDMDL
MODEL 3
REMARK VINA RESULT:     -10.4      5.057      7.353
REMARK SMILES CC1(C)C(=O)N([C@H]2COC[C@@H]2C(=O)OCCOCCOCCOC(=O)c2ccc(-c3c4nc(c(-c5c(F)c(F)c(F)c(F)c5F)c5ccc([nH]5)c(-c5c(F)c(F)c(F)c(F)c5F)c5nc(c(-c6c(F)c(F)c(F)c(F)c6F)c6ccc3[nH]6)C=C5)C=C4)cc2)S1(=O)=O
REMARK SMILES IDX 19 1 18 2 17 3 16 4 15 5 14 6 12 7 13 8 11 9 7 10 8 11 9 12
REMARK SMILES IDX 10 13 6 14 1 15 2 16 3 17 4 18 89 19 5 20 90 21 91 22 20 23
REMARK SMILES IDX 21 24 22 25 23 26 24 27 25 28 26 29 27 30 88 31 28 32 87 33
REMARK SMILES IDX 29 34 30 35 31 36 81 37 32 38 86 39 80 40 82 41 33 42 85 43
REMARK SMILES IDX 79 44 78 45 34 47 66 48 46 49 65 50 47 51 50 52 64 53 83 54
REMARK SMILES IDX 48 55 49 56 63 58 84 59 51 60 35 61 36 62 44 63 37 64 38 65
REMARK SMILES IDX 42 66 45 67 39 68 40 69 43 70 41 71 67 72 68 73 76 74 69 75
REMARK SMILES IDX 70 76 74 77 77 78 71 79 72 80 75 81 73 82 52 83 53 84 61 85
REMARK SMILES IDX 54 86 55 87 59 88 62 89 56 90 57 91 60 92 58 93
REMARK H PARENT 82 46 50 57
REMARK Flexibility Score: inf
ROOT
ATOM      1  C   UNL A   1      41.421  20.901  26.558  1.00  0.00     0.188 C 
ENDROOT
BRANCH   1   2
ATOM      2  C   UNL A   1      39.929  21.274  26.459  1.00  0.00     0.188 C 
BRANCH   2   3
ATOM      3  O   UNL A   1      39.557  22.647  26.404  1.00  0.00    -0.376 OA
BRANCH   3   4
ATOM      4  C   UNL A   1      38.234  23.000  26.006  1.00  0.00     0.202 C 
BRANCH   4   5
ATOM      5  C   UNL A   1      37.240  21.884  25.653  1.00  0.00     0.261 C 
BRANCH   5   6
ATOM      6  O   UNL A   1      35.965  22.372  25.193  1.00  0.00    -0.463 OA
BRANCH   6   7
ATOM      7  C   UNL A   1      35.105  21.449  24.701  1.00  0.00     0.313 C 
ATOM      8  O   UNL A   1      35.250  20.238  24.829  1.00  0.00    -0.252 OA
BRANCH   7   9
ATOM      9  C   UNL A   1      33.846  22.052  24.095  1.00  0.00     0.151 C 
ATOM     10  C   UNL A   1      33.293  23.049  25.094  1.00  0.00     0.145 C 
ATOM     11  C   UNL A   1      32.378  22.148  25.924  1.00  0.00     0.187 C 
ATOM     12  O   UNL A   1      31.835  21.166  25.031  1.00  0.00    -0.378 OA
ATOM     13  C   UNL A   1      32.681  21.102  23.878  1.00  0.00     0.177 C 
BRANCH  10  14
ATOM     14  N   UNL A   1      32.494  24.165  24.535  1.00  0.00    -0.231 N 
ATOM     15  C   UNL A   1      31.197  27.190  23.916  1.00  0.00     0.041 C 
ATOM     16  C   UNL A   1      32.453  26.380  24.222  1.00  0.00     0.165 C 
ATOM     17  C   UNL A   1      33.641  27.303  24.515  1.00  0.00     0.041 C 
ATOM     18  C   UNL A   1      32.246  25.319  25.300  1.00  0.00     0.259 C 
ATOM     19  S   UNL A   1      32.818  25.028  23.158  1.00  0.00     0.252 S 
ATOM     20  O   UNL A   1      32.056  25.344  26.510  1.00  0.00    -0.272 OA
ATOM     21  O   UNL A   1      31.778  24.770  22.194  1.00  0.00    -0.205 OA
ATOM     22  O   UNL A   1      34.224  24.950  22.833  1.00  0.00    -0.205 OA
ENDBRANCH  10  14
ENDBRANCH   7   9
ENDBRANCH   6   7
ENDBRANCH   5   6
ENDBRANCH   4   5
ENDBRANCH   3   4
ENDBRANCH   2   3
ENDBRANCH   1   2
BRANCH   1  23
ATOM     23  O   UNL A   1      41.673  19.744  27.321  1.00  0.00    -0.376 OA
BRANCH  23  24
ATOM     24  C   UNL A   1      42.588  18.791  26.801  1.00  0.00     0.202 C 
BRANCH  24  25
ATOM     25  C   UNL A   1      43.067  18.872  25.337  1.00  0.00     0.261 C 
BRANCH  25  26
ATOM     26  O   UNL A   1      44.432  18.515  25.067  1.00  0.00    -0.460 OA
BRANCH  26  27
ATOM     27  C   UNL A   1      45.128  19.307  24.219  1.00  0.00     0.338 C 
ATOM     28  O   UNL A   1      45.619  18.990  23.153  1.00  0.00    -0.246 OA
BRANCH  27  29
ATOM     29  C   UNL A   1      45.006  20.698  24.710  1.00  0.00     0.060 A 
ATOM     30  C   UNL A   1      44.580  21.701  23.825  1.00  0.00     0.016 A 
ATOM     31  C   UNL A   1      45.297  21.009  26.039  1.00  0.00     0.016 A 
ATOM     32  C   UNL A   1      44.465  23.022  24.265  1.00  0.00     0.010 A 
ATOM     33  C   UNL A   1      45.207  22.336  26.470  1.00  0.00     0.010 A 
ATOM     34  C   UNL A   1      44.816  23.353  25.579  1.00  0.00    -0.014 A 
BRANCH  34  35
ATOM     35  C   UNL A   1      44.963  24.774  25.977  1.00  0.00     0.031 A 
ATOM     36  C   UNL A   1      46.321  25.409  25.865  1.00  0.00     0.074 A 
ATOM     37  C   UNL A   1      43.920  25.490  26.431  1.00  0.00     0.049 A 
ATOM     38  N   UNL A   1      46.720  26.600  26.233  1.00  0.00    -0.248 NA
ATOM     39  C   UNL A   1      47.376  24.581  25.258  1.00  0.00     0.031 C 
ATOM     40  C   UNL A   1      42.546  25.009  26.542  1.00  0.00     0.029 A 
ATOM     41  N   UNL A   1      43.865  26.781  26.902  1.00  0.00    -0.354 N 
ATOM     42  C   UNL A   1      48.071  26.658  25.915  1.00  0.00     0.074 A 
ATOM     43  C   UNL A   1      48.430  25.377  25.348  1.00  0.00     0.031 C 
ATOM     44  C   UNL A   1      41.783  25.984  27.066  1.00  0.00     0.029 A 
ATOM     45  C   UNL A   1      42.623  27.146  27.361  1.00  0.00     0.049 A 
ATOM     46  H   UNL A   1      44.642  27.385  26.908  1.00  0.00     0.167 HD
ATOM     47  C   UNL A   1      48.933  27.690  26.075  1.00  0.00     0.037 A 
ATOM     48  C   UNL A   1      42.223  28.277  27.973  1.00  0.00     0.037 A 
ATOM     49  C   UNL A   1      48.573  28.964  26.640  1.00  0.00     0.049 A 
ATOM     50  C   UNL A   1      43.220  29.383  28.215  1.00  0.00     0.074 A 
ATOM     51  C   UNL A   1      49.368  30.080  26.826  1.00  0.00     0.029 A 
ATOM     52  N   UNL A   1      47.312  29.286  27.121  1.00  0.00    -0.354 N 
ATOM     53  N   UNL A   1      44.489  29.443  27.891  1.00  0.00    -0.248 NA
ATOM     54  C   UNL A   1      42.726  30.582  28.910  1.00  0.00     0.031 C 
ATOM     55  C   UNL A   1      48.605  31.058  27.473  1.00  0.00     0.029 A 
ATOM     56  C   UNL A   1      47.316  30.574  27.631  1.00  0.00     0.049 A 
ATOM     57  H   UNL A   1      46.530  28.688  27.101  1.00  0.00     0.167 HD
ATOM     58  C   UNL A   1      44.934  30.693  28.309  1.00  0.00     0.074 A 
ATOM     59  C   UNL A   1      43.797  31.363  28.900  1.00  0.00     0.031 C 
ATOM     60  C   UNL A   1      46.173  31.236  28.208  1.00  0.00     0.037 A 
BRANCH  47  61
ATOM     61  C   UNL A   1      50.359  27.471  25.666  1.00  0.00     0.064 A 
ATOM     62  C   UNL A   1      51.351  27.116  26.592  1.00  0.00     0.173 A 
ATOM     63  C   UNL A   1      50.734  27.590  24.318  1.00  0.00     0.173 A 
ATOM     64  F   UNL A   1      51.048  27.005  27.895  1.00  0.00    -0.203 F 
ATOM     65  C   UNL A   1      52.668  26.913  26.190  1.00  0.00     0.198 A 
ATOM     66  C   UNL A   1      52.046  27.355  23.914  1.00  0.00     0.198 A 
ATOM     67  F   UNL A   1      49.825  27.925  23.390  1.00  0.00    -0.203 F 
ATOM     68  F   UNL A   1      53.608  26.624  27.100  1.00  0.00    -0.200 F 
ATOM     69  C   UNL A   1      53.013  27.025  24.852  1.00  0.00     0.200 A 
ATOM     70  F   UNL A   1      52.374  27.451  22.618  1.00  0.00    -0.200 F 
ATOM     71  F   UNL A   1      54.279  26.822  24.464  1.00  0.00    -0.200 F 
ENDBRANCH  47  61
BRANCH  48  72
ATOM     72  C   UNL A   1      40.810  28.425  28.417  1.00  0.00     0.064 A 
ATOM     73  C   UNL A   1      39.840  28.975  27.568  1.00  0.00     0.173 A 
ATOM     74  C   UNL A   1      40.407  28.047  29.706  1.00  0.00     0.173 A 
ATOM     75  F   UNL A   1      40.181  29.379  26.335  1.00  0.00    -0.203 F 
ATOM     76  C   UNL A   1      38.526  29.158  27.997  1.00  0.00     0.198 A 
ATOM     77  C   UNL A   1      39.088  28.203  30.124  1.00  0.00     0.198 A 
ATOM     78  F   UNL A   1      41.298  27.523  30.562  1.00  0.00    -0.203 F 
ATOM     79  F   UNL A   1      37.632  29.733  27.181  1.00  0.00    -0.200 F 
ATOM     80  C   UNL A   1      38.150  28.766  29.272  1.00  0.00     0.200 A 
ATOM     81  F   UNL A   1      38.726  27.814  31.354  1.00  0.00    -0.200 F 
ATOM     82  F   UNL A   1      36.887  28.941  29.684  1.00  0.00    -0.200 F 
ENDBRANCH  48  72
BRANCH  60  83
ATOM     83  C   UNL A   1      46.358  32.642  28.704  1.00  0.00     0.064 A 
ATOM     84  C   UNL A   1      46.155  33.754  27.874  1.00  0.00     0.173 A 
ATOM     85  C   UNL A   1      46.699  32.879  30.045  1.00  0.00     0.173 A 
ATOM     86  F   UNL A   1      45.842  33.583  26.580  1.00  0.00    -0.203 F 
ATOM     87  C   UNL A   1      46.312  35.050  28.361  1.00  0.00     0.198 A 
ATOM     88  C   UNL A   1      46.821  34.177  30.538  1.00  0.00     0.198 A 
ATOM     89  F   UNL A   1      46.895  31.853  30.885  1.00  0.00    -0.203 F 
ATOM     90  F   UNL A   1      46.162  36.096  27.537  1.00  0.00    -0.200 F 
ATOM     91  C   UNL A   1      46.636  35.260  29.693  1.00  0.00     0.200 A 
ATOM     92  F   UNL A   1      47.117  34.376  31.829  1.00  0.00    -0.200 F 
ATOM     93  F   UNL A   1      46.777  36.508  30.162  1.00  0.00    -0.200 F 
ENDBRANCH  60  83
ENDBRANCH  34  35
ENDBRANCH  27  29
ENDBRANCH  26  27
ENDBRANCH  25  26
ENDBRANCH  24  25
ENDBRANCH  23  24
ENDBRANCH   1  23
TORSDOF 18
ENDMDL
