MODEL 1
REMARK VINA RESULT:     -11.0      0.000      0.000
REMARK SMILES O=C(OCCOCCOCCOC(=O)c1ccc(-n2nc(Cl)ccc2=O)cc1)c1ccc(-c2c3nc(c(-c4c(F)c(F)c(F)c(F)c4F)c4ccc([nH]4)c(-c4c(F)c(F)c(F)c(F)c4F)c4nc(c(-c5c(F)c(F)c(F)c(F)c5F)c5ccc2[nH]5)C=C4)C=C3)cc1
REMARK SMILES IDX 7 1 6 2 5 3 4 4 3 5 2 6 1 7 29 8 30 9 91 10 31 11 90 12
REMARK SMILES IDX 32 13 33 14 34 15 84 16 35 17 89 18 83 19 85 20 36 21 88 22
REMARK SMILES IDX 82 23 81 24 37 26 69 27 49 28 68 29 50 30 53 31 67 32 86 33
REMARK SMILES IDX 51 34 52 35 66 37 87 38 54 39 38 40 39 41 47 42 40 43 41 44
REMARK SMILES IDX 45 45 48 46 42 47 43 48 46 49 44 50 70 51 71 52 79 53 72 54
REMARK SMILES IDX 73 55 77 56 80 57 74 58 75 59 78 60 76 61 55 62 56 63 64 64
REMARK SMILES IDX 57 65 58 66 62 67 65 68 59 69 60 70 63 71 61 72 8 73 9 74
REMARK SMILES IDX 10 75 11 76 12 77 13 78 14 79 15 80 16 81 28 82 17 83 27 84
REMARK SMILES IDX 18 85 19 86 20 87 25 88 21 89 24 90 26 91 22 92 23 93
REMARK H PARENT 85 25 53 36
REMARK Flexibility Score: inf
ROOT
ATOM      1  C   UNL A   1      46.038  19.929  25.289  1.00  0.00     0.188 C 
ENDROOT
BRANCH   1   2
ATOM      2  O   UNL A   1      45.949  21.338  25.545  1.00  0.00    -0.376 OA
BRANCH   2   3
ATOM      3  C   UNL A   1      46.129  22.142  24.374  1.00  0.00     0.202 C 
BRANCH   3   4
ATOM      4  C   UNL A   1      44.889  22.940  23.945  1.00  0.00     0.261 C 
BRANCH   4   5
ATOM      5  O   UNL A   1      44.293  23.667  25.031  1.00  0.00    -0.460 OA
BRANCH   5   6
ATOM      6  C   UNL A   1      44.489  24.964  25.376  1.00  0.00     0.338 C 
ATOM      7  O   UNL A   1      45.164  25.672  24.631  1.00  0.00    -0.246 OA
BRANCH   6   8
ATOM      8  C   UNL A   1      43.924  25.597  26.612  1.00  0.00     0.060 A 
ATOM      9  C   UNL A   1      43.077  24.967  27.524  1.00  0.00     0.016 A 
ATOM     10  C   UNL A   1      44.339  26.907  26.913  1.00  0.00     0.016 A 
ATOM     11  C   UNL A   1      42.581  25.627  28.642  1.00  0.00     0.010 A 
ATOM     12  C   UNL A   1      43.893  27.559  28.071  1.00  0.00     0.010 A 
ATOM     13  C   UNL A   1      42.989  26.925  28.931  1.00  0.00    -0.014 A 
BRANCH  13  14
ATOM     14  C   UNL A   1      42.385  27.624  30.085  1.00  0.00     0.031 A 
ATOM     15  C   UNL A   1      41.119  28.393  29.872  1.00  0.00     0.074 A 
ATOM     16  C   UNL A   1      42.886  27.459  31.325  1.00  0.00     0.049 A 
ATOM     17  N   UNL A   1      40.458  29.148  30.708  1.00  0.00    -0.248 NA
ATOM     18  C   UNL A   1      40.483  28.258  28.549  1.00  0.00     0.031 C 
ATOM     19  C   UNL A   1      43.989  26.567  31.671  1.00  0.00     0.029 A 
ATOM     20  N   UNL A   1      42.526  28.012  32.527  1.00  0.00    -0.354 N 
ATOM     21  C   UNL A   1      39.332  29.574  30.017  1.00  0.00     0.074 A 
ATOM     22  C   UNL A   1      39.402  29.013  28.687  1.00  0.00     0.031 C 
ATOM     23  C   UNL A   1      44.232  26.644  32.988  1.00  0.00     0.029 A 
ATOM     24  C   UNL A   1      43.353  27.652  33.566  1.00  0.00     0.049 A 
ATOM     25  H   UNL A   1      41.751  28.611  32.636  1.00  0.00     0.167 HD
ATOM     26  C   UNL A   1      38.330  30.358  30.471  1.00  0.00     0.037 A 
ATOM     27  C   UNL A   1      43.434  28.140  34.818  1.00  0.00     0.037 A 
ATOM     28  C   UNL A   1      38.285  30.896  31.803  1.00  0.00     0.049 A 
ATOM     29  C   UNL A   1      42.486  29.246  35.190  1.00  0.00     0.074 A 
ATOM     30  C   UNL A   1      37.324  31.701  32.382  1.00  0.00     0.029 A 
ATOM     31  N   UNL A   1      39.266  30.682  32.761  1.00  0.00    -0.354 N 
ATOM     32  N   UNL A   1      41.453  29.702  34.523  1.00  0.00    -0.248 NA
ATOM     33  C   UNL A   1      42.736  29.936  36.460  1.00  0.00     0.031 C 
ATOM     34  C   UNL A   1      37.754  32.023  33.675  1.00  0.00     0.029 A 
ATOM     35  C   UNL A   1      38.962  31.385  33.913  1.00  0.00     0.049 A 
ATOM     36  H   UNL A   1      40.061  30.114  32.640  1.00  0.00     0.167 HD
ATOM     37  C   UNL A   1      40.897  30.692  35.314  1.00  0.00     0.074 A 
ATOM     38  C   UNL A   1      41.722  30.788  36.502  1.00  0.00     0.031 C 
ATOM     39  C   UNL A   1      39.792  31.443  35.088  1.00  0.00     0.037 A 
BRANCH  26  40
ATOM     40  C   UNL A   1      37.240  30.719  29.510  1.00  0.00     0.064 A 
ATOM     41  C   UNL A   1      36.217  29.819  29.176  1.00  0.00     0.173 A 
ATOM     42  C   UNL A   1      37.212  31.995  28.928  1.00  0.00     0.173 A 
ATOM     43  F   UNL A   1      36.215  28.579  29.687  1.00  0.00    -0.203 F 
ATOM     44  C   UNL A   1      35.209  30.184  28.286  1.00  0.00     0.198 A 
ATOM     45  C   UNL A   1      36.193  32.362  28.054  1.00  0.00     0.198 A 
ATOM     46  F   UNL A   1      38.174  32.887  29.211  1.00  0.00    -0.203 F 
ATOM     47  F   UNL A   1      34.259  29.299  27.954  1.00  0.00    -0.200 F 
ATOM     48  C   UNL A   1      35.195  31.455  27.731  1.00  0.00     0.200 A 
ATOM     49  F   UNL A   1      36.179  33.591  27.522  1.00  0.00    -0.200 F 
ATOM     50  F   UNL A   1      34.222  31.805  26.879  1.00  0.00    -0.200 F 
ENDBRANCH  26  40
BRANCH  27  51
ATOM     51  C   UNL A   1      44.519  27.716  35.748  1.00  0.00     0.064 A 
ATOM     52  C   UNL A   1      45.809  28.259  35.704  1.00  0.00     0.173 A 
ATOM     53  C   UNL A   1      44.298  26.673  36.658  1.00  0.00     0.173 A 
ATOM     54  F   UNL A   1      46.100  29.220  34.816  1.00  0.00    -0.203 F 
ATOM     55  C   UNL A   1      46.827  27.768  36.526  1.00  0.00     0.198 A 
ATOM     56  C   UNL A   1      45.295  26.217  37.513  1.00  0.00     0.198 A 
ATOM     57  F   UNL A   1      43.102  26.076  36.688  1.00  0.00    -0.203 F 
ATOM     58  F   UNL A   1      48.071  28.254  36.410  1.00  0.00    -0.200 F 
ATOM     59  C   UNL A   1      46.567  26.755  37.437  1.00  0.00     0.200 A 
ATOM     60  F   UNL A   1      45.030  25.242  38.392  1.00  0.00    -0.200 F 
ATOM     61  F   UNL A   1      47.545  26.278  38.219  1.00  0.00    -0.200 F 
ENDBRANCH  27  51
BRANCH  39  62
ATOM     62  C   UNL A   1      39.377  32.371  36.183  1.00  0.00     0.064 A 
ATOM     63  C   UNL A   1      38.406  32.009  37.125  1.00  0.00     0.173 A 
ATOM     64  C   UNL A   1      39.981  33.631  36.301  1.00  0.00     0.173 A 
ATOM     65  F   UNL A   1      37.782  30.825  37.030  1.00  0.00    -0.203 F 
ATOM     66  C   UNL A   1      38.041  32.887  38.141  1.00  0.00     0.198 A 
ATOM     67  C   UNL A   1      39.636  34.493  37.333  1.00  0.00     0.198 A 
ATOM     68  F   UNL A   1      40.915  34.018  35.418  1.00  0.00    -0.203 F 
ATOM     69  F   UNL A   1      37.077  32.542  39.005  1.00  0.00    -0.200 F 
ATOM     70  C   UNL A   1      38.662  34.123  38.249  1.00  0.00     0.200 A 
ATOM     71  F   UNL A   1      40.242  35.683  37.442  1.00  0.00    -0.200 F 
ATOM     72  F   UNL A   1      38.314  34.964  39.232  1.00  0.00    -0.200 F 
ENDBRANCH  39  62
ENDBRANCH  13  14
ENDBRANCH   6   8
ENDBRANCH   5   6
ENDBRANCH   4   5
ENDBRANCH   3   4
ENDBRANCH   2   3
ENDBRANCH   1   2
BRANCH   1  73
ATOM     73  C   UNL A   1      44.746  19.385  24.672  1.00  0.00     0.188 C 
BRANCH  73  74
ATOM     74  O   UNL A   1      44.153  18.270  25.338  1.00  0.00    -0.376 OA
BRANCH  74  75
ATOM     75  C   UNL A   1      42.941  18.507  26.046  1.00  0.00     0.202 C 
BRANCH  75  76
ATOM     76  C   UNL A   1      42.589  19.961  26.383  1.00  0.00     0.261 C 
BRANCH  76  77
ATOM     77  O   UNL A   1      41.187  20.276  26.380  1.00  0.00    -0.460 OA
BRANCH  77  78
ATOM     78  C   UNL A   1      40.875  21.459  26.966  1.00  0.00     0.338 C 
ATOM     79  O   UNL A   1      41.489  22.005  27.877  1.00  0.00    -0.246 OA
BRANCH  78  80
ATOM     80  C   UNL A   1      39.582  21.988  26.478  1.00  0.00     0.060 A 
ATOM     81  C   UNL A   1      39.132  23.288  26.727  1.00  0.00     0.018 A 
ATOM     82  C   UNL A   1      38.775  21.112  25.748  1.00  0.00     0.018 A 
ATOM     83  C   UNL A   1      37.896  23.714  26.208  1.00  0.00     0.029 A 
ATOM     84  C   UNL A   1      37.543  21.536  25.249  1.00  0.00     0.029 A 
ATOM     85  C   UNL A   1      37.095  22.855  25.439  1.00  0.00     0.069 A 
BRANCH  85  86
ATOM     86  N   UNL A   1      35.904  23.286  24.770  1.00  0.00    -0.196 N 
ATOM     87  N   UNL A   1      34.896  23.697  25.634  1.00  0.00    -0.153 NA
ATOM     88  C   UNL A   1      35.736  23.206  23.381  1.00  0.00     0.271 A 
ATOM     89  C   UNL A   1      33.721  23.915  25.141  1.00  0.00     0.150 A 
ATOM     90  C   UNL A   1      34.339  23.367  22.903  1.00  0.00     0.077 A 
ATOM     91  O   UNL A   1      36.589  22.953  22.534  1.00  0.00    -0.267 OA
ATOM     92  Cl  UNL A   1      32.517  24.453  26.253  1.00  0.00    -0.060 Cl
ATOM     93  C   UNL A   1      33.353  23.700  23.735  1.00  0.00     0.049 A 
ENDBRANCH  85  86
ENDBRANCH  78  80
ENDBRANCH  77  78
ENDBRANCH  76  77
ENDBRANCH  75  76
ENDBRANCH  74  75
ENDBRANCH  73  74
ENDBRANCH   1  73
TORSDOF 18
ENDMDL
MODEL 2
REMARK VINA RESULT:     -11.0      2.273      8.195
REMARK SMILES O=C(OCCOCCOCCOC(=O)c1ccc(-n2nc(Cl)ccc2=O)cc1)c1ccc(-c2c3nc(c(-c4c(F)c(F)c(F)c(F)c4F)c4ccc([nH]4)c(-c4c(F)c(F)c(F)c(F)c4F)c4nc(c(-c5c(F)c(F)c(F)c(F)c5F)c5ccc2[nH]5)C=C4)C=C3)cc1
REMARK SMILES IDX 7 1 6 2 5 3 4 4 3 5 2 6 1 7 29 8 30 9 91 10 31 11 90 12
REMARK SMILES IDX 32 13 33 14 34 15 84 16 35 17 89 18 83 19 85 20 36 21 88 22
REMARK SMILES IDX 82 23 81 24 37 26 69 27 49 28 68 29 50 30 53 31 67 32 86 33
REMARK SMILES IDX 51 34 52 35 66 37 87 38 54 39 38 40 39 41 47 42 40 43 41 44
REMARK SMILES IDX 45 45 48 46 42 47 43 48 46 49 44 50 70 51 71 52 79 53 72 54
REMARK SMILES IDX 73 55 77 56 80 57 74 58 75 59 78 60 76 61 55 62 56 63 64 64
REMARK SMILES IDX 57 65 58 66 62 67 65 68 59 69 60 70 63 71 61 72 8 73 9 74
REMARK SMILES IDX 10 75 11 76 12 77 13 78 14 79 15 80 16 81 28 82 17 83 27 84
REMARK SMILES IDX 18 85 19 86 20 87 25 88 21 89 24 90 26 91 22 92 23 93
REMARK H PARENT 85 25 53 36
REMARK Flexibility Score: inf
ROOT
ATOM      1  C   UNL A   1      39.020  22.085  26.151  1.00  0.00     0.188 C 
ENDROOT
BRANCH   1   2
ATOM      2  O   UNL A   1      39.946  21.309  26.925  1.00  0.00    -0.376 OA
BRANCH   2   3
ATOM      3  C   UNL A   1      40.887  20.582  26.126  1.00  0.00     0.202 C 
BRANCH   3   4
ATOM      4  C   UNL A   1      42.292  21.201  26.066  1.00  0.00     0.261 C 
BRANCH   4   5
ATOM      5  O   UNL A   1      42.372  22.310  25.157  1.00  0.00    -0.460 OA
BRANCH   5   6
ATOM      6  C   UNL A   1      43.053  23.472  25.313  1.00  0.00     0.338 C 
ATOM      7  O   UNL A   1      44.034  23.674  24.599  1.00  0.00    -0.246 OA
BRANCH   6   8
ATOM      8  C   UNL A   1      42.681  24.538  26.299  1.00  0.00     0.060 A 
ATOM      9  C   UNL A   1      43.247  25.812  26.361  1.00  0.00     0.016 A 
ATOM     10  C   UNL A   1      41.626  24.255  27.185  1.00  0.00     0.016 A 
ATOM     11  C   UNL A   1      42.857  26.742  27.317  1.00  0.00     0.010 A 
ATOM     12  C   UNL A   1      41.184  25.210  28.112  1.00  0.00     0.010 A 
ATOM     13  C   UNL A   1      41.818  26.454  28.196  1.00  0.00    -0.014 A 
BRANCH  13  14
ATOM     14  C   UNL A   1      41.480  27.436  29.248  1.00  0.00     0.031 A 
ATOM     15  C   UNL A   1      42.327  27.482  30.482  1.00  0.00     0.074 A 
ATOM     16  C   UNL A   1      40.520  28.359  29.041  1.00  0.00     0.049 A 
ATOM     17  N   UNL A   1      42.173  28.195  31.565  1.00  0.00    -0.248 NA
ATOM     18  C   UNL A   1      43.539  26.644  30.478  1.00  0.00     0.031 C 
ATOM     19  C   UNL A   1      39.780  28.532  27.795  1.00  0.00     0.029 A 
ATOM     20  N   UNL A   1      40.014  29.337  29.859  1.00  0.00    -0.354 N 
ATOM     21  C   UNL A   1      43.265  27.894  32.368  1.00  0.00     0.074 A 
ATOM     22  C   UNL A   1      44.068  26.922  31.661  1.00  0.00     0.031 C 
ATOM     23  C   UNL A   1      38.902  29.538  27.931  1.00  0.00     0.029 A 
ATOM     24  C   UNL A   1      38.963  30.028  29.301  1.00  0.00     0.049 A 
ATOM     25  H   UNL A   1      40.369  29.525  30.759  1.00  0.00     0.167 HD
ATOM     26  C   UNL A   1      43.563  28.402  33.584  1.00  0.00     0.037 A 
ATOM     27  C   UNL A   1      38.104  30.900  29.863  1.00  0.00     0.037 A 
ATOM     28  C   UNL A   1      42.747  29.374  34.258  1.00  0.00     0.049 A 
ATOM     29  C   UNL A   1      38.290  31.206  31.323  1.00  0.00     0.074 A 
ATOM     30  C   UNL A   1      42.943  29.967  35.490  1.00  0.00     0.029 A 
ATOM     31  N   UNL A   1      41.563  29.887  33.746  1.00  0.00    -0.354 N 
ATOM     32  N   UNL A   1      39.285  30.880  32.112  1.00  0.00    -0.248 NA
ATOM     33  C   UNL A   1      37.218  31.959  31.985  1.00  0.00     0.031 C 
ATOM     34  C   UNL A   1      41.845  30.795  35.750  1.00  0.00     0.029 A 
ATOM     35  C   UNL A   1      40.987  30.748  34.661  1.00  0.00     0.049 A 
ATOM     36  H   UNL A   1      41.189  29.669  32.861  1.00  0.00     0.167 HD
ATOM     37  C   UNL A   1      38.990  31.433  33.346  1.00  0.00     0.074 A 
ATOM     38  C   UNL A   1      37.708  32.096  33.209  1.00  0.00     0.031 C 
ATOM     39  C   UNL A   1      39.721  31.411  34.487  1.00  0.00     0.037 A 
BRANCH  26  40
ATOM     40  C   UNL A   1      44.784  27.880  34.275  1.00  0.00     0.064 A 
ATOM     41  C   UNL A   1      46.035  28.499  34.140  1.00  0.00     0.173 A 
ATOM     42  C   UNL A   1      44.693  26.750  35.100  1.00  0.00     0.173 A 
ATOM     43  F   UNL A   1      46.178  29.568  33.343  1.00  0.00    -0.203 F 
ATOM     44  C   UNL A   1      47.154  27.998  34.803  1.00  0.00     0.198 A 
ATOM     45  C   UNL A   1      45.809  26.263  35.775  1.00  0.00     0.198 A 
ATOM     46  F   UNL A   1      43.519  26.118  35.253  1.00  0.00    -0.203 F 
ATOM     47  F   UNL A   1      48.348  28.584  34.636  1.00  0.00    -0.200 F 
ATOM     48  C   UNL A   1      47.038  26.885  35.623  1.00  0.00     0.200 A 
ATOM     49  F   UNL A   1      45.694  25.190  36.569  1.00  0.00    -0.200 F 
ATOM     50  F   UNL A   1      48.115  26.407  36.263  1.00  0.00    -0.200 F 
ENDBRANCH  26  40
BRANCH  27  51
ATOM     51  C   UNL A   1      36.925  31.419  29.115  1.00  0.00     0.064 A 
ATOM     52  C   UNL A   1      36.787  32.766  28.758  1.00  0.00     0.173 A 
ATOM     53  C   UNL A   1      35.853  30.569  28.814  1.00  0.00     0.173 A 
ATOM     54  F   UNL A   1      37.754  33.642  29.069  1.00  0.00    -0.203 F 
ATOM     55  C   UNL A   1      35.624  33.235  28.142  1.00  0.00     0.198 A 
ATOM     56  C   UNL A   1      34.714  31.022  28.155  1.00  0.00     0.198 A 
ATOM     57  F   UNL A   1      35.908  29.289  29.196  1.00  0.00    -0.203 F 
ATOM     58  F   UNL A   1      35.488  34.542  27.881  1.00  0.00    -0.200 F 
ATOM     59  C   UNL A   1      34.593  32.360  27.831  1.00  0.00     0.200 A 
ATOM     60  F   UNL A   1      33.728  30.166  27.856  1.00  0.00    -0.200 F 
ATOM     61  F   UNL A   1      33.474  32.811  27.249  1.00  0.00    -0.200 F 
ENDBRANCH  27  51
BRANCH  39  62
ATOM     62  C   UNL A   1      39.182  32.191  35.642  1.00  0.00     0.064 A 
ATOM     63  C   UNL A   1      38.371  31.596  36.617  1.00  0.00     0.173 A 
ATOM     64  C   UNL A   1      39.506  33.548  35.783  1.00  0.00     0.173 A 
ATOM     65  F   UNL A   1      38.014  30.308  36.504  1.00  0.00    -0.203 F 
ATOM     66  C   UNL A   1      37.888  32.341  37.688  1.00  0.00     0.198 A 
ATOM     67  C   UNL A   1      39.045  34.282  36.868  1.00  0.00     0.198 A 
ATOM     68  F   UNL A   1      40.279  34.157  34.870  1.00  0.00    -0.203 F 
ATOM     69  F   UNL A   1      37.076  31.768  38.586  1.00  0.00    -0.200 F 
ATOM     70  C   UNL A   1      38.232  33.679  37.817  1.00  0.00     0.200 A 
ATOM     71  F   UNL A   1      39.386  35.571  36.996  1.00  0.00    -0.200 F 
ATOM     72  F   UNL A   1      37.771  34.393  38.853  1.00  0.00    -0.200 F 
ENDBRANCH  39  62
ENDBRANCH  13  14
ENDBRANCH   6   8
ENDBRANCH   5   6
ENDBRANCH   4   5
ENDBRANCH   3   4
ENDBRANCH   2   3
ENDBRANCH   1   2
BRANCH   1  73
ATOM     73  C   UNL A   1      37.950  21.202  25.500  1.00  0.00     0.188 C 
BRANCH  73  74
ATOM     74  O   UNL A   1      37.293  21.752  24.358  1.00  0.00    -0.376 OA
BRANCH  74  75
ATOM     75  C   UNL A   1      35.923  22.106  24.506  1.00  0.00     0.202 C 
BRANCH  75  76
ATOM     76  C   UNL A   1      34.936  20.988  24.867  1.00  0.00     0.261 C 
BRANCH  76  77
ATOM     77  O   UNL A   1      33.726  20.956  24.091  1.00  0.00    -0.460 OA
BRANCH  77  78
ATOM     78  C   UNL A   1      32.615  21.342  24.767  1.00  0.00     0.338 C 
ATOM     79  O   UNL A   1      31.844  20.610  25.381  1.00  0.00    -0.246 OA
BRANCH  78  80
ATOM     80  C   UNL A   1      32.323  22.779  24.568  1.00  0.00     0.060 A 
ATOM     81  C   UNL A   1      32.456  23.434  23.340  1.00  0.00     0.018 A 
ATOM     82  C   UNL A   1      31.916  23.503  25.690  1.00  0.00     0.018 A 
ATOM     83  C   UNL A   1      32.139  24.801  23.237  1.00  0.00     0.029 A 
ATOM     84  C   UNL A   1      31.619  24.862  25.585  1.00  0.00     0.029 A 
ATOM     85  C   UNL A   1      31.690  25.529  24.349  1.00  0.00     0.069 A 
BRANCH  85  86
ATOM     86  N   UNL A   1      31.218  26.879  24.262  1.00  0.00    -0.196 N 
ATOM     87  N   UNL A   1      29.891  26.981  23.862  1.00  0.00    -0.153 NA
ATOM     88  C   UNL A   1      32.043  27.993  24.465  1.00  0.00     0.271 A 
ATOM     89  C   UNL A   1      29.432  28.152  23.564  1.00  0.00     0.150 A 
ATOM     90  C   UNL A   1      31.483  29.288  24.003  1.00  0.00     0.077 A 
ATOM     91  O   UNL A   1      33.188  28.008  24.911  1.00  0.00    -0.267 OA
ATOM     92  Cl  UNL A   1      27.771  28.224  23.103  1.00  0.00    -0.060 Cl
ATOM     93  C   UNL A   1      30.231  29.385  23.557  1.00  0.00     0.049 A 
ENDBRANCH  85  86
ENDBRANCH  78  80
ENDBRANCH  77  78
ENDBRANCH  76  77
ENDBRANCH  75  76
ENDBRANCH  74  75
ENDBRANCH  73  74
ENDBRANCH   1  73
TORSDOF 18
ENDMDL
MODEL 3
REMARK VINA RESULT:     -10.9      1.242      7.463
REMARK SMILES O=C(OCCOCCOCCOC(=O)c1ccc(-n2nc(Cl)ccc2=O)cc1)c1ccc(-c2c3nc(c(-c4c(F)c(F)c(F)c(F)c4F)c4ccc([nH]4)c(-c4c(F)c(F)c(F)c(F)c4F)c4nc(c(-c5c(F)c(F)c(F)c(F)c5F)c5ccc2[nH]5)C=C4)C=C3)cc1
REMARK SMILES IDX 7 1 6 2 5 3 4 4 3 5 2 6 1 7 29 8 30 9 91 10 31 11 90 12
REMARK SMILES IDX 32 13 33 14 34 15 84 16 35 17 89 18 83 19 85 20 36 21 88 22
REMARK SMILES IDX 82 23 81 24 37 26 69 27 49 28 68 29 50 30 53 31 67 32 86 33
REMARK SMILES IDX 51 34 52 35 66 37 87 38 54 39 38 40 39 41 47 42 40 43 41 44
REMARK SMILES IDX 45 45 48 46 42 47 43 48 46 49 44 50 70 51 71 52 79 53 72 54
REMARK SMILES IDX 73 55 77 56 80 57 74 58 75 59 78 60 76 61 55 62 56 63 64 64
REMARK SMILES IDX 57 65 58 66 62 67 65 68 59 69 60 70 63 71 61 72 8 73 9 74
REMARK SMILES IDX 10 75 11 76 12 77 13 78 14 79 15 80 16 81 28 82 17 83 27 84
REMARK SMILES IDX 18 85 19 86 20 87 25 88 21 89 24 90 26 91 22 92 23 93
REMARK H PARENT 85 25 53 36
REMARK Flexibility Score: inf
ROOT
ATOM      1  C   UNL A   1      44.960  19.327  24.498  1.00  0.00     0.188 C 
ENDROOT
BRANCH   1   2
ATOM      2  O   UNL A   1      44.882  20.745  24.285  1.00  0.00    -0.376 OA
BRANCH   2   3
ATOM      3  C   UNL A   1      45.617  21.506  25.250  1.00  0.00     0.202 C 
BRANCH   3   4
ATOM      4  C   UNL A   1      45.858  22.973  24.864  1.00  0.00     0.261 C 
BRANCH   4   5
ATOM      5  O   UNL A   1      44.650  23.654  24.491  1.00  0.00    -0.460 OA
BRANCH   5   6
ATOM      6  C   UNL A   1      43.448  23.633  25.120  1.00  0.00     0.338 C 
ATOM      7  O   UNL A   1      42.614  22.805  24.758  1.00  0.00    -0.246 OA
BRANCH   6   8
ATOM      8  C   UNL A   1      43.072  24.555  26.240  1.00  0.00     0.060 A 
ATOM      9  C   UNL A   1      42.410  24.174  27.408  1.00  0.00     0.016 A 
ATOM     10  C   UNL A   1      43.484  25.896  26.138  1.00  0.00     0.016 A 
ATOM     11  C   UNL A   1      42.081  25.093  28.398  1.00  0.00     0.010 A 
ATOM     12  C   UNL A   1      43.212  26.817  27.160  1.00  0.00     0.010 A 
ATOM     13  C   UNL A   1      42.485  26.420  28.288  1.00  0.00    -0.014 A 
BRANCH  13  14
ATOM     14  C   UNL A   1      42.054  27.385  29.321  1.00  0.00     0.031 A 
ATOM     15  C   UNL A   1      42.907  27.556  30.540  1.00  0.00     0.074 A 
ATOM     16  C   UNL A   1      40.995  28.190  29.109  1.00  0.00     0.049 A 
ATOM     17  N   UNL A   1      42.690  28.275  31.608  1.00  0.00    -0.248 NA
ATOM     18  C   UNL A   1      44.205  26.857  30.536  1.00  0.00     0.031 C 
ATOM     19  C   UNL A   1      40.223  28.248  27.871  1.00  0.00     0.029 A 
ATOM     20  N   UNL A   1      40.395  29.126  29.911  1.00  0.00    -0.354 N 
ATOM     21  C   UNL A   1      43.820  28.118  32.399  1.00  0.00     0.074 A 
ATOM     22  C   UNL A   1      44.716  27.223  31.703  1.00  0.00     0.031 C 
ATOM     23  C   UNL A   1      39.240  29.154  27.997  1.00  0.00     0.029 A 
ATOM     24  C   UNL A   1      39.266  29.682  29.354  1.00  0.00     0.049 A 
ATOM     25  H   UNL A   1      40.738  29.376  30.800  1.00  0.00     0.167 HD
ATOM     26  C   UNL A   1      44.076  28.687  33.598  1.00  0.00     0.037 A 
ATOM     27  C   UNL A   1      38.323  30.468  29.909  1.00  0.00     0.037 A 
ATOM     28  C   UNL A   1      43.167  29.580  34.262  1.00  0.00     0.049 A 
ATOM     29  C   UNL A   1      38.493  30.831  31.357  1.00  0.00     0.074 A 
ATOM     30  C   UNL A   1      43.312  30.222  35.476  1.00  0.00     0.029 A 
ATOM     31  N   UNL A   1      41.926  29.944  33.757  1.00  0.00    -0.354 N 
ATOM     32  N   UNL A   1      39.530  30.637  32.137  1.00  0.00    -0.248 NA
ATOM     33  C   UNL A   1      37.353  31.476  32.019  1.00  0.00     0.031 C 
ATOM     34  C   UNL A   1      42.132  30.930  35.733  1.00  0.00     0.029 A 
ATOM     35  C   UNL A   1      41.270  30.760  34.661  1.00  0.00     0.049 A 
ATOM     36  H   UNL A   1      41.566  29.664  32.884  1.00  0.00     0.167 HD
ATOM     37  C   UNL A   1      39.192  31.186  33.362  1.00  0.00     0.074 A 
ATOM     38  C   UNL A   1      37.842  31.699  33.230  1.00  0.00     0.031 C 
ATOM     39  C   UNL A   1      39.936  31.274  34.491  1.00  0.00     0.037 A 
BRANCH  26  40
ATOM     40  C   UNL A   1      45.356  28.321  34.281  1.00  0.00     0.064 A 
ATOM     41  C   UNL A   1      46.559  28.992  34.014  1.00  0.00     0.173 A 
ATOM     42  C   UNL A   1      45.374  27.292  35.234  1.00  0.00     0.173 A 
ATOM     43  F   UNL A   1      46.598  29.967  33.093  1.00  0.00    -0.203 F 
ATOM     44  C   UNL A   1      47.735  28.638  34.671  1.00  0.00     0.198 A 
ATOM     45  C   UNL A   1      46.547  26.953  35.902  1.00  0.00     0.198 A 
ATOM     46  F   UNL A   1      44.250  26.615  35.517  1.00  0.00    -0.203 F 
ATOM     47  F   UNL A   1      48.881  29.269  34.378  1.00  0.00    -0.200 F 
ATOM     48  C   UNL A   1      47.727  27.623  35.618  1.00  0.00     0.200 A 
ATOM     49  F   UNL A   1      46.535  25.976  36.818  1.00  0.00    -0.200 F 
ATOM     50  F   UNL A   1      48.858  27.287  36.252  1.00  0.00    -0.200 F 
ENDBRANCH  26  40
BRANCH  27  51
ATOM     51  C   UNL A   1      37.084  30.834  29.167  1.00  0.00     0.064 A 
ATOM     52  C   UNL A   1      36.115  29.892  28.799  1.00  0.00     0.173 A 
ATOM     53  C   UNL A   1      36.888  32.151  28.731  1.00  0.00     0.173 A 
ATOM     54  F   UNL A   1      36.273  28.604  29.137  1.00  0.00    -0.203 F 
ATOM     55  C   UNL A   1      35.014  30.256  28.020  1.00  0.00     0.198 A 
ATOM     56  C   UNL A   1      35.766  32.527  27.998  1.00  0.00     0.198 A 
ATOM     57  F   UNL A   1      37.820  33.072  28.998  1.00  0.00    -0.203 F 
ATOM     58  F   UNL A   1      34.142  29.320  27.618  1.00  0.00    -0.200 F 
ATOM     59  C   UNL A   1      34.835  31.575  27.629  1.00  0.00     0.200 A 
ATOM     60  F   UNL A   1      35.603  33.804  27.631  1.00  0.00    -0.200 F 
ATOM     61  F   UNL A   1      33.783  31.921  26.875  1.00  0.00    -0.200 F 
ENDBRANCH  27  51
BRANCH  39  62
ATOM     62  C   UNL A   1      39.330  32.019  35.636  1.00  0.00     0.064 A 
ATOM     63  C   UNL A   1      38.500  31.385  36.570  1.00  0.00     0.173 A 
ATOM     64  C   UNL A   1      39.607  33.382  35.810  1.00  0.00     0.173 A 
ATOM     65  F   UNL A   1      38.185  30.089  36.423  1.00  0.00    -0.203 F 
ATOM     66  C   UNL A   1      37.953  32.098  37.632  1.00  0.00     0.198 A 
ATOM     67  C   UNL A   1      39.083  34.084  36.888  1.00  0.00     0.198 A 
ATOM     68  F   UNL A   1      40.396  34.028  34.937  1.00  0.00    -0.203 F 
ATOM     69  F   UNL A   1      37.124  31.487  38.488  1.00  0.00    -0.200 F 
ATOM     70  C   UNL A   1      38.252  33.443  37.795  1.00  0.00     0.200 A 
ATOM     71  F   UNL A   1      39.380  35.381  37.048  1.00  0.00    -0.200 F 
ATOM     72  F   UNL A   1      37.730  34.126  38.822  1.00  0.00    -0.200 F 
ENDBRANCH  39  62
ENDBRANCH  13  14
ENDBRANCH   6   8
ENDBRANCH   5   6
ENDBRANCH   4   5
ENDBRANCH   3   4
ENDBRANCH   2   3
ENDBRANCH   1   2
BRANCH   1  73
ATOM     73  C   UNL A   1      43.801  18.821  25.361  1.00  0.00     0.188 C 
BRANCH  73  74
ATOM     74  O   UNL A   1      42.509  19.339  25.043  1.00  0.00    -0.376 OA
BRANCH  74  75
ATOM     75  C   UNL A   1      41.514  19.266  26.058  1.00  0.00     0.202 C 
BRANCH  75  76
ATOM     76  C   UNL A   1      40.898  20.585  26.543  1.00  0.00     0.261 C 
BRANCH  76  77
ATOM     77  O   UNL A   1      39.705  21.001  25.857  1.00  0.00    -0.460 OA
BRANCH  77  78
ATOM     78  C   UNL A   1      39.151  22.143  26.335  1.00  0.00     0.338 C 
ATOM     79  O   UNL A   1      39.614  22.865  27.213  1.00  0.00    -0.246 OA
BRANCH  78  80
ATOM     80  C   UNL A   1      37.802  22.375  25.773  1.00  0.00     0.060 A 
ATOM     81  C   UNL A   1      36.967  21.353  25.314  1.00  0.00     0.018 A 
ATOM     82  C   UNL A   1      37.372  23.702  25.688  1.00  0.00     0.018 A 
ATOM     83  C   UNL A   1      35.690  21.663  24.812  1.00  0.00     0.029 A 
ATOM     84  C   UNL A   1      36.111  24.004  25.174  1.00  0.00     0.029 A 
ATOM     85  C   UNL A   1      35.231  22.988  24.759  1.00  0.00     0.069 A 
BRANCH  85  86
ATOM     86  N   UNL A   1      33.891  23.339  24.394  1.00  0.00    -0.196 N 
ATOM     87  N   UNL A   1      32.933  22.892  25.296  1.00  0.00    -0.153 NA
ATOM     88  C   UNL A   1      33.569  23.984  23.193  1.00  0.00     0.271 A 
ATOM     89  C   UNL A   1      31.688  22.984  24.959  1.00  0.00     0.150 A 
ATOM     90  C   UNL A   1      32.131  23.958  22.827  1.00  0.00     0.077 A 
ATOM     91  O   UNL A   1      34.340  24.500  22.388  1.00  0.00    -0.267 OA
ATOM     92  Cl  UNL A   1      30.541  22.443  26.128  1.00  0.00    -0.060 Cl
ATOM     93  C   UNL A   1      31.209  23.474  23.659  1.00  0.00     0.049 A 
ENDBRANCH  85  86
ENDBRANCH  78  80
ENDBRANCH  77  78
ENDBRANCH  76  77
ENDBRANCH  75  76
ENDBRANCH  74  75
ENDBRANCH  73  74
ENDBRANCH   1  73
TORSDOF 18
ENDMDL
