MODEL 1
REMARK VINA RESULT:     -11.0      0.000      0.000
REMARK SMILES Nc1cccc(C(=O)N[C@@H]2C=C[C@@H](C(=O)OCCOCCOCCOC(=O)c3ccc(-c4c5nc(c(-c6c(F)c(F)c(F)c(F)c6F)c6ccc([nH]6)c(-c6c(F)c(F)c(F)c(F)c6F)c6nc(c(-c7c(F)c(F)c(F)c(F)c7F)c7ccc4[nH]7)C=C6)C=C5)cc3)C2)c1
REMARK SMILES IDX 20 1 19 2 18 3 17 4 16 5 14 6 15 7 13 8 10 9 11 10 91 11
REMARK SMILES IDX 12 12 9 13 7 14 8 15 6 17 2 18 3 19 92 20 4 21 5 22 1 23
REMARK SMILES IDX 21 26 22 27 23 28 24 29 25 30 26 31 27 32 28 33 29 34 90 35
REMARK SMILES IDX 30 36 89 37 31 38 32 39 33 40 83 41 34 42 88 43 82 44 84 45
REMARK SMILES IDX 35 46 87 47 81 48 80 49 36 51 68 52 48 53 67 54 49 55 52 56
REMARK SMILES IDX 66 57 85 58 50 59 51 60 65 62 86 63 53 64 37 65 38 66 46 67
REMARK SMILES IDX 39 68 40 69 44 70 47 71 41 72 42 73 45 74 43 75 69 76 70 77
REMARK SMILES IDX 78 78 71 79 72 80 76 81 79 82 73 83 74 84 77 85 75 86 54 87
REMARK SMILES IDX 55 88 63 89 56 90 57 91 61 92 64 93 58 94 59 95 62 96 60 97
REMARK H PARENT 9 16 1 24 1 25 84 50 52 61
REMARK Flexibility Score: inf
ROOT
ATOM      1  C   UNL A   1      37.850  21.662  25.818  1.00  0.00     0.188 C 
ENDROOT
BRANCH   1   2
ATOM      2  O   UNL A   1      37.077  21.591  24.628  1.00  0.00    -0.376 OA
BRANCH   2   3
ATOM      3  C   UNL A   1      35.916  22.401  24.480  1.00  0.00     0.202 C 
BRANCH   3   4
ATOM      4  C   UNL A   1      34.538  21.750  24.258  1.00  0.00     0.261 C 
BRANCH   4   5
ATOM      5  O   UNL A   1      33.979  21.100  25.416  1.00  0.00    -0.463 OA
BRANCH   5   6
ATOM      6  C   UNL A   1      32.642  20.872  25.384  1.00  0.00     0.312 C 
ATOM      7  O   UNL A   1      32.139  19.805  25.040  1.00  0.00    -0.252 OA
BRANCH   6   8
ATOM      8  C   UNL A   1      31.808  22.014  25.981  1.00  0.00     0.124 C 
ATOM      9  C   UNL A   1      32.331  24.445  25.966  1.00  0.00     0.106 C 
ATOM     10  C   UNL A   1      31.467  24.025  24.830  1.00  0.00    -0.006 C 
ATOM     11  C   UNL A   1      32.480  23.153  26.779  1.00  0.00     0.048 C 
ATOM     12  C   UNL A   1      31.168  22.729  24.843  1.00  0.00    -0.014 C 
BRANCH   9  13
ATOM     13  N   UNL A   1      31.711  25.546  26.694  1.00  0.00    -0.346 N 
ATOM     14  C   UNL A   1      31.683  26.895  26.382  1.00  0.00     0.251 C 
ATOM     15  O   UNL A   1      31.075  27.684  27.100  1.00  0.00    -0.269 OA
ATOM     16  H   UNL A   1      31.247  25.295  27.525  1.00  0.00     0.164 HD
BRANCH  14  17
ATOM     17  C   UNL A   1      32.279  27.357  25.104  1.00  0.00     0.041 A 
ATOM     18  C   UNL A   1      31.952  28.705  23.134  1.00  0.00     0.032 A 
ATOM     19  C   UNL A   1      33.328  28.925  23.075  1.00  0.00     0.025 A 
ATOM     20  C   UNL A   1      31.461  27.786  24.056  1.00  0.00     0.039 A 
ATOM     21  C   UNL A   1      34.186  28.341  24.013  1.00  0.00     0.003 A 
ATOM     22  C   UNL A   1      33.656  27.585  25.058  1.00  0.00     0.014 A 
BRANCH  18  23
ATOM     23  N   UNL A   1      31.082  29.349  22.266  1.00  0.00    -0.399 N 
ATOM     24  H   UNL A   1      31.117  29.155  21.301  1.00  0.00     0.156 HD
ATOM     25  H   UNL A   1      30.430  29.999  22.614  1.00  0.00     0.156 HD
ENDBRANCH  18  23
ENDBRANCH  14  17
ENDBRANCH   9  13
ENDBRANCH   6   8
ENDBRANCH   5   6
ENDBRANCH   4   5
ENDBRANCH   3   4
ENDBRANCH   2   3
ENDBRANCH   1   2
BRANCH   1  26
ATOM     26  C   UNL A   1      39.386  21.589  25.744  1.00  0.00     0.188 C 
BRANCH  26  27
ATOM     27  O   UNL A   1      39.991  20.726  26.668  1.00  0.00    -0.376 OA
BRANCH  27  28
ATOM     28  C   UNL A   1      41.081  19.926  26.248  1.00  0.00     0.202 C 
BRANCH  28  29
ATOM     29  C   UNL A   1      42.510  20.477  26.056  1.00  0.00     0.261 C 
BRANCH  29  30
ATOM     30  O   UNL A   1      42.827  21.765  26.607  1.00  0.00    -0.460 OA
BRANCH  30  31
ATOM     31  C   UNL A   1      42.847  22.821  25.760  1.00  0.00     0.338 C 
ATOM     32  O   UNL A   1      42.994  22.786  24.547  1.00  0.00    -0.246 OA
BRANCH  31  33
ATOM     33  C   UNL A   1      42.413  24.022  26.512  1.00  0.00     0.060 A 
ATOM     34  C   UNL A   1      43.004  25.262  26.223  1.00  0.00     0.016 A 
ATOM     35  C   UNL A   1      41.420  23.931  27.489  1.00  0.00     0.016 A 
ATOM     36  C   UNL A   1      42.619  26.409  26.922  1.00  0.00     0.010 A 
ATOM     37  C   UNL A   1      41.058  25.075  28.208  1.00  0.00     0.010 A 
ATOM     38  C   UNL A   1      41.673  26.315  27.949  1.00  0.00    -0.014 A 
BRANCH  38  39
ATOM     39  C   UNL A   1      41.459  27.454  28.880  1.00  0.00     0.031 A 
ATOM     40  C   UNL A   1      42.379  27.587  30.065  1.00  0.00     0.074 A 
ATOM     41  C   UNL A   1      40.466  28.343  28.699  1.00  0.00     0.049 A 
ATOM     42  N   UNL A   1      42.323  28.416  31.076  1.00  0.00    -0.248 NA
ATOM     43  C   UNL A   1      43.514  26.650  30.118  1.00  0.00     0.031 C 
ATOM     44  C   UNL A   1      39.533  28.353  27.575  1.00  0.00     0.029 A 
ATOM     45  N   UNL A   1      40.063  29.400  29.481  1.00  0.00    -0.354 N 
ATOM     46  C   UNL A   1      43.394  28.083  31.895  1.00  0.00     0.074 A 
ATOM     47  C   UNL A   1      44.079  26.971  31.272  1.00  0.00     0.031 C 
ATOM     48  C   UNL A   1      38.646  29.348  27.756  1.00  0.00     0.029 A 
ATOM     49  C   UNL A   1      38.923  30.018  29.027  1.00  0.00     0.049 A 
ATOM     50  H   UNL A   1      40.546  29.687  30.290  1.00  0.00     0.167 HD
ATOM     51  C   UNL A   1      43.770  28.652  33.064  1.00  0.00     0.037 A 
ATOM     52  C   UNL A   1      38.169  30.983  29.593  1.00  0.00     0.037 A 
ATOM     53  C   UNL A   1      43.101  29.771  33.674  1.00  0.00     0.049 A 
ATOM     54  C   UNL A   1      38.581  31.562  30.926  1.00  0.00     0.074 A 
ATOM     55  C   UNL A   1      43.442  30.450  34.831  1.00  0.00     0.029 A 
ATOM     56  N   UNL A   1      41.948  30.365  33.185  1.00  0.00    -0.354 N 
ATOM     57  N   UNL A   1      39.620  31.273  31.673  1.00  0.00    -0.248 NA
ATOM     58  C   UNL A   1      37.714  32.606  31.496  1.00  0.00     0.031 C 
ATOM     59  C   UNL A   1      42.457  31.407  35.081  1.00  0.00     0.029 A 
ATOM     60  C   UNL A   1      41.543  31.377  34.041  1.00  0.00     0.049 A 
ATOM     61  H   UNL A   1      41.487  30.107  32.355  1.00  0.00     0.167 HD
ATOM     62  C   UNL A   1      39.550  32.119  32.774  1.00  0.00     0.074 A 
ATOM     63  C   UNL A   1      38.377  32.945  32.593  1.00  0.00     0.031 C 
ATOM     64  C   UNL A   1      40.382  32.205  33.841  1.00  0.00     0.037 A 
BRANCH  51  65
ATOM     65  C   UNL A   1      44.940  28.060  33.794  1.00  0.00     0.064 A 
ATOM     66  C   UNL A   1      46.255  28.486  33.561  1.00  0.00     0.173 A 
ATOM     67  C   UNL A   1      44.725  27.105  34.800  1.00  0.00     0.173 A 
ATOM     68  F   UNL A   1      46.515  29.386  32.602  1.00  0.00    -0.203 F 
ATOM     69  C   UNL A   1      47.314  27.969  34.304  1.00  0.00     0.198 A 
ATOM     70  C   UNL A   1      45.783  26.614  35.560  1.00  0.00     0.198 A 
ATOM     71  F   UNL A   1      43.485  26.666  35.064  1.00  0.00    -0.203 F 
ATOM     72  F   UNL A   1      48.568  28.366  34.045  1.00  0.00    -0.200 F 
ATOM     73  C   UNL A   1      47.076  27.044  35.310  1.00  0.00     0.200 A 
ATOM     74  F   UNL A   1      45.547  25.733  36.542  1.00  0.00    -0.200 F 
ATOM     75  F   UNL A   1      48.094  26.566  36.038  1.00  0.00    -0.200 F 
ENDBRANCH  51  65
BRANCH  52  76
ATOM     76  C   UNL A   1      36.914  31.443  28.935  1.00  0.00     0.064 A 
ATOM     77  C   UNL A   1      36.782  32.754  28.451  1.00  0.00     0.173 A 
ATOM     78  C   UNL A   1      35.795  30.602  28.841  1.00  0.00     0.173 A 
ATOM     79  F   UNL A   1      37.812  33.608  28.545  1.00  0.00    -0.203 F 
ATOM     80  C   UNL A   1      35.572  33.214  27.934  1.00  0.00     0.198 A 
ATOM     81  C   UNL A   1      34.596  31.053  28.290  1.00  0.00     0.198 A 
ATOM     82  F   UNL A   1      35.861  29.342  29.293  1.00  0.00    -0.203 F 
ATOM     83  F   UNL A   1      35.454  34.492  27.551  1.00  0.00    -0.200 F 
ATOM     84  C   UNL A   1      34.482  32.363  27.851  1.00  0.00     0.200 A 
ATOM     85  F   UNL A   1      33.548  30.222  28.201  1.00  0.00    -0.200 F 
ATOM     86  F   UNL A   1      33.316  32.808  27.363  1.00  0.00    -0.200 F 
ENDBRANCH  52  76
BRANCH  64  87
ATOM     87  C   UNL A   1      40.092  33.261  34.872  1.00  0.00     0.064 A 
ATOM     88  C   UNL A   1      40.591  34.566  34.760  1.00  0.00     0.173 A 
ATOM     89  C   UNL A   1      39.257  32.971  35.965  1.00  0.00     0.173 A 
ATOM     90  F   UNL A   1      41.401  34.895  33.742  1.00  0.00    -0.203 F 
ATOM     91  C   UNL A   1      40.291  35.533  35.718  1.00  0.00     0.198 A 
ATOM     92  C   UNL A   1      38.930  33.949  36.899  1.00  0.00     0.198 A 
ATOM     93  F   UNL A   1      38.743  31.741  36.115  1.00  0.00    -0.203 F 
ATOM     94  F   UNL A   1      40.823  36.760  35.618  1.00  0.00    -0.200 F 
ATOM     95  C   UNL A   1      39.455  35.227  36.780  1.00  0.00     0.200 A 
ATOM     96  F   UNL A   1      38.106  33.655  37.914  1.00  0.00    -0.200 F 
ATOM     97  F   UNL A   1      39.158  36.161  37.694  1.00  0.00    -0.200 F 
ENDBRANCH  64  87
ENDBRANCH  38  39
ENDBRANCH  31  33
ENDBRANCH  30  31
ENDBRANCH  29  30
ENDBRANCH  28  29
ENDBRANCH  27  28
ENDBRANCH  26  27
ENDBRANCH   1  26
TORSDOF 20
ENDMDL
MODEL 2
REMARK VINA RESULT:     -10.8      4.223      8.112
REMARK SMILES Nc1cccc(C(=O)N[C@@H]2C=C[C@@H](C(=O)OCCOCCOCCOC(=O)c3ccc(-c4c5nc(c(-c6c(F)c(F)c(F)c(F)c6F)c6ccc([nH]6)c(-c6c(F)c(F)c(F)c(F)c6F)c6nc(c(-c7c(F)c(F)c(F)c(F)c7F)c7ccc4[nH]7)C=C6)C=C5)cc3)C2)c1
REMARK SMILES IDX 20 1 19 2 18 3 17 4 16 5 14 6 15 7 13 8 10 9 11 10 91 11
REMARK SMILES IDX 12 12 9 13 7 14 8 15 6 17 2 18 3 19 92 20 4 21 5 22 1 23
REMARK SMILES IDX 21 26 22 27 23 28 24 29 25 30 26 31 27 32 28 33 29 34 90 35
REMARK SMILES IDX 30 36 89 37 31 38 32 39 33 40 83 41 34 42 88 43 82 44 84 45
REMARK SMILES IDX 35 46 87 47 81 48 80 49 36 51 68 52 48 53 67 54 49 55 52 56
REMARK SMILES IDX 66 57 85 58 50 59 51 60 65 62 86 63 53 64 37 65 38 66 46 67
REMARK SMILES IDX 39 68 40 69 44 70 47 71 41 72 42 73 45 74 43 75 69 76 70 77
REMARK SMILES IDX 78 78 71 79 72 80 76 81 79 82 73 83 74 84 77 85 75 86 54 87
REMARK SMILES IDX 55 88 63 89 56 90 57 91 61 92 64 93 58 94 59 95 62 96 60 97
REMARK H PARENT 9 16 1 24 1 25 84 50 52 61
REMARK Flexibility Score: inf
ROOT
ATOM      1  C   UNL A   1      34.036  16.552  23.673  1.00  0.00     0.188 C 
ENDROOT
BRANCH   1   2
ATOM      2  O   UNL A   1      33.578  17.330  22.576  1.00  0.00    -0.376 OA
BRANCH   2   3
ATOM      3  C   UNL A   1      32.370  18.075  22.681  1.00  0.00     0.202 C 
BRANCH   3   4
ATOM      4  C   UNL A   1      32.156  19.047  23.856  1.00  0.00     0.261 C 
BRANCH   4   5
ATOM      5  O   UNL A   1      33.021  20.199  23.858  1.00  0.00    -0.463 OA
BRANCH   5   6
ATOM      6  C   UNL A   1      32.488  21.344  24.353  1.00  0.00     0.312 C 
ATOM      7  O   UNL A   1      32.494  21.641  25.544  1.00  0.00    -0.252 OA
BRANCH   6   8
ATOM      8  C   UNL A   1      32.023  22.325  23.268  1.00  0.00     0.124 C 
ATOM      9  C   UNL A   1      31.901  24.805  23.415  1.00  0.00     0.106 C 
ATOM     10  C   UNL A   1      33.178  24.315  22.827  1.00  0.00    -0.006 C 
ATOM     11  C   UNL A   1      31.100  23.513  23.617  1.00  0.00     0.048 C 
ATOM     12  C   UNL A   1      33.241  22.990  22.728  1.00  0.00    -0.014 C 
BRANCH   9  13
ATOM     13  N   UNL A   1      31.271  25.771  22.523  1.00  0.00    -0.346 N 
ATOM     14  C   UNL A   1      31.096  27.134  22.693  1.00  0.00     0.251 C 
ATOM     15  O   UNL A   1      30.569  27.806  21.810  1.00  0.00    -0.269 OA
ATOM     16  H   UNL A   1      30.919  25.402  21.681  1.00  0.00     0.164 HD
BRANCH  14  17
ATOM     17  C   UNL A   1      31.670  27.796  23.890  1.00  0.00     0.041 A 
ATOM     18  C   UNL A   1      31.823  27.764  26.294  1.00  0.00     0.032 A 
ATOM     19  C   UNL A   1      33.096  28.329  26.205  1.00  0.00     0.025 A 
ATOM     20  C   UNL A   1      31.058  27.657  25.138  1.00  0.00     0.039 A 
ATOM     21  C   UNL A   1      33.648  28.653  24.961  1.00  0.00     0.003 A 
ATOM     22  C   UNL A   1      32.949  28.350  23.794  1.00  0.00     0.014 A 
BRANCH  18  23
ATOM     23  N   UNL A   1      31.301  27.355  27.513  1.00  0.00    -0.399 N 
ATOM     24  H   UNL A   1      31.549  26.478  27.884  1.00  0.00     0.156 HD
ATOM     25  H   UNL A   1      30.684  27.942  28.006  1.00  0.00     0.156 HD
ENDBRANCH  18  23
ENDBRANCH  14  17
ENDBRANCH   9  13
ENDBRANCH   6   8
ENDBRANCH   5   6
ENDBRANCH   4   5
ENDBRANCH   3   4
ENDBRANCH   2   3
ENDBRANCH   1   2
BRANCH   1  26
ATOM     26  C   UNL A   1      35.073  17.135  24.649  1.00  0.00     0.188 C 
BRANCH  26  27
ATOM     27  O   UNL A   1      35.577  18.398  24.306  1.00  0.00    -0.376 OA
BRANCH  27  28
ATOM     28  C   UNL A   1      36.714  18.892  24.989  1.00  0.00     0.202 C 
BRANCH  28  29
ATOM     29  C   UNL A   1      37.418  20.214  24.615  1.00  0.00     0.261 C 
BRANCH  29  30
ATOM     30  O   UNL A   1      37.930  21.040  25.673  1.00  0.00    -0.460 OA
BRANCH  30  31
ATOM     31  C   UNL A   1      39.185  20.791  26.111  1.00  0.00     0.338 C 
ATOM     32  O   UNL A   1      39.834  19.768  25.938  1.00  0.00    -0.246 OA
BRANCH  31  33
ATOM     33  C   UNL A   1      39.752  22.058  26.629  1.00  0.00     0.060 A 
ATOM     34  C   UNL A   1      39.257  23.279  26.145  1.00  0.00     0.016 A 
ATOM     35  C   UNL A   1      40.758  22.046  27.597  1.00  0.00     0.016 A 
ATOM     36  C   UNL A   1      39.779  24.489  26.611  1.00  0.00     0.010 A 
ATOM     37  C   UNL A   1      41.300  23.257  28.040  1.00  0.00     0.010 A 
ATOM     38  C   UNL A   1      40.834  24.484  27.532  1.00  0.00    -0.014 A 
BRANCH  38  39
ATOM     39  C   UNL A   1      41.582  25.736  27.823  1.00  0.00     0.031 A 
ATOM     40  C   UNL A   1      40.865  26.841  28.551  1.00  0.00     0.074 A 
ATOM     41  C   UNL A   1      42.861  25.904  27.438  1.00  0.00     0.049 A 
ATOM     42  N   UNL A   1      41.258  28.061  28.813  1.00  0.00    -0.248 NA
ATOM     43  C   UNL A   1      39.514  26.526  29.047  1.00  0.00     0.031 C 
ATOM     44  C   UNL A   1      43.682  24.902  26.765  1.00  0.00     0.029 A 
ATOM     45  N   UNL A   1      43.683  27.001  27.542  1.00  0.00    -0.354 N 
ATOM     46  C   UNL A   1      40.197  28.665  29.475  1.00  0.00     0.074 A 
ATOM     47  C   UNL A   1      39.138  27.684  29.568  1.00  0.00     0.031 C 
ATOM     48  C   UNL A   1      44.883  25.441  26.487  1.00  0.00     0.029 A 
ATOM     49  C   UNL A   1      44.901  26.837  26.925  1.00  0.00     0.049 A 
ATOM     50  H   UNL A   1      43.426  27.826  28.013  1.00  0.00     0.167 HD
ATOM     51  C   UNL A   1      40.113  29.927  29.958  1.00  0.00     0.037 A 
ATOM     52  C   UNL A   1      45.894  27.723  26.704  1.00  0.00     0.037 A 
ATOM     53  C   UNL A   1      41.174  30.896  29.883  1.00  0.00     0.049 A 
ATOM     54  C   UNL A   1      45.750  29.140  27.207  1.00  0.00     0.074 A 
ATOM     55  C   UNL A   1      41.201  32.182  30.394  1.00  0.00     0.029 A 
ATOM     56  N   UNL A   1      42.389  30.692  29.247  1.00  0.00    -0.354 N 
ATOM     57  N   UNL A   1      44.762  29.691  27.871  1.00  0.00    -0.248 NA
ATOM     58  C   UNL A   1      46.863  30.062  26.928  1.00  0.00     0.031 C 
ATOM     59  C   UNL A   1      42.401  32.781  30.005  1.00  0.00     0.029 A 
ATOM     60  C   UNL A   1      43.155  31.845  29.318  1.00  0.00     0.049 A 
ATOM     61  H   UNL A   1      42.665  29.854  28.811  1.00  0.00     0.167 HD
ATOM     62  C   UNL A   1      45.151  31.004  28.119  1.00  0.00     0.074 A 
ATOM     63  C   UNL A   1      46.469  31.165  27.549  1.00  0.00     0.031 C 
ATOM     64  C   UNL A   1      44.475  31.988  28.762  1.00  0.00     0.037 A 
BRANCH  51  65
ATOM     65  C   UNL A   1      38.820  30.359  30.584  1.00  0.00     0.064 A 
ATOM     66  C   UNL A   1      38.622  30.339  31.972  1.00  0.00     0.173 A 
ATOM     67  C   UNL A   1      37.792  30.874  29.780  1.00  0.00     0.173 A 
ATOM     68  F   UNL A   1      39.568  29.844  32.784  1.00  0.00    -0.203 F 
ATOM     69  C   UNL A   1      37.437  30.814  32.530  1.00  0.00     0.198 A 
ATOM     70  C   UNL A   1      36.622  31.374  30.344  1.00  0.00     0.198 A 
ATOM     71  F   UNL A   1      37.932  30.916  28.446  1.00  0.00    -0.203 F 
ATOM     72  F   UNL A   1      37.254  30.758  33.857  1.00  0.00    -0.200 F 
ATOM     73  C   UNL A   1      36.444  31.341  31.718  1.00  0.00     0.200 A 
ATOM     74  F   UNL A   1      35.672  31.898  29.557  1.00  0.00    -0.200 F 
ATOM     75  F   UNL A   1      35.315  31.817  32.259  1.00  0.00    -0.200 F 
ENDBRANCH  51  65
BRANCH  52  76
ATOM     76  C   UNL A   1      47.103  27.323  25.931  1.00  0.00     0.064 A 
ATOM     77  C   UNL A   1      48.216  26.748  26.563  1.00  0.00     0.173 A 
ATOM     78  C   UNL A   1      47.198  27.575  24.554  1.00  0.00     0.173 A 
ATOM     79  F   UNL A   1      48.189  26.515  27.884  1.00  0.00    -0.203 F 
ATOM     80  C   UNL A   1      49.386  26.475  25.856  1.00  0.00     0.198 A 
ATOM     81  C   UNL A   1      48.356  27.267  23.841  1.00  0.00     0.198 A 
ATOM     82  F   UNL A   1      46.168  28.129  23.899  1.00  0.00    -0.203 F 
ATOM     83  F   UNL A   1      50.459  25.998  26.502  1.00  0.00    -0.200 F 
ATOM     84  C   UNL A   1      49.454  26.731  24.496  1.00  0.00     0.200 A 
ATOM     85  F   UNL A   1      48.412  27.506  22.524  1.00  0.00    -0.200 F 
ATOM     86  F   UNL A   1      50.582  26.478  23.819  1.00  0.00    -0.200 F 
ENDBRANCH  52  76
BRANCH  64  87
ATOM     87  C   UNL A   1      45.165  33.313  28.934  1.00  0.00     0.064 A 
ATOM     88  C   UNL A   1      44.998  34.362  28.018  1.00  0.00     0.173 A 
ATOM     89  C   UNL A   1      45.966  33.552  30.063  1.00  0.00     0.173 A 
ATOM     90  F   UNL A   1      44.252  34.185  26.917  1.00  0.00    -0.203 F 
ATOM     91  C   UNL A   1      45.631  35.588  28.211  1.00  0.00     0.198 A 
ATOM     92  C   UNL A   1      46.567  34.790  30.270  1.00  0.00     0.198 A 
ATOM     93  F   UNL A   1      46.151  32.587  30.977  1.00  0.00    -0.203 F 
ATOM     94  F   UNL A   1      45.499  36.558  27.294  1.00  0.00    -0.200 F 
ATOM     95  C   UNL A   1      46.406  35.804  29.339  1.00  0.00     0.200 A 
ATOM     96  F   UNL A   1      47.300  35.001  31.372  1.00  0.00    -0.200 F 
ATOM     97  F   UNL A   1      47.005  36.988  29.528  1.00  0.00    -0.200 F 
ENDBRANCH  64  87
ENDBRANCH  38  39
ENDBRANCH  31  33
ENDBRANCH  30  31
ENDBRANCH  29  30
ENDBRANCH  28  29
ENDBRANCH  27  28
ENDBRANCH  26  27
ENDBRANCH   1  26
TORSDOF 20
ENDMDL
MODEL 3
REMARK VINA RESULT:     -10.6      3.339      8.936
REMARK SMILES Nc1cccc(C(=O)N[C@@H]2C=C[C@@H](C(=O)OCCOCCOCCOC(=O)c3ccc(-c4c5nc(c(-c6c(F)c(F)c(F)c(F)c6F)c6ccc([nH]6)c(-c6c(F)c(F)c(F)c(F)c6F)c6nc(c(-c7c(F)c(F)c(F)c(F)c7F)c7ccc4[nH]7)C=C6)C=C5)cc3)C2)c1
REMARK SMILES IDX 20 1 19 2 18 3 17 4 16 5 14 6 15 7 13 8 10 9 11 10 91 11
REMARK SMILES IDX 12 12 9 13 7 14 8 15 6 17 2 18 3 19 92 20 4 21 5 22 1 23
REMARK SMILES IDX 21 26 22 27 23 28 24 29 25 30 26 31 27 32 28 33 29 34 90 35
REMARK SMILES IDX 30 36 89 37 31 38 32 39 33 40 83 41 34 42 88 43 82 44 84 45
REMARK SMILES IDX 35 46 87 47 81 48 80 49 36 51 68 52 48 53 67 54 49 55 52 56
REMARK SMILES IDX 66 57 85 58 50 59 51 60 65 62 86 63 53 64 37 65 38 66 46 67
REMARK SMILES IDX 39 68 40 69 44 70 47 71 41 72 42 73 45 74 43 75 69 76 70 77
REMARK SMILES IDX 78 78 71 79 72 80 76 81 79 82 73 83 74 84 77 85 75 86 54 87
REMARK SMILES IDX 55 88 63 89 56 90 57 91 61 92 64 93 58 94 59 95 62 96 60 97
REMARK H PARENT 9 16 1 24 1 25 84 50 52 61
REMARK Flexibility Score: inf
ROOT
ATOM      1  C   UNL A   1      32.709  27.873  27.024  1.00  0.00     0.188 C 
ENDROOT
BRANCH   1   2
ATOM      2  O   UNL A   1      33.497  26.826  26.473  1.00  0.00    -0.376 OA
BRANCH   2   3
ATOM      3  C   UNL A   1      33.011  25.489  26.473  1.00  0.00     0.202 C 
BRANCH   3   4
ATOM      4  C   UNL A   1      32.998  24.665  25.172  1.00  0.00     0.261 C 
BRANCH   4   5
ATOM      5  O   UNL A   1      33.769  25.224  24.091  1.00  0.00    -0.463 OA
BRANCH   5   6
ATOM      6  C   UNL A   1      33.228  26.300  23.467  1.00  0.00     0.312 C 
ATOM      7  O   UNL A   1      33.891  27.214  22.984  1.00  0.00    -0.252 OA
BRANCH   6   8
ATOM      8  C   UNL A   1      31.710  26.197  23.265  1.00  0.00     0.124 C 
ATOM      9  C   UNL A   1      30.043  28.042  23.309  1.00  0.00     0.106 C 
ATOM     10  C   UNL A   1      30.535  27.730  21.939  1.00  0.00    -0.006 C 
ATOM     11  C   UNL A   1      30.735  26.979  24.171  1.00  0.00     0.048 C 
ATOM     12  C   UNL A   1      31.412  26.731  21.907  1.00  0.00    -0.014 C 
BRANCH   9  13
ATOM     13  N   UNL A   1      28.586  27.994  23.347  1.00  0.00    -0.346 N 
ATOM     14  C   UNL A   1      27.670  28.998  23.081  1.00  0.00     0.251 C 
ATOM     15  O   UNL A   1      26.466  28.766  23.127  1.00  0.00    -0.269 OA
ATOM     16  H   UNL A   1      28.198  27.125  23.598  1.00  0.00     0.164 HD
BRANCH  14  17
ATOM     17  C   UNL A   1      28.157  30.318  22.610  1.00  0.00     0.041 A 
ATOM     18  C   UNL A   1      28.011  31.984  20.876  1.00  0.00     0.032 A 
ATOM     19  C   UNL A   1      28.301  32.970  21.820  1.00  0.00     0.025 A 
ATOM     20  C   UNL A   1      28.104  30.649  21.254  1.00  0.00     0.039 A 
ATOM     21  C   UNL A   1      28.545  32.630  23.155  1.00  0.00     0.003 A 
ATOM     22  C   UNL A   1      28.434  31.302  23.562  1.00  0.00     0.014 A 
BRANCH  18  23
ATOM     23  N   UNL A   1      27.677  32.314  19.570  1.00  0.00    -0.399 N 
ATOM     24  H   UNL A   1      28.348  32.730  18.982  1.00  0.00     0.156 HD
ATOM     25  H   UNL A   1      26.771  32.132  19.232  1.00  0.00     0.156 HD
ENDBRANCH  18  23
ENDBRANCH  14  17
ENDBRANCH   9  13
ENDBRANCH   6   8
ENDBRANCH   5   6
ENDBRANCH   4   5
ENDBRANCH   3   4
ENDBRANCH   2   3
ENDBRANCH   1   2
BRANCH   1  26
ATOM     26  C   UNL A   1      32.758  29.280  26.403  1.00  0.00     0.188 C 
BRANCH  26  27
ATOM     27  O   UNL A   1      31.700  30.130  26.759  1.00  0.00    -0.376 OA
BRANCH  27  28
ATOM     28  C   UNL A   1      31.925  31.527  26.796  1.00  0.00     0.202 C 
BRANCH  28  29
ATOM     29  C   UNL A   1      33.077  32.178  27.592  1.00  0.00     0.261 C 
BRANCH  29  30
ATOM     30  O   UNL A   1      33.307  33.587  27.434  1.00  0.00    -0.460 OA
BRANCH  30  31
ATOM     31  C   UNL A   1      33.297  34.352  28.549  1.00  0.00     0.338 C 
ATOM     32  O   UNL A   1      32.390  35.075  28.937  1.00  0.00    -0.246 OA
BRANCH  31  33
ATOM     33  C   UNL A   1      34.477  33.986  29.369  1.00  0.00     0.060 A 
ATOM     34  C   UNL A   1      35.761  34.323  28.911  1.00  0.00     0.016 A 
ATOM     35  C   UNL A   1      34.321  33.326  30.588  1.00  0.00     0.016 A 
ATOM     36  C   UNL A   1      36.891  33.984  29.660  1.00  0.00     0.010 A 
ATOM     37  C   UNL A   1      35.454  32.960  31.322  1.00  0.00     0.010 A 
ATOM     38  C   UNL A   1      36.746  33.262  30.851  1.00  0.00    -0.014 A 
BRANCH  38  39
ATOM     39  C   UNL A   1      37.932  32.654  31.509  1.00  0.00     0.031 A 
ATOM     40  C   UNL A   1      38.601  31.486  30.834  1.00  0.00     0.074 A 
ATOM     41  C   UNL A   1      38.402  33.108  32.685  1.00  0.00     0.049 A 
ATOM     42  N   UNL A   1      39.567  30.715  31.263  1.00  0.00    -0.248 NA
ATOM     43  C   UNL A   1      38.103  31.136  29.492  1.00  0.00     0.031 C 
ATOM     44  C   UNL A   1      37.876  34.253  33.422  1.00  0.00     0.029 A 
ATOM     45  N   UNL A   1      39.421  32.636  33.479  1.00  0.00    -0.354 N 
ATOM     46  C   UNL A   1      39.773  29.776  30.260  1.00  0.00     0.074 A 
ATOM     47  C   UNL A   1      38.827  30.064  29.205  1.00  0.00     0.031 C 
ATOM     48  C   UNL A   1      38.555  34.377  34.577  1.00  0.00     0.029 A 
ATOM     49  C   UNL A   1      39.536  33.296  34.679  1.00  0.00     0.049 A 
ATOM     50  H   UNL A   1      40.013  31.895  33.213  1.00  0.00     0.167 HD
ATOM     51  C   UNL A   1      40.669  28.763  30.226  1.00  0.00     0.037 A 
ATOM     52  C   UNL A   1      40.312  33.030  35.750  1.00  0.00     0.037 A 
ATOM     53  C   UNL A   1      41.624  28.488  31.266  1.00  0.00     0.049 A 
ATOM     54  C   UNL A   1      41.265  31.859  35.705  1.00  0.00     0.074 A 
ATOM     55  C   UNL A   1      42.609  27.516  31.295  1.00  0.00     0.029 A 
ATOM     56  N   UNL A   1      41.706  29.177  32.467  1.00  0.00    -0.354 N 
ATOM     57  N   UNL A   1      41.486  31.002  34.736  1.00  0.00    -0.248 NA
ATOM     58  C   UNL A   1      42.080  31.616  36.906  1.00  0.00     0.031 C 
ATOM     59  C   UNL A   1      43.238  27.569  32.541  1.00  0.00     0.029 A 
ATOM     60  C   UNL A   1      42.698  28.622  33.260  1.00  0.00     0.049 A 
ATOM     61  H   UNL A   1      41.143  29.944  32.718  1.00  0.00     0.167 HD
ATOM     62  C   UNL A   1      42.483  30.150  35.196  1.00  0.00     0.074 A 
ATOM     63  C   UNL A   1      42.838  30.598  36.524  1.00  0.00     0.031 C 
ATOM     64  C   UNL A   1      43.055  29.089  34.574  1.00  0.00     0.037 A 
BRANCH  51  65
ATOM     65  C   UNL A   1      40.648  27.841  29.042  1.00  0.00     0.064 A 
ATOM     66  C   UNL A   1      39.781  26.741  28.971  1.00  0.00     0.173 A 
ATOM     67  C   UNL A   1      41.456  28.114  27.928  1.00  0.00     0.173 A 
ATOM     68  F   UNL A   1      38.997  26.429  30.014  1.00  0.00    -0.203 F 
ATOM     69  C   UNL A   1      39.732  25.944  27.829  1.00  0.00     0.198 A 
ATOM     70  C   UNL A   1      41.382  27.334  26.778  1.00  0.00     0.198 A 
ATOM     71  F   UNL A   1      42.302  29.156  27.945  1.00  0.00    -0.203 F 
ATOM     72  F   UNL A   1      38.919  24.879  27.793  1.00  0.00    -0.200 F 
ATOM     73  C   UNL A   1      40.522  26.247  26.731  1.00  0.00     0.200 A 
ATOM     74  F   UNL A   1      42.135  27.639  25.713  1.00  0.00    -0.200 F 
ATOM     75  F   UNL A   1      40.456  25.492  25.626  1.00  0.00    -0.200 F 
ENDBRANCH  51  65
BRANCH  52  76
ATOM     76  C   UNL A   1      40.201  33.855  36.985  1.00  0.00     0.064 A 
ATOM     77  C   UNL A   1      39.236  33.576  37.965  1.00  0.00     0.173 A 
ATOM     78  C   UNL A   1      41.012  34.985  37.178  1.00  0.00     0.173 A 
ATOM     79  F   UNL A   1      38.415  32.526  37.815  1.00  0.00    -0.203 F 
ATOM     80  C   UNL A   1      39.063  34.412  39.067  1.00  0.00     0.198 A 
ATOM     81  C   UNL A   1      40.862  35.799  38.299  1.00  0.00     0.198 A 
ATOM     82  F   UNL A   1      41.946  35.304  36.271  1.00  0.00    -0.203 F 
ATOM     83  F   UNL A   1      38.083  34.163  39.945  1.00  0.00    -0.200 F 
ATOM     84  C   UNL A   1      39.878  35.521  39.235  1.00  0.00     0.200 A 
ATOM     85  F   UNL A   1      41.660  36.863  38.463  1.00  0.00    -0.200 F 
ATOM     86  F   UNL A   1      39.704  36.330  40.289  1.00  0.00    -0.200 F 
ENDBRANCH  52  76
BRANCH  64  87
ATOM     87  C   UNL A   1      44.161  28.369  35.294  1.00  0.00     0.064 A 
ATOM     88  C   UNL A   1      43.915  27.256  36.110  1.00  0.00     0.173 A 
ATOM     89  C   UNL A   1      45.497  28.771  35.122  1.00  0.00     0.173 A 
ATOM     90  F   UNL A   1      42.658  26.834  36.317  1.00  0.00    -0.203 F 
ATOM     91  C   UNL A   1      44.959  26.591  36.750  1.00  0.00     0.198 A 
ATOM     92  C   UNL A   1      46.540  28.082  35.734  1.00  0.00     0.198 A 
ATOM     93  F   UNL A   1      45.791  29.823  34.343  1.00  0.00    -0.203 F 
ATOM     94  F   UNL A   1      44.694  25.562  37.568  1.00  0.00    -0.200 F 
ATOM     95  C   UNL A   1      46.270  26.998  36.554  1.00  0.00     0.200 A 
ATOM     96  F   UNL A   1      47.807  28.467  35.526  1.00  0.00    -0.200 F 
ATOM     97  F   UNL A   1      47.274  26.351  37.162  1.00  0.00    -0.200 F 
ENDBRANCH  64  87
ENDBRANCH  38  39
ENDBRANCH  31  33
ENDBRANCH  30  31
ENDBRANCH  29  30
ENDBRANCH  28  29
ENDBRANCH  27  28
ENDBRANCH  26  27
ENDBRANCH   1  26
TORSDOF 20
ENDMDL
