MODEL 1
REMARK VINA RESULT:     -10.6      0.000      0.000
REMARK SMILES COc1cc2c(c(OC)c1)[C@H](C)C[C@H](CC(=O)OCCOCCOCCOC(=O)c1ccc(-c3c4nc(c(-c5c(F)c(F)c(F)c(F)c5F)c5ccc([nH]5)c(-c5c(F)c(F)c(F)c(F)c5F)c5nc(c(-c6c(F)c(F)c(F)c(F)c6F)c6ccc3[nH]6)C=C5)C=C4)cc1)C2
REMARK SMILES IDX 22 1 21 2 20 3 19 4 18 5 16 6 17 7 15 8 14 9 3 10 4 11 10 12
REMARK SMILES IDX 5 13 7 14 6 15 93 16 11 17 12 18 13 19 2 20 1 21 8 22 9 23
REMARK SMILES IDX 23 24 24 25 25 26 26 27 27 28 28 29 29 30 30 31 31 32 92 33
REMARK SMILES IDX 32 34 91 35 33 36 34 37 35 38 85 39 36 40 90 41 84 42 86 43
REMARK SMILES IDX 37 44 89 45 83 46 82 47 38 49 70 50 50 51 69 52 51 53 54 54
REMARK SMILES IDX 68 55 87 56 52 57 53 58 67 60 88 61 55 62 39 63 40 64 48 65
REMARK SMILES IDX 41 66 42 67 46 68 49 69 43 70 44 71 47 72 45 73 71 74 72 75
REMARK SMILES IDX 80 76 73 77 74 78 78 79 81 80 75 81 76 82 79 83 77 84 56 85
REMARK SMILES IDX 57 86 65 87 58 88 59 89 63 90 66 91 60 92 61 93 64 94 62 95
REMARK H PARENT 86 48 54 59
REMARK Flexibility Score: inf
ROOT
ATOM      1  C   UNL A   1      35.247  33.278  28.207  1.00  0.00     0.188 C 
ENDROOT
BRANCH   1   2
ATOM      2  O   UNL A   1      34.893  31.902  28.143  1.00  0.00    -0.376 OA
BRANCH   2   3
ATOM      3  C   UNL A   1      33.601  31.603  27.610  1.00  0.00     0.202 C 
BRANCH   3   4
ATOM      4  C   UNL A   1      33.402  30.178  27.074  1.00  0.00     0.261 C 
BRANCH   4   5
ATOM      5  O   UNL A   1      32.026  29.741  27.083  1.00  0.00    -0.463 OA
BRANCH   5   6
ATOM      6  C   UNL A   1      31.822  28.399  27.146  1.00  0.00     0.306 C 
ATOM      7  O   UNL A   1      31.145  27.836  27.998  1.00  0.00    -0.252 OA
BRANCH   6   8
ATOM      8  C   UNL A   1      32.417  27.623  25.983  1.00  0.00     0.126 C 
BRANCH   8   9
ATOM      9  C   UNL A   1      32.401  26.083  25.987  1.00  0.00     0.005 C 
ATOM     10  C   UNL A   1      35.382  22.110  25.623  1.00  0.00     0.122 A 
ATOM     11  C   UNL A   1      35.202  23.479  25.796  1.00  0.00     0.050 A 
ATOM     12  C   UNL A   1      34.283  21.317  25.325  1.00  0.00     0.093 A 
ATOM     13  C   UNL A   1      33.943  24.081  25.597  1.00  0.00    -0.037 A 
ATOM     14  C   UNL A   1      33.022  21.899  25.134  1.00  0.00     0.126 A 
ATOM     15  C   UNL A   1      32.843  23.299  25.188  1.00  0.00     0.000 A 
ATOM     16  C   UNL A   1      33.841  25.577  25.765  1.00  0.00     0.040 C 
ATOM     17  C   UNL A   1      31.516  23.966  24.851  1.00  0.00     0.020 C 
ATOM     18  C   UNL A   1      30.964  23.566  23.473  1.00  0.00     0.013 C 
ATOM     19  C   UNL A   1      31.536  25.510  24.871  1.00  0.00     0.012 C 
BRANCH  10  20
ATOM     20  O   UNL A   1      36.651  21.636  25.820  1.00  0.00    -0.497 OA
ATOM     21  C   UNL A   1      37.427  21.513  24.629  1.00  0.00     0.278 C 
ENDBRANCH  10  20
BRANCH  14  22
ATOM     22  O   UNL A   1      32.038  20.999  24.810  1.00  0.00    -0.496 OA
ATOM     23  C   UNL A   1      32.470  19.948  23.948  1.00  0.00     0.278 C 
ENDBRANCH  14  22
ENDBRANCH   8   9
ENDBRANCH   6   8
ENDBRANCH   5   6
ENDBRANCH   4   5
ENDBRANCH   3   4
ENDBRANCH   2   3
ENDBRANCH   1   2
BRANCH   1  24
ATOM     24  C   UNL A   1      34.631  34.076  29.355  1.00  0.00     0.188 C 
BRANCH  24  25
ATOM     25  O   UNL A   1      34.068  33.328  30.422  1.00  0.00    -0.376 OA
BRANCH  25  26
ATOM     26  C   UNL A   1      34.355  33.799  31.743  1.00  0.00     0.202 C 
BRANCH  26  27
ATOM     27  C   UNL A   1      34.974  32.792  32.742  1.00  0.00     0.261 C 
BRANCH  27  28
ATOM     28  O   UNL A   1      36.142  33.238  33.471  1.00  0.00    -0.460 OA
BRANCH  28  29
ATOM     29  C   UNL A   1      36.998  34.084  32.852  1.00  0.00     0.338 C 
ATOM     30  O   UNL A   1      37.108  35.280  33.067  1.00  0.00    -0.246 OA
BRANCH  29  31
ATOM     31  C   UNL A   1      37.986  33.281  32.069  1.00  0.00     0.060 A 
ATOM     32  C   UNL A   1      38.918  32.504  32.775  1.00  0.00     0.016 A 
ATOM     33  C   UNL A   1      37.961  33.215  30.672  1.00  0.00     0.016 A 
ATOM     34  C   UNL A   1      39.839  31.697  32.096  1.00  0.00     0.010 A 
ATOM     35  C   UNL A   1      38.897  32.420  29.990  1.00  0.00     0.010 A 
ATOM     36  C   UNL A   1      39.863  31.679  30.696  1.00  0.00    -0.014 A 
BRANCH  36  37
ATOM     37  C   UNL A   1      41.007  31.047  29.978  1.00  0.00     0.031 A 
ATOM     38  C   UNL A   1      42.200  31.905  29.639  1.00  0.00     0.074 A 
ATOM     39  C   UNL A   1      41.020  29.743  29.644  1.00  0.00     0.049 A 
ATOM     40  N   UNL A   1      43.286  31.604  28.974  1.00  0.00    -0.248 NA
ATOM     41  C   UNL A   1      42.158  33.295  30.120  1.00  0.00     0.031 C 
ATOM     42  C   UNL A   1      39.964  28.779  29.941  1.00  0.00     0.029 A 
ATOM     43  N   UNL A   1      41.965  29.004  28.964  1.00  0.00    -0.354 N 
ATOM     44  C   UNL A   1      44.047  32.766  28.946  1.00  0.00     0.074 A 
ATOM     45  C   UNL A   1      43.291  33.784  29.641  1.00  0.00     0.031 C 
ATOM     46  C   UNL A   1      40.307  27.582  29.431  1.00  0.00     0.029 A 
ATOM     47  C   UNL A   1      41.593  27.700  28.740  1.00  0.00     0.049 A 
ATOM     48  H   UNL A   1      42.826  29.377  28.667  1.00  0.00     0.167 HD
ATOM     49  C   UNL A   1      45.270  32.967  28.399  1.00  0.00     0.037 A 
ATOM     50  C   UNL A   1      42.203  26.724  28.035  1.00  0.00     0.037 A 
ATOM     51  C   UNL A   1      46.037  31.959  27.716  1.00  0.00     0.049 A 
ATOM     52  C   UNL A   1      43.533  26.996  27.369  1.00  0.00     0.074 A 
ATOM     53  C   UNL A   1      47.299  32.069  27.159  1.00  0.00     0.029 A 
ATOM     54  N   UNL A   1      45.611  30.660  27.486  1.00  0.00    -0.354 N 
ATOM     55  N   UNL A   1      44.259  28.087  27.378  1.00  0.00    -0.248 NA
ATOM     56  C   UNL A   1      44.129  25.895  26.594  1.00  0.00     0.031 C 
ATOM     57  C   UNL A   1      47.612  30.858  26.535  1.00  0.00     0.029 A 
ATOM     58  C   UNL A   1      46.573  29.970  26.764  1.00  0.00     0.049 A 
ATOM     59  H   UNL A   1      44.754  30.284  27.790  1.00  0.00     0.167 HD
ATOM     60  C   UNL A   1      45.405  27.794  26.645  1.00  0.00     0.074 A 
ATOM     61  C   UNL A   1      45.287  26.418  26.218  1.00  0.00     0.031 C 
ATOM     62  C   UNL A   1      46.459  28.595  26.353  1.00  0.00     0.037 A 
BRANCH  49  63
ATOM     63  C   UNL A   1      45.855  34.347  28.486  1.00  0.00     0.064 A 
ATOM     64  C   UNL A   1      45.610  35.319  27.504  1.00  0.00     0.173 A 
ATOM     65  C   UNL A   1      46.618  34.719  29.604  1.00  0.00     0.173 A 
ATOM     66  F   UNL A   1      44.898  35.010  26.411  1.00  0.00    -0.203 F 
ATOM     67  C   UNL A   1      46.123  36.608  27.632  1.00  0.00     0.198 A 
ATOM     68  C   UNL A   1      47.102  36.016  29.742  1.00  0.00     0.198 A 
ATOM     69  F   UNL A   1      46.876  33.828  30.573  1.00  0.00    -0.203 F 
ATOM     70  F   UNL A   1      45.910  37.510  26.664  1.00  0.00    -0.200 F 
ATOM     71  C   UNL A   1      46.858  36.958  28.755  1.00  0.00     0.200 A 
ATOM     72  F   UNL A   1      47.798  36.357  30.836  1.00  0.00    -0.200 F 
ATOM     73  F   UNL A   1      47.336  38.203  28.883  1.00  0.00    -0.200 F 
ENDBRANCH  49  63
BRANCH  50  74
ATOM     74  C   UNL A   1      41.553  25.391  27.876  1.00  0.00     0.064 A 
ATOM     75  C   UNL A   1      42.089  24.242  28.474  1.00  0.00     0.173 A 
ATOM     76  C   UNL A   1      40.421  25.232  27.063  1.00  0.00     0.173 A 
ATOM     77  F   UNL A   1      43.194  24.333  29.230  1.00  0.00    -0.203 F 
ATOM     78  C   UNL A   1      41.535  22.982  28.242  1.00  0.00     0.198 A 
ATOM     79  C   UNL A   1      39.846  23.977  26.862  1.00  0.00     0.198 A 
ATOM     80  F   UNL A   1      39.874  26.294  26.455  1.00  0.00    -0.203 F 
ATOM     81  F   UNL A   1      42.111  21.893  28.770  1.00  0.00    -0.200 F 
ATOM     82  C   UNL A   1      40.412  22.852  27.442  1.00  0.00     0.200 A 
ATOM     83  F   UNL A   1      38.756  23.858  26.092  1.00  0.00    -0.200 F 
ATOM     84  F   UNL A   1      39.885  21.641  27.214  1.00  0.00    -0.200 F 
ENDBRANCH  50  74
BRANCH  62  85
ATOM     85  C   UNL A   1      47.598  28.000  25.571  1.00  0.00     0.064 A 
ATOM     86  C   UNL A   1      47.543  27.849  24.177  1.00  0.00     0.173 A 
ATOM     87  C   UNL A   1      48.783  27.619  26.222  1.00  0.00     0.173 A 
ATOM     88  F   UNL A   1      46.432  28.186  23.505  1.00  0.00    -0.203 F 
ATOM     89  C   UNL A   1      48.617  27.313  23.470  1.00  0.00     0.198 A 
ATOM     90  C   UNL A   1      49.867  27.117  25.508  1.00  0.00     0.198 A 
ATOM     91  F   UNL A   1      48.896  27.751  27.552  1.00  0.00    -0.203 F 
ATOM     92  F   UNL A   1      48.521  27.130  22.145  1.00  0.00    -0.200 F 
ATOM     93  C   UNL A   1      49.781  26.956  24.134  1.00  0.00     0.200 A 
ATOM     94  F   UNL A   1      50.997  26.790  26.150  1.00  0.00    -0.200 F 
ATOM     95  F   UNL A   1      50.817  26.450  23.451  1.00  0.00    -0.200 F 
ENDBRANCH  62  85
ENDBRANCH  36  37
ENDBRANCH  29  31
ENDBRANCH  28  29
ENDBRANCH  27  28
ENDBRANCH  26  27
ENDBRANCH  25  26
ENDBRANCH  24  25
ENDBRANCH   1  24
TORSDOF 20
ENDMDL
MODEL 2
REMARK VINA RESULT:     -10.3      4.894     11.697
REMARK SMILES COc1cc2c(c(OC)c1)[C@H](C)C[C@H](CC(=O)OCCOCCOCCOC(=O)c1ccc(-c3c4nc(c(-c5c(F)c(F)c(F)c(F)c5F)c5ccc([nH]5)c(-c5c(F)c(F)c(F)c(F)c5F)c5nc(c(-c6c(F)c(F)c(F)c(F)c6F)c6ccc3[nH]6)C=C5)C=C4)cc1)C2
REMARK SMILES IDX 22 1 21 2 20 3 19 4 18 5 16 6 17 7 15 8 14 9 3 10 4 11 10 12
REMARK SMILES IDX 5 13 7 14 6 15 93 16 11 17 12 18 13 19 2 20 1 21 8 22 9 23
REMARK SMILES IDX 23 24 24 25 25 26 26 27 27 28 28 29 29 30 30 31 31 32 92 33
REMARK SMILES IDX 32 34 91 35 33 36 34 37 35 38 85 39 36 40 90 41 84 42 86 43
REMARK SMILES IDX 37 44 89 45 83 46 82 47 38 49 70 50 50 51 69 52 51 53 54 54
REMARK SMILES IDX 68 55 87 56 52 57 53 58 67 60 88 61 55 62 39 63 40 64 48 65
REMARK SMILES IDX 41 66 42 67 46 68 49 69 43 70 44 71 47 72 45 73 71 74 72 75
REMARK SMILES IDX 80 76 73 77 74 78 78 79 81 80 75 81 76 82 79 83 77 84 56 85
REMARK SMILES IDX 57 86 65 87 58 88 59 89 63 90 66 91 60 92 61 93 64 94 62 95
REMARK H PARENT 86 48 54 59
REMARK Flexibility Score: inf
ROOT
ATOM      1  C   UNL A   1      43.092  18.513  25.563  1.00  0.00     0.188 C 
ENDROOT
BRANCH   1   2
ATOM      2  O   UNL A   1      44.368  17.893  25.669  1.00  0.00    -0.376 OA
BRANCH   2   3
ATOM      3  C   UNL A   1      45.488  18.671  25.243  1.00  0.00     0.202 C 
BRANCH   3   4
ATOM      4  C   UNL A   1      45.347  19.374  23.885  1.00  0.00     0.261 C 
BRANCH   4   5
ATOM      5  O   UNL A   1      44.670  20.647  23.958  1.00  0.00    -0.463 OA
BRANCH   5   6
ATOM      6  C   UNL A   1      45.192  21.558  24.820  1.00  0.00     0.306 C 
ATOM      7  O   UNL A   1      46.147  21.349  25.560  1.00  0.00    -0.252 OA
BRANCH   6   8
ATOM      8  C   UNL A   1      44.568  22.939  24.723  1.00  0.00     0.126 C 
BRANCH   8   9
ATOM      9  C   UNL A   1      45.185  24.128  25.482  1.00  0.00     0.005 C 
ATOM     10  C   UNL A   1      44.493  28.958  26.478  1.00  0.00     0.122 A 
ATOM     11  C   UNL A   1      44.024  27.741  25.993  1.00  0.00     0.050 A 
ATOM     12  C   UNL A   1      45.826  29.069  26.849  1.00  0.00     0.093 A 
ATOM     13  C   UNL A   1      44.893  26.648  25.801  1.00  0.00    -0.037 A 
ATOM     14  C   UNL A   1      46.701  27.988  26.674  1.00  0.00     0.126 A 
ATOM     15  C   UNL A   1      46.270  26.785  26.073  1.00  0.00     0.000 A 
ATOM     16  C   UNL A   1      44.314  25.376  25.233  1.00  0.00     0.040 C 
ATOM     17  C   UNL A   1      47.230  25.648  25.747  1.00  0.00     0.020 C 
ATOM     18  C   UNL A   1      48.432  26.087  24.895  1.00  0.00     0.013 C 
ATOM     19  C   UNL A   1      46.596  24.450  25.005  1.00  0.00     0.012 C 
BRANCH  10  20
ATOM     20  O   UNL A   1      43.566  29.957  26.604  1.00  0.00    -0.497 OA
ATOM     21  C   UNL A   1      44.016  31.093  27.341  1.00  0.00     0.278 C 
ENDBRANCH  10  20
BRANCH  14  22
ATOM     22  O   UNL A   1      47.993  28.254  27.052  1.00  0.00    -0.496 OA
ATOM     23  C   UNL A   1      48.408  29.596  26.808  1.00  0.00     0.278 C 
ENDBRANCH  14  22
ENDBRANCH   8   9
ENDBRANCH   6   8
ENDBRANCH   5   6
ENDBRANCH   4   5
ENDBRANCH   3   4
ENDBRANCH   2   3
ENDBRANCH   1   2
BRANCH   1  24
ATOM     24  C   UNL A   1      42.594  19.243  26.809  1.00  0.00     0.188 C 
BRANCH  24  25
ATOM     25  O   UNL A   1      41.693  20.320  26.600  1.00  0.00    -0.376 OA
BRANCH  25  26
ATOM     26  C   UNL A   1      40.378  19.965  26.158  1.00  0.00     0.202 C 
BRANCH  26  27
ATOM     27  C   UNL A   1      39.326  21.096  26.066  1.00  0.00     0.261 C 
BRANCH  27  28
ATOM     28  O   UNL A   1      39.818  22.451  26.201  1.00  0.00    -0.460 OA
BRANCH  28  29
ATOM     29  C   UNL A   1      38.934  23.468  26.081  1.00  0.00     0.338 C 
ATOM     30  O   UNL A   1      37.796  23.384  25.650  1.00  0.00    -0.246 OA
BRANCH  29  31
ATOM     31  C   UNL A   1      39.462  24.655  26.820  1.00  0.00     0.060 A 
ATOM     32  C   UNL A   1      39.160  24.774  28.186  1.00  0.00     0.016 A 
ATOM     33  C   UNL A   1      40.306  25.598  26.223  1.00  0.00     0.016 A 
ATOM     34  C   UNL A   1      39.664  25.840  28.940  1.00  0.00     0.010 A 
ATOM     35  C   UNL A   1      40.796  26.678  26.975  1.00  0.00     0.010 A 
ATOM     36  C   UNL A   1      40.454  26.824  28.333  1.00  0.00    -0.014 A 
BRANCH  36  37
ATOM     37  C   UNL A   1      40.756  28.091  29.057  1.00  0.00     0.031 A 
ATOM     38  C   UNL A   1      42.140  28.277  29.626  1.00  0.00     0.074 A 
ATOM     39  C   UNL A   1      39.850  29.077  29.200  1.00  0.00     0.049 A 
ATOM     40  N   UNL A   1      42.627  29.260  30.341  1.00  0.00    -0.248 NA
ATOM     41  C   UNL A   1      43.106  27.202  29.349  1.00  0.00     0.031 C 
ATOM     42  C   UNL A   1      38.489  29.064  28.668  1.00  0.00     0.029 A 
ATOM     43  N   UNL A   1      39.942  30.288  29.851  1.00  0.00    -0.354 N 
ATOM     44  C   UNL A   1      43.947  28.917  30.607  1.00  0.00     0.074 A 
ATOM     45  C   UNL A   1      44.179  27.626  29.998  1.00  0.00     0.031 C 
ATOM     46  C   UNL A   1      37.867  30.201  29.031  1.00  0.00     0.029 A 
ATOM     47  C   UNL A   1      38.772  31.009  29.849  1.00  0.00     0.049 A 
ATOM     48  H   UNL A   1      40.769  30.606  30.279  1.00  0.00     0.167 HD
ATOM     49  C   UNL A   1      44.884  29.615  31.291  1.00  0.00     0.037 A 
ATOM     50  C   UNL A   1      38.458  32.171  30.461  1.00  0.00     0.037 A 
ATOM     51  C   UNL A   1      44.668  30.905  31.890  1.00  0.00     0.049 A 
ATOM     52  C   UNL A   1      39.502  32.896  31.281  1.00  0.00     0.074 A 
ATOM     53  C   UNL A   1      45.573  31.699  32.574  1.00  0.00     0.029 A 
ATOM     54  N   UNL A   1      43.461  31.588  31.890  1.00  0.00    -0.354 N 
ATOM     55  N   UNL A   1      40.755  32.579  31.498  1.00  0.00    -0.248 NA
ATOM     56  C   UNL A   1      39.084  34.143  31.942  1.00  0.00     0.031 C 
ATOM     57  C   UNL A   1      44.899  32.830  33.044  1.00  0.00     0.029 A 
ATOM     58  C   UNL A   1      43.591  32.775  32.592  1.00  0.00     0.049 A 
ATOM     59  H   UNL A   1      42.636  31.274  31.455  1.00  0.00     0.167 HD
ATOM     60  C   UNL A   1      41.279  33.599  32.286  1.00  0.00     0.074 A 
ATOM     61  C   UNL A   1      40.214  34.554  32.497  1.00  0.00     0.031 C 
ATOM     62  C   UNL A   1      42.532  33.731  32.788  1.00  0.00     0.037 A 
BRANCH  49  63
ATOM     63  C   UNL A   1      46.238  28.988  31.459  1.00  0.00     0.064 A 
ATOM     64  C   UNL A   1      46.480  27.996  32.421  1.00  0.00     0.173 A 
ATOM     65  C   UNL A   1      47.289  29.340  30.597  1.00  0.00     0.173 A 
ATOM     66  F   UNL A   1      45.513  27.634  33.276  1.00  0.00    -0.203 F 
ATOM     67  C   UNL A   1      47.731  27.393  32.524  1.00  0.00     0.198 A 
ATOM     68  C   UNL A   1      48.527  28.712  30.684  1.00  0.00     0.198 A 
ATOM     69  F   UNL A   1      47.107  30.279  29.657  1.00  0.00    -0.203 F 
ATOM     70  F   UNL A   1      47.953  26.475  33.476  1.00  0.00    -0.200 F 
ATOM     71  C   UNL A   1      48.750  27.743  31.650  1.00  0.00     0.200 A 
ATOM     72  F   UNL A   1      49.505  29.041  29.828  1.00  0.00    -0.200 F 
ATOM     73  F   UNL A   1      49.947  27.149  31.741  1.00  0.00    -0.200 F 
ENDBRANCH  49  63
BRANCH  50  74
ATOM     74  C   UNL A   1      37.076  32.724  30.365  1.00  0.00     0.064 A 
ATOM     75  C   UNL A   1      36.690  33.542  29.294  1.00  0.00     0.173 A 
ATOM     76  C   UNL A   1      36.136  32.498  31.381  1.00  0.00     0.173 A 
ATOM     77  F   UNL A   1      37.564  33.820  28.314  1.00  0.00    -0.203 F 
ATOM     78  C   UNL A   1      35.429  34.137  29.257  1.00  0.00     0.198 A 
ATOM     79  C   UNL A   1      34.862  33.064  31.325  1.00  0.00     0.198 A 
ATOM     80  F   UNL A   1      36.454  31.735  32.436  1.00  0.00    -0.203 F 
ATOM     81  F   UNL A   1      35.113  34.971  28.257  1.00  0.00    -0.200 F 
ATOM     82  C   UNL A   1      34.514  33.893  30.269  1.00  0.00     0.200 A 
ATOM     83  F   UNL A   1      33.980  32.820  32.304  1.00  0.00    -0.200 F 
ATOM     84  F   UNL A   1      33.305  34.470  30.238  1.00  0.00    -0.200 F 
ENDBRANCH  50  74
BRANCH  62  85
ATOM     85  C   UNL A   1      42.844  34.972  33.580  1.00  0.00     0.064 A 
ATOM     86  C   UNL A   1      43.237  36.168  32.961  1.00  0.00     0.173 A 
ATOM     87  C   UNL A   1      42.702  34.975  34.977  1.00  0.00     0.173 A 
ATOM     88  F   UNL A   1      43.398  36.218  31.631  1.00  0.00    -0.203 F 
ATOM     89  C   UNL A   1      43.503  37.311  33.713  1.00  0.00     0.198 A 
ATOM     90  C   UNL A   1      42.935  36.129  35.721  1.00  0.00     0.198 A 
ATOM     91  F   UNL A   1      42.319  33.863  35.621  1.00  0.00    -0.203 F 
ATOM     92  F   UNL A   1      43.926  38.428  33.103  1.00  0.00    -0.200 F 
ATOM     93  C   UNL A   1      43.343  37.293  35.090  1.00  0.00     0.200 A 
ATOM     94  F   UNL A   1      42.762  36.114  37.050  1.00  0.00    -0.200 F 
ATOM     95  F   UNL A   1      43.590  38.396  35.810  1.00  0.00    -0.200 F 
ENDBRANCH  62  85
ENDBRANCH  36  37
ENDBRANCH  29  31
ENDBRANCH  28  29
ENDBRANCH  27  28
ENDBRANCH  26  27
ENDBRANCH  25  26
ENDBRANCH  24  25
ENDBRANCH   1  24
TORSDOF 20
ENDMDL
MODEL 3
REMARK VINA RESULT:      -9.8      1.074      7.194
REMARK SMILES COc1cc2c(c(OC)c1)[C@H](C)C[C@H](CC(=O)OCCOCCOCCOC(=O)c1ccc(-c3c4nc(c(-c5c(F)c(F)c(F)c(F)c5F)c5ccc([nH]5)c(-c5c(F)c(F)c(F)c(F)c5F)c5nc(c(-c6c(F)c(F)c(F)c(F)c6F)c6ccc3[nH]6)C=C5)C=C4)cc1)C2
REMARK SMILES IDX 22 1 21 2 20 3 19 4 18 5 16 6 17 7 15 8 14 9 3 10 4 11 10 12
REMARK SMILES IDX 5 13 7 14 6 15 93 16 11 17 12 18 13 19 2 20 1 21 8 22 9 23
REMARK SMILES IDX 23 24 24 25 25 26 26 27 27 28 28 29 29 30 30 31 31 32 92 33
REMARK SMILES IDX 32 34 91 35 33 36 34 37 35 38 85 39 36 40 90 41 84 42 86 43
REMARK SMILES IDX 37 44 89 45 83 46 82 47 38 49 70 50 50 51 69 52 51 53 54 54
REMARK SMILES IDX 68 55 87 56 52 57 53 58 67 60 88 61 55 62 39 63 40 64 48 65
REMARK SMILES IDX 41 66 42 67 46 68 49 69 43 70 44 71 47 72 45 73 71 74 72 75
REMARK SMILES IDX 80 76 73 77 74 78 78 79 81 80 75 81 76 82 79 83 77 84 56 85
REMARK SMILES IDX 57 86 65 87 58 88 59 89 63 90 66 91 60 92 61 93 64 94 62 95
REMARK H PARENT 86 48 54 59
REMARK Flexibility Score: inf
ROOT
ATOM      1  C   UNL A   1      35.656  33.015  27.998  1.00  0.00     0.188 C 
ENDROOT
BRANCH   1   2
ATOM      2  O   UNL A   1      35.242  31.657  28.085  1.00  0.00    -0.376 OA
BRANCH   2   3
ATOM      3  C   UNL A   1      33.928  31.363  27.609  1.00  0.00     0.202 C 
BRANCH   3   4
ATOM      4  C   UNL A   1      33.702  29.940  27.078  1.00  0.00     0.261 C 
BRANCH   4   5
ATOM      5  O   UNL A   1      32.316  29.536  27.070  1.00  0.00    -0.463 OA
BRANCH   5   6
ATOM      6  C   UNL A   1      32.078  28.203  27.177  1.00  0.00     0.306 C 
ATOM      7  O   UNL A   1      31.350  27.690  28.020  1.00  0.00    -0.252 OA
BRANCH   6   8
ATOM      8  C   UNL A   1      32.705  27.366  26.075  1.00  0.00     0.126 C 
BRANCH   8   9
ATOM      9  C   UNL A   1      32.599  25.831  26.108  1.00  0.00     0.005 C 
ATOM     10  C   UNL A   1      35.299  21.681  25.561  1.00  0.00     0.122 A 
ATOM     11  C   UNL A   1      35.216  23.061  25.724  1.00  0.00     0.050 A 
ATOM     12  C   UNL A   1      34.134  20.952  25.374  1.00  0.00     0.093 A 
ATOM     13  C   UNL A   1      33.982  23.735  25.624  1.00  0.00    -0.037 A 
ATOM     14  C   UNL A   1      32.897  21.606  25.282  1.00  0.00     0.126 A 
ATOM     15  C   UNL A   1      32.807  23.015  25.325  1.00  0.00     0.000 A 
ATOM     16  C   UNL A   1      33.983  25.237  25.772  1.00  0.00     0.040 C 
ATOM     17  C   UNL A   1      31.496  23.755  25.091  1.00  0.00     0.020 C 
ATOM     18  C   UNL A   1      30.804  23.371  23.774  1.00  0.00     0.013 C 
ATOM     19  C   UNL A   1      31.608  25.296  25.082  1.00  0.00     0.012 C 
BRANCH  10  20
ATOM     20  O   UNL A   1      36.551  21.135  25.656  1.00  0.00    -0.497 OA
ATOM     21  C   UNL A   1      37.421  21.460  24.574  1.00  0.00     0.278 C 
ENDBRANCH  10  20
BRANCH  14  22
ATOM     22  O   UNL A   1      31.838  20.762  25.061  1.00  0.00    -0.496 OA
ATOM     23  C   UNL A   1      32.152  19.633  24.249  1.00  0.00     0.278 C 
ENDBRANCH  14  22
ENDBRANCH   8   9
ENDBRANCH   6   8
ENDBRANCH   5   6
ENDBRANCH   4   5
ENDBRANCH   3   4
ENDBRANCH   2   3
ENDBRANCH   1   2
BRANCH   1  24
ATOM     24  C   UNL A   1      34.990  33.984  28.974  1.00  0.00     0.188 C 
BRANCH  24  25
ATOM     25  O   UNL A   1      34.504  33.432  30.189  1.00  0.00    -0.376 OA
BRANCH  25  26
ATOM     26  C   UNL A   1      35.428  33.399  31.281  1.00  0.00     0.202 C 
BRANCH  26  27
ATOM     27  C   UNL A   1      35.165  32.373  32.410  1.00  0.00     0.261 C 
BRANCH  27  28
ATOM     28  O   UNL A   1      36.182  31.364  32.617  1.00  0.00    -0.460 OA
BRANCH  28  29
ATOM     29  C   UNL A   1      37.253  31.682  33.381  1.00  0.00     0.338 C 
ATOM     30  O   UNL A   1      37.235  31.939  34.573  1.00  0.00    -0.246 OA
BRANCH  29  31
ATOM     31  C   UNL A   1      38.499  31.393  32.607  1.00  0.00     0.060 A 
ATOM     32  C   UNL A   1      38.692  32.060  31.388  1.00  0.00     0.016 A 
ATOM     33  C   UNL A   1      39.506  30.552  33.093  1.00  0.00     0.016 A 
ATOM     34  C   UNL A   1      39.861  31.864  30.641  1.00  0.00     0.010 A 
ATOM     35  C   UNL A   1      40.670  30.340  32.335  1.00  0.00     0.010 A 
ATOM     36  C   UNL A   1      40.843  30.971  31.089  1.00  0.00    -0.014 A 
BRANCH  36  37
ATOM     37  C   UNL A   1      41.943  30.553  30.175  1.00  0.00     0.031 A 
ATOM     38  C   UNL A   1      41.839  29.210  29.498  1.00  0.00     0.074 A 
ATOM     39  C   UNL A   1      43.008  31.337  29.917  1.00  0.00     0.049 A 
ATOM     40  N   UNL A   1      42.688  28.601  28.708  1.00  0.00    -0.248 NA
ATOM     41  C   UNL A   1      40.604  28.449  29.750  1.00  0.00     0.031 C 
ATOM     42  C   UNL A   1      43.227  32.675  30.458  1.00  0.00     0.029 A 
ATOM     43  N   UNL A   1      44.117  31.107  29.133  1.00  0.00    -0.354 N 
ATOM     44  C   UNL A   1      42.096  27.387  28.381  1.00  0.00     0.074 A 
ATOM     45  C   UNL A   1      40.828  27.333  29.073  1.00  0.00     0.031 C 
ATOM     46  C   UNL A   1      44.407  33.141  30.008  1.00  0.00     0.029 A 
ATOM     47  C   UNL A   1      45.044  32.121  29.172  1.00  0.00     0.049 A 
ATOM     48  H   UNL A   1      44.235  30.292  28.594  1.00  0.00     0.167 HD
ATOM     49  C   UNL A   1      42.562  26.407  27.570  1.00  0.00     0.037 A 
ATOM     50  C   UNL A   1      46.275  32.206  28.624  1.00  0.00     0.037 A 
ATOM     51  C   UNL A   1      43.817  26.455  26.866  1.00  0.00     0.049 A 
ATOM     52  C   UNL A   1      46.804  31.065  27.784  1.00  0.00     0.074 A 
ATOM     53  C   UNL A   1      44.352  25.519  25.998  1.00  0.00     0.029 A 
ATOM     54  N   UNL A   1      44.738  27.487  26.957  1.00  0.00    -0.354 N 
ATOM     55  N   UNL A   1      46.223  29.938  27.453  1.00  0.00    -0.248 NA
ATOM     56  C   UNL A   1      48.164  31.213  27.239  1.00  0.00     0.031 C 
ATOM     57  C   UNL A   1      45.624  25.952  25.614  1.00  0.00     0.029 A 
ATOM     58  C   UNL A   1      45.853  27.192  26.188  1.00  0.00     0.049 A 
ATOM     59  H   UNL A   1      44.617  28.306  27.488  1.00  0.00     0.167 HD
ATOM     60  C   UNL A   1      47.127  29.263  26.639  1.00  0.00     0.074 A 
ATOM     61  C   UNL A   1      48.290  30.112  26.512  1.00  0.00     0.031 C 
ATOM     62  C   UNL A   1      47.003  28.047  26.051  1.00  0.00     0.037 A 
BRANCH  49  63
ATOM     63  C   UNL A   1      41.725  25.171  27.416  1.00  0.00     0.064 A 
ATOM     64  C   UNL A   1      42.034  23.978  28.085  1.00  0.00     0.173 A 
ATOM     65  C   UNL A   1      40.557  25.205  26.638  1.00  0.00     0.173 A 
ATOM     66  F   UNL A   1      43.146  23.890  28.830  1.00  0.00    -0.203 F 
ATOM     67  C   UNL A   1      41.214  22.859  27.966  1.00  0.00     0.198 A 
ATOM     68  C   UNL A   1      39.724  24.094  26.547  1.00  0.00     0.198 A 
ATOM     69  F   UNL A   1      40.213  26.323  25.982  1.00  0.00    -0.203 F 
ATOM     70  F   UNL A   1      41.549  21.717  28.582  1.00  0.00    -0.200 F 
ATOM     71  C   UNL A   1      40.054  22.921  27.207  1.00  0.00     0.200 A 
ATOM     72  F   UNL A   1      38.596  24.162  25.826  1.00  0.00    -0.200 F 
ATOM     73  F   UNL A   1      39.258  21.848  27.108  1.00  0.00    -0.200 F 
ENDBRANCH  49  63
BRANCH  50  74
ATOM     74  C   UNL A   1      47.131  33.401  28.876  1.00  0.00     0.064 A 
ATOM     75  C   UNL A   1      47.940  33.491  30.018  1.00  0.00     0.173 A 
ATOM     76  C   UNL A   1      47.104  34.504  28.011  1.00  0.00     0.173 A 
ATOM     77  F   UNL A   1      47.974  32.479  30.897  1.00  0.00    -0.203 F 
ATOM     78  C   UNL A   1      48.664  34.650  30.300  1.00  0.00     0.198 A 
ATOM     79  C   UNL A   1      47.856  35.649  28.275  1.00  0.00     0.198 A 
ATOM     80  F   UNL A   1      46.338  34.479  26.911  1.00  0.00    -0.203 F 
ATOM     81  F   UNL A   1      49.373  34.735  31.434  1.00  0.00    -0.200 F 
ATOM     82  C   UNL A   1      48.627  35.724  29.425  1.00  0.00     0.200 A 
ATOM     83  F   UNL A   1      47.821  36.682  27.423  1.00  0.00    -0.200 F 
ATOM     84  F   UNL A   1      49.317  36.840  29.700  1.00  0.00    -0.200 F 
ENDBRANCH  50  74
BRANCH  62  85
ATOM     85  C   UNL A   1      48.131  27.572  25.176  1.00  0.00     0.064 A 
ATOM     86  C   UNL A   1      48.070  27.658  23.776  1.00  0.00     0.173 A 
ATOM     87  C   UNL A   1      49.309  27.067  25.748  1.00  0.00     0.173 A 
ATOM     88  F   UNL A   1      46.964  28.122  23.176  1.00  0.00    -0.203 F 
ATOM     89  C   UNL A   1      49.134  27.229  22.984  1.00  0.00     0.198 A 
ATOM     90  C   UNL A   1      50.383  26.673  24.955  1.00  0.00     0.198 A 
ATOM     91  F   UNL A   1      49.426  26.972  27.081  1.00  0.00    -0.203 F 
ATOM     92  F   UNL A   1      49.032  27.274  21.649  1.00  0.00    -0.200 F 
ATOM     93  C   UNL A   1      50.292  26.746  23.575  1.00  0.00     0.200 A 
ATOM     94  F   UNL A   1      51.508  26.223  25.529  1.00  0.00    -0.200 F 
ATOM     95  F   UNL A   1      51.318  26.344  22.811  1.00  0.00    -0.200 F 
ENDBRANCH  62  85
ENDBRANCH  36  37
ENDBRANCH  29  31
ENDBRANCH  28  29
ENDBRANCH  27  28
ENDBRANCH  26  27
ENDBRANCH  25  26
ENDBRANCH  24  25
ENDBRANCH   1  24
TORSDOF 20
ENDMDL
