MODEL 1
REMARK VINA RESULT:     -11.6      0.000      0.000
REMARK SMILES CCc1cc(N2CCC[C@H](C(=O)OCCOCCOCCOC(=O)c3ccc(-c4c5nc(c(-c6c(F)c(F)c(F)c(F)c6F)c6ccc([nH]6)c(-c6c(F)c(F)c(F)c(F)c6F)c6nc(c(-c7c(F)c(F)c(F)c(F)c7F)c7ccc4[nH]7)C=C6)C=C5)cc3)C2)nc(-c2ccc(Cl)cc2)n1
REMARK SMILES IDX 17 1 16 2 15 3 14 4 13 5 11 6 12 7 10 8 6 9 7 10 88 11 8 12
REMARK SMILES IDX 9 13 5 14 3 15 4 16 98 17 90 18 89 19 2 20 1 21 91 22 92 23
REMARK SMILES IDX 97 24 93 25 96 26 94 27 95 28 18 29 19 30 20 31 21 32 22 33
REMARK SMILES IDX 23 34 24 35 25 36 26 37 87 38 27 39 86 40 28 41 29 42 30 43
REMARK SMILES IDX 80 44 31 45 85 46 79 47 81 48 32 49 84 50 78 51 77 52 33 54
REMARK SMILES IDX 65 55 45 56 64 57 46 58 49 59 63 60 82 61 47 62 48 63 62 65
REMARK SMILES IDX 83 66 50 67 34 68 35 69 43 70 36 71 37 72 41 73 44 74 38 75
REMARK SMILES IDX 39 76 42 77 40 78 66 79 67 80 75 81 68 82 69 83 73 84 76 85
REMARK SMILES IDX 70 86 71 87 74 88 72 89 51 90 52 91 60 92 53 93 54 94 58 95
REMARK SMILES IDX 61 96 55 97 56 98 59 99 57 100
REMARK H PARENT 81 53 49 64
REMARK Flexibility Score: inf
ROOT
ATOM      1  C   UNL A   1      34.406  29.008  27.003  1.00  0.00     0.188 C 
ENDROOT
BRANCH   1   2
ATOM      2  O   UNL A   1      33.219  28.452  26.471  1.00  0.00    -0.376 OA
BRANCH   2   3
ATOM      3  C   UNL A   1      33.170  27.040  26.267  1.00  0.00     0.202 C 
BRANCH   3   4
ATOM      4  C   UNL A   1      31.842  26.290  26.492  1.00  0.00     0.261 C 
BRANCH   4   5
ATOM      5  O   UNL A   1      31.121  25.937  25.290  1.00  0.00    -0.463 OA
BRANCH   5   6
ATOM      6  C   UNL A   1      31.043  24.619  24.992  1.00  0.00     0.310 C 
ATOM      7  O   UNL A   1      31.098  23.719  25.829  1.00  0.00    -0.252 OA
BRANCH   6   8
ATOM      8  C   UNL A   1      30.869  24.288  23.511  1.00  0.00     0.118 C 
ATOM      9  N   UNL A   1      33.050  23.328  23.379  1.00  0.00    -0.356 N 
ATOM     10  C   UNL A   1      33.614  24.215  22.378  1.00  0.00     0.118 C 
ATOM     11  C   UNL A   1      31.637  22.994  23.320  1.00  0.00     0.133 C 
ATOM     12  C   UNL A   1      32.792  25.501  22.303  1.00  0.00     0.022 C 
ATOM     13  C   UNL A   1      31.289  25.244  22.381  1.00  0.00     0.019 C 
BRANCH   9  14
ATOM     14  C   UNL A   1      33.872  22.445  24.040  1.00  0.00     0.132 A 
ATOM     15  C   UNL A   1      35.985  21.909  24.928  1.00  0.00     0.046 A 
ATOM     16  C   UNL A   1      35.140  22.848  24.391  1.00  0.00     0.070 A 
ATOM     17  N   UNL A   1      35.597  20.634  25.104  1.00  0.00    -0.233 NA
ATOM     18  C   UNL A   1      34.342  20.321  24.715  1.00  0.00     0.161 A 
ATOM     19  N   UNL A   1      33.452  21.182  24.197  1.00  0.00    -0.211 NA
BRANCH  15  20
ATOM     20  C   UNL A   1      37.414  22.265  25.236  1.00  0.00     0.053 C 
ATOM     21  C   UNL A   1      37.586  23.688  25.755  1.00  0.00     0.011 C 
ENDBRANCH  15  20
BRANCH  18  22
ATOM     22  C   UNL A   1      33.962  18.908  24.804  1.00  0.00     0.019 A 
ATOM     23  C   UNL A   1      32.804  18.526  25.503  1.00  0.00     0.013 A 
ATOM     24  C   UNL A   1      34.766  17.895  24.250  1.00  0.00     0.013 A 
ATOM     25  C   UNL A   1      32.468  17.179  25.665  1.00  0.00     0.021 A 
ATOM     26  C   UNL A   1      34.442  16.543  24.425  1.00  0.00     0.021 A 
ATOM     27  C   UNL A   1      33.296  16.193  25.136  1.00  0.00     0.041 A 
ATOM     28  Cl  UNL A   1      32.909  14.534  25.378  1.00  0.00    -0.084 Cl
ENDBRANCH  18  22
ENDBRANCH   9  14
ENDBRANCH   6   8
ENDBRANCH   5   6
ENDBRANCH   4   5
ENDBRANCH   3   4
ENDBRANCH   2   3
ENDBRANCH   1   2
BRANCH   1  29
ATOM     29  C   UNL A   1      34.336  30.397  27.641  1.00  0.00     0.188 C 
BRANCH  29  30
ATOM     30  O   UNL A   1      33.762  31.400  26.844  1.00  0.00    -0.376 OA
BRANCH  30  31
ATOM     31  C   UNL A   1      32.587  32.083  27.248  1.00  0.00     0.202 C 
BRANCH  31  32
ATOM     32  C   UNL A   1      32.516  33.624  27.299  1.00  0.00     0.261 C 
BRANCH  32  33
ATOM     33  O   UNL A   1      32.527  34.256  28.590  1.00  0.00    -0.460 OA
BRANCH  33  34
ATOM     34  C   UNL A   1      33.615  34.992  28.925  1.00  0.00     0.338 C 
ATOM     35  O   UNL A   1      33.648  36.196  29.124  1.00  0.00    -0.246 OA
BRANCH  34  36
ATOM     36  C   UNL A   1      34.691  34.038  29.319  1.00  0.00     0.060 A 
ATOM     37  C   UNL A   1      34.385  33.035  30.256  1.00  0.00     0.016 A 
ATOM     38  C   UNL A   1      35.942  34.048  28.699  1.00  0.00     0.016 A 
ATOM     39  C   UNL A   1      35.338  32.072  30.602  1.00  0.00     0.010 A 
ATOM     40  C   UNL A   1      36.905  33.097  29.063  1.00  0.00     0.010 A 
ATOM     41  C   UNL A   1      36.621  32.125  30.042  1.00  0.00    -0.014 A 
BRANCH  41  42
ATOM     42  C   UNL A   1      37.730  31.330  30.633  1.00  0.00     0.031 A 
ATOM     43  C   UNL A   1      38.107  31.609  32.064  1.00  0.00     0.074 A 
ATOM     44  C   UNL A   1      38.391  30.382  29.944  1.00  0.00     0.049 A 
ATOM     45  N   UNL A   1      39.086  31.123  32.783  1.00  0.00    -0.248 NA
ATOM     46  C   UNL A   1      37.261  32.579  32.779  1.00  0.00     0.031 C 
ATOM     47  C   UNL A   1      38.101  29.970  28.574  1.00  0.00     0.029 A 
ATOM     48  N   UNL A   1      39.461  29.600  30.313  1.00  0.00    -0.354 N 
ATOM     49  C   UNL A   1      38.982  31.738  34.025  1.00  0.00     0.074 A 
ATOM     50  C   UNL A   1      37.864  32.653  33.954  1.00  0.00     0.031 C 
ATOM     51  C   UNL A   1      38.985  29.023  28.208  1.00  0.00     0.029 A 
ATOM     52  C   UNL A   1      39.926  28.790  29.305  1.00  0.00     0.049 A 
ATOM     53  H   UNL A   1      39.858  29.620  31.213  1.00  0.00     0.167 HD
ATOM     54  C   UNL A   1      39.743  31.553  35.129  1.00  0.00     0.037 A 
ATOM     55  C   UNL A   1      41.003  27.979  29.265  1.00  0.00     0.037 A 
ATOM     56  C   UNL A   1      40.857  30.646  35.204  1.00  0.00     0.049 A 
ATOM     57  C   UNL A   1      41.892  27.853  30.481  1.00  0.00     0.074 A 
ATOM     58  C   UNL A   1      41.678  30.377  36.286  1.00  0.00     0.029 A 
ATOM     59  N   UNL A   1      41.315  29.868  34.152  1.00  0.00    -0.354 N 
ATOM     60  N   UNL A   1      41.774  28.418  31.659  1.00  0.00    -0.248 NA
ATOM     61  C   UNL A   1      43.067  26.976  30.359  1.00  0.00     0.031 C 
ATOM     62  C   UNL A   1      42.672  29.487  35.869  1.00  0.00     0.029 A 
ATOM     63  C   UNL A   1      42.428  29.143  34.549  1.00  0.00     0.049 A 
ATOM     64  H   UNL A   1      40.911  29.836  33.254  1.00  0.00     0.167 HD
ATOM     65  C   UNL A   1      42.831  27.939  32.424  1.00  0.00     0.074 A 
ATOM     66  C   UNL A   1      43.575  27.026  31.582  1.00  0.00     0.031 C 
ATOM     67  C   UNL A   1      43.155  28.226  33.709  1.00  0.00     0.037 A 
BRANCH  54  68
ATOM     68  C   UNL A   1      39.417  32.378  36.341  1.00  0.00     0.064 A 
ATOM     69  C   UNL A   1      40.060  33.597  36.601  1.00  0.00     0.173 A 
ATOM     70  C   UNL A   1      38.426  31.953  37.240  1.00  0.00     0.173 A 
ATOM     71  F   UNL A   1      41.027  34.040  35.784  1.00  0.00    -0.203 F 
ATOM     72  C   UNL A   1      39.743  34.347  37.732  1.00  0.00     0.198 A 
ATOM     73  C   UNL A   1      38.087  32.722  38.349  1.00  0.00     0.198 A 
ATOM     74  F   UNL A   1      37.779  30.796  37.036  1.00  0.00    -0.203 F 
ATOM     75  F   UNL A   1      40.408  35.481  37.990  1.00  0.00    -0.200 F 
ATOM     76  C   UNL A   1      38.751  33.913  38.599  1.00  0.00     0.200 A 
ATOM     77  F   UNL A   1      37.118  32.308  39.178  1.00  0.00    -0.200 F 
ATOM     78  F   UNL A   1      38.441  34.640  39.682  1.00  0.00    -0.200 F 
ENDBRANCH  54  68
BRANCH  55  79
ATOM     79  C   UNL A   1      41.327  27.225  28.022  1.00  0.00     0.064 A 
ATOM     80  C   UNL A   1      40.875  25.911  27.830  1.00  0.00     0.173 A 
ATOM     81  C   UNL A   1      42.134  27.786  27.020  1.00  0.00     0.173 A 
ATOM     82  F   UNL A   1      40.130  25.316  28.774  1.00  0.00    -0.203 F 
ATOM     83  C   UNL A   1      41.231  25.182  26.697  1.00  0.00     0.198 A 
ATOM     84  C   UNL A   1      42.462  27.067  25.871  1.00  0.00     0.198 A 
ATOM     85  F   UNL A   1      42.605  29.034  27.157  1.00  0.00    -0.203 F 
ATOM     86  F   UNL A   1      40.832  23.910  26.569  1.00  0.00    -0.200 F 
ATOM     87  C   UNL A   1      42.019  25.763  25.715  1.00  0.00     0.200 A 
ATOM     88  F   UNL A   1      43.218  27.636  24.922  1.00  0.00    -0.200 F 
ATOM     89  F   UNL A   1      42.363  25.062  24.626  1.00  0.00    -0.200 F 
ENDBRANCH  55  79
BRANCH  67  90
ATOM     90  C   UNL A   1      44.335  27.513  34.311  1.00  0.00     0.064 A 
ATOM     91  C   UNL A   1      44.214  26.250  34.911  1.00  0.00     0.173 A 
ATOM     92  C   UNL A   1      45.617  28.081  34.242  1.00  0.00     0.173 A 
ATOM     93  F   UNL A   1      43.011  25.664  35.015  1.00  0.00    -0.203 F 
ATOM     94  C   UNL A   1      45.324  25.600  35.445  1.00  0.00     0.198 A 
ATOM     95  C   UNL A   1      46.730  27.413  34.744  1.00  0.00     0.198 A 
ATOM     96  F   UNL A   1      45.794  29.282  33.669  1.00  0.00    -0.203 F 
ATOM     97  F   UNL A   1      45.175  24.418  36.060  1.00  0.00    -0.200 F 
ATOM     98  C   UNL A   1      46.583  26.177  35.353  1.00  0.00     0.200 A 
ATOM     99  F   UNL A   1      47.947  27.966  34.636  1.00  0.00    -0.200 F 
ATOM    100  F   UNL A   1      47.651  25.545  35.857  1.00  0.00    -0.200 F 
ENDBRANCH  67  90
ENDBRANCH  41  42
ENDBRANCH  34  36
ENDBRANCH  33  34
ENDBRANCH  32  33
ENDBRANCH  31  32
ENDBRANCH  30  31
ENDBRANCH  29  30
ENDBRANCH   1  29
TORSDOF 20
ENDMDL
MODEL 2
REMARK VINA RESULT:     -11.5      0.949      6.927
REMARK SMILES CCc1cc(N2CCC[C@H](C(=O)OCCOCCOCCOC(=O)c3ccc(-c4c5nc(c(-c6c(F)c(F)c(F)c(F)c6F)c6ccc([nH]6)c(-c6c(F)c(F)c(F)c(F)c6F)c6nc(c(-c7c(F)c(F)c(F)c(F)c7F)c7ccc4[nH]7)C=C6)C=C5)cc3)C2)nc(-c2ccc(Cl)cc2)n1
REMARK SMILES IDX 17 1 16 2 15 3 14 4 13 5 11 6 12 7 10 8 6 9 7 10 88 11 8 12
REMARK SMILES IDX 9 13 5 14 3 15 4 16 98 17 90 18 89 19 2 20 1 21 91 22 92 23
REMARK SMILES IDX 97 24 93 25 96 26 94 27 95 28 18 29 19 30 20 31 21 32 22 33
REMARK SMILES IDX 23 34 24 35 25 36 26 37 87 38 27 39 86 40 28 41 29 42 30 43
REMARK SMILES IDX 80 44 31 45 85 46 79 47 81 48 32 49 84 50 78 51 77 52 33 54
REMARK SMILES IDX 65 55 45 56 64 57 46 58 49 59 63 60 82 61 47 62 48 63 62 65
REMARK SMILES IDX 83 66 50 67 34 68 35 69 43 70 36 71 37 72 41 73 44 74 38 75
REMARK SMILES IDX 39 76 42 77 40 78 66 79 67 80 75 81 68 82 69 83 73 84 76 85
REMARK SMILES IDX 70 86 71 87 74 88 72 89 51 90 52 91 60 92 53 93 54 94 58 95
REMARK SMILES IDX 61 96 55 97 56 98 59 99 57 100
REMARK H PARENT 81 53 49 64
REMARK Flexibility Score: inf
ROOT
ATOM      1  C   UNL A   1      34.911  29.631  27.318  1.00  0.00     0.188 C 
ENDROOT
BRANCH   1   2
ATOM      2  O   UNL A   1      33.759  29.082  26.705  1.00  0.00    -0.376 OA
BRANCH   2   3
ATOM      3  C   UNL A   1      33.715  27.670  26.501  1.00  0.00     0.202 C 
BRANCH   3   4
ATOM      4  C   UNL A   1      32.354  26.947  26.527  1.00  0.00     0.261 C 
BRANCH   4   5
ATOM      5  O   UNL A   1      31.977  26.295  25.293  1.00  0.00    -0.463 OA
BRANCH   5   6
ATOM      6  C   UNL A   1      31.272  25.144  25.403  1.00  0.00     0.310 C 
ATOM      7  O   UNL A   1      31.110  24.534  26.460  1.00  0.00    -0.252 OA
BRANCH   6   8
ATOM      8  C   UNL A   1      30.657  24.622  24.106  1.00  0.00     0.118 C 
ATOM      9  N   UNL A   1      32.648  23.434  23.538  1.00  0.00    -0.356 N 
ATOM     10  C   UNL A   1      32.946  24.103  22.286  1.00  0.00     0.118 C 
ATOM     11  C   UNL A   1      31.261  23.241  23.931  1.00  0.00     0.133 C 
ATOM     12  C   UNL A   1      32.213  25.443  22.227  1.00  0.00     0.022 C 
ATOM     13  C   UNL A   1      30.784  25.356  22.760  1.00  0.00     0.019 C 
BRANCH   9  14
ATOM     14  C   UNL A   1      33.573  22.575  24.084  1.00  0.00     0.132 A 
ATOM     15  C   UNL A   1      35.797  22.107  24.698  1.00  0.00     0.046 A 
ATOM     16  C   UNL A   1      34.862  23.020  24.278  1.00  0.00     0.070 A 
ATOM     17  N   UNL A   1      35.476  20.818  24.910  1.00  0.00    -0.233 NA
ATOM     18  C   UNL A   1      34.194  20.466  24.677  1.00  0.00     0.161 A 
ATOM     19  N   UNL A   1      33.218  21.299  24.281  1.00  0.00    -0.211 NA
BRANCH  15  20
ATOM     20  C   UNL A   1      37.241  22.510  24.829  1.00  0.00     0.053 C 
ATOM     21  C   UNL A   1      38.133  21.399  25.373  1.00  0.00     0.011 C 
ENDBRANCH  15  20
BRANCH  18  22
ATOM     22  C   UNL A   1      33.874  19.040  24.800  1.00  0.00     0.019 A 
ATOM     23  C   UNL A   1      32.716  18.627  25.482  1.00  0.00     0.013 A 
ATOM     24  C   UNL A   1      34.737  18.048  24.299  1.00  0.00     0.013 A 
ATOM     25  C   UNL A   1      32.436  17.272  25.677  1.00  0.00     0.021 A 
ATOM     26  C   UNL A   1      34.468  16.688  24.508  1.00  0.00     0.021 A 
ATOM     27  C   UNL A   1      33.321  16.309  25.201  1.00  0.00     0.041 A 
ATOM     28  Cl  UNL A   1      33.001  14.643  25.484  1.00  0.00    -0.084 Cl
ENDBRANCH  18  22
ENDBRANCH   9  14
ENDBRANCH   6   8
ENDBRANCH   5   6
ENDBRANCH   4   5
ENDBRANCH   3   4
ENDBRANCH   2   3
ENDBRANCH   1   2
BRANCH   1  29
ATOM     29  C   UNL A   1      34.769  30.947  28.084  1.00  0.00     0.188 C 
BRANCH  29  30
ATOM     30  O   UNL A   1      34.250  32.024  27.347  1.00  0.00    -0.376 OA
BRANCH  30  31
ATOM     31  C   UNL A   1      32.886  32.400  27.449  1.00  0.00     0.202 C 
BRANCH  31  32
ATOM     32  C   UNL A   1      32.455  33.878  27.563  1.00  0.00     0.261 C 
BRANCH  32  33
ATOM     33  O   UNL A   1      32.386  34.461  28.875  1.00  0.00    -0.460 OA
BRANCH  33  34
ATOM     34  C   UNL A   1      33.344  35.354  29.222  1.00  0.00     0.338 C 
ATOM     35  O   UNL A   1      33.203  36.559  29.359  1.00  0.00    -0.246 OA
BRANCH  34  36
ATOM     36  C   UNL A   1      34.517  34.577  29.716  1.00  0.00     0.060 A 
ATOM     37  C   UNL A   1      34.315  33.649  30.753  1.00  0.00     0.016 A 
ATOM     38  C   UNL A   1      35.767  34.666  29.099  1.00  0.00     0.016 A 
ATOM     39  C   UNL A   1      35.368  32.843  31.199  1.00  0.00     0.010 A 
ATOM     40  C   UNL A   1      36.827  33.876  29.563  1.00  0.00     0.010 A 
ATOM     41  C   UNL A   1      36.644  32.985  30.638  1.00  0.00    -0.014 A 
BRANCH  41  42
ATOM     42  C   UNL A   1      37.828  32.390  31.312  1.00  0.00     0.031 A 
ATOM     43  C   UNL A   1      38.569  31.294  30.589  1.00  0.00     0.074 A 
ATOM     44  C   UNL A   1      38.255  32.793  32.521  1.00  0.00     0.049 A 
ATOM     45  N   UNL A   1      39.571  30.555  30.989  1.00  0.00    -0.248 NA
ATOM     46  C   UNL A   1      38.105  30.992  29.224  1.00  0.00     0.031 C 
ATOM     47  C   UNL A   1      37.671  33.873  33.312  1.00  0.00     0.029 A 
ATOM     48  N   UNL A   1      39.285  32.322  33.303  1.00  0.00    -0.354 N 
ATOM     49  C   UNL A   1      39.846  29.693  29.935  1.00  0.00     0.074 A 
ATOM     50  C   UNL A   1      38.888  29.981  28.889  1.00  0.00     0.031 C 
ATOM     51  C   UNL A   1      38.338  33.970  34.476  1.00  0.00     0.029 A 
ATOM     52  C   UNL A   1      39.372  32.936  34.530  1.00  0.00     0.049 A 
ATOM     53  H   UNL A   1      39.900  31.612  33.012  1.00  0.00     0.167 HD
ATOM     54  C   UNL A   1      40.813  28.750  29.840  1.00  0.00     0.037 A 
ATOM     55  C   UNL A   1      40.174  32.672  35.581  1.00  0.00     0.037 A 
ATOM     56  C   UNL A   1      41.766  28.459  30.878  1.00  0.00     0.049 A 
ATOM     57  C   UNL A   1      41.189  31.556  35.488  1.00  0.00     0.074 A 
ATOM     58  C   UNL A   1      42.795  27.534  30.867  1.00  0.00     0.029 A 
ATOM     59  N   UNL A   1      41.800  29.080  32.116  1.00  0.00    -0.354 N 
ATOM     60  N   UNL A   1      41.460  30.761  34.480  1.00  0.00    -0.248 NA
ATOM     61  C   UNL A   1      42.010  31.301  36.682  1.00  0.00     0.031 C 
ATOM     62  C   UNL A   1      43.409  27.549  32.123  1.00  0.00     0.029 A 
ATOM     63  C   UNL A   1      42.812  28.535  32.891  1.00  0.00     0.049 A 
ATOM     64  H   UNL A   1      41.194  29.802  32.404  1.00  0.00     0.167 HD
ATOM     65  C   UNL A   1      42.501  29.942  34.904  1.00  0.00     0.074 A 
ATOM     66  C   UNL A   1      42.823  30.344  36.257  1.00  0.00     0.031 C 
ATOM     67  C   UNL A   1      43.135  28.949  34.233  1.00  0.00     0.037 A 
BRANCH  54  68
ATOM     68  C   UNL A   1      40.867  27.937  28.579  1.00  0.00     0.064 A 
ATOM     69  C   UNL A   1      41.645  28.328  27.478  1.00  0.00     0.173 A 
ATOM     70  C   UNL A   1      40.149  26.735  28.482  1.00  0.00     0.173 A 
ATOM     71  F   UNL A   1      42.335  29.477  27.512  1.00  0.00    -0.203 F 
ATOM     72  C   UNL A   1      41.680  27.559  26.317  1.00  0.00     0.198 A 
ATOM     73  C   UNL A   1      40.215  25.951  27.334  1.00  0.00     0.198 A 
ATOM     74  F   UNL A   1      39.392  26.315  29.506  1.00  0.00    -0.203 F 
ATOM     75  F   UNL A   1      42.386  27.978  25.259  1.00  0.00    -0.200 F 
ATOM     76  C   UNL A   1      40.972  26.367  26.250  1.00  0.00     0.200 A 
ATOM     77  F   UNL A   1      39.542  24.793  27.276  1.00  0.00    -0.200 F 
ATOM     78  F   UNL A   1      41.014  25.623  25.136  1.00  0.00    -0.200 F 
ENDBRANCH  54  68
BRANCH  55  79
ATOM     79  C   UNL A   1      40.047  33.461  36.838  1.00  0.00     0.064 A 
ATOM     80  C   UNL A   1      39.128  33.098  37.833  1.00  0.00     0.173 A 
ATOM     81  C   UNL A   1      40.807  34.621  37.050  1.00  0.00     0.173 A 
ATOM     82  F   UNL A   1      38.351  32.018  37.664  1.00  0.00    -0.203 F 
ATOM     83  C   UNL A   1      38.961  33.872  38.981  1.00  0.00     0.198 A 
ATOM     84  C   UNL A   1      40.664  35.376  38.213  1.00  0.00     0.198 A 
ATOM     85  F   UNL A   1      41.693  35.022  36.126  1.00  0.00    -0.203 F 
ATOM     86  F   UNL A   1      38.035  33.532  39.887  1.00  0.00    -0.200 F 
ATOM     87  C   UNL A   1      39.735  35.007  39.173  1.00  0.00     0.200 A 
ATOM     88  F   UNL A   1      41.419  36.468  38.397  1.00  0.00    -0.200 F 
ATOM     89  F   UNL A   1      39.574  35.752  40.275  1.00  0.00    -0.200 F 
ENDBRANCH  55  79
BRANCH  67  90
ATOM     90  C   UNL A   1      44.277  28.254  34.922  1.00  0.00     0.064 A 
ATOM     91  C   UNL A   1      44.090  27.088  35.679  1.00  0.00     0.173 A 
ATOM     92  C   UNL A   1      45.588  28.736  34.781  1.00  0.00     0.173 A 
ATOM     93  F   UNL A   1      42.858  26.589  35.857  1.00  0.00    -0.203 F 
ATOM     94  C   UNL A   1      45.166  26.450  36.293  1.00  0.00     0.198 A 
ATOM     95  C   UNL A   1      46.666  28.076  35.365  1.00  0.00     0.198 A 
ATOM     96  F   UNL A   1      45.828  29.841  34.059  1.00  0.00    -0.203 F 
ATOM     97  F   UNL A   1      44.956  25.367  37.055  1.00  0.00    -0.200 F 
ATOM     98  C   UNL A   1      46.454  26.939  36.128  1.00  0.00     0.200 A 
ATOM     99  F   UNL A   1      47.911  28.541  35.187  1.00  0.00    -0.200 F 
ATOM    100  F   UNL A   1      47.489  26.318  36.709  1.00  0.00    -0.200 F 
ENDBRANCH  67  90
ENDBRANCH  41  42
ENDBRANCH  34  36
ENDBRANCH  33  34
ENDBRANCH  32  33
ENDBRANCH  31  32
ENDBRANCH  30  31
ENDBRANCH  29  30
ENDBRANCH   1  29
TORSDOF 20
ENDMDL
MODEL 3
REMARK VINA RESULT:     -11.5      2.128      3.779
REMARK SMILES CCc1cc(N2CCC[C@H](C(=O)OCCOCCOCCOC(=O)c3ccc(-c4c5nc(c(-c6c(F)c(F)c(F)c(F)c6F)c6ccc([nH]6)c(-c6c(F)c(F)c(F)c(F)c6F)c6nc(c(-c7c(F)c(F)c(F)c(F)c7F)c7ccc4[nH]7)C=C6)C=C5)cc3)C2)nc(-c2ccc(Cl)cc2)n1
REMARK SMILES IDX 17 1 16 2 15 3 14 4 13 5 11 6 12 7 10 8 6 9 7 10 88 11 8 12
REMARK SMILES IDX 9 13 5 14 3 15 4 16 98 17 90 18 89 19 2 20 1 21 91 22 92 23
REMARK SMILES IDX 97 24 93 25 96 26 94 27 95 28 18 29 19 30 20 31 21 32 22 33
REMARK SMILES IDX 23 34 24 35 25 36 26 37 87 38 27 39 86 40 28 41 29 42 30 43
REMARK SMILES IDX 80 44 31 45 85 46 79 47 81 48 32 49 84 50 78 51 77 52 33 54
REMARK SMILES IDX 65 55 45 56 64 57 46 58 49 59 63 60 82 61 47 62 48 63 62 65
REMARK SMILES IDX 83 66 50 67 34 68 35 69 43 70 36 71 37 72 41 73 44 74 38 75
REMARK SMILES IDX 39 76 42 77 40 78 66 79 67 80 75 81 68 82 69 83 73 84 76 85
REMARK SMILES IDX 70 86 71 87 74 88 72 89 51 90 52 91 60 92 53 93 54 94 58 95
REMARK SMILES IDX 61 96 55 97 56 98 59 99 57 100
REMARK H PARENT 81 53 49 64
REMARK Flexibility Score: inf
ROOT
ATOM      1  C   UNL A   1      34.416  31.560  27.974  1.00  0.00     0.188 C 
ENDROOT
BRANCH   1   2
ATOM      2  O   UNL A   1      33.211  30.931  27.578  1.00  0.00    -0.376 OA
BRANCH   2   3
ATOM      3  C   UNL A   1      33.290  29.852  26.648  1.00  0.00     0.202 C 
BRANCH   3   4
ATOM      4  C   UNL A   1      32.291  28.683  26.761  1.00  0.00     0.261 C 
BRANCH   4   5
ATOM      5  O   UNL A   1      32.542  27.568  25.875  1.00  0.00    -0.463 OA
BRANCH   5   6
ATOM      6  C   UNL A   1      31.759  26.475  26.036  1.00  0.00     0.310 C 
ATOM      7  O   UNL A   1      31.897  25.656  26.944  1.00  0.00    -0.252 OA
BRANCH   6   8
ATOM      8  C   UNL A   1      30.647  26.305  25.003  1.00  0.00     0.118 C 
ATOM      9  N   UNL A   1      31.931  24.729  23.753  1.00  0.00    -0.356 N 
ATOM     10  C   UNL A   1      32.001  25.457  22.500  1.00  0.00     0.118 C 
ATOM     11  C   UNL A   1      30.742  24.851  24.582  1.00  0.00     0.133 C 
ATOM     12  C   UNL A   1      31.704  26.936  22.743  1.00  0.00     0.022 C 
ATOM     13  C   UNL A   1      30.552  27.151  23.722  1.00  0.00     0.019 C 
BRANCH   9  14
ATOM     14  C   UNL A   1      32.693  23.597  23.921  1.00  0.00     0.132 A 
ATOM     15  C   UNL A   1      32.837  21.259  24.163  1.00  0.00     0.046 A 
ATOM     16  C   UNL A   1      32.082  22.365  23.860  1.00  0.00     0.070 A 
ATOM     17  N   UNL A   1      34.130  21.367  24.515  1.00  0.00    -0.233 NA
ATOM     18  C   UNL A   1      34.644  22.614  24.567  1.00  0.00     0.161 A 
ATOM     19  N   UNL A   1      33.979  23.742  24.271  1.00  0.00    -0.211 NA
BRANCH  15  20
ATOM     20  C   UNL A   1      32.199  19.898  24.213  1.00  0.00     0.053 C 
ATOM     21  C   UNL A   1      33.184  18.758  23.980  1.00  0.00     0.011 C 
ENDBRANCH  15  20
BRANCH  18  22
ATOM     22  C   UNL A   1      36.020  22.736  25.058  1.00  0.00     0.019 A 
ATOM     23  C   UNL A   1      36.850  21.605  25.135  1.00  0.00     0.013 A 
ATOM     24  C   UNL A   1      36.529  23.964  25.522  1.00  0.00     0.013 A 
ATOM     25  C   UNL A   1      38.137  21.687  25.674  1.00  0.00     0.021 A 
ATOM     26  C   UNL A   1      37.812  24.047  26.079  1.00  0.00     0.021 A 
ATOM     27  C   UNL A   1      38.607  22.906  26.156  1.00  0.00     0.041 A 
ATOM     28  Cl  UNL A   1      40.172  22.996  26.865  1.00  0.00    -0.084 Cl
ENDBRANCH  18  22
ENDBRANCH   9  14
ENDBRANCH   6   8
ENDBRANCH   5   6
ENDBRANCH   4   5
ENDBRANCH   3   4
ENDBRANCH   2   3
ENDBRANCH   1   2
BRANCH   1  29
ATOM     29  C   UNL A   1      34.391  32.472  29.202  1.00  0.00     0.188 C 
BRANCH  29  30
ATOM     30  O   UNL A   1      34.771  33.805  28.973  1.00  0.00    -0.376 OA
BRANCH  30  31
ATOM     31  C   UNL A   1      33.852  34.757  28.461  1.00  0.00     0.202 C 
BRANCH  31  32
ATOM     32  C   UNL A   1      33.074  35.717  29.387  1.00  0.00     0.261 C 
BRANCH  32  33
ATOM     33  O   UNL A   1      32.412  35.158  30.534  1.00  0.00    -0.460 OA
BRANCH  33  34
ATOM     34  C   UNL A   1      32.717  35.669  31.751  1.00  0.00     0.338 C 
ATOM     35  O   UNL A   1      32.024  36.415  32.424  1.00  0.00    -0.246 OA
BRANCH  34  36
ATOM     36  C   UNL A   1      33.895  34.912  32.267  1.00  0.00     0.060 A 
ATOM     37  C   UNL A   1      35.161  35.520  32.198  1.00  0.00     0.016 A 
ATOM     38  C   UNL A   1      33.750  33.683  32.913  1.00  0.00     0.016 A 
ATOM     39  C   UNL A   1      36.284  34.883  32.736  1.00  0.00     0.010 A 
ATOM     40  C   UNL A   1      34.879  33.034  33.429  1.00  0.00     0.010 A 
ATOM     41  C   UNL A   1      36.158  33.613  33.314  1.00  0.00    -0.014 A 
BRANCH  41  42
ATOM     42  C   UNL A   1      37.366  32.791  33.585  1.00  0.00     0.031 A 
ATOM     43  C   UNL A   1      38.124  33.056  34.861  1.00  0.00     0.074 A 
ATOM     44  C   UNL A   1      37.795  31.831  32.745  1.00  0.00     0.049 A 
ATOM     45  N   UNL A   1      39.249  32.544  35.289  1.00  0.00    -0.248 NA
ATOM     46  C   UNL A   1      37.524  34.042  35.775  1.00  0.00     0.031 C 
ATOM     47  C   UNL A   1      37.136  31.431  31.506  1.00  0.00     0.029 A 
ATOM     48  N   UNL A   1      38.907  31.024  32.813  1.00  0.00    -0.354 N 
ATOM     49  C   UNL A   1      39.498  33.156  36.511  1.00  0.00     0.074 A 
ATOM     50  C   UNL A   1      38.424  34.096  36.743  1.00  0.00     0.031 C 
ATOM     51  C   UNL A   1      37.866  30.466  30.916  1.00  0.00     0.029 A 
ATOM     52  C   UNL A   1      39.063  30.208  31.718  1.00  0.00     0.049 A 
ATOM     53  H   UNL A   1      39.532  31.031  33.572  1.00  0.00     0.167 HD
ATOM     54  C   UNL A   1      40.525  32.949  37.369  1.00  0.00     0.037 A 
ATOM     55  C   UNL A   1      40.070  29.372  31.390  1.00  0.00     0.037 A 
ATOM     56  C   UNL A   1      41.597  32.017  37.142  1.00  0.00     0.049 A 
ATOM     57  C   UNL A   1      41.251  29.221  32.321  1.00  0.00     0.074 A 
ATOM     58  C   UNL A   1      42.673  31.725  37.962  1.00  0.00     0.029 A 
ATOM     59  N   UNL A   1      41.736  31.233  36.007  1.00  0.00    -0.354 N 
ATOM     60  N   UNL A   1      41.469  29.784  33.485  1.00  0.00    -0.248 NA
ATOM     61  C   UNL A   1      42.329  28.318  31.888  1.00  0.00     0.031 C 
ATOM     62  C   UNL A   1      43.496  30.814  37.294  1.00  0.00     0.029 A 
ATOM     63  C   UNL A   1      42.897  30.482  36.090  1.00  0.00     0.049 A 
ATOM     64  H   UNL A   1      41.102  31.214  35.252  1.00  0.00     0.167 HD
ATOM     65  C   UNL A   1      42.683  29.277  33.937  1.00  0.00     0.074 A 
ATOM     66  C   UNL A   1      43.150  28.351  32.928  1.00  0.00     0.031 C 
ATOM     67  C   UNL A   1      43.348  29.552  35.086  1.00  0.00     0.037 A 
BRANCH  54  68
ATOM     68  C   UNL A   1      40.558  33.776  38.622  1.00  0.00     0.064 A 
ATOM     69  C   UNL A   1      39.832  33.414  39.767  1.00  0.00     0.173 A 
ATOM     70  C   UNL A   1      41.349  34.933  38.685  1.00  0.00     0.173 A 
ATOM     71  F   UNL A   1      39.046  32.327  39.755  1.00  0.00    -0.203 F 
ATOM     72  C   UNL A   1      39.876  34.196  40.919  1.00  0.00     0.198 A 
ATOM     73  C   UNL A   1      41.418  35.693  39.849  1.00  0.00     0.198 A 
ATOM     74  F   UNL A   1      42.064  35.323  37.619  1.00  0.00    -0.203 F 
ATOM     75  F   UNL A   1      39.133  33.861  41.983  1.00  0.00    -0.200 F 
ATOM     76  C   UNL A   1      40.676  35.329  40.962  1.00  0.00     0.200 A 
ATOM     77  F   UNL A   1      42.203  36.779  39.893  1.00  0.00    -0.200 F 
ATOM     78  F   UNL A   1      40.724  36.075  42.074  1.00  0.00    -0.200 F 
ENDBRANCH  54  68
BRANCH  55  79
ATOM     79  C   UNL A   1      40.029  28.616  30.108  1.00  0.00     0.064 A 
ATOM     80  C   UNL A   1      39.431  27.350  30.030  1.00  0.00     0.173 A 
ATOM     81  C   UNL A   1      40.626  29.124  28.944  1.00  0.00     0.173 A 
ATOM     82  F   UNL A   1      38.877  26.803  31.122  1.00  0.00    -0.203 F 
ATOM     83  C   UNL A   1      39.448  26.614  28.846  1.00  0.00     0.198 A 
ATOM     84  C   UNL A   1      40.613  28.401  27.751  1.00  0.00     0.198 A 
ATOM     85  F   UNL A   1      41.223  30.325  28.964  1.00  0.00    -0.203 F 
ATOM     86  F   UNL A   1      38.920  25.383  28.817  1.00  0.00    -0.200 F 
ATOM     87  C   UNL A   1      40.034  27.143  27.706  1.00  0.00     0.200 A 
ATOM     88  F   UNL A   1      41.174  28.921  26.651  1.00  0.00    -0.200 F 
ATOM     89  F   UNL A   1      40.051  26.435  26.568  1.00  0.00    -0.200 F 
ENDBRANCH  55  79
BRANCH  67  90
ATOM     90  C   UNL A   1      44.631  28.809  35.349  1.00  0.00     0.064 A 
ATOM     91  C   UNL A   1      45.880  29.331  34.982  1.00  0.00     0.173 A 
ATOM     92  C   UNL A   1      44.610  27.578  36.024  1.00  0.00     0.173 A 
ATOM     93  F   UNL A   1      45.959  30.498  34.326  1.00  0.00    -0.203 F 
ATOM     94  C   UNL A   1      47.056  28.634  35.254  1.00  0.00     0.198 A 
ATOM     95  C   UNL A   1      45.789  26.902  36.325  1.00  0.00     0.198 A 
ATOM     96  F   UNL A   1      43.444  27.037  36.408  1.00  0.00    -0.203 F 
ATOM     97  F   UNL A   1      48.235  29.127  34.847  1.00  0.00    -0.200 F 
ATOM     98  C   UNL A   1      47.011  27.425  35.933  1.00  0.00     0.200 A 
ATOM     99  F   UNL A   1      45.742  25.743  36.998  1.00  0.00    -0.200 F 
ATOM    100  F   UNL A   1      48.143  26.762  36.202  1.00  0.00    -0.200 F 
ENDBRANCH  67  90
ENDBRANCH  41  42
ENDBRANCH  34  36
ENDBRANCH  33  34
ENDBRANCH  32  33
ENDBRANCH  31  32
ENDBRANCH  30  31
ENDBRANCH  29  30
ENDBRANCH   1  29
TORSDOF 20
ENDMDL
