MODEL 1
REMARK VINA RESULT:     -11.3      0.000      0.000
REMARK SMILES O=C(CCc1cn(-c2ccc(Br)cc2)nc1-c1ccccc1)OCCOCCOCCOC(=O)c1ccc(-c2c3nc(c(-c4c(F)c(F)c(F)c(F)c4F)c4ccc([nH]4)c(-c4c(F)c(F)c(F)c(F)c4F)c4nc(c(-c5c(F)c(F)c(F)c(F)c5F)c5ccc2[nH]5)C=C4)C=C3)cc1
REMARK SMILES IDX 27 1 26 2 25 3 24 4 23 5 2 6 1 7 3 8 4 9 5 10 6 11 16 12
REMARK SMILES IDX 7 13 15 14 17 15 18 16 22 17 19 18 21 19 20 20 8 21 9 22
REMARK SMILES IDX 14 23 10 24 13 25 11 26 12 27 28 28 29 29 30 30 31 31 32 32
REMARK SMILES IDX 33 33 34 34 35 35 36 36 97 37 37 38 96 39 38 40 39 41 40 42
REMARK SMILES IDX 90 43 41 44 95 45 89 46 91 47 42 48 94 49 88 50 87 51 43 53
REMARK SMILES IDX 75 54 55 55 74 56 56 57 59 58 73 59 92 60 57 61 58 62 72 64
REMARK SMILES IDX 93 65 60 66 44 67 45 68 53 69 46 70 47 71 51 72 54 73 48 74
REMARK SMILES IDX 49 75 52 76 50 77 76 78 77 79 85 80 78 81 79 82 83 83 86 84
REMARK SMILES IDX 80 85 81 86 84 87 82 88 61 89 62 90 70 91 63 92 64 93 68 94
REMARK SMILES IDX 71 95 65 96 66 97 69 98 67 99
REMARK H PARENT 91 52 59 63
REMARK Flexibility Score: inf
ROOT
ATOM      1  C   UNL A   1      33.375  33.886  28.594  1.00  0.00     0.188 C 
ENDROOT
BRANCH   1   2
ATOM      2  O   UNL A   1      33.491  32.725  27.780  1.00  0.00    -0.376 OA
BRANCH   2   3
ATOM      3  C   UNL A   1      34.367  31.686  28.200  1.00  0.00     0.202 C 
BRANCH   3   4
ATOM      4  C   UNL A   1      34.670  30.555  27.221  1.00  0.00     0.261 C 
BRANCH   4   5
ATOM      5  O   UNL A   1      34.095  29.264  27.507  1.00  0.00    -0.463 OA
BRANCH   5   6
ATOM      6  C   UNL A   1      32.946  28.719  27.074  1.00  0.00     0.306 C 
ATOM      7  O   UNL A   1      31.904  29.370  27.148  1.00  0.00    -0.252 OA
BRANCH   6   8
ATOM      8  C   UNL A   1      32.927  27.321  26.530  1.00  0.00     0.127 C 
BRANCH   8   9
ATOM      9  C   UNL A   1      31.637  26.569  26.846  1.00  0.00     0.051 C 
BRANCH   9  10
ATOM     10  C   UNL A   1      31.346  25.481  25.866  1.00  0.00    -0.001 A 
ATOM     11  C   UNL A   1      31.583  24.128  26.019  1.00  0.00     0.119 A 
ATOM     12  C   UNL A   1      30.835  25.601  24.540  1.00  0.00     0.096 A 
ATOM     13  N   UNL A   1      31.413  23.551  24.779  1.00  0.00    -0.240 N 
ATOM     14  N   UNL A   1      30.926  24.439  23.881  1.00  0.00    -0.168 NA
BRANCH  12  15
ATOM     15  C   UNL A   1      30.350  26.812  23.895  1.00  0.00     0.002 A 
ATOM     16  C   UNL A   1      31.253  27.644  23.227  1.00  0.00     0.010 A 
ATOM     17  C   UNL A   1      28.985  27.114  23.864  1.00  0.00     0.010 A 
ATOM     18  C   UNL A   1      30.789  28.744  22.505  1.00  0.00     0.001 A 
ATOM     19  C   UNL A   1      28.520  28.202  23.125  1.00  0.00     0.001 A 
ATOM     20  C   UNL A   1      29.423  29.014  22.441  1.00  0.00     0.000 A 
ENDBRANCH  12  15
BRANCH  13  21
ATOM     21  C   UNL A   1      31.821  22.249  24.385  1.00  0.00     0.065 A 
ATOM     22  C   UNL A   1      31.792  21.860  23.039  1.00  0.00     0.029 A 
ATOM     23  C   UNL A   1      32.207  21.325  25.369  1.00  0.00     0.029 A 
ATOM     24  C   UNL A   1      32.156  20.557  22.682  1.00  0.00     0.018 A 
ATOM     25  C   UNL A   1      32.534  20.015  25.011  1.00  0.00     0.018 A 
ATOM     26  C   UNL A   1      32.514  19.639  23.669  1.00  0.00     0.018 A 
ATOM     27  Br  UNL A   1      32.976  17.872  23.182  1.00  0.00    -0.051 Br
ENDBRANCH  13  21
ENDBRANCH   9  10
ENDBRANCH   8   9
ENDBRANCH   6   8
ENDBRANCH   5   6
ENDBRANCH   4   5
ENDBRANCH   3   4
ENDBRANCH   2   3
ENDBRANCH   1   2
BRANCH   1  28
ATOM     28  C   UNL A   1      34.634  34.482  29.255  1.00  0.00     0.188 C 
BRANCH  28  29
ATOM     29  O   UNL A   1      34.710  34.333  30.671  1.00  0.00    -0.376 OA
BRANCH  29  30
ATOM     30  C   UNL A   1      35.747  33.473  31.136  1.00  0.00     0.202 C 
BRANCH  30  31
ATOM     31  C   UNL A   1      35.180  32.221  31.808  1.00  0.00     0.261 C 
BRANCH  31  32
ATOM     32  O   UNL A   1      35.670  30.995  31.261  1.00  0.00    -0.460 OA
BRANCH  32  33
ATOM     33  C   UNL A   1      36.670  30.412  31.949  1.00  0.00     0.338 C 
ATOM     34  O   UNL A   1      37.102  30.750  33.037  1.00  0.00    -0.246 OA
BRANCH  33  35
ATOM     35  C   UNL A   1      37.276  29.334  31.151  1.00  0.00     0.060 A 
ATOM     36  C   UNL A   1      38.054  28.412  31.856  1.00  0.00     0.016 A 
ATOM     37  C   UNL A   1      37.308  29.403  29.751  1.00  0.00     0.016 A 
ATOM     38  C   UNL A   1      39.058  27.750  31.185  1.00  0.00     0.010 A 
ATOM     39  C   UNL A   1      38.315  28.738  29.077  1.00  0.00     0.010 A 
ATOM     40  C   UNL A   1      39.251  28.025  29.828  1.00  0.00    -0.014 A 
BRANCH  40  41
ATOM     41  C   UNL A   1      40.585  27.762  29.313  1.00  0.00     0.031 A 
ATOM     42  C   UNL A   1      40.869  26.410  28.796  1.00  0.00     0.074 A 
ATOM     43  C   UNL A   1      41.534  28.720  29.341  1.00  0.00     0.049 A 
ATOM     44  N   UNL A   1      41.792  25.590  29.181  1.00  0.00    -0.248 NA
ATOM     45  C   UNL A   1      40.005  25.903  27.724  1.00  0.00     0.031 C 
ATOM     46  C   UNL A   1      41.353  30.154  29.591  1.00  0.00     0.029 A 
ATOM     47  N   UNL A   1      42.863  28.614  29.058  1.00  0.00    -0.354 N 
ATOM     48  C   UNL A   1      41.737  24.521  28.295  1.00  0.00     0.074 A 
ATOM     49  C   UNL A   1      40.572  24.724  27.468  1.00  0.00     0.031 C 
ATOM     50  C   UNL A   1      42.484  30.808  29.247  1.00  0.00     0.029 A 
ATOM     51  C   UNL A   1      43.494  29.832  28.874  1.00  0.00     0.049 A 
ATOM     52  H   UNL A   1      43.332  27.752  28.990  1.00  0.00     0.167 HD
ATOM     53  C   UNL A   1      42.762  23.639  28.170  1.00  0.00     0.037 A 
ATOM     54  C   UNL A   1      44.735  30.036  28.375  1.00  0.00     0.037 A 
ATOM     55  C   UNL A   1      43.595  23.588  29.338  1.00  0.00     0.049 A 
ATOM     56  C   UNL A   1      45.504  28.778  28.514  1.00  0.00     0.074 A 
ATOM     57  C   UNL A   1      43.374  23.293  30.671  1.00  0.00     0.029 A 
ATOM     58  N   UNL A   1      44.852  24.132  29.290  1.00  0.00    -0.354 N 
ATOM     59  N   UNL A   1      45.950  28.299  29.641  1.00  0.00    -0.248 NA
ATOM     60  C   UNL A   1      45.501  27.844  27.398  1.00  0.00     0.031 C 
ATOM     61  C   UNL A   1      44.310  24.084  31.398  1.00  0.00     0.029 A 
ATOM     62  C   UNL A   1      45.037  24.819  30.464  1.00  0.00     0.049 A 
ATOM     63  H   UNL A   1      45.499  24.046  28.553  1.00  0.00     0.167 HD
ATOM     64  C   UNL A   1      45.900  26.923  29.483  1.00  0.00     0.074 A 
ATOM     65  C   UNL A   1      45.748  26.707  28.051  1.00  0.00     0.031 C 
ATOM     66  C   UNL A   1      45.701  26.098  30.551  1.00  0.00     0.037 A 
BRANCH  53  67
ATOM     67  C   UNL A   1      43.151  23.032  26.853  1.00  0.00     0.064 A 
ATOM     68  C   UNL A   1      42.998  21.651  26.638  1.00  0.00     0.173 A 
ATOM     69  C   UNL A   1      43.917  23.725  25.890  1.00  0.00     0.173 A 
ATOM     70  F   UNL A   1      42.335  20.893  27.523  1.00  0.00    -0.203 F 
ATOM     71  C   UNL A   1      43.593  21.008  25.550  1.00  0.00     0.198 A 
ATOM     72  C   UNL A   1      44.464  23.091  24.778  1.00  0.00     0.198 A 
ATOM     73  F   UNL A   1      44.246  25.015  26.049  1.00  0.00    -0.203 F 
ATOM     74  F   UNL A   1      43.509  19.676  25.437  1.00  0.00    -0.200 F 
ATOM     75  C   UNL A   1      44.321  21.729  24.619  1.00  0.00     0.200 A 
ATOM     76  F   UNL A   1      45.188  23.802  23.901  1.00  0.00    -0.200 F 
ATOM     77  F   UNL A   1      44.928  21.106  23.599  1.00  0.00    -0.200 F 
ENDBRANCH  53  67
BRANCH  54  78
ATOM     78  C   UNL A   1      45.208  31.182  27.570  1.00  0.00     0.064 A 
ATOM     79  C   UNL A   1      44.465  31.663  26.481  1.00  0.00     0.173 A 
ATOM     80  C   UNL A   1      46.282  31.987  28.000  1.00  0.00     0.173 A 
ATOM     81  F   UNL A   1      43.394  30.987  26.043  1.00  0.00    -0.203 F 
ATOM     82  C   UNL A   1      44.776  32.880  25.865  1.00  0.00     0.198 A 
ATOM     83  C   UNL A   1      46.602  33.191  27.376  1.00  0.00     0.198 A 
ATOM     84  F   UNL A   1      46.989  31.668  29.095  1.00  0.00    -0.203 F 
ATOM     85  F   UNL A   1      44.007  33.337  24.867  1.00  0.00    -0.200 F 
ATOM     86  C   UNL A   1      45.841  33.643  26.314  1.00  0.00     0.200 A 
ATOM     87  F   UNL A   1      47.613  33.935  27.844  1.00  0.00    -0.200 F 
ATOM     88  F   UNL A   1      46.109  34.831  25.755  1.00  0.00    -0.200 F 
ENDBRANCH  54  78
BRANCH  66  89
ATOM     89  C   UNL A   1      45.893  26.677  31.921  1.00  0.00     0.064 A 
ATOM     90  C   UNL A   1      47.126  26.675  32.595  1.00  0.00     0.173 A 
ATOM     91  C   UNL A   1      44.826  27.361  32.519  1.00  0.00     0.173 A 
ATOM     92  F   UNL A   1      48.215  26.133  32.034  1.00  0.00    -0.203 F 
ATOM     93  C   UNL A   1      47.265  27.285  33.840  1.00  0.00     0.198 A 
ATOM     94  C   UNL A   1      44.978  28.000  33.747  1.00  0.00     0.198 A 
ATOM     95  F   UNL A   1      43.644  27.447  31.890  1.00  0.00    -0.203 F 
ATOM     96  F   UNL A   1      48.447  27.257  34.474  1.00  0.00    -0.200 F 
ATOM     97  C   UNL A   1      46.193  27.950  34.412  1.00  0.00     0.200 A 
ATOM     98  F   UNL A   1      43.953  28.684  34.276  1.00  0.00    -0.200 F 
ATOM     99  F   UNL A   1      46.336  28.566  35.594  1.00  0.00    -0.200 F 
ENDBRANCH  66  89
ENDBRANCH  40  41
ENDBRANCH  33  35
ENDBRANCH  32  33
ENDBRANCH  31  32
ENDBRANCH  30  31
ENDBRANCH  29  30
ENDBRANCH  28  29
ENDBRANCH   1  28
TORSDOF 21
ENDMDL
MODEL 2
REMARK VINA RESULT:     -11.0      4.679     10.111
REMARK SMILES O=C(CCc1cn(-c2ccc(Br)cc2)nc1-c1ccccc1)OCCOCCOCCOC(=O)c1ccc(-c2c3nc(c(-c4c(F)c(F)c(F)c(F)c4F)c4ccc([nH]4)c(-c4c(F)c(F)c(F)c(F)c4F)c4nc(c(-c5c(F)c(F)c(F)c(F)c5F)c5ccc2[nH]5)C=C4)C=C3)cc1
REMARK SMILES IDX 27 1 26 2 25 3 24 4 23 5 2 6 1 7 3 8 4 9 5 10 6 11 16 12
REMARK SMILES IDX 7 13 15 14 17 15 18 16 22 17 19 18 21 19 20 20 8 21 9 22
REMARK SMILES IDX 14 23 10 24 13 25 11 26 12 27 28 28 29 29 30 30 31 31 32 32
REMARK SMILES IDX 33 33 34 34 35 35 36 36 97 37 37 38 96 39 38 40 39 41 40 42
REMARK SMILES IDX 90 43 41 44 95 45 89 46 91 47 42 48 94 49 88 50 87 51 43 53
REMARK SMILES IDX 75 54 55 55 74 56 56 57 59 58 73 59 92 60 57 61 58 62 72 64
REMARK SMILES IDX 93 65 60 66 44 67 45 68 53 69 46 70 47 71 51 72 54 73 48 74
REMARK SMILES IDX 49 75 52 76 50 77 76 78 77 79 85 80 78 81 79 82 83 83 86 84
REMARK SMILES IDX 80 85 81 86 84 87 82 88 61 89 62 90 70 91 63 92 64 93 68 94
REMARK SMILES IDX 71 95 65 96 66 97 69 98 67 99
REMARK H PARENT 91 52 59 63
REMARK Flexibility Score: inf
ROOT
ATOM      1  C   UNL A   1      41.483  19.497  26.711  1.00  0.00     0.188 C 
ENDROOT
BRANCH   1   2
ATOM      2  O   UNL A   1      40.873  19.843  25.474  1.00  0.00    -0.376 OA
BRANCH   2   3
ATOM      3  C   UNL A   1      39.469  20.065  25.448  1.00  0.00     0.202 C 
BRANCH   3   4
ATOM      4  C   UNL A   1      38.932  21.376  26.017  1.00  0.00     0.261 C 
BRANCH   4   5
ATOM      5  O   UNL A   1      38.069  22.159  25.169  1.00  0.00    -0.463 OA
BRANCH   5   6
ATOM      6  C   UNL A   1      36.766  22.453  25.304  1.00  0.00     0.306 C 
ATOM      7  O   UNL A   1      36.106  21.884  26.174  1.00  0.00    -0.252 OA
BRANCH   6   8
ATOM      8  C   UNL A   1      36.113  23.445  24.388  1.00  0.00     0.127 C 
BRANCH   8   9
ATOM      9  C   UNL A   1      35.413  22.796  23.197  1.00  0.00     0.051 C 
BRANCH   9  10
ATOM     10  C   UNL A   1      33.978  23.193  23.080  1.00  0.00    -0.001 A 
ATOM     11  C   UNL A   1      33.477  24.429  22.717  1.00  0.00     0.119 A 
ATOM     12  C   UNL A   1      32.821  22.419  23.386  1.00  0.00     0.096 A 
ATOM     13  N   UNL A   1      32.130  24.412  23.006  1.00  0.00    -0.240 N 
ATOM     14  N   UNL A   1      31.718  23.178  23.384  1.00  0.00    -0.168 NA
BRANCH  12  15
ATOM     15  C   UNL A   1      32.780  21.011  23.750  1.00  0.00     0.002 A 
ATOM     16  C   UNL A   1      33.084  20.631  25.062  1.00  0.00     0.010 A 
ATOM     17  C   UNL A   1      32.365  20.041  22.832  1.00  0.00     0.010 A 
ATOM     18  C   UNL A   1      32.936  19.301  25.457  1.00  0.00     0.001 A 
ATOM     19  C   UNL A   1      32.197  18.716  23.234  1.00  0.00     0.001 A 
ATOM     20  C   UNL A   1      32.478  18.347  24.549  1.00  0.00     0.000 A 
ENDBRANCH  12  15
BRANCH  13  21
ATOM     21  C   UNL A   1      31.261  25.533  23.072  1.00  0.00     0.065 A 
ATOM     22  C   UNL A   1      30.144  25.533  23.919  1.00  0.00     0.029 A 
ATOM     23  C   UNL A   1      31.498  26.634  22.234  1.00  0.00     0.029 A 
ATOM     24  C   UNL A   1      29.279  26.632  23.932  1.00  0.00     0.018 A 
ATOM     25  C   UNL A   1      30.610  27.713  22.224  1.00  0.00     0.018 A 
ATOM     26  C   UNL A   1      29.509  27.710  23.077  1.00  0.00     0.018 A 
ATOM     27  Br  UNL A   1      28.319  29.178  23.079  1.00  0.00    -0.051 Br
ENDBRANCH  13  21
ENDBRANCH   9  10
ENDBRANCH   8   9
ENDBRANCH   6   8
ENDBRANCH   5   6
ENDBRANCH   4   5
ENDBRANCH   3   4
ENDBRANCH   2   3
ENDBRANCH   1   2
BRANCH   1  28
ATOM     28  C   UNL A   1      42.601  20.389  27.286  1.00  0.00     0.188 C 
BRANCH  28  29
ATOM     29  O   UNL A   1      42.983  21.493  26.467  1.00  0.00    -0.376 OA
BRANCH  29  30
ATOM     30  C   UNL A   1      43.108  22.739  27.149  1.00  0.00     0.202 C 
BRANCH  30  31
ATOM     31  C   UNL A   1      43.228  23.907  26.167  1.00  0.00     0.261 C 
BRANCH  31  32
ATOM     32  O   UNL A   1      42.003  24.609  25.948  1.00  0.00    -0.460 OA
BRANCH  32  33
ATOM     33  C   UNL A   1      42.130  25.864  25.476  1.00  0.00     0.338 C 
ATOM     34  O   UNL A   1      43.016  26.286  24.753  1.00  0.00    -0.246 OA
BRANCH  33  35
ATOM     35  C   UNL A   1      41.086  26.731  26.044  1.00  0.00     0.060 A 
ATOM     36  C   UNL A   1      41.280  28.106  25.894  1.00  0.00     0.016 A 
ATOM     37  C   UNL A   1      40.123  26.217  26.925  1.00  0.00     0.016 A 
ATOM     38  C   UNL A   1      40.708  28.955  26.814  1.00  0.00     0.010 A 
ATOM     39  C   UNL A   1      39.547  27.070  27.848  1.00  0.00     0.010 A 
ATOM     40  C   UNL A   1      39.953  28.405  27.855  1.00  0.00    -0.014 A 
BRANCH  40  41
ATOM     41  C   UNL A   1      39.842  29.219  29.054  1.00  0.00     0.031 A 
ATOM     42  C   UNL A   1      38.741  30.199  29.122  1.00  0.00     0.074 A 
ATOM     43  C   UNL A   1      40.739  29.095  30.054  1.00  0.00     0.049 A 
ATOM     44  N   UNL A   1      38.827  31.477  29.304  1.00  0.00    -0.248 NA
ATOM     45  C   UNL A   1      37.375  29.693  28.949  1.00  0.00     0.031 C 
ATOM     46  C   UNL A   1      41.725  28.026  30.247  1.00  0.00     0.029 A 
ATOM     47  N   UNL A   1      40.891  29.870  31.166  1.00  0.00    -0.354 N 
ATOM     48  C   UNL A   1      37.518  31.925  29.433  1.00  0.00     0.074 A 
ATOM     49  C   UNL A   1      36.662  30.804  29.129  1.00  0.00     0.031 C 
ATOM     50  C   UNL A   1      42.225  28.108  31.499  1.00  0.00     0.029 A 
ATOM     51  C   UNL A   1      41.687  29.296  32.142  1.00  0.00     0.049 A 
ATOM     52  H   UNL A   1      40.474  30.755  31.266  1.00  0.00     0.167 HD
ATOM     53  C   UNL A   1      37.224  33.137  29.970  1.00  0.00     0.037 A 
ATOM     54  C   UNL A   1      41.838  29.719  33.417  1.00  0.00     0.037 A 
ATOM     55  C   UNL A   1      38.316  34.064  29.878  1.00  0.00     0.049 A 
ATOM     56  C   UNL A   1      41.431  31.142  33.486  1.00  0.00     0.074 A 
ATOM     57  C   UNL A   1      39.047  34.596  28.833  1.00  0.00     0.029 A 
ATOM     58  N   UNL A   1      39.007  34.401  31.013  1.00  0.00    -0.354 N 
ATOM     59  N   UNL A   1      42.113  32.136  32.992  1.00  0.00    -0.248 NA
ATOM     60  C   UNL A   1      40.051  31.445  33.834  1.00  0.00     0.031 C 
ATOM     61  C   UNL A   1      40.353  34.822  29.355  1.00  0.00     0.029 A 
ATOM     62  C   UNL A   1      40.340  34.405  30.684  1.00  0.00     0.049 A 
ATOM     63  H   UNL A   1      38.621  34.601  31.896  1.00  0.00     0.167 HD
ATOM     64  C   UNL A   1      41.156  33.056  32.594  1.00  0.00     0.074 A 
ATOM     65  C   UNL A   1      39.928  32.640  33.255  1.00  0.00     0.031 C 
ATOM     66  C   UNL A   1      41.382  33.899  31.545  1.00  0.00     0.037 A 
BRANCH  53  67
ATOM     67  C   UNL A   1      36.017  33.368  30.833  1.00  0.00     0.064 A 
ATOM     68  C   UNL A   1      34.959  34.170  30.370  1.00  0.00     0.173 A 
ATOM     69  C   UNL A   1      35.987  33.040  32.207  1.00  0.00     0.173 A 
ATOM     70  F   UNL A   1      34.925  34.582  29.094  1.00  0.00    -0.203 F 
ATOM     71  C   UNL A   1      33.959  34.632  31.229  1.00  0.00     0.198 A 
ATOM     72  C   UNL A   1      34.960  33.458  33.049  1.00  0.00     0.198 A 
ATOM     73  F   UNL A   1      37.001  32.393  32.797  1.00  0.00    -0.203 F 
ATOM     74  F   UNL A   1      33.026  35.478  30.769  1.00  0.00    -0.200 F 
ATOM     75  C   UNL A   1      33.957  34.272  32.565  1.00  0.00     0.200 A 
ATOM     76  F   UNL A   1      34.990  33.120  34.346  1.00  0.00    -0.200 F 
ATOM     77  F   UNL A   1      33.022  34.750  33.398  1.00  0.00    -0.200 F 
ENDBRANCH  53  67
BRANCH  54  78
ATOM     78  C   UNL A   1      42.085  28.895  34.620  1.00  0.00     0.064 A 
ATOM     79  C   UNL A   1      41.421  27.675  34.815  1.00  0.00     0.173 A 
ATOM     80  C   UNL A   1      43.162  29.168  35.487  1.00  0.00     0.173 A 
ATOM     81  F   UNL A   1      40.421  27.312  33.998  1.00  0.00    -0.203 F 
ATOM     82  C   UNL A   1      41.814  26.781  35.815  1.00  0.00     0.198 A 
ATOM     83  C   UNL A   1      43.543  28.284  36.495  1.00  0.00     0.198 A 
ATOM     84  F   UNL A   1      43.926  30.258  35.319  1.00  0.00    -0.203 F 
ATOM     85  F   UNL A   1      41.195  25.598  35.934  1.00  0.00    -0.200 F 
ATOM     86  C   UNL A   1      42.876  27.084  36.652  1.00  0.00     0.200 A 
ATOM     87  F   UNL A   1      44.594  28.577  37.274  1.00  0.00    -0.200 F 
ATOM     88  F   UNL A   1      43.283  26.207  37.578  1.00  0.00    -0.200 F 
ENDBRANCH  54  78
BRANCH  66  89
ATOM     89  C   UNL A   1      42.797  34.052  31.070  1.00  0.00     0.064 A 
ATOM     90  C   UNL A   1      43.680  35.022  31.573  1.00  0.00     0.173 A 
ATOM     91  C   UNL A   1      43.309  33.112  30.165  1.00  0.00     0.173 A 
ATOM     92  F   UNL A   1      43.287  35.884  32.520  1.00  0.00    -0.203 F 
ATOM     93  C   UNL A   1      45.005  35.079  31.144  1.00  0.00     0.198 A 
ATOM     94  C   UNL A   1      44.642  33.151  29.765  1.00  0.00     0.198 A 
ATOM     95  F   UNL A   1      42.525  32.127  29.700  1.00  0.00    -0.203 F 
ATOM     96  F   UNL A   1      45.826  36.024  31.624  1.00  0.00    -0.200 F 
ATOM     97  C   UNL A   1      45.485  34.142  30.244  1.00  0.00     0.200 A 
ATOM     98  F   UNL A   1      45.118  32.214  28.932  1.00  0.00    -0.200 F 
ATOM     99  F   UNL A   1      46.768  34.177  29.857  1.00  0.00    -0.200 F 
ENDBRANCH  66  89
ENDBRANCH  40  41
ENDBRANCH  33  35
ENDBRANCH  32  33
ENDBRANCH  31  32
ENDBRANCH  30  31
ENDBRANCH  29  30
ENDBRANCH  28  29
ENDBRANCH   1  28
TORSDOF 21
ENDMDL
MODEL 3
REMARK VINA RESULT:     -10.8      4.480      8.779
REMARK SMILES O=C(CCc1cn(-c2ccc(Br)cc2)nc1-c1ccccc1)OCCOCCOCCOC(=O)c1ccc(-c2c3nc(c(-c4c(F)c(F)c(F)c(F)c4F)c4ccc([nH]4)c(-c4c(F)c(F)c(F)c(F)c4F)c4nc(c(-c5c(F)c(F)c(F)c(F)c5F)c5ccc2[nH]5)C=C4)C=C3)cc1
REMARK SMILES IDX 27 1 26 2 25 3 24 4 23 5 2 6 1 7 3 8 4 9 5 10 6 11 16 12
REMARK SMILES IDX 7 13 15 14 17 15 18 16 22 17 19 18 21 19 20 20 8 21 9 22
REMARK SMILES IDX 14 23 10 24 13 25 11 26 12 27 28 28 29 29 30 30 31 31 32 32
REMARK SMILES IDX 33 33 34 34 35 35 36 36 97 37 37 38 96 39 38 40 39 41 40 42
REMARK SMILES IDX 90 43 41 44 95 45 89 46 91 47 42 48 94 49 88 50 87 51 43 53
REMARK SMILES IDX 75 54 55 55 74 56 56 57 59 58 73 59 92 60 57 61 58 62 72 64
REMARK SMILES IDX 93 65 60 66 44 67 45 68 53 69 46 70 47 71 51 72 54 73 48 74
REMARK SMILES IDX 49 75 52 76 50 77 76 78 77 79 85 80 78 81 79 82 83 83 86 84
REMARK SMILES IDX 80 85 81 86 84 87 82 88 61 89 62 90 70 91 63 92 64 93 68 94
REMARK SMILES IDX 71 95 65 96 66 97 69 98 67 99
REMARK H PARENT 91 52 59 63
REMARK Flexibility Score: inf
ROOT
ATOM      1  C   UNL A   1      34.154  23.172  23.733  1.00  0.00     0.188 C 
ENDROOT
BRANCH   1   2
ATOM      2  O   UNL A   1      34.360  24.436  24.352  1.00  0.00    -0.376 OA
BRANCH   2   3
ATOM      3  C   UNL A   1      34.349  24.507  25.772  1.00  0.00     0.202 C 
BRANCH   3   4
ATOM      4  C   UNL A   1      33.013  24.355  26.495  1.00  0.00     0.261 C 
BRANCH   4   5
ATOM      5  O   UNL A   1      31.992  25.331  26.207  1.00  0.00    -0.463 OA
BRANCH   5   6
ATOM      6  C   UNL A   1      30.720  25.156  25.815  1.00  0.00     0.306 C 
ATOM      7  O   UNL A   1      29.855  24.927  26.660  1.00  0.00    -0.252 OA
BRANCH   6   8
ATOM      8  C   UNL A   1      30.361  25.212  24.359  1.00  0.00     0.127 C 
BRANCH   8   9
ATOM      9  C   UNL A   1      31.192  26.222  23.572  1.00  0.00     0.051 C 
BRANCH   9  10
ATOM     10  C   UNL A   1      30.668  27.615  23.682  1.00  0.00    -0.001 A 
ATOM     11  C   UNL A   1      29.639  28.184  22.955  1.00  0.00     0.119 A 
ATOM     12  C   UNL A   1      31.153  28.678  24.498  1.00  0.00     0.096 A 
ATOM     13  N   UNL A   1      29.685  29.540  23.196  1.00  0.00    -0.240 N 
ATOM     14  N   UNL A   1      30.586  29.843  24.161  1.00  0.00    -0.168 NA
BRANCH  12  15
ATOM     15  C   UNL A   1      32.190  28.598  25.516  1.00  0.00     0.002 A 
ATOM     16  C   UNL A   1      33.532  28.536  25.126  1.00  0.00     0.010 A 
ATOM     17  C   UNL A   1      31.872  28.663  26.876  1.00  0.00     0.010 A 
ATOM     18  C   UNL A   1      34.543  28.577  26.087  1.00  0.00     0.001 A 
ATOM     19  C   UNL A   1      32.883  28.726  27.834  1.00  0.00     0.001 A 
ATOM     20  C   UNL A   1      34.219  28.688  27.439  1.00  0.00     0.000 A 
ENDBRANCH  12  15
BRANCH  13  21
ATOM     21  C   UNL A   1      29.021  30.557  22.460  1.00  0.00     0.065 A 
ATOM     22  C   UNL A   1      28.447  30.286  21.211  1.00  0.00     0.029 A 
ATOM     23  C   UNL A   1      28.990  31.864  22.972  1.00  0.00     0.029 A 
ATOM     24  C   UNL A   1      27.840  31.317  20.485  1.00  0.00     0.018 A 
ATOM     25  C   UNL A   1      28.414  32.896  22.227  1.00  0.00     0.018 A 
ATOM     26  C   UNL A   1      27.835  32.617  20.991  1.00  0.00     0.018 A 
ATOM     27  Br  UNL A   1      27.038  34.009  19.992  1.00  0.00    -0.051 Br
ENDBRANCH  13  21
ENDBRANCH   9  10
ENDBRANCH   8   9
ENDBRANCH   6   8
ENDBRANCH   5   6
ENDBRANCH   4   5
ENDBRANCH   3   4
ENDBRANCH   2   3
ENDBRANCH   1   2
BRANCH   1  28
ATOM     28  C   UNL A   1      34.864  21.924  24.296  1.00  0.00     0.188 C 
BRANCH  28  29
ATOM     29  O   UNL A   1      36.284  22.018  24.388  1.00  0.00    -0.376 OA
BRANCH  29  30
ATOM     30  C   UNL A   1      36.802  22.095  25.714  1.00  0.00     0.202 C 
BRANCH  30  31
ATOM     31  C   UNL A   1      38.319  22.300  25.713  1.00  0.00     0.261 C 
BRANCH  31  32
ATOM     32  O   UNL A   1      38.760  23.369  26.553  1.00  0.00    -0.460 OA
BRANCH  32  33
ATOM     33  C   UNL A   1      39.964  23.192  27.131  1.00  0.00     0.338 C 
ATOM     34  O   UNL A   1      40.345  22.206  27.739  1.00  0.00    -0.246 OA
BRANCH  33  35
ATOM     35  C   UNL A   1      40.764  24.423  27.029  1.00  0.00     0.060 A 
ATOM     36  C   UNL A   1      41.622  24.688  28.099  1.00  0.00     0.016 A 
ATOM     37  C   UNL A   1      40.465  25.399  26.067  1.00  0.00     0.016 A 
ATOM     38  C   UNL A   1      41.963  25.997  28.358  1.00  0.00     0.010 A 
ATOM     39  C   UNL A   1      40.809  26.712  26.327  1.00  0.00     0.010 A 
ATOM     40  C   UNL A   1      41.441  27.001  27.537  1.00  0.00    -0.014 A 
BRANCH  40  41
ATOM     41  C   UNL A   1      41.360  28.325  28.132  1.00  0.00     0.031 A 
ATOM     42  C   UNL A   1      42.496  29.243  27.927  1.00  0.00     0.074 A 
ATOM     43  C   UNL A   1      40.288  28.681  28.870  1.00  0.00     0.049 A 
ATOM     44  N   UNL A   1      43.217  29.826  28.829  1.00  0.00    -0.248 NA
ATOM     45  C   UNL A   1      42.887  29.536  26.544  1.00  0.00     0.031 C 
ATOM     46  C   UNL A   1      38.996  27.994  28.966  1.00  0.00     0.029 A 
ATOM     47  N   UNL A   1      40.107  29.800  29.627  1.00  0.00    -0.354 N 
ATOM     48  C   UNL A   1      44.055  30.691  28.136  1.00  0.00     0.074 A 
ATOM     49  C   UNL A   1      43.868  30.417  26.731  1.00  0.00     0.031 C 
ATOM     50  C   UNL A   1      38.105  28.811  29.567  1.00  0.00     0.029 A 
ATOM     51  C   UNL A   1      38.792  30.016  30.000  1.00  0.00     0.049 A 
ATOM     52  H   UNL A   1      40.843  30.400  29.886  1.00  0.00     0.167 HD
ATOM     53  C   UNL A   1      44.705  31.710  28.755  1.00  0.00     0.037 A 
ATOM     54  C   UNL A   1      38.280  31.138  30.555  1.00  0.00     0.037 A 
ATOM     55  C   UNL A   1      44.877  31.484  30.162  1.00  0.00     0.049 A 
ATOM     56  C   UNL A   1      39.392  31.907  31.159  1.00  0.00     0.074 A 
ATOM     57  C   UNL A   1      45.495  30.503  30.915  1.00  0.00     0.029 A 
ATOM     58  N   UNL A   1      44.137  32.214  31.055  1.00  0.00    -0.354 N 
ATOM     59  N   UNL A   1      40.031  31.566  32.243  1.00  0.00    -0.248 NA
ATOM     60  C   UNL A   1      40.040  32.928  30.350  1.00  0.00     0.031 C 
ATOM     61  C   UNL A   1      44.743  30.417  32.122  1.00  0.00     0.029 A 
ATOM     62  C   UNL A   1      43.708  31.345  32.026  1.00  0.00     0.049 A 
ATOM     63  H   UNL A   1      43.948  33.179  31.007  1.00  0.00     0.167 HD
ATOM     64  C   UNL A   1      41.325  32.020  32.046  1.00  0.00     0.074 A 
ATOM     65  C   UNL A   1      41.238  32.959  30.938  1.00  0.00     0.031 C 
ATOM     66  C   UNL A   1      42.389  31.381  32.613  1.00  0.00     0.037 A 
BRANCH  53  67
ATOM     67  C   UNL A   1      44.930  33.043  28.100  1.00  0.00     0.064 A 
ATOM     68  C   UNL A   1      46.229  33.449  27.751  1.00  0.00     0.173 A 
ATOM     69  C   UNL A   1      43.936  34.045  28.048  1.00  0.00     0.173 A 
ATOM     70  F   UNL A   1      47.255  32.587  27.821  1.00  0.00    -0.203 F 
ATOM     71  C   UNL A   1      46.516  34.771  27.400  1.00  0.00     0.198 A 
ATOM     72  C   UNL A   1      44.214  35.348  27.647  1.00  0.00     0.198 A 
ATOM     73  F   UNL A   1      42.687  33.819  28.481  1.00  0.00    -0.203 F 
ATOM     74  F   UNL A   1      47.784  35.139  27.173  1.00  0.00    -0.200 F 
ATOM     75  C   UNL A   1      45.508  35.718  27.344  1.00  0.00     0.200 A 
ATOM     76  F   UNL A   1      43.228  36.257  27.624  1.00  0.00    -0.200 F 
ATOM     77  F   UNL A   1      45.789  36.994  27.050  1.00  0.00    -0.200 F 
ENDBRANCH  53  67
BRANCH  54  78
ATOM     78  C   UNL A   1      36.921  31.694  30.381  1.00  0.00     0.064 A 
ATOM     79  C   UNL A   1      36.142  32.072  31.486  1.00  0.00     0.173 A 
ATOM     80  C   UNL A   1      36.449  32.095  29.115  1.00  0.00     0.173 A 
ATOM     81  F   UNL A   1      36.548  31.780  32.730  1.00  0.00    -0.203 F 
ATOM     82  C   UNL A   1      34.966  32.811  31.332  1.00  0.00     0.198 A 
ATOM     83  C   UNL A   1      35.267  32.817  28.961  1.00  0.00     0.198 A 
ATOM     84  F   UNL A   1      37.171  31.873  28.007  1.00  0.00    -0.203 F 
ATOM     85  F   UNL A   1      34.279  33.207  32.413  1.00  0.00    -0.200 F 
ATOM     86  C   UNL A   1      34.531  33.185  30.071  1.00  0.00     0.200 A 
ATOM     87  F   UNL A   1      34.878  33.201  27.737  1.00  0.00    -0.200 F 
ATOM     88  F   UNL A   1      33.429  33.934  29.926  1.00  0.00    -0.200 F 
ENDBRANCH  54  78
BRANCH  66  89
ATOM     89  C   UNL A   1      42.107  30.410  33.721  1.00  0.00     0.064 A 
ATOM     90  C   UNL A   1      41.719  29.078  33.501  1.00  0.00     0.173 A 
ATOM     91  C   UNL A   1      42.354  30.806  35.043  1.00  0.00     0.173 A 
ATOM     92  F   UNL A   1      41.570  28.602  32.258  1.00  0.00    -0.203 F 
ATOM     93  C   UNL A   1      41.533  28.198  34.566  1.00  0.00     0.198 A 
ATOM     94  C   UNL A   1      42.201  29.915  36.102  1.00  0.00     0.198 A 
ATOM     95  F   UNL A   1      42.787  32.049  35.304  1.00  0.00    -0.203 F 
ATOM     96  F   UNL A   1      41.145  26.936  34.334  1.00  0.00    -0.200 F 
ATOM     97  C   UNL A   1      41.778  28.617  35.864  1.00  0.00     0.200 A 
ATOM     98  F   UNL A   1      42.485  30.307  37.352  1.00  0.00    -0.200 F 
ATOM     99  F   UNL A   1      41.631  27.761  36.885  1.00  0.00    -0.200 F 
ENDBRANCH  66  89
ENDBRANCH  40  41
ENDBRANCH  33  35
ENDBRANCH  32  33
ENDBRANCH  31  32
ENDBRANCH  30  31
ENDBRANCH  29  30
ENDBRANCH  28  29
ENDBRANCH   1  28
TORSDOF 21
ENDMDL
