MODEL 1
REMARK VINA RESULT:     -11.2      0.000      0.000
REMARK SMILES CC1(C)CSC[C@H](N(CCC(=O)OCCOCCOCCOC(=O)c2ccc(-c3c4nc(c(-c5c(F)c(F)c(F)c(F)c5F)c5ccc([nH]5)c(-c5c(F)c(F)c(F)c(F)c5F)c5nc(c(-c6c(F)c(F)c(F)c(F)c6F)c6ccc3[nH]6)C=C5)C=C4)cc2)c2ccccc2)C1
REMARK SMILES IDX 17 1 16 2 15 3 14 4 13 5 11 6 12 7 10 8 9 9 8 10 7 11 1 12
REMARK SMILES IDX 2 13 3 14 4 15 94 16 5 17 6 18 88 19 89 20 93 21 90 22 92 23
REMARK SMILES IDX 91 24 18 25 19 26 20 27 21 28 22 29 23 30 24 31 25 32 26 33
REMARK SMILES IDX 87 34 27 35 86 36 28 37 29 38 30 39 80 40 31 41 85 42 79 43
REMARK SMILES IDX 81 44 32 45 84 46 78 47 77 48 33 50 65 51 45 52 64 53 46 54
REMARK SMILES IDX 49 55 63 56 82 57 47 58 48 59 62 61 83 62 50 63 34 64 35 65
REMARK SMILES IDX 43 66 36 67 37 68 41 69 44 70 38 71 39 72 42 73 40 74 66 75
REMARK SMILES IDX 67 76 75 77 68 78 69 79 73 80 76 81 70 82 71 83 74 84 72 85
REMARK SMILES IDX 51 86 52 87 60 88 53 89 54 90 58 91 61 92 55 93 56 94 59 95
REMARK SMILES IDX 57 96
REMARK H PARENT 81 49 49 60
REMARK Flexibility Score: inf
ROOT
ATOM      1  C   UNL A   1      29.409  27.068  23.672  1.00  0.00     0.188 C 
ENDROOT
BRANCH   1   2
ATOM      2  O   UNL A   1      29.804  25.973  24.482  1.00  0.00    -0.376 OA
BRANCH   2   3
ATOM      3  C   UNL A   1      31.213  25.734  24.465  1.00  0.00     0.202 C 
BRANCH   3   4
ATOM      4  C   UNL A   1      31.769  25.394  25.858  1.00  0.00     0.261 C 
BRANCH   4   5
ATOM      5  O   UNL A   1      30.968  24.364  26.486  1.00  0.00    -0.463 OA
BRANCH   5   6
ATOM      6  C   UNL A   1      31.348  23.067  26.414  1.00  0.00     0.307 C 
ATOM      7  O   UNL A   1      30.653  22.159  25.972  1.00  0.00    -0.252 OA
BRANCH   6   8
ATOM      8  C   UNL A   1      32.767  22.865  26.917  1.00  0.00     0.144 C 
BRANCH   8   9
ATOM      9  C   UNL A   1      33.286  21.428  26.788  1.00  0.00     0.128 C 
BRANCH   9  10
ATOM     10  N   UNL A   1      33.573  20.968  25.417  1.00  0.00    -0.367 N 
BRANCH  10  11
ATOM     11  C   UNL A   1      33.119  19.655  24.872  1.00  0.00     0.092 C 
ATOM     12  C   UNL A   1      32.626  16.603  25.600  1.00  0.00     0.012 C 
ATOM     13  C   UNL A   1      33.801  17.108  24.739  1.00  0.00    -0.024 C 
ATOM     14  C   UNL A   1      35.017  16.200  25.034  1.00  0.00     0.012 C 
ATOM     15  C   UNL A   1      33.493  17.020  23.235  1.00  0.00     0.076 C 
ATOM     16  C   UNL A   1      34.173  18.546  25.151  1.00  0.00     0.033 C 
ATOM     17  S   UNL A   1      32.183  18.149  22.680  1.00  0.00    -0.159 SA
ATOM     18  C   UNL A   1      32.847  19.707  23.354  1.00  0.00     0.094 C 
ENDBRANCH  10  11
BRANCH  10  19
ATOM     19  C   UNL A   1      34.578  21.652  24.732  1.00  0.00     0.037 A 
ATOM     20  C   UNL A   1      34.305  22.699  23.848  1.00  0.00     0.026 A 
ATOM     21  C   UNL A   1      35.923  21.333  24.959  1.00  0.00     0.026 A 
ATOM     22  C   UNL A   1      35.329  23.344  23.146  1.00  0.00     0.002 A 
ATOM     23  C   UNL A   1      36.955  22.039  24.334  1.00  0.00     0.002 A 
ATOM     24  C   UNL A   1      36.657  23.019  23.396  1.00  0.00     0.000 A 
ENDBRANCH  10  19
ENDBRANCH   9  10
ENDBRANCH   8   9
ENDBRANCH   6   8
ENDBRANCH   5   6
ENDBRANCH   4   5
ENDBRANCH   3   4
ENDBRANCH   2   3
ENDBRANCH   1   2
BRANCH   1  25
ATOM     25  C   UNL A   1      30.564  27.969  23.295  1.00  0.00     0.188 C 
BRANCH  25  26
ATOM     26  O   UNL A   1      30.628  29.224  23.960  1.00  0.00    -0.376 OA
BRANCH  26  27
ATOM     27  C   UNL A   1      31.735  29.362  24.849  1.00  0.00     0.202 C 
BRANCH  27  28
ATOM     28  C   UNL A   1      31.684  30.476  25.917  1.00  0.00     0.261 C 
BRANCH  28  29
ATOM     29  O   UNL A   1      32.727  30.405  26.897  1.00  0.00    -0.460 OA
BRANCH  29  30
ATOM     30  C   UNL A   1      33.268  31.596  27.280  1.00  0.00     0.338 C 
ATOM     31  O   UNL A   1      32.723  32.676  27.308  1.00  0.00    -0.246 OA
BRANCH  30  32
ATOM     32  C   UNL A   1      34.586  31.302  27.911  1.00  0.00     0.060 A 
ATOM     33  C   UNL A   1      34.898  29.969  28.234  1.00  0.00     0.016 A 
ATOM     34  C   UNL A   1      35.552  32.300  28.054  1.00  0.00     0.016 A 
ATOM     35  C   UNL A   1      36.174  29.633  28.696  1.00  0.00     0.010 A 
ATOM     36  C   UNL A   1      36.815  31.970  28.539  1.00  0.00     0.010 A 
ATOM     37  C   UNL A   1      37.122  30.643  28.887  1.00  0.00    -0.014 A 
BRANCH  37  38
ATOM     38  C   UNL A   1      38.334  30.409  29.703  1.00  0.00     0.031 A 
ATOM     39  C   UNL A   1      39.333  29.428  29.162  1.00  0.00     0.074 A 
ATOM     40  C   UNL A   1      38.504  30.964  30.914  1.00  0.00     0.049 A 
ATOM     41  N   UNL A   1      40.353  28.861  29.749  1.00  0.00    -0.248 NA
ATOM     42  C   UNL A   1      39.122  29.003  27.767  1.00  0.00     0.031 C 
ATOM     43  C   UNL A   1      37.623  31.954  31.526  1.00  0.00     0.029 A 
ATOM     44  N   UNL A   1      39.468  30.730  31.863  1.00  0.00    -0.354 N 
ATOM     45  C   UNL A   1      40.883  27.990  28.807  1.00  0.00     0.074 A 
ATOM     46  C   UNL A   1      40.061  28.084  27.622  1.00  0.00     0.031 C 
ATOM     47  C   UNL A   1      38.068  32.219  32.768  1.00  0.00     0.029 A 
ATOM     48  C   UNL A   1      39.234  31.381  33.051  1.00  0.00     0.049 A 
ATOM     49  H   UNL A   1      40.250  30.154  31.709  1.00  0.00     0.167 HD
ATOM     50  C   UNL A   1      41.959  27.179  28.925  1.00  0.00     0.037 A 
ATOM     51  C   UNL A   1      39.863  31.271  34.237  1.00  0.00     0.037 A 
ATOM     52  C   UNL A   1      42.765  27.093  30.112  1.00  0.00     0.049 A 
ATOM     53  C   UNL A   1      41.032  30.322  34.368  1.00  0.00     0.074 A 
ATOM     54  C   UNL A   1      43.899  26.333  30.329  1.00  0.00     0.029 A 
ATOM     55  N   UNL A   1      42.508  27.781  31.289  1.00  0.00    -0.354 N 
ATOM     56  N   UNL A   1      41.552  29.519  33.471  1.00  0.00    -0.248 NA
ATOM     57  C   UNL A   1      41.700  30.266  35.676  1.00  0.00     0.031 C 
ATOM     58  C   UNL A   1      44.290  26.510  31.660  1.00  0.00     0.029 A 
ATOM     59  C   UNL A   1      43.445  27.440  32.248  1.00  0.00     0.049 A 
ATOM     60  H   UNL A   1      41.768  28.417  31.422  1.00  0.00     0.167 HD
ATOM     61  C   UNL A   1      42.626  28.891  34.091  1.00  0.00     0.074 A 
ATOM     62  C   UNL A   1      42.683  29.408  35.442  1.00  0.00     0.031 C 
ATOM     63  C   UNL A   1      43.492  27.976  33.586  1.00  0.00     0.037 A 
BRANCH  50  64
ATOM     64  C   UNL A   1      42.285  26.293  27.758  1.00  0.00     0.064 A 
ATOM     65  C   UNL A   1      41.639  25.063  27.552  1.00  0.00     0.173 A 
ATOM     66  C   UNL A   1      43.267  26.678  26.833  1.00  0.00     0.173 A 
ATOM     67  F   UNL A   1      40.707  24.637  28.417  1.00  0.00    -0.203 F 
ATOM     68  C   UNL A   1      41.995  24.236  26.490  1.00  0.00     0.198 A 
ATOM     69  C   UNL A   1      43.592  25.867  25.750  1.00  0.00     0.198 A 
ATOM     70  F   UNL A   1      43.918  27.843  26.982  1.00  0.00    -0.203 F 
ATOM     71  F   UNL A   1      41.414  23.036  26.355  1.00  0.00    -0.200 F 
ATOM     72  C   UNL A   1      42.964  24.641  25.586  1.00  0.00     0.200 A 
ATOM     73  F   UNL A   1      44.521  26.266  24.871  1.00  0.00    -0.200 F 
ATOM     74  F   UNL A   1      43.304  23.845  24.563  1.00  0.00    -0.200 F 
ENDBRANCH  50  64
BRANCH  51  75
ATOM     75  C   UNL A   1      39.391  32.066  35.401  1.00  0.00     0.064 A 
ATOM     76  C   UNL A   1      39.825  33.383  35.603  1.00  0.00     0.173 A 
ATOM     77  C   UNL A   1      38.489  31.529  36.332  1.00  0.00     0.173 A 
ATOM     78  F   UNL A   1      40.711  33.931  34.758  1.00  0.00    -0.203 F 
ATOM     79  C   UNL A   1      39.383  34.129  36.694  1.00  0.00     0.198 A 
ATOM     80  C   UNL A   1      38.025  32.285  37.406  1.00  0.00     0.198 A 
ATOM     81  F   UNL A   1      38.046  30.270  36.191  1.00  0.00    -0.203 F 
ATOM     82  F   UNL A   1      39.848  35.371  36.886  1.00  0.00    -0.200 F 
ATOM     83  C   UNL A   1      38.476  33.583  37.590  1.00  0.00     0.200 A 
ATOM     84  F   UNL A   1      37.141  31.757  38.265  1.00  0.00    -0.200 F 
ATOM     85  F   UNL A   1      38.045  34.304  38.634  1.00  0.00    -0.200 F 
ENDBRANCH  51  75
BRANCH  63  86
ATOM     86  C   UNL A   1      44.615  27.512  34.470  1.00  0.00     0.064 A 
ATOM     87  C   UNL A   1      45.855  28.166  34.506  1.00  0.00     0.173 A 
ATOM     88  C   UNL A   1      44.416  26.437  35.352  1.00  0.00     0.173 A 
ATOM     89  F   UNL A   1      46.102  29.192  33.678  1.00  0.00    -0.203 F 
ATOM     90  C   UNL A   1      46.858  27.748  35.378  1.00  0.00     0.198 A 
ATOM     91  C   UNL A   1      45.408  26.045  36.245  1.00  0.00     0.198 A 
ATOM     92  F   UNL A   1      43.243  25.784  35.367  1.00  0.00    -0.203 F 
ATOM     93  F   UNL A   1      48.050  28.362  35.366  1.00  0.00    -0.200 F 
ATOM     94  C   UNL A   1      46.631  26.697  36.253  1.00  0.00     0.200 A 
ATOM     95  F   UNL A   1      45.177  25.042  37.103  1.00  0.00    -0.200 F 
ATOM     96  F   UNL A   1      47.591  26.309  37.102  1.00  0.00    -0.200 F 
ENDBRANCH  63  86
ENDBRANCH  37  38
ENDBRANCH  30  32
ENDBRANCH  29  30
ENDBRANCH  28  29
ENDBRANCH  27  28
ENDBRANCH  26  27
ENDBRANCH  25  26
ENDBRANCH   1  25
TORSDOF 21
ENDMDL
MODEL 2
REMARK VINA RESULT:     -10.8      5.113     10.636
REMARK SMILES CC1(C)CSC[C@H](N(CCC(=O)OCCOCCOCCOC(=O)c2ccc(-c3c4nc(c(-c5c(F)c(F)c(F)c(F)c5F)c5ccc([nH]5)c(-c5c(F)c(F)c(F)c(F)c5F)c5nc(c(-c6c(F)c(F)c(F)c(F)c6F)c6ccc3[nH]6)C=C5)C=C4)cc2)c2ccccc2)C1
REMARK SMILES IDX 17 1 16 2 15 3 14 4 13 5 11 6 12 7 10 8 9 9 8 10 7 11 1 12
REMARK SMILES IDX 2 13 3 14 4 15 94 16 5 17 6 18 88 19 89 20 93 21 90 22 92 23
REMARK SMILES IDX 91 24 18 25 19 26 20 27 21 28 22 29 23 30 24 31 25 32 26 33
REMARK SMILES IDX 87 34 27 35 86 36 28 37 29 38 30 39 80 40 31 41 85 42 79 43
REMARK SMILES IDX 81 44 32 45 84 46 78 47 77 48 33 50 65 51 45 52 64 53 46 54
REMARK SMILES IDX 49 55 63 56 82 57 47 58 48 59 62 61 83 62 50 63 34 64 35 65
REMARK SMILES IDX 43 66 36 67 37 68 41 69 44 70 38 71 39 72 42 73 40 74 66 75
REMARK SMILES IDX 67 76 75 77 68 78 69 79 73 80 76 81 70 82 71 83 74 84 72 85
REMARK SMILES IDX 51 86 52 87 60 88 53 89 54 90 58 91 61 92 55 93 56 94 59 95
REMARK SMILES IDX 57 96
REMARK H PARENT 81 49 49 60
REMARK Flexibility Score: inf
ROOT
ATOM      1  C   UNL A   1      34.826  22.377  25.603  1.00  0.00     0.188 C 
ENDROOT
BRANCH   1   2
ATOM      2  O   UNL A   1      34.830  23.787  25.748  1.00  0.00    -0.376 OA
BRANCH   2   3
ATOM      3  C   UNL A   1      35.063  24.483  24.522  1.00  0.00     0.202 C 
BRANCH   3   4
ATOM      4  C   UNL A   1      33.965  24.219  23.478  1.00  0.00     0.261 C 
BRANCH   4   5
ATOM      5  O   UNL A   1      33.910  25.298  22.514  1.00  0.00    -0.463 OA
BRANCH   5   6
ATOM      6  C   UNL A   1      32.974  25.291  21.536  1.00  0.00     0.307 C 
ATOM      7  O   UNL A   1      33.167  24.906  20.389  1.00  0.00    -0.252 OA
BRANCH   6   8
ATOM      8  C   UNL A   1      31.628  25.787  22.037  1.00  0.00     0.144 C 
BRANCH   8   9
ATOM      9  C   UNL A   1      31.463  27.311  22.004  1.00  0.00     0.128 C 
BRANCH   9  10
ATOM     10  N   UNL A   1      30.930  27.926  23.233  1.00  0.00    -0.367 N 
BRANCH  10  11
ATOM     11  C   UNL A   1      31.727  28.104  24.483  1.00  0.00     0.092 C 
ATOM     12  C   UNL A   1      31.540  28.857  27.563  1.00  0.00     0.012 C 
ATOM     13  C   UNL A   1      32.122  29.786  26.480  1.00  0.00    -0.024 C 
ATOM     14  C   UNL A   1      31.776  31.239  26.878  1.00  0.00     0.012 C 
ATOM     15  C   UNL A   1      33.652  29.669  26.382  1.00  0.00     0.076 C 
ATOM     16  C   UNL A   1      31.451  29.494  25.123  1.00  0.00     0.033 C 
ATOM     17  S   UNL A   1      34.235  28.061  25.770  1.00  0.00    -0.159 SA
ATOM     18  C   UNL A   1      33.244  27.963  24.243  1.00  0.00     0.094 C 
ENDBRANCH  10  11
BRANCH  10  19
ATOM     19  C   UNL A   1      29.542  28.043  23.317  1.00  0.00     0.037 A 
ATOM     20  C   UNL A   1      28.854  29.165  22.850  1.00  0.00     0.026 A 
ATOM     21  C   UNL A   1      28.780  26.988  23.837  1.00  0.00     0.026 A 
ATOM     22  C   UNL A   1      27.465  29.272  22.979  1.00  0.00     0.002 A 
ATOM     23  C   UNL A   1      27.385  27.048  23.879  1.00  0.00     0.002 A 
ATOM     24  C   UNL A   1      26.728  28.208  23.486  1.00  0.00     0.000 A 
ENDBRANCH  10  19
ENDBRANCH   9  10
ENDBRANCH   8   9
ENDBRANCH   6   8
ENDBRANCH   5   6
ENDBRANCH   4   5
ENDBRANCH   3   4
ENDBRANCH   2   3
ENDBRANCH   1   2
BRANCH   1  25
ATOM     25  C   UNL A   1      36.198  21.763  25.779  1.00  0.00     0.188 C 
BRANCH  25  26
ATOM     26  O   UNL A   1      36.654  20.926  24.724  1.00  0.00    -0.376 OA
BRANCH  26  27
ATOM     27  C   UNL A   1      37.877  20.245  25.002  1.00  0.00     0.202 C 
BRANCH  27  28
ATOM     28  C   UNL A   1      38.989  21.011  25.749  1.00  0.00     0.261 C 
BRANCH  28  29
ATOM     29  O   UNL A   1      39.838  20.185  26.556  1.00  0.00    -0.460 OA
BRANCH  29  30
ATOM     30  C   UNL A   1      41.118  20.033  26.114  1.00  0.00     0.338 C 
ATOM     31  O   UNL A   1      41.544  19.174  25.375  1.00  0.00    -0.246 OA
BRANCH  30  32
ATOM     32  C   UNL A   1      41.867  21.265  26.491  1.00  0.00     0.060 A 
ATOM     33  C   UNL A   1      42.183  21.475  27.846  1.00  0.00     0.016 A 
ATOM     34  C   UNL A   1      42.371  22.125  25.514  1.00  0.00     0.016 A 
ATOM     35  C   UNL A   1      43.004  22.542  28.223  1.00  0.00     0.010 A 
ATOM     36  C   UNL A   1      43.167  23.204  25.892  1.00  0.00     0.010 A 
ATOM     37  C   UNL A   1      43.463  23.432  27.248  1.00  0.00    -0.014 A 
BRANCH  37  38
ATOM     38  C   UNL A   1      44.012  24.756  27.617  1.00  0.00     0.031 A 
ATOM     39  C   UNL A   1      43.024  25.801  28.045  1.00  0.00     0.074 A 
ATOM     40  C   UNL A   1      45.315  25.055  27.488  1.00  0.00     0.049 A 
ATOM     41  N   UNL A   1      43.180  27.089  28.202  1.00  0.00    -0.248 NA
ATOM     42  C   UNL A   1      41.653  25.322  28.298  1.00  0.00     0.031 C 
ATOM     43  C   UNL A   1      46.370  24.117  27.116  1.00  0.00     0.029 A 
ATOM     44  N   UNL A   1      45.960  26.260  27.620  1.00  0.00    -0.354 N 
ATOM     45  C   UNL A   1      41.924  27.574  28.537  1.00  0.00     0.074 A 
ATOM     46  C   UNL A   1      41.013  26.452  28.538  1.00  0.00     0.031 C 
ATOM     47  C   UNL A   1      47.530  24.790  27.014  1.00  0.00     0.029 A 
ATOM     48  C   UNL A   1      47.286  26.211  27.266  1.00  0.00     0.049 A 
ATOM     49  H   UNL A   1      45.516  27.079  27.937  1.00  0.00     0.167 HD
ATOM     50  C   UNL A   1      41.563  28.848  28.815  1.00  0.00     0.037 A 
ATOM     51  C   UNL A   1      48.180  27.208  27.120  1.00  0.00     0.037 A 
ATOM     52  C   UNL A   1      42.479  29.956  28.805  1.00  0.00     0.049 A 
ATOM     53  C   UNL A   1      47.750  28.632  27.383  1.00  0.00     0.074 A 
ATOM     54  C   UNL A   1      42.231  31.282  29.106  1.00  0.00     0.029 A 
ATOM     55  N   UNL A   1      43.821  29.864  28.460  1.00  0.00    -0.354 N 
ATOM     56  N   UNL A   1      46.570  29.091  27.727  1.00  0.00    -0.248 NA
ATOM     57  C   UNL A   1      48.774  29.676  27.237  1.00  0.00     0.031 C 
ATOM     58  C   UNL A   1      43.406  32.005  28.878  1.00  0.00     0.029 A 
ATOM     59  C   UNL A   1      44.406  31.117  28.510  1.00  0.00     0.049 A 
ATOM     60  H   UNL A   1      44.286  29.032  28.215  1.00  0.00     0.167 HD
ATOM     61  C   UNL A   1      46.718  30.465  27.874  1.00  0.00     0.074 A 
ATOM     62  C   UNL A   1      48.103  30.766  27.582  1.00  0.00     0.031 C 
ATOM     63  C   UNL A   1      45.793  31.394  28.227  1.00  0.00     0.037 A 
BRANCH  50  64
ATOM     64  C   UNL A   1      40.111  29.107  29.097  1.00  0.00     0.064 A 
ATOM     65  C   UNL A   1      39.596  29.121  30.402  1.00  0.00     0.173 A 
ATOM     66  C   UNL A   1      39.219  29.336  28.039  1.00  0.00     0.173 A 
ATOM     67  F   UNL A   1      40.402  28.887  31.449  1.00  0.00    -0.203 F 
ATOM     68  C   UNL A   1      38.237  29.313  30.634  1.00  0.00     0.198 A 
ATOM     69  C   UNL A   1      37.867  29.567  28.277  1.00  0.00     0.198 A 
ATOM     70  F   UNL A   1      39.657  29.332  26.770  1.00  0.00    -0.203 F 
ATOM     71  F   UNL A   1      37.758  29.252  31.884  1.00  0.00    -0.200 F 
ATOM     72  C   UNL A   1      37.375  29.543  29.573  1.00  0.00     0.200 A 
ATOM     73  F   UNL A   1      37.039  29.801  27.250  1.00  0.00    -0.200 F 
ATOM     74  F   UNL A   1      36.067  29.731  29.798  1.00  0.00    -0.200 F 
ENDBRANCH  50  64
BRANCH  51  75
ATOM     75  C   UNL A   1      49.568  26.899  26.683  1.00  0.00     0.064 A 
ATOM     76  C   UNL A   1      49.932  26.959  25.331  1.00  0.00     0.173 A 
ATOM     77  C   UNL A   1      50.561  26.545  27.609  1.00  0.00     0.173 A 
ATOM     78  F   UNL A   1      49.012  27.263  24.404  1.00  0.00    -0.203 F 
ATOM     79  C   UNL A   1      51.232  26.669  24.921  1.00  0.00     0.198 A 
ATOM     80  C   UNL A   1      51.868  26.284  27.201  1.00  0.00     0.198 A 
ATOM     81  F   UNL A   1      50.265  26.465  28.915  1.00  0.00    -0.203 F 
ATOM     82  F   UNL A   1      51.542  26.693  23.617  1.00  0.00    -0.200 F 
ATOM     83  C   UNL A   1      52.201  26.340  25.857  1.00  0.00     0.200 A 
ATOM     84  F   UNL A   1      52.804  25.976  28.110  1.00  0.00    -0.200 F 
ATOM     85  F   UNL A   1      53.453  26.071  25.463  1.00  0.00    -0.200 F 
ENDBRANCH  51  75
BRANCH  63  86
ATOM     86  C   UNL A   1      46.251  32.817  28.378  1.00  0.00     0.064 A 
ATOM     87  C   UNL A   1      46.779  33.307  29.581  1.00  0.00     0.173 A 
ATOM     88  C   UNL A   1      46.229  33.682  27.272  1.00  0.00     0.173 A 
ATOM     89  F   UNL A   1      46.815  32.526  30.671  1.00  0.00    -0.203 F 
ATOM     90  C   UNL A   1      47.249  34.615  29.675  1.00  0.00     0.198 A 
ATOM     91  C   UNL A   1      46.732  34.977  27.360  1.00  0.00     0.198 A 
ATOM     92  F   UNL A   1      45.745  33.260  26.093  1.00  0.00    -0.203 F 
ATOM     93  F   UNL A   1      47.712  35.075  30.846  1.00  0.00    -0.200 F 
ATOM     94  C   UNL A   1      47.236  35.444  28.563  1.00  0.00     0.200 A 
ATOM     95  F   UNL A   1      46.735  35.768  26.279  1.00  0.00    -0.200 F 
ATOM     96  F   UNL A   1      47.705  36.696  28.652  1.00  0.00    -0.200 F 
ENDBRANCH  63  86
ENDBRANCH  37  38
ENDBRANCH  30  32
ENDBRANCH  29  30
ENDBRANCH  28  29
ENDBRANCH  27  28
ENDBRANCH  26  27
ENDBRANCH  25  26
ENDBRANCH   1  25
TORSDOF 21
ENDMDL
MODEL 3
REMARK VINA RESULT:     -10.7      0.862      2.740
REMARK SMILES CC1(C)CSC[C@H](N(CCC(=O)OCCOCCOCCOC(=O)c2ccc(-c3c4nc(c(-c5c(F)c(F)c(F)c(F)c5F)c5ccc([nH]5)c(-c5c(F)c(F)c(F)c(F)c5F)c5nc(c(-c6c(F)c(F)c(F)c(F)c6F)c6ccc3[nH]6)C=C5)C=C4)cc2)c2ccccc2)C1
REMARK SMILES IDX 17 1 16 2 15 3 14 4 13 5 11 6 12 7 10 8 9 9 8 10 7 11 1 12
REMARK SMILES IDX 2 13 3 14 4 15 94 16 5 17 6 18 88 19 89 20 93 21 90 22 92 23
REMARK SMILES IDX 91 24 18 25 19 26 20 27 21 28 22 29 23 30 24 31 25 32 26 33
REMARK SMILES IDX 87 34 27 35 86 36 28 37 29 38 30 39 80 40 31 41 85 42 79 43
REMARK SMILES IDX 81 44 32 45 84 46 78 47 77 48 33 50 65 51 45 52 64 53 46 54
REMARK SMILES IDX 49 55 63 56 82 57 47 58 48 59 62 61 83 62 50 63 34 64 35 65
REMARK SMILES IDX 43 66 36 67 37 68 41 69 44 70 38 71 39 72 42 73 40 74 66 75
REMARK SMILES IDX 67 76 75 77 68 78 69 79 73 80 76 81 70 82 71 83 74 84 72 85
REMARK SMILES IDX 51 86 52 87 60 88 53 89 54 90 58 91 61 92 55 93 56 94 59 95
REMARK SMILES IDX 57 96
REMARK H PARENT 81 49 49 60
REMARK Flexibility Score: inf
ROOT
ATOM      1  C   UNL A   1      30.036  27.121  23.674  1.00  0.00     0.188 C 
ENDROOT
BRANCH   1   2
ATOM      2  O   UNL A   1      30.564  26.759  24.938  1.00  0.00    -0.376 OA
BRANCH   2   3
ATOM      3  C   UNL A   1      30.718  25.347  25.105  1.00  0.00     0.202 C 
BRANCH   3   4
ATOM      4  C   UNL A   1      31.655  24.991  26.272  1.00  0.00     0.261 C 
BRANCH   4   5
ATOM      5  O   UNL A   1      30.968  24.159  27.237  1.00  0.00    -0.463 OA
BRANCH   5   6
ATOM      6  C   UNL A   1      30.675  22.871  26.941  1.00  0.00     0.307 C 
ATOM      7  O   UNL A   1      29.544  22.438  26.753  1.00  0.00    -0.252 OA
BRANCH   6   8
ATOM      8  C   UNL A   1      31.927  22.018  26.828  1.00  0.00     0.144 C 
BRANCH   8   9
ATOM      9  C   UNL A   1      31.828  20.880  25.804  1.00  0.00     0.128 C 
BRANCH   9  10
ATOM     10  N   UNL A   1      33.071  20.555  25.082  1.00  0.00    -0.367 N 
BRANCH  10  11
ATOM     11  C   UNL A   1      33.825  21.536  24.247  1.00  0.00     0.092 C 
ATOM     12  C   UNL A   1      36.734  22.548  23.471  1.00  0.00     0.012 C 
ATOM     13  C   UNL A   1      35.761  23.327  24.377  1.00  0.00    -0.024 C 
ATOM     14  C   UNL A   1      36.606  24.069  25.438  1.00  0.00     0.012 C 
ATOM     15  C   UNL A   1      34.954  24.374  23.591  1.00  0.00     0.076 C 
ATOM     16  C   UNL A   1      34.831  22.344  25.116  1.00  0.00     0.033 C 
ATOM     17  S   UNL A   1      33.782  23.665  22.400  1.00  0.00    -0.159 SA
ATOM     18  C   UNL A   1      32.897  22.528  23.516  1.00  0.00     0.094 C 
ENDBRANCH  10  11
BRANCH  10  19
ATOM     19  C   UNL A   1      33.357  19.198  24.921  1.00  0.00     0.037 A 
ATOM     20  C   UNL A   1      34.591  18.743  24.450  1.00  0.00     0.026 A 
ATOM     21  C   UNL A   1      32.409  18.234  25.286  1.00  0.00     0.026 A 
ATOM     22  C   UNL A   1      34.839  17.379  24.263  1.00  0.00     0.002 A 
ATOM     23  C   UNL A   1      32.686  16.868  25.194  1.00  0.00     0.002 A 
ATOM     24  C   UNL A   1      33.888  16.439  24.644  1.00  0.00     0.000 A 
ENDBRANCH  10  19
ENDBRANCH   9  10
ENDBRANCH   8   9
ENDBRANCH   6   8
ENDBRANCH   5   6
ENDBRANCH   4   5
ENDBRANCH   3   4
ENDBRANCH   2   3
ENDBRANCH   1   2
BRANCH   1  25
ATOM     25  C   UNL A   1      30.731  28.320  23.066  1.00  0.00     0.188 C 
BRANCH  25  26
ATOM     26  O   UNL A   1      30.738  29.508  23.846  1.00  0.00    -0.376 OA
BRANCH  26  27
ATOM     27  C   UNL A   1      31.904  29.676  24.650  1.00  0.00     0.202 C 
BRANCH  27  28
ATOM     28  C   UNL A   1      31.726  30.138  26.112  1.00  0.00     0.261 C 
BRANCH  28  29
ATOM     29  O   UNL A   1      32.924  30.097  26.897  1.00  0.00    -0.460 OA
BRANCH  29  30
ATOM     30  C   UNL A   1      33.436  31.304  27.269  1.00  0.00     0.338 C 
ATOM     31  O   UNL A   1      32.863  32.370  27.293  1.00  0.00    -0.246 OA
BRANCH  30  32
ATOM     32  C   UNL A   1      34.764  31.049  27.894  1.00  0.00     0.060 A 
ATOM     33  C   UNL A   1      35.130  29.722  28.186  1.00  0.00     0.016 A 
ATOM     34  C   UNL A   1      35.689  32.081  28.062  1.00  0.00     0.016 A 
ATOM     35  C   UNL A   1      36.418  29.427  28.640  1.00  0.00     0.010 A 
ATOM     36  C   UNL A   1      36.964  31.791  28.540  1.00  0.00     0.010 A 
ATOM     37  C   UNL A   1      37.325  30.469  28.857  1.00  0.00    -0.014 A 
BRANCH  37  38
ATOM     38  C   UNL A   1      38.546  30.266  29.668  1.00  0.00     0.031 A 
ATOM     39  C   UNL A   1      39.550  29.283  29.141  1.00  0.00     0.074 A 
ATOM     40  C   UNL A   1      38.719  30.848  30.866  1.00  0.00     0.049 A 
ATOM     41  N   UNL A   1      40.580  28.738  29.732  1.00  0.00    -0.248 NA
ATOM     42  C   UNL A   1      39.334  28.825  27.757  1.00  0.00     0.031 C 
ATOM     43  C   UNL A   1      37.832  31.842  31.463  1.00  0.00     0.029 A 
ATOM     44  N   UNL A   1      39.692  30.644  31.812  1.00  0.00    -0.354 N 
ATOM     45  C   UNL A   1      41.112  27.853  28.805  1.00  0.00     0.074 A 
ATOM     46  C   UNL A   1      40.280  27.913  27.625  1.00  0.00     0.031 C 
ATOM     47  C   UNL A   1      38.284  32.138  32.695  1.00  0.00     0.029 A 
ATOM     48  C   UNL A   1      39.460  31.318  32.987  1.00  0.00     0.049 A 
ATOM     49  H   UNL A   1      40.479  30.072  31.665  1.00  0.00     0.167 HD
ATOM     50  C   UNL A   1      42.197  27.056  28.932  1.00  0.00     0.037 A 
ATOM     51  C   UNL A   1      40.100  31.240  34.170  1.00  0.00     0.037 A 
ATOM     52  C   UNL A   1      43.013  27.003  30.114  1.00  0.00     0.049 A 
ATOM     53  C   UNL A   1      41.279  30.307  34.313  1.00  0.00     0.074 A 
ATOM     54  C   UNL A   1      44.156  26.259  30.339  1.00  0.00     0.029 A 
ATOM     55  N   UNL A   1      42.757  27.714  31.278  1.00  0.00    -0.354 N 
ATOM     56  N   UNL A   1      41.801  29.489  33.430  1.00  0.00    -0.248 NA
ATOM     57  C   UNL A   1      41.957  30.285  35.617  1.00  0.00     0.031 C 
ATOM     58  C   UNL A   1      44.555  26.469  31.664  1.00  0.00     0.029 A 
ATOM     59  C   UNL A   1      43.705  27.403  32.238  1.00  0.00     0.049 A 
ATOM     60  H   UNL A   1      42.012  28.345  31.403  1.00  0.00     0.167 HD
ATOM     61  C   UNL A   1      42.885  28.886  34.055  1.00  0.00     0.074 A 
ATOM     62  C   UNL A   1      42.948  29.432  35.394  1.00  0.00     0.031 C 
ATOM     63  C   UNL A   1      43.757  27.969  33.563  1.00  0.00     0.037 A 
BRANCH  50  64
ATOM     64  C   UNL A   1      42.523  26.147  27.782  1.00  0.00     0.064 A 
ATOM     65  C   UNL A   1      43.453  26.500  26.792  1.00  0.00     0.173 A 
ATOM     66  C   UNL A   1      41.884  24.903  27.665  1.00  0.00     0.173 A 
ATOM     67  F   UNL A   1      44.077  27.686  26.844  1.00  0.00    -0.203 F 
ATOM     68  C   UNL A   1      43.700  25.661  25.708  1.00  0.00     0.198 A 
ATOM     69  C   UNL A   1      42.162  24.050  26.602  1.00  0.00     0.198 A 
ATOM     70  F   UNL A   1      40.984  24.515  28.582  1.00  0.00    -0.203 F 
ATOM     71  F   UNL A   1      44.539  26.051  24.740  1.00  0.00    -0.200 F 
ATOM     72  C   UNL A   1      43.061  24.434  25.618  1.00  0.00     0.200 A 
ATOM     73  F   UNL A   1      41.552  22.860  26.524  1.00  0.00    -0.200 F 
ATOM     74  F   UNL A   1      43.301  23.626  24.576  1.00  0.00    -0.200 F 
ENDBRANCH  50  64
BRANCH  51  75
ATOM     75  C   UNL A   1      39.628  32.055  35.321  1.00  0.00     0.064 A 
ATOM     76  C   UNL A   1      40.144  33.336  35.561  1.00  0.00     0.173 A 
ATOM     77  C   UNL A   1      38.646  31.576  36.200  1.00  0.00     0.173 A 
ATOM     78  F   UNL A   1      41.107  33.829  34.767  1.00  0.00    -0.203 F 
ATOM     79  C   UNL A   1      39.703  34.102  36.639  1.00  0.00     0.198 A 
ATOM     80  C   UNL A   1      38.184  32.352  37.261  1.00  0.00     0.198 A 
ATOM     81  F   UNL A   1      38.123  30.353  36.022  1.00  0.00    -0.203 F 
ATOM     82  F   UNL A   1      40.244  35.306  36.869  1.00  0.00    -0.200 F 
ATOM     83  C   UNL A   1      38.717  33.612  37.483  1.00  0.00     0.200 A 
ATOM     84  F   UNL A   1      37.224  31.880  38.068  1.00  0.00    -0.200 F 
ATOM     85  F   UNL A   1      38.286  34.353  38.514  1.00  0.00    -0.200 F 
ENDBRANCH  51  75
BRANCH  63  86
ATOM     86  C   UNL A   1      44.891  27.535  34.448  1.00  0.00     0.064 A 
ATOM     87  C   UNL A   1      44.792  26.424  35.296  1.00  0.00     0.173 A 
ATOM     88  C   UNL A   1      46.125  28.205  34.387  1.00  0.00     0.173 A 
ATOM     89  F   UNL A   1      43.635  25.754  35.401  1.00  0.00    -0.203 F 
ATOM     90  C   UNL A   1      45.880  26.010  36.064  1.00  0.00     0.198 A 
ATOM     91  C   UNL A   1      47.219  27.769  35.128  1.00  0.00     0.198 A 
ATOM     92  F   UNL A   1      46.277  29.269  33.582  1.00  0.00    -0.203 F 
ATOM     93  F   UNL A   1      45.750  24.970  36.898  1.00  0.00    -0.200 F 
ATOM     94  C   UNL A   1      47.093  26.676  35.971  1.00  0.00     0.200 A 
ATOM     95  F   UNL A   1      48.394  28.401  35.020  1.00  0.00    -0.200 F 
ATOM     96  F   UNL A   1      48.142  26.265  36.696  1.00  0.00    -0.200 F 
ENDBRANCH  63  86
ENDBRANCH  37  38
ENDBRANCH  30  32
ENDBRANCH  29  30
ENDBRANCH  28  29
ENDBRANCH  27  28
ENDBRANCH  26  27
ENDBRANCH  25  26
ENDBRANCH   1  25
TORSDOF 21
ENDMDL
