MODEL 1
REMARK VINA RESULT:     -10.9      0.000      0.000
REMARK SMILES NC(=O)C1CC[NH+](CC[C@H]2CN(C(=O)c3ccccc3)CC[C@H]2CC(=O)OCCOCCOCCOC(=O)c2ccc(-c3c4nc(c(-c5c(F)c(F)c(F)c(F)c5F)c5ccc([nH]5)c(-c5c(F)c(F)c(F)c(F)c5F)c5nc(c(-c6c(F)c(F)c(F)c(F)c6F)c6ccc3[nH]6)C=C5)C=C4)cc2)CC1
REMARK SMILES IDX 30 1 29 2 28 3 27 4 25 5 26 6 24 7 23 8 10 9 11 10 12 11
REMARK SMILES IDX 22 12 21 13 9 14 8 15 7 16 4 17 5 18 103 19 6 20 102 21 2 23
REMARK SMILES IDX 1 24 3 27 13 28 14 29 15 30 16 31 20 32 17 33 19 34 18 35
REMARK SMILES IDX 31 36 32 37 33 38 34 39 35 40 36 41 37 42 38 43 39 44 40 45
REMARK SMILES IDX 101 46 41 47 100 48 42 49 43 50 44 51 94 52 45 53 99 54
REMARK SMILES IDX 93 55 95 56 46 57 98 58 92 59 91 60 47 62 79 63 59 64 78 65
REMARK SMILES IDX 60 66 63 67 77 68 96 69 61 70 62 71 76 73 97 74 64 75 48 76
REMARK SMILES IDX 49 77 57 78 50 79 51 80 55 81 58 82 52 83 53 84 56 85 54 86
REMARK SMILES IDX 80 87 81 88 89 89 82 90 83 91 87 92 90 93 84 94 85 95 88 96
REMARK SMILES IDX 86 97 65 98 66 99 74 100 67 101 68 102 72 103 75 104 69 105
REMARK SMILES IDX 70 106 73 107 71 108
REMARK H PARENT 7 22 1 25 1 26 95 61 63 72
REMARK Flexibility Score: inf
ROOT
ATOM      1  O   UNL A   1      32.211  22.509  26.436  1.00  0.00    -0.376 OA
ENDROOT
BRANCH   1   2
ATOM      2  C   UNL A   1      32.082  21.587  25.357  1.00  0.00     0.202 C 
BRANCH   2   3
ATOM      3  C   UNL A   1      32.643  22.014  23.993  1.00  0.00     0.261 C 
BRANCH   3   4
ATOM      4  O   UNL A   1      31.666  22.477  23.036  1.00  0.00    -0.463 OA
BRANCH   4   5
ATOM      5  C   UNL A   1      31.390  23.804  23.093  1.00  0.00     0.306 C 
ATOM      6  O   UNL A   1      30.407  24.286  23.651  1.00  0.00    -0.252 OA
BRANCH   5   7
ATOM      7  C   UNL A   1      32.375  24.711  22.382  1.00  0.00     0.126 C 
BRANCH   7   8
ATOM      8  C   UNL A   1      33.337  25.690  23.082  1.00  0.00     0.007 C 
ATOM      9  C   UNL A   1      33.105  27.231  22.906  1.00  0.00     0.018 C 
ATOM     10  C   UNL A   1      34.016  27.965  23.926  1.00  0.00     0.124 C 
ATOM     11  N   UNL A   1      33.812  27.514  25.300  1.00  0.00    -0.338 N 
ATOM     12  C   UNL A   1      33.392  25.247  24.583  1.00  0.00     0.026 C 
ATOM     13  C   UNL A   1      34.210  26.141  25.508  1.00  0.00     0.120 C 
BRANCH   9  14
ATOM     14  C   UNL A   1      31.634  27.707  22.613  1.00  0.00     0.067 C 
BRANCH  14  15
ATOM     15  C   UNL A   1      30.473  27.671  23.630  1.00  0.00     0.262 C 
BRANCH  15  16
ATOM     16  N   UNL A   1      29.450  28.728  23.613  1.00  0.00    -0.335 N 
ATOM     17  C   UNL A   1      27.783  31.072  23.003  1.00  0.00     0.089 C 
ATOM     18  C   UNL A   1      28.972  31.102  23.950  1.00  0.00     0.075 C 
ATOM     19  C   UNL A   1      27.231  29.634  22.984  1.00  0.00     0.075 C 
ATOM     20  C   UNL A   1      29.976  30.073  23.466  1.00  0.00     0.263 C 
ATOM     21  C   UNL A   1      28.301  28.542  22.729  1.00  0.00     0.263 C 
ATOM     22  H   UNL A   1      29.081  28.619  24.558  1.00  0.00     0.348 HD
BRANCH  17  23
ATOM     23  C   UNL A   1      28.249  31.663  21.670  1.00  0.00     0.220 C 
ATOM     24  N   UNL A   1      29.082  32.731  21.695  1.00  0.00    -0.369 N 
ATOM     25  H   UNL A   1      29.396  33.130  20.852  1.00  0.00     0.159 HD
ATOM     26  H   UNL A   1      29.372  33.109  22.556  1.00  0.00     0.159 HD
ATOM     27  O   UNL A   1      27.919  31.201  20.578  1.00  0.00    -0.275 OA
ENDBRANCH  17  23
ENDBRANCH  15  16
ENDBRANCH  14  15
ENDBRANCH   9  14
BRANCH  11  28
ATOM     28  C   UNL A   1      33.322  28.376  26.274  1.00  0.00     0.253 C 
ATOM     29  O   UNL A   1      32.191  28.319  26.748  1.00  0.00    -0.269 OA
BRANCH  28  30
ATOM     30  C   UNL A   1      34.083  29.530  26.773  1.00  0.00     0.040 A 
ATOM     31  C   UNL A   1      35.336  29.342  27.371  1.00  0.00     0.014 A 
ATOM     32  C   UNL A   1      33.333  30.677  27.053  1.00  0.00     0.014 A 
ATOM     33  C   UNL A   1      35.827  30.307  28.257  1.00  0.00     0.001 A 
ATOM     34  C   UNL A   1      33.821  31.627  27.949  1.00  0.00     0.001 A 
ATOM     35  C   UNL A   1      35.062  31.436  28.558  1.00  0.00     0.000 A 
ENDBRANCH  28  30
ENDBRANCH  11  28
ENDBRANCH   7   8
ENDBRANCH   5   7
ENDBRANCH   4   5
ENDBRANCH   3   4
ENDBRANCH   2   3
ENDBRANCH   1   2
BRANCH   1  36
ATOM     36  C   UNL A   1      33.380  22.394  27.231  1.00  0.00     0.188 C 
BRANCH  36  37
ATOM     37  C   UNL A   1      34.411  21.337  26.835  1.00  0.00     0.188 C 
BRANCH  37  38
ATOM     38  O   UNL A   1      35.465  21.736  25.971  1.00  0.00    -0.376 OA
BRANCH  38  39
ATOM     39  C   UNL A   1      35.934  20.709  25.082  1.00  0.00     0.202 C 
BRANCH  39  40
ATOM     40  C   UNL A   1      37.467  20.540  24.994  1.00  0.00     0.261 C 
BRANCH  40  41
ATOM     41  O   UNL A   1      38.238  21.680  25.436  1.00  0.00    -0.460 OA
BRANCH  41  42
ATOM     42  C   UNL A   1      39.305  21.454  26.237  1.00  0.00     0.338 C 
ATOM     43  O   UNL A   1      39.898  20.398  26.378  1.00  0.00    -0.246 OA
BRANCH  42  44
ATOM     44  C   UNL A   1      39.836  22.771  26.690  1.00  0.00     0.060 A 
ATOM     45  C   UNL A   1      39.260  23.936  26.157  1.00  0.00     0.016 A 
ATOM     46  C   UNL A   1      40.802  22.877  27.695  1.00  0.00     0.016 A 
ATOM     47  C   UNL A   1      39.662  25.197  26.607  1.00  0.00     0.010 A 
ATOM     48  C   UNL A   1      41.215  24.140  28.134  1.00  0.00     0.010 A 
ATOM     49  C   UNL A   1      40.666  25.308  27.577  1.00  0.00    -0.014 A 
BRANCH  49  50
ATOM     50  C   UNL A   1      41.286  26.626  27.870  1.00  0.00     0.031 A 
ATOM     51  C   UNL A   1      42.694  26.868  27.399  1.00  0.00     0.074 A 
ATOM     52  C   UNL A   1      40.634  27.596  28.535  1.00  0.00     0.049 A 
ATOM     53  N   UNL A   1      43.474  27.901  27.592  1.00  0.00    -0.248 NA
ATOM     54  C   UNL A   1      43.300  25.794  26.599  1.00  0.00     0.031 C 
ATOM     55  C   UNL A   1      39.252  27.525  29.001  1.00  0.00     0.029 A 
ATOM     56  N   UNL A   1      41.065  28.837  28.941  1.00  0.00    -0.354 N 
ATOM     57  C   UNL A   1      44.661  27.600  26.940  1.00  0.00     0.074 A 
ATOM     58  C   UNL A   1      44.511  26.277  26.373  1.00  0.00     0.031 C 
ATOM     59  C   UNL A   1      38.949  28.672  29.636  1.00  0.00     0.029 A 
ATOM     60  C   UNL A   1      40.128  29.540  29.657  1.00  0.00     0.049 A 
ATOM     61  H   UNL A   1      41.961  29.189  28.737  1.00  0.00     0.167 HD
ATOM     62  C   UNL A   1      45.777  28.358  26.815  1.00  0.00     0.037 A 
ATOM     63  C   UNL A   1      40.221  30.733  30.279  1.00  0.00     0.037 A 
ATOM     64  C   UNL A   1      45.944  29.665  27.390  1.00  0.00     0.049 A 
ATOM     65  C   UNL A   1      41.521  31.501  30.243  1.00  0.00     0.074 A 
ATOM     66  C   UNL A   1      47.034  30.514  27.302  1.00  0.00     0.029 A 
ATOM     67  N   UNL A   1      45.001  30.307  28.179  1.00  0.00    -0.354 N 
ATOM     68  N   UNL A   1      42.632  31.224  29.606  1.00  0.00    -0.248 NA
ATOM     69  C   UNL A   1      41.579  32.745  31.028  1.00  0.00     0.031 C 
ATOM     70  C   UNL A   1      46.773  31.644  28.086  1.00  0.00     0.029 A 
ATOM     71  C   UNL A   1      45.499  31.522  28.619  1.00  0.00     0.049 A 
ATOM     72  H   UNL A   1      44.108  29.950  28.394  1.00  0.00     0.167 HD
ATOM     73  C   UNL A   1      43.510  32.263  29.893  1.00  0.00     0.074 A 
ATOM     74  C   UNL A   1      42.800  33.186  30.753  1.00  0.00     0.031 C 
ATOM     75  C   UNL A   1      44.790  32.435  29.479  1.00  0.00     0.037 A 
BRANCH  62  76
ATOM     76  C   UNL A   1      46.922  27.761  26.051  1.00  0.00     0.064 A 
ATOM     77  C   UNL A   1      47.965  27.083  26.698  1.00  0.00     0.173 A 
ATOM     78  C   UNL A   1      46.979  27.878  24.655  1.00  0.00     0.173 A 
ATOM     79  F   UNL A   1      47.966  26.961  28.035  1.00  0.00    -0.203 F 
ATOM     80  C   UNL A   1      49.044  26.577  25.978  1.00  0.00     0.198 A 
ATOM     81  C   UNL A   1      48.044  27.344  23.936  1.00  0.00     0.198 A 
ATOM     82  F   UNL A   1      46.006  28.516  23.988  1.00  0.00    -0.203 F 
ATOM     83  F   UNL A   1      50.061  25.988  26.624  1.00  0.00    -0.200 F 
ATOM     84  C   UNL A   1      49.081  26.704  24.598  1.00  0.00     0.200 A 
ATOM     85  F   UNL A   1      48.073  27.459  22.600  1.00  0.00    -0.200 F 
ATOM     86  F   UNL A   1      50.123  26.222  23.907  1.00  0.00    -0.200 F 
ENDBRANCH  62  76
BRANCH  63  87
ATOM     87  C   UNL A   1      39.053  31.280  31.019  1.00  0.00     0.064 A 
ATOM     88  C   UNL A   1      38.177  32.189  30.409  1.00  0.00     0.173 A 
ATOM     89  C   UNL A   1      38.804  30.931  32.354  1.00  0.00     0.173 A 
ATOM     90  F   UNL A   1      38.395  32.583  29.145  1.00  0.00    -0.203 F 
ATOM     91  C   UNL A   1      37.100  32.732  31.107  1.00  0.00     0.198 A 
ATOM     92  C   UNL A   1      37.712  31.455  33.044  1.00  0.00     0.198 A 
ATOM     93  F   UNL A   1      39.622  30.078  32.989  1.00  0.00    -0.203 F 
ATOM     94  F   UNL A   1      36.304  33.631  30.514  1.00  0.00    -0.200 F 
ATOM     95  C   UNL A   1      36.865  32.359  32.423  1.00  0.00     0.200 A 
ATOM     96  F   UNL A   1      37.488  31.091  34.314  1.00  0.00    -0.200 F 
ATOM     97  F   UNL A   1      35.830  32.881  33.093  1.00  0.00    -0.200 F 
ENDBRANCH  63  87
BRANCH  75  98
ATOM     98  C   UNL A   1      45.511  33.674  29.931  1.00  0.00     0.064 A 
ATOM     99  C   UNL A   1      45.510  34.845  29.159  1.00  0.00     0.173 A 
ATOM    100  C   UNL A   1      46.156  33.711  31.176  1.00  0.00     0.173 A 
ATOM    101  F   UNL A   1      44.920  34.860  27.954  1.00  0.00    -0.203 F 
ATOM    102  C   UNL A   1      46.142  36.002  29.610  1.00  0.00     0.198 A 
ATOM    103  C   UNL A   1      46.763  34.877  31.637  1.00  0.00     0.198 A 
ATOM    104  F   UNL A   1      46.180  32.621  31.957  1.00  0.00    -0.203 F 
ATOM    105  F   UNL A   1      46.160  37.098  28.840  1.00  0.00    -0.200 F 
ATOM    106  C   UNL A   1      46.760  36.020  30.851  1.00  0.00     0.200 A 
ATOM    107  F   UNL A   1      47.346  34.896  32.843  1.00  0.00    -0.200 F 
ATOM    108  F   UNL A   1      47.355  37.138  31.291  1.00  0.00    -0.200 F 
ENDBRANCH  75  98
ENDBRANCH  49  50
ENDBRANCH  42  44
ENDBRANCH  41  42
ENDBRANCH  40  41
ENDBRANCH  39  40
ENDBRANCH  38  39
ENDBRANCH  37  38
ENDBRANCH  36  37
ENDBRANCH   1  36
TORSDOF 24
ENDMDL
MODEL 2
REMARK VINA RESULT:     -10.5      2.309      3.111
REMARK SMILES NC(=O)C1CC[NH+](CC[C@H]2CN(C(=O)c3ccccc3)CC[C@H]2CC(=O)OCCOCCOCCOC(=O)c2ccc(-c3c4nc(c(-c5c(F)c(F)c(F)c(F)c5F)c5ccc([nH]5)c(-c5c(F)c(F)c(F)c(F)c5F)c5nc(c(-c6c(F)c(F)c(F)c(F)c6F)c6ccc3[nH]6)C=C5)C=C4)cc2)CC1
REMARK SMILES IDX 30 1 29 2 28 3 27 4 25 5 26 6 24 7 23 8 10 9 11 10 12 11
REMARK SMILES IDX 22 12 21 13 9 14 8 15 7 16 4 17 5 18 103 19 6 20 102 21 2 23
REMARK SMILES IDX 1 24 3 27 13 28 14 29 15 30 16 31 20 32 17 33 19 34 18 35
REMARK SMILES IDX 31 36 32 37 33 38 34 39 35 40 36 41 37 42 38 43 39 44 40 45
REMARK SMILES IDX 101 46 41 47 100 48 42 49 43 50 44 51 94 52 45 53 99 54
REMARK SMILES IDX 93 55 95 56 46 57 98 58 92 59 91 60 47 62 79 63 59 64 78 65
REMARK SMILES IDX 60 66 63 67 77 68 96 69 61 70 62 71 76 73 97 74 64 75 48 76
REMARK SMILES IDX 49 77 57 78 50 79 51 80 55 81 58 82 52 83 53 84 56 85 54 86
REMARK SMILES IDX 80 87 81 88 89 89 82 90 83 91 87 92 90 93 84 94 85 95 88 96
REMARK SMILES IDX 86 97 65 98 66 99 74 100 67 101 68 102 72 103 75 104 69 105
REMARK SMILES IDX 70 106 73 107 71 108
REMARK H PARENT 7 22 1 25 1 26 95 61 63 72
REMARK Flexibility Score: inf
ROOT
ATOM      1  O   UNL A   1      32.341  22.765  26.353  1.00  0.00    -0.376 OA
ENDROOT
BRANCH   1   2
ATOM      2  C   UNL A   1      31.994  21.885  25.289  1.00  0.00     0.202 C 
BRANCH   2   3
ATOM      3  C   UNL A   1      32.599  22.175  23.907  1.00  0.00     0.261 C 
BRANCH   3   4
ATOM      4  O   UNL A   1      31.687  22.730  22.934  1.00  0.00    -0.463 OA
BRANCH   4   5
ATOM      5  C   UNL A   1      31.345  24.027  23.142  1.00  0.00     0.306 C 
ATOM      6  O   UNL A   1      30.327  24.391  23.724  1.00  0.00    -0.252 OA
BRANCH   5   7
ATOM      7  C   UNL A   1      32.301  25.058  22.575  1.00  0.00     0.126 C 
BRANCH   7   8
ATOM      8  C   UNL A   1      33.038  26.127  23.402  1.00  0.00     0.007 C 
ATOM      9  C   UNL A   1      32.407  27.559  23.519  1.00  0.00     0.018 C 
ATOM     10  C   UNL A   1      33.184  28.329  24.619  1.00  0.00     0.124 C 
ATOM     11  N   UNL A   1      33.220  27.620  25.895  1.00  0.00    -0.338 N 
ATOM     12  C   UNL A   1      33.333  25.474  24.795  1.00  0.00     0.026 C 
ATOM     13  C   UNL A   1      33.971  26.388  25.834  1.00  0.00     0.120 C 
BRANCH   9  14
ATOM     14  C   UNL A   1      30.844  27.668  23.375  1.00  0.00     0.067 C 
BRANCH  14  15
ATOM     15  C   UNL A   1      30.102  28.121  22.098  1.00  0.00     0.262 C 
BRANCH  15  16
ATOM     16  N   UNL A   1      29.159  29.249  22.160  1.00  0.00    -0.335 N 
ATOM     17  C   UNL A   1      27.811  31.813  22.660  1.00  0.00     0.089 C 
ATOM     18  C   UNL A   1      27.696  30.604  23.575  1.00  0.00     0.075 C 
ATOM     19  C   UNL A   1      28.123  31.304  21.241  1.00  0.00     0.075 C 
ATOM     20  C   UNL A   1      28.997  29.827  23.481  1.00  0.00     0.263 C 
ATOM     21  C   UNL A   1      29.310  30.309  21.165  1.00  0.00     0.263 C 
ATOM     22  H   UNL A   1      28.300  28.762  21.903  1.00  0.00     0.348 HD
BRANCH  17  23
ATOM     23  C   UNL A   1      28.817  32.772  23.301  1.00  0.00     0.220 C 
ATOM     24  N   UNL A   1      29.719  32.269  24.177  1.00  0.00    -0.369 N 
ATOM     25  H   UNL A   1      30.377  32.865  24.601  1.00  0.00     0.159 HD
ATOM     26  H   UNL A   1      29.716  31.308  24.389  1.00  0.00     0.159 HD
ATOM     27  O   UNL A   1      28.859  33.974  23.039  1.00  0.00    -0.275 OA
ENDBRANCH  17  23
ENDBRANCH  15  16
ENDBRANCH  14  15
ENDBRANCH   9  14
BRANCH  11  28
ATOM     28  C   UNL A   1      32.612  28.148  27.028  1.00  0.00     0.253 C 
ATOM     29  O   UNL A   1      31.846  27.527  27.759  1.00  0.00    -0.269 OA
BRANCH  28  30
ATOM     30  C   UNL A   1      32.744  29.558  27.419  1.00  0.00     0.040 A 
ATOM     31  C   UNL A   1      31.786  30.495  27.011  1.00  0.00     0.014 A 
ATOM     32  C   UNL A   1      34.033  29.974  27.768  1.00  0.00     0.014 A 
ATOM     33  C   UNL A   1      32.132  31.849  26.945  1.00  0.00     0.001 A 
ATOM     34  C   UNL A   1      34.376  31.323  27.686  1.00  0.00     0.001 A 
ATOM     35  C   UNL A   1      33.429  32.257  27.264  1.00  0.00     0.000 A 
ENDBRANCH  28  30
ENDBRANCH  11  28
ENDBRANCH   7   8
ENDBRANCH   5   7
ENDBRANCH   4   5
ENDBRANCH   3   4
ENDBRANCH   2   3
ENDBRANCH   1   2
BRANCH   1  36
ATOM     36  C   UNL A   1      33.128  22.217  27.398  1.00  0.00     0.188 C 
BRANCH  36  37
ATOM     37  C   UNL A   1      34.423  21.499  27.015  1.00  0.00     0.188 C 
BRANCH  37  38
ATOM     38  O   UNL A   1      35.375  22.223  26.250  1.00  0.00    -0.376 OA
BRANCH  38  39
ATOM     39  C   UNL A   1      36.096  21.435  25.288  1.00  0.00     0.202 C 
BRANCH  39  40
ATOM     40  C   UNL A   1      37.621  21.673  25.226  1.00  0.00     0.261 C 
BRANCH  40  41
ATOM     41  O   UNL A   1      38.085  22.868  25.895  1.00  0.00    -0.460 OA
BRANCH  41  42
ATOM     42  C   UNL A   1      39.349  22.878  26.374  1.00  0.00     0.338 C 
ATOM     43  O   UNL A   1      40.226  22.065  26.132  1.00  0.00    -0.246 OA
BRANCH  42  44
ATOM     44  C   UNL A   1      39.600  24.206  27.002  1.00  0.00     0.060 A 
ATOM     45  C   UNL A   1      40.221  25.199  26.227  1.00  0.00     0.016 A 
ATOM     46  C   UNL A   1      39.143  24.518  28.287  1.00  0.00     0.016 A 
ATOM     47  C   UNL A   1      40.406  26.487  26.739  1.00  0.00     0.010 A 
ATOM     48  C   UNL A   1      39.343  25.804  28.804  1.00  0.00     0.010 A 
ATOM     49  C   UNL A   1      39.996  26.789  28.044  1.00  0.00    -0.014 A 
BRANCH  49  50
ATOM     50  C   UNL A   1      40.418  28.058  28.690  1.00  0.00     0.031 A 
ATOM     51  C   UNL A   1      41.867  28.218  29.060  1.00  0.00     0.074 A 
ATOM     52  C   UNL A   1      39.555  29.055  28.950  1.00  0.00     0.049 A 
ATOM     53  N   UNL A   1      42.466  29.194  29.694  1.00  0.00    -0.248 NA
ATOM     54  C   UNL A   1      42.761  27.121  28.657  1.00  0.00     0.031 C 
ATOM     55  C   UNL A   1      38.138  29.066  28.598  1.00  0.00     0.029 A 
ATOM     56  N   UNL A   1      39.754  30.258  29.586  1.00  0.00    -0.354 N 
ATOM     57  C   UNL A   1      43.803  28.829  29.766  1.00  0.00     0.074 A 
ATOM     58  C   UNL A   1      43.923  27.529  29.141  1.00  0.00     0.031 C 
ATOM     59  C   UNL A   1      37.592  30.218  29.028  1.00  0.00     0.029 A 
ATOM     60  C   UNL A   1      38.612  31.007  29.722  1.00  0.00     0.049 A 
ATOM     61  H   UNL A   1      40.634  30.555  29.912  1.00  0.00     0.167 HD
ATOM     62  C   UNL A   1      44.843  29.514  30.297  1.00  0.00     0.037 A 
ATOM     63  C   UNL A   1      38.408  32.180  30.357  1.00  0.00     0.037 A 
ATOM     64  C   UNL A   1      44.732  30.797  30.937  1.00  0.00     0.049 A 
ATOM     65  C   UNL A   1      39.556  32.862  31.062  1.00  0.00     0.074 A 
ATOM     66  C   UNL A   1      45.735  31.576  31.490  1.00  0.00     0.029 A 
ATOM     67  N   UNL A   1      43.543  31.484  31.129  1.00  0.00    -0.354 N 
ATOM     68  N   UNL A   1      40.822  32.525  31.107  1.00  0.00    -0.248 NA
ATOM     69  C   UNL A   1      39.238  34.085  31.818  1.00  0.00     0.031 C 
ATOM     70  C   UNL A   1      45.144  32.704  32.068  1.00  0.00     0.029 A 
ATOM     71  C   UNL A   1      43.779  32.655  31.828  1.00  0.00     0.049 A 
ATOM     72  H   UNL A   1      42.660  31.182  30.813  1.00  0.00     0.167 HD
ATOM     73  C   UNL A   1      41.452  33.500  31.872  1.00  0.00     0.074 A 
ATOM     74  C   UNL A   1      40.433  34.451  32.263  1.00  0.00     0.031 C 
ATOM     75  C   UNL A   1      42.760  33.597  32.219  1.00  0.00     0.037 A 
BRANCH  62  76
ATOM     76  C   UNL A   1      46.191  28.859  30.237  1.00  0.00     0.064 A 
ATOM     77  C   UNL A   1      46.684  28.091  31.302  1.00  0.00     0.173 A 
ATOM     78  C   UNL A   1      47.002  29.010  29.104  1.00  0.00     0.173 A 
ATOM     79  F   UNL A   1      45.953  27.931  32.416  1.00  0.00    -0.203 F 
ATOM     80  C   UNL A   1      47.957  27.529  31.249  1.00  0.00     0.198 A 
ATOM     81  C   UNL A   1      48.262  28.422  29.042  1.00  0.00     0.198 A 
ATOM     82  F   UNL A   1      46.576  29.734  28.058  1.00  0.00    -0.203 F 
ATOM     83  F   UNL A   1      48.433  26.852  32.303  1.00  0.00    -0.200 F 
ATOM     84  C   UNL A   1      48.743  27.691  30.118  1.00  0.00     0.200 A 
ATOM     85  F   UNL A   1      49.016  28.572  27.944  1.00  0.00    -0.200 F 
ATOM     86  F   UNL A   1      49.971  27.156  30.071  1.00  0.00    -0.200 F 
ENDBRANCH  62  76
BRANCH  63  87
ATOM     87  C   UNL A   1      37.052  32.787  30.381  1.00  0.00     0.064 A 
ATOM     88  C   UNL A   1      36.656  33.704  29.397  1.00  0.00     0.173 A 
ATOM     89  C   UNL A   1      36.136  32.489  31.400  1.00  0.00     0.173 A 
ATOM     90  F   UNL A   1      37.511  34.050  28.423  1.00  0.00    -0.203 F 
ATOM     91  C   UNL A   1      35.399  34.304  29.434  1.00  0.00     0.198 A 
ATOM     92  C   UNL A   1      34.868  33.071  31.422  1.00  0.00     0.198 A 
ATOM     93  F   UNL A   1      36.471  31.632  32.375  1.00  0.00    -0.203 F 
ATOM     94  F   UNL A   1      35.063  35.208  28.504  1.00  0.00    -0.200 F 
ATOM     95  C   UNL A   1      34.503  33.981  30.443  1.00  0.00     0.200 A 
ATOM     96  F   UNL A   1      34.006  32.755  32.398  1.00  0.00    -0.200 F 
ATOM     97  F   UNL A   1      33.294  34.557  30.477  1.00  0.00    -0.200 F 
ENDBRANCH  63  87
BRANCH  75  98
ATOM     98  C   UNL A   1      43.179  34.778  33.049  1.00  0.00     0.064 A 
ATOM     99  C   UNL A   1      43.584  35.983  32.457  1.00  0.00     0.173 A 
ATOM    100  C   UNL A   1      43.116  34.725  34.449  1.00  0.00     0.173 A 
ATOM    101  F   UNL A   1      43.675  36.083  31.122  1.00  0.00    -0.203 F 
ATOM    102  C   UNL A   1      43.924  37.086  33.237  1.00  0.00     0.198 A 
ATOM    103  C   UNL A   1      43.430  35.838  35.226  1.00  0.00     0.198 A 
ATOM    104  F   UNL A   1      42.728  33.598  35.067  1.00  0.00    -0.203 F 
ATOM    105  F   UNL A   1      44.343  38.216  32.651  1.00  0.00    -0.200 F 
ATOM    106  C   UNL A   1      43.839  37.016  34.619  1.00  0.00     0.200 A 
ATOM    107  F   UNL A   1      43.332  35.771  36.561  1.00  0.00    -0.200 F 
ATOM    108  F   UNL A   1      44.153  38.082  35.368  1.00  0.00    -0.200 F 
ENDBRANCH  75  98
ENDBRANCH  49  50
ENDBRANCH  42  44
ENDBRANCH  41  42
ENDBRANCH  40  41
ENDBRANCH  39  40
ENDBRANCH  38  39
ENDBRANCH  37  38
ENDBRANCH  36  37
ENDBRANCH   1  36
TORSDOF 24
ENDMDL
MODEL 3
REMARK VINA RESULT:     -10.4      2.411      4.459
REMARK SMILES NC(=O)C1CC[NH+](CC[C@H]2CN(C(=O)c3ccccc3)CC[C@H]2CC(=O)OCCOCCOCCOC(=O)c2ccc(-c3c4nc(c(-c5c(F)c(F)c(F)c(F)c5F)c5ccc([nH]5)c(-c5c(F)c(F)c(F)c(F)c5F)c5nc(c(-c6c(F)c(F)c(F)c(F)c6F)c6ccc3[nH]6)C=C5)C=C4)cc2)CC1
REMARK SMILES IDX 30 1 29 2 28 3 27 4 25 5 26 6 24 7 23 8 10 9 11 10 12 11
REMARK SMILES IDX 22 12 21 13 9 14 8 15 7 16 4 17 5 18 103 19 6 20 102 21 2 23
REMARK SMILES IDX 1 24 3 27 13 28 14 29 15 30 16 31 20 32 17 33 19 34 18 35
REMARK SMILES IDX 31 36 32 37 33 38 34 39 35 40 36 41 37 42 38 43 39 44 40 45
REMARK SMILES IDX 101 46 41 47 100 48 42 49 43 50 44 51 94 52 45 53 99 54
REMARK SMILES IDX 93 55 95 56 46 57 98 58 92 59 91 60 47 62 79 63 59 64 78 65
REMARK SMILES IDX 60 66 63 67 77 68 96 69 61 70 62 71 76 73 97 74 64 75 48 76
REMARK SMILES IDX 49 77 57 78 50 79 51 80 55 81 58 82 52 83 53 84 56 85 54 86
REMARK SMILES IDX 80 87 81 88 89 89 82 90 83 91 87 92 90 93 84 94 85 95 88 96
REMARK SMILES IDX 86 97 65 98 66 99 74 100 67 101 68 102 72 103 75 104 69 105
REMARK SMILES IDX 70 106 73 107 71 108
REMARK H PARENT 7 22 1 25 1 26 95 61 63 72
REMARK Flexibility Score: inf
ROOT
ATOM      1  O   UNL A   1      37.306  21.952  25.829  1.00  0.00    -0.376 OA
ENDROOT
BRANCH   1   2
ATOM      2  C   UNL A   1      36.375  21.282  24.985  1.00  0.00     0.202 C 
BRANCH   2   3
ATOM      3  C   UNL A   1      34.895  21.669  25.119  1.00  0.00     0.261 C 
BRANCH   3   4
ATOM      4  O   UNL A   1      33.953  20.734  24.549  1.00  0.00    -0.463 OA
BRANCH   4   5
ATOM      5  C   UNL A   1      32.707  20.776  25.084  1.00  0.00     0.306 C 
ATOM      6  O   UNL A   1      31.893  19.859  25.020  1.00  0.00    -0.252 OA
BRANCH   5   7
ATOM      7  C   UNL A   1      32.331  22.072  25.775  1.00  0.00     0.126 C 
BRANCH   7   8
ATOM      8  C   UNL A   1      31.163  22.986  25.361  1.00  0.00     0.007 C 
ATOM      9  C   UNL A   1      30.932  24.322  26.152  1.00  0.00     0.018 C 
ATOM     10  C   UNL A   1      29.900  25.167  25.360  1.00  0.00     0.124 C 
ATOM     11  N   UNL A   1      30.291  25.392  23.971  1.00  0.00    -0.338 N 
ATOM     12  C   UNL A   1      31.310  23.208  23.818  1.00  0.00     0.026 C 
ATOM     13  C   UNL A   1      30.315  24.177  23.189  1.00  0.00     0.120 C 
BRANCH   9  14
ATOM     14  C   UNL A   1      32.188  24.974  26.839  1.00  0.00     0.067 C 
BRANCH  14  15
ATOM     15  C   UNL A   1      33.223  25.870  26.124  1.00  0.00     0.262 C 
BRANCH  15  16
ATOM     16  N   UNL A   1      32.948  27.304  25.938  1.00  0.00    -0.335 N 
ATOM     17  C   UNL A   1      32.841  30.235  26.136  1.00  0.00     0.089 C 
ATOM     18  C   UNL A   1      31.868  29.303  26.841  1.00  0.00     0.075 C 
ATOM     19  C   UNL A   1      33.371  29.507  24.886  1.00  0.00     0.075 C 
ATOM     20  C   UNL A   1      32.607  28.015  27.156  1.00  0.00     0.263 C 
ATOM     21  C   UNL A   1      33.910  28.080  25.158  1.00  0.00     0.263 C 
ATOM     22  H   UNL A   1      32.117  27.239  25.349  1.00  0.00     0.348 HD
BRANCH  17  23
ATOM     23  C   UNL A   1      33.870  30.688  27.175  1.00  0.00     0.220 C 
ATOM     24  N   UNL A   1      35.180  30.438  26.936  1.00  0.00    -0.369 N 
ATOM     25  H   UNL A   1      35.861  30.720  27.588  1.00  0.00     0.159 HD
ATOM     26  H   UNL A   1      35.449  29.976  26.110  1.00  0.00     0.159 HD
ATOM     27  O   UNL A   1      33.564  31.287  28.206  1.00  0.00    -0.275 OA
ENDBRANCH  17  23
ENDBRANCH  15  16
ENDBRANCH  14  15
ENDBRANCH   9  14
BRANCH  11  28
ATOM     28  C   UNL A   1      30.558  26.670  23.498  1.00  0.00     0.253 C 
ATOM     29  O   UNL A   1      31.621  27.016  22.990  1.00  0.00    -0.269 OA
BRANCH  28  30
ATOM     30  C   UNL A   1      29.618  27.790  23.650  1.00  0.00     0.040 A 
ATOM     31  C   UNL A   1      28.244  27.584  23.477  1.00  0.00     0.014 A 
ATOM     32  C   UNL A   1      30.165  29.068  23.493  1.00  0.00     0.014 A 
ATOM     33  C   UNL A   1      27.423  28.665  23.137  1.00  0.00     0.001 A 
ATOM     34  C   UNL A   1      29.345  30.138  23.140  1.00  0.00     0.001 A 
ATOM     35  C   UNL A   1      27.978  29.934  22.951  1.00  0.00     0.000 A 
ENDBRANCH  28  30
ENDBRANCH  11  28
ENDBRANCH   7   8
ENDBRANCH   5   7
ENDBRANCH   4   5
ENDBRANCH   3   4
ENDBRANCH   2   3
ENDBRANCH   1   2
BRANCH   1  36
ATOM     36  C   UNL A   1      38.665  21.566  25.706  1.00  0.00     0.188 C 
BRANCH  36  37
ATOM     37  C   UNL A   1      39.668  22.160  26.695  1.00  0.00     0.188 C 
BRANCH  37  38
ATOM     38  O   UNL A   1      40.418  21.257  27.494  1.00  0.00    -0.376 OA
BRANCH  38  39
ATOM     39  C   UNL A   1      41.136  20.255  26.755  1.00  0.00     0.202 C 
BRANCH  39  40
ATOM     40  C   UNL A   1      42.487  20.699  26.152  1.00  0.00     0.261 C 
BRANCH  40  41
ATOM     41  O   UNL A   1      42.950  22.003  26.573  1.00  0.00    -0.460 OA
BRANCH  41  42
ATOM     42  C   UNL A   1      43.154  22.942  25.621  1.00  0.00     0.338 C 
ATOM     43  O   UNL A   1      43.145  22.769  24.414  1.00  0.00    -0.246 OA
BRANCH  42  44
ATOM     44  C   UNL A   1      43.088  24.283  26.268  1.00  0.00     0.060 A 
ATOM     45  C   UNL A   1      42.871  25.403  25.449  1.00  0.00     0.016 A 
ATOM     46  C   UNL A   1      43.128  24.441  27.657  1.00  0.00     0.016 A 
ATOM     47  C   UNL A   1      42.718  26.675  26.010  1.00  0.00     0.010 A 
ATOM     48  C   UNL A   1      42.991  25.717  28.217  1.00  0.00     0.010 A 
ATOM     49  C   UNL A   1      42.809  26.844  27.398  1.00  0.00    -0.014 A 
BRANCH  49  50
ATOM     50  C   UNL A   1      42.915  28.205  27.984  1.00  0.00     0.031 A 
ATOM     51  C   UNL A   1      44.277  28.836  28.073  1.00  0.00     0.074 A 
ATOM     52  C   UNL A   1      41.842  28.882  28.430  1.00  0.00     0.049 A 
ATOM     53  N   UNL A   1      44.638  29.976  28.605  1.00  0.00    -0.248 NA
ATOM     54  C   UNL A   1      45.383  28.070  27.477  1.00  0.00     0.031 C 
ATOM     55  C   UNL A   1      40.458  28.424  28.356  1.00  0.00     0.029 A 
ATOM     56  N   UNL A   1      41.760  30.108  29.046  1.00  0.00    -0.354 N 
ATOM     57  C   UNL A   1      46.009  30.062  28.410  1.00  0.00     0.074 A 
ATOM     58  C   UNL A   1      46.421  28.847  27.740  1.00  0.00     0.031 C 
ATOM     59  C   UNL A   1      39.661  29.355  28.912  1.00  0.00     0.029 A 
ATOM     60  C   UNL A   1      40.485  30.455  29.418  1.00  0.00     0.049 A 
ATOM     61  H   UNL A   1      42.542  30.684  29.206  1.00  0.00     0.167 HD
ATOM     62  C   UNL A   1      46.854  31.065  28.749  1.00  0.00     0.037 A 
ATOM     63  C   UNL A   1      40.038  31.524  30.110  1.00  0.00     0.037 A 
ATOM     64  C   UNL A   1      46.459  32.268  29.431  1.00  0.00     0.049 A 
ATOM     65  C   UNL A   1      41.017  32.565  30.599  1.00  0.00     0.074 A 
ATOM     66  C   UNL A   1      47.243  33.347  29.802  1.00  0.00     0.029 A 
ATOM     67  N   UNL A   1      45.171  32.543  29.865  1.00  0.00    -0.354 N 
ATOM     68  N   UNL A   1      42.308  32.654  30.392  1.00  0.00    -0.248 NA
ATOM     69  C   UNL A   1      40.471  33.648  31.433  1.00  0.00     0.031 C 
ATOM     70  C   UNL A   1      46.440  34.248  30.511  1.00  0.00     0.029 A 
ATOM     71  C   UNL A   1      45.145  33.754  30.536  1.00  0.00     0.049 A 
ATOM     72  H   UNL A   1      44.390  31.962  29.717  1.00  0.00     0.167 HD
ATOM     73  C   UNL A   1      42.723  33.807  31.047  1.00  0.00     0.074 A 
ATOM     74  C   UNL A   1      41.546  34.395  31.650  1.00  0.00     0.031 C 
ATOM     75  C   UNL A   1      43.970  34.332  31.139  1.00  0.00     0.037 A 
BRANCH  62  76
ATOM     76  C   UNL A   1      48.304  30.875  28.415  1.00  0.00     0.064 A 
ATOM     77  C   UNL A   1      49.142  30.074  29.203  1.00  0.00     0.173 A 
ATOM     78  C   UNL A   1      48.862  31.513  27.298  1.00  0.00     0.173 A 
ATOM     79  F   UNL A   1      48.659  29.457  30.293  1.00  0.00    -0.203 F 
ATOM     80  C   UNL A   1      50.497  29.947  28.905  1.00  0.00     0.198 A 
ATOM     81  C   UNL A   1      50.210  31.359  26.987  1.00  0.00     0.198 A 
ATOM     82  F   UNL A   1      48.103  32.290  26.512  1.00  0.00    -0.203 F 
ATOM     83  F   UNL A   1      51.292  29.226  29.709  1.00  0.00    -0.200 F 
ATOM     84  C   UNL A   1      51.028  30.586  27.796  1.00  0.00     0.200 A 
ATOM     85  F   UNL A   1      50.720  31.971  25.908  1.00  0.00    -0.200 F 
ATOM     86  F   UNL A   1      52.333  30.469  27.515  1.00  0.00    -0.200 F 
ENDBRANCH  62  76
BRANCH  63  87
ATOM     87  C   UNL A   1      38.589  31.663  30.410  1.00  0.00     0.064 A 
ATOM     88  C   UNL A   1      38.008  30.977  31.486  1.00  0.00     0.173 A 
ATOM     89  C   UNL A   1      37.750  32.457  29.614  1.00  0.00     0.173 A 
ATOM     90  F   UNL A   1      38.762  30.176  32.253  1.00  0.00    -0.203 F 
ATOM     91  C   UNL A   1      36.643  31.076  31.751  1.00  0.00     0.198 A 
ATOM     92  C   UNL A   1      36.390  32.575  29.895  1.00  0.00     0.198 A 
ATOM     93  F   UNL A   1      38.253  33.120  28.562  1.00  0.00    -0.203 F 
ATOM     94  F   UNL A   1      36.107  30.377  32.760  1.00  0.00    -0.200 F 
ATOM     95  C   UNL A   1      35.837  31.880  30.960  1.00  0.00     0.200 A 
ATOM     96  F   UNL A   1      35.615  33.354  29.129  1.00  0.00    -0.200 F 
ATOM     97  F   UNL A   1      34.526  31.976  31.216  1.00  0.00    -0.200 F 
ENDBRANCH  63  87
BRANCH  75  98
ATOM     98  C   UNL A   1      44.136  35.616  31.904  1.00  0.00     0.064 A 
ATOM     99  C   UNL A   1      44.009  36.864  31.277  1.00  0.00     0.173 A 
ATOM    100  C   UNL A   1      44.362  35.598  33.288  1.00  0.00     0.173 A 
ATOM    101  F   UNL A   1      43.806  36.937  29.952  1.00  0.00    -0.203 F 
ATOM    102  C   UNL A   1      44.117  38.047  32.005  1.00  0.00     0.198 A 
ATOM    103  C   UNL A   1      44.442  36.782  34.018  1.00  0.00     0.198 A 
ATOM    104  F   UNL A   1      44.484  34.431  33.939  1.00  0.00    -0.203 F 
ATOM    105  F   UNL A   1      44.028  39.228  31.379  1.00  0.00    -0.200 F 
ATOM    106  C   UNL A   1      44.324  38.005  33.375  1.00  0.00     0.200 A 
ATOM    107  F   UNL A   1      44.628  36.738  35.345  1.00  0.00    -0.200 F 
ATOM    108  F   UNL A   1      44.414  39.143  34.077  1.00  0.00    -0.200 F 
ENDBRANCH  75  98
ENDBRANCH  49  50
ENDBRANCH  42  44
ENDBRANCH  41  42
ENDBRANCH  40  41
ENDBRANCH  39  40
ENDBRANCH  38  39
ENDBRANCH  37  38
ENDBRANCH  36  37
ENDBRANCH   1  36
TORSDOF 24
ENDMDL
