MODEL 1
REMARK VINA RESULT:     -10.5      0.000      0.000
REMARK SMILES CC[C@](C)(NC(=O)N1CCC[C@@H]1C)C(=O)OCCOCCOCCOC(=O)c1ccc(-c2c3nc(c(-c4c(F)c(F)c(F)c(F)c4F)c4ccc([nH]4)c(-c4c(F)c(F)c(F)c(F)c4F)c4nc(c(-c5c(F)c(F)c(F)c(F)c5F)c5ccc2[nH]5)C=C4)C=C3)cc1
REMARK SMILES IDX 20 1 19 2 18 3 17 4 16 5 14 6 15 7 3 8 4 9 2 10 1 11 5 12
REMARK SMILES IDX 6 13 7 15 8 16 9 17 12 18 10 19 11 20 13 21 21 22 22 23
REMARK SMILES IDX 23 24 24 25 25 26 26 27 27 28 28 29 29 30 90 31 30 32 89 33
REMARK SMILES IDX 31 34 32 35 33 36 83 37 34 38 88 39 82 40 84 41 35 42 87 43
REMARK SMILES IDX 81 44 80 45 36 47 68 48 48 49 67 50 49 51 52 52 66 53 85 54
REMARK SMILES IDX 50 55 51 56 65 58 86 59 53 60 37 61 38 62 46 63 39 64 40 65
REMARK SMILES IDX 44 66 47 67 41 68 42 69 45 70 43 71 69 72 70 73 78 74 71 75
REMARK SMILES IDX 72 76 76 77 79 78 73 79 74 80 77 81 75 82 54 83 55 84 63 85
REMARK SMILES IDX 56 86 57 87 61 88 64 89 58 90 59 91 62 92 60 93
REMARK H PARENT 5 14 84 46 52 57
REMARK Flexibility Score: inf
ROOT
ATOM      1  C   UNL A   1      34.016  34.776  29.831  1.00  0.00     0.188 C 
ENDROOT
BRANCH   1   2
ATOM      2  O   UNL A   1      33.852  33.375  29.621  1.00  0.00    -0.376 OA
BRANCH   2   3
ATOM      3  C   UNL A   1      33.825  32.879  28.275  1.00  0.00     0.202 C 
BRANCH   3   4
ATOM      4  C   UNL A   1      34.538  31.580  27.840  1.00  0.00     0.261 C 
BRANCH   4   5
ATOM      5  O   UNL A   1      33.773  30.825  26.900  1.00  0.00    -0.462 OA
BRANCH   5   6
ATOM      6  C   UNL A   1      34.038  29.501  26.840  1.00  0.00     0.331 C 
ATOM      7  O   UNL A   1      34.904  28.948  27.509  1.00  0.00    -0.249 OA
BRANCH   6   8
ATOM      8  C   UNL A   1      33.024  28.749  25.937  1.00  0.00     0.136 C 
ATOM      9  C   UNL A   1      33.660  28.605  24.522  1.00  0.00     0.047 C 
BRANCH   8  10
ATOM     10  C   UNL A   1      31.779  29.691  25.777  1.00  0.00     0.037 C 
ATOM     11  C   UNL A   1      31.028  29.660  24.440  1.00  0.00     0.007 C 
ENDBRANCH   8  10
BRANCH   8  12
ATOM     12  N   UNL A   1      32.455  27.413  26.441  1.00  0.00    -0.322 N 
ATOM     13  C   UNL A   1      31.570  26.452  26.035  1.00  0.00     0.318 C 
ATOM     14  H   UNL A   1      32.842  27.177  27.315  1.00  0.00     0.166 HD
ATOM     15  O   UNL A   1      30.730  26.113  26.874  1.00  0.00    -0.249 OA
BRANCH  13  16
ATOM     16  N   UNL A   1      31.760  25.706  24.876  1.00  0.00    -0.322 N 
ATOM     17  C   UNL A   1      30.606  25.103  24.211  1.00  0.00     0.122 C 
ATOM     18  C   UNL A   1      32.849  24.727  24.802  1.00  0.00     0.083 C 
ATOM     19  C   UNL A   1      31.089  24.074  23.221  1.00  0.00     0.024 C 
ATOM     20  C   UNL A   1      32.382  23.607  23.830  1.00  0.00     0.027 C 
ATOM     21  C   UNL A   1      33.144  24.064  26.146  1.00  0.00     0.031 C 
ENDBRANCH  13  16
ENDBRANCH   8  12
ENDBRANCH   6   8
ENDBRANCH   5   6
ENDBRANCH   4   5
ENDBRANCH   3   4
ENDBRANCH   2   3
ENDBRANCH   1   2
BRANCH   1  22
ATOM     22  C   UNL A   1      32.920  35.515  30.639  1.00  0.00     0.188 C 
BRANCH  22  23
ATOM     23  O   UNL A   1      33.110  35.444  32.046  1.00  0.00    -0.376 OA
BRANCH  23  24
ATOM     24  C   UNL A   1      34.305  34.907  32.619  1.00  0.00     0.202 C 
BRANCH  24  25
ATOM     25  C   UNL A   1      34.141  33.507  33.237  1.00  0.00     0.261 C 
BRANCH  25  26
ATOM     26  O   UNL A   1      34.963  32.530  32.582  1.00  0.00    -0.460 OA
BRANCH  26  27
ATOM     27  C   UNL A   1      36.151  32.313  33.203  1.00  0.00     0.338 C 
ATOM     28  O   UNL A   1      36.411  32.501  34.370  1.00  0.00    -0.246 OA
BRANCH  27  29
ATOM     29  C   UNL A   1      36.964  31.467  32.304  1.00  0.00     0.060 A 
ATOM     30  C   UNL A   1      37.954  30.679  32.908  1.00  0.00     0.016 A 
ATOM     31  C   UNL A   1      36.704  31.367  30.936  1.00  0.00     0.016 A 
ATOM     32  C   UNL A   1      38.720  29.817  32.138  1.00  0.00     0.010 A 
ATOM     33  C   UNL A   1      37.524  30.556  30.148  1.00  0.00     0.010 A 
ATOM     34  C   UNL A   1      38.567  29.826  30.747  1.00  0.00    -0.014 A 
BRANCH  34  35
ATOM     35  C   UNL A   1      39.739  29.395  29.956  1.00  0.00     0.031 A 
ATOM     36  C   UNL A   1      40.854  30.396  29.808  1.00  0.00     0.074 A 
ATOM     37  C   UNL A   1      39.877  28.136  29.511  1.00  0.00     0.049 A 
ATOM     38  N   UNL A   1      42.019  30.273  29.229  1.00  0.00    -0.248 NA
ATOM     39  C   UNL A   1      40.626  31.720  30.419  1.00  0.00     0.031 C 
ATOM     40  C   UNL A   1      38.897  27.065  29.672  1.00  0.00     0.029 A 
ATOM     41  N   UNL A   1      40.918  27.549  28.841  1.00  0.00    -0.354 N 
ATOM     42  C   UNL A   1      42.661  31.489  29.423  1.00  0.00     0.074 A 
ATOM     43  C   UNL A   1      41.750  32.353  30.136  1.00  0.00     0.031 C 
ATOM     44  C   UNL A   1      39.380  25.949  29.099  1.00  0.00     0.029 A 
ATOM     45  C   UNL A   1      40.689  26.237  28.513  1.00  0.00     0.049 A 
ATOM     46  H   UNL A   1      41.751  28.023  28.618  1.00  0.00     0.167 HD
ATOM     47  C   UNL A   1      43.910  31.851  29.052  1.00  0.00     0.037 A 
ATOM     48  C   UNL A   1      41.448  25.386  27.797  1.00  0.00     0.037 A 
ATOM     49  C   UNL A   1      44.803  30.997  28.320  1.00  0.00     0.049 A 
ATOM     50  C   UNL A   1      42.796  25.849  27.298  1.00  0.00     0.074 A 
ATOM     51  C   UNL A   1      46.073  31.275  27.852  1.00  0.00     0.029 A 
ATOM     52  N   UNL A   1      44.509  29.695  27.944  1.00  0.00    -0.354 N 
ATOM     53  N   UNL A   1      43.396  27.003  27.471  1.00  0.00    -0.248 NA
ATOM     54  C   UNL A   1      43.576  24.884  26.512  1.00  0.00     0.031 C 
ATOM     55  C   UNL A   1      46.527  30.158  27.145  1.00  0.00     0.029 A 
ATOM     56  C   UNL A   1      45.568  29.161  27.230  1.00  0.00     0.049 A 
ATOM     57  H   UNL A   1      43.671  29.221  28.153  1.00  0.00     0.167 HD
ATOM     58  C   UNL A   1      44.629  26.895  26.838  1.00  0.00     0.074 A 
ATOM     59  C   UNL A   1      44.702  25.551  26.304  1.00  0.00     0.031 C 
ATOM     60  C   UNL A   1      45.614  27.820  26.705  1.00  0.00     0.037 A 
BRANCH  47  61
ATOM     61  C   UNL A   1      44.355  33.242  29.400  1.00  0.00     0.064 A 
ATOM     62  C   UNL A   1      45.039  33.522  30.593  1.00  0.00     0.173 A 
ATOM     63  C   UNL A   1      44.100  34.306  28.523  1.00  0.00     0.173 A 
ATOM     64  F   UNL A   1      45.281  32.543  31.479  1.00  0.00    -0.203 F 
ATOM     65  C   UNL A   1      45.435  34.820  30.902  1.00  0.00     0.198 A 
ATOM     66  C   UNL A   1      44.527  35.597  28.821  1.00  0.00     0.198 A 
ATOM     67  F   UNL A   1      43.440  34.094  27.374  1.00  0.00    -0.203 F 
ATOM     68  F   UNL A   1      46.043  35.073  32.069  1.00  0.00    -0.200 F 
ATOM     69  C   UNL A   1      45.188  35.855  30.012  1.00  0.00     0.200 A 
ATOM     70  F   UNL A   1      44.293  36.594  27.956  1.00  0.00    -0.200 F 
ATOM     71  F   UNL A   1      45.579  37.102  30.307  1.00  0.00    -0.200 F 
ENDBRANCH  47  61
BRANCH  48  72
ATOM     72  C   UNL A   1      40.941  24.024  27.473  1.00  0.00     0.064 A 
ATOM     73  C   UNL A   1      41.533  22.871  28.007  1.00  0.00     0.173 A 
ATOM     74  C   UNL A   1      39.876  23.850  26.575  1.00  0.00     0.173 A 
ATOM     75  F   UNL A   1      42.575  22.981  28.847  1.00  0.00    -0.203 F 
ATOM     76  C   UNL A   1      41.100  21.599  27.635  1.00  0.00     0.198 A 
ATOM     77  C   UNL A   1      39.421  22.579  26.231  1.00  0.00     0.198 A 
ATOM     78  F   UNL A   1      39.278  24.917  26.027  1.00  0.00    -0.203 F 
ATOM     79  F   UNL A   1      41.728  20.515  28.110  1.00  0.00    -0.200 F 
ATOM     80  C   UNL A   1      40.041  21.455  26.751  1.00  0.00     0.200 A 
ATOM     81  F   UNL A   1      38.391  22.446  25.385  1.00  0.00    -0.200 F 
ATOM     82  F   UNL A   1      39.628  20.232  26.391  1.00  0.00    -0.200 F 
ENDBRANCH  48  72
BRANCH  60  83
ATOM     83  C   UNL A   1      46.860  27.394  25.981  1.00  0.00     0.064 A 
ATOM     84  C   UNL A   1      47.907  26.731  26.638  1.00  0.00     0.173 A 
ATOM     85  C   UNL A   1      47.003  27.641  24.606  1.00  0.00     0.173 A 
ATOM     86  F   UNL A   1      47.826  26.477  27.953  1.00  0.00    -0.203 F 
ATOM     87  C   UNL A   1      49.070  26.377  25.959  1.00  0.00     0.198 A 
ATOM     88  C   UNL A   1      48.150  27.249  23.922  1.00  0.00     0.198 A 
ATOM     89  F   UNL A   1      46.026  28.257  23.924  1.00  0.00    -0.203 F 
ATOM     90  F   UNL A   1      50.087  25.811  26.624  1.00  0.00    -0.200 F 
ATOM     91  C   UNL A   1      49.188  26.632  24.601  1.00  0.00     0.200 A 
ATOM     92  F   UNL A   1      48.253  27.479  22.605  1.00  0.00    -0.200 F 
ATOM     93  F   UNL A   1      50.308  26.293  23.949  1.00  0.00    -0.200 F 
ENDBRANCH  60  83
ENDBRANCH  34  35
ENDBRANCH  27  29
ENDBRANCH  26  27
ENDBRANCH  25  26
ENDBRANCH  24  25
ENDBRANCH  23  24
ENDBRANCH  22  23
ENDBRANCH   1  22
TORSDOF 20
ENDMDL
MODEL 2
REMARK VINA RESULT:     -10.3      5.352     10.684
REMARK SMILES CC[C@](C)(NC(=O)N1CCC[C@@H]1C)C(=O)OCCOCCOCCOC(=O)c1ccc(-c2c3nc(c(-c4c(F)c(F)c(F)c(F)c4F)c4ccc([nH]4)c(-c4c(F)c(F)c(F)c(F)c4F)c4nc(c(-c5c(F)c(F)c(F)c(F)c5F)c5ccc2[nH]5)C=C4)C=C3)cc1
REMARK SMILES IDX 20 1 19 2 18 3 17 4 16 5 14 6 15 7 3 8 4 9 2 10 1 11 5 12
REMARK SMILES IDX 6 13 7 15 8 16 9 17 12 18 10 19 11 20 13 21 21 22 22 23
REMARK SMILES IDX 23 24 24 25 25 26 26 27 27 28 28 29 29 30 90 31 30 32 89 33
REMARK SMILES IDX 31 34 32 35 33 36 83 37 34 38 88 39 82 40 84 41 35 42 87 43
REMARK SMILES IDX 81 44 80 45 36 47 68 48 48 49 67 50 49 51 52 52 66 53 85 54
REMARK SMILES IDX 50 55 51 56 65 58 86 59 53 60 37 61 38 62 46 63 39 64 40 65
REMARK SMILES IDX 44 66 47 67 41 68 42 69 45 70 43 71 69 72 70 73 78 74 71 75
REMARK SMILES IDX 72 76 76 77 79 78 73 79 74 80 77 81 75 82 54 83 55 84 63 85
REMARK SMILES IDX 56 86 57 87 61 88 64 89 58 90 59 91 62 92 60 93
REMARK H PARENT 5 14 84 46 52 57
REMARK Flexibility Score: inf
ROOT
ATOM      1  C   UNL A   1      39.646  22.362  26.874  1.00  0.00     0.188 C 
ENDROOT
BRANCH   1   2
ATOM      2  O   UNL A   1      38.955  23.144  25.901  1.00  0.00    -0.376 OA
BRANCH   2   3
ATOM      3  C   UNL A   1      37.540  23.327  26.044  1.00  0.00     0.202 C 
BRANCH   3   4
ATOM      4  C   UNL A   1      36.563  23.321  24.847  1.00  0.00     0.261 C 
BRANCH   4   5
ATOM      5  O   UNL A   1      35.513  24.277  24.993  1.00  0.00    -0.462 OA
BRANCH   5   6
ATOM      6  C   UNL A   1      34.768  24.520  23.892  1.00  0.00     0.331 C 
ATOM      7  O   UNL A   1      34.952  23.972  22.811  1.00  0.00    -0.249 OA
BRANCH   6   8
ATOM      8  C   UNL A   1      33.572  25.460  24.198  1.00  0.00     0.136 C 
ATOM      9  C   UNL A   1      33.474  26.500  23.044  1.00  0.00     0.047 C 
BRANCH   8  10
ATOM     10  C   UNL A   1      33.950  26.260  25.495  1.00  0.00     0.037 C 
ATOM     11  C   UNL A   1      33.701  27.773  25.497  1.00  0.00     0.007 C 
ENDBRANCH   8  10
BRANCH   8  12
ATOM     12  N   UNL A   1      32.207  24.822  24.503  1.00  0.00    -0.322 N 
ATOM     13  C   UNL A   1      31.672  23.578  24.699  1.00  0.00     0.318 C 
ATOM     14  H   UNL A   1      31.509  25.513  24.581  1.00  0.00     0.166 HD
ATOM     15  O   UNL A   1      30.652  23.329  24.050  1.00  0.00    -0.249 OA
BRANCH  13  16
ATOM     16  N   UNL A   1      32.069  22.754  25.747  1.00  0.00    -0.322 N 
ATOM     17  C   UNL A   1      32.878  23.309  26.832  1.00  0.00     0.122 C 
ATOM     18  C   UNL A   1      32.597  21.415  25.470  1.00  0.00     0.083 C 
ATOM     19  C   UNL A   1      33.472  22.178  27.632  1.00  0.00     0.024 C 
ATOM     20  C   UNL A   1      33.594  21.078  26.614  1.00  0.00     0.027 C 
ATOM     21  C   UNL A   1      33.376  21.344  24.158  1.00  0.00     0.031 C 
ENDBRANCH  13  16
ENDBRANCH   8  12
ENDBRANCH   6   8
ENDBRANCH   5   6
ENDBRANCH   4   5
ENDBRANCH   3   4
ENDBRANCH   2   3
ENDBRANCH   1   2
BRANCH   1  22
ATOM     22  C   UNL A   1      40.787  21.440  26.377  1.00  0.00     0.188 C 
BRANCH  22  23
ATOM     23  O   UNL A   1      42.084  21.992  26.569  1.00  0.00    -0.376 OA
BRANCH  23  24
ATOM     24  C   UNL A   1      43.187  21.632  25.733  1.00  0.00     0.202 C 
BRANCH  24  25
ATOM     25  C   UNL A   1      43.757  22.790  24.895  1.00  0.00     0.261 C 
BRANCH  25  26
ATOM     26  O   UNL A   1      42.978  23.988  25.034  1.00  0.00    -0.460 OA
BRANCH  26  27
ATOM     27  C   UNL A   1      43.721  25.092  25.306  1.00  0.00     0.338 C 
ATOM     28  O   UNL A   1      44.678  25.499  24.688  1.00  0.00    -0.246 OA
BRANCH  27  29
ATOM     29  C   UNL A   1      42.948  25.912  26.263  1.00  0.00     0.060 A 
ATOM     30  C   UNL A   1      43.406  27.218  26.483  1.00  0.00     0.016 A 
ATOM     31  C   UNL A   1      41.763  25.460  26.845  1.00  0.00     0.016 A 
ATOM     32  C   UNL A   1      42.702  28.068  27.324  1.00  0.00     0.010 A 
ATOM     33  C   UNL A   1      41.093  26.287  27.750  1.00  0.00     0.010 A 
ATOM     34  C   UNL A   1      41.600  27.571  28.029  1.00  0.00    -0.014 A 
BRANCH  34  35
ATOM     35  C   UNL A   1      41.269  28.254  29.297  1.00  0.00     0.031 A 
ATOM     36  C   UNL A   1      40.051  29.139  29.284  1.00  0.00     0.074 A 
ATOM     37  C   UNL A   1      41.924  27.996  30.439  1.00  0.00     0.049 A 
ATOM     38  N   UNL A   1      39.489  29.806  30.258  1.00  0.00    -0.248 NA
ATOM     39  C   UNL A   1      39.356  29.273  27.989  1.00  0.00     0.031 C 
ATOM     40  C   UNL A   1      43.064  27.094  30.581  1.00  0.00     0.029 A 
ATOM     41  N   UNL A   1      41.703  28.470  31.706  1.00  0.00    -0.354 N 
ATOM     42  C   UNL A   1      38.376  30.417  29.696  1.00  0.00     0.074 A 
ATOM     43  C   UNL A   1      38.356  30.080  28.292  1.00  0.00     0.031 C 
ATOM     44  C   UNL A   1      43.454  27.091  31.868  1.00  0.00     0.029 A 
ATOM     45  C   UNL A   1      42.607  28.009  32.630  1.00  0.00     0.049 A 
ATOM     46  H   UNL A   1      40.966  29.082  31.932  1.00  0.00     0.167 HD
ATOM     47  C   UNL A   1      37.441  31.183  30.301  1.00  0.00     0.037 A 
ATOM     48  C   UNL A   1      42.739  28.322  33.933  1.00  0.00     0.037 A 
ATOM     49  C   UNL A   1      37.478  31.537  31.693  1.00  0.00     0.049 A 
ATOM     50  C   UNL A   1      41.743  29.268  34.563  1.00  0.00     0.074 A 
ATOM     51  C   UNL A   1      36.609  32.343  32.403  1.00  0.00     0.029 A 
ATOM     52  N   UNL A   1      38.450  31.107  32.584  1.00  0.00    -0.354 N 
ATOM     53  N   UNL A   1      40.699  29.856  34.028  1.00  0.00    -0.248 NA
ATOM     54  C   UNL A   1      41.942  29.584  35.983  1.00  0.00     0.031 C 
ATOM     55  C   UNL A   1      37.086  32.445  33.713  1.00  0.00     0.029 A 
ATOM     56  C   UNL A   1      38.213  31.648  33.836  1.00  0.00     0.049 A 
ATOM     57  H   UNL A   1      39.197  30.506  32.360  1.00  0.00     0.167 HD
ATOM     58  C   UNL A   1      40.106  30.589  35.048  1.00  0.00     0.074 A 
ATOM     59  C   UNL A   1      40.890  30.347  36.241  1.00  0.00     0.031 C 
ATOM     60  C   UNL A   1      39.012  31.394  35.007  1.00  0.00     0.037 A 
BRANCH  47  61
ATOM     61  C   UNL A   1      36.328  31.716  29.446  1.00  0.00     0.064 A 
ATOM     62  C   UNL A   1      36.242  33.075  29.107  1.00  0.00     0.173 A 
ATOM     63  C   UNL A   1      35.340  30.851  28.953  1.00  0.00     0.173 A 
ATOM     64  F   UNL A   1      37.146  33.948  29.578  1.00  0.00    -0.203 F 
ATOM     65  C   UNL A   1      35.196  33.551  28.320  1.00  0.00     0.198 A 
ATOM     66  C   UNL A   1      34.314  31.326  28.140  1.00  0.00     0.198 A 
ATOM     67  F   UNL A   1      35.370  29.545  29.257  1.00  0.00    -0.203 F 
ATOM     68  F   UNL A   1      35.106  34.861  28.050  1.00  0.00    -0.200 F 
ATOM     69  C   UNL A   1      34.239  32.675  27.830  1.00  0.00     0.200 A 
ATOM     70  F   UNL A   1      33.395  30.477  27.661  1.00  0.00    -0.200 F 
ATOM     71  F   UNL A   1      33.239  33.133  27.064  1.00  0.00    -0.200 F 
ENDBRANCH  47  61
BRANCH  48  72
ATOM     72  C   UNL A   1      43.873  27.771  34.723  1.00  0.00     0.064 A 
ATOM     73  C   UNL A   1      43.761  26.568  35.433  1.00  0.00     0.173 A 
ATOM     74  C   UNL A   1      45.086  28.473  34.822  1.00  0.00     0.173 A 
ATOM     75  F   UNL A   1      42.614  25.873  35.398  1.00  0.00    -0.203 F 
ATOM     76  C   UNL A   1      44.805  26.103  36.233  1.00  0.00     0.198 A 
ATOM     77  C   UNL A   1      46.141  27.988  35.592  1.00  0.00     0.198 A 
ATOM     78  F   UNL A   1      45.246  29.633  34.169  1.00  0.00    -0.203 F 
ATOM     79  F   UNL A   1      44.646  24.984  36.953  1.00  0.00    -0.200 F 
ATOM     80  C   UNL A   1      45.995  26.811  36.307  1.00  0.00     0.200 A 
ATOM     81  F   UNL A   1      47.291  28.672  35.652  1.00  0.00    -0.200 F 
ATOM     82  F   UNL A   1      46.996  26.365  37.079  1.00  0.00    -0.200 F 
ENDBRANCH  48  72
BRANCH  60  83
ATOM     83  C   UNL A   1      38.591  32.041  36.297  1.00  0.00     0.064 A 
ATOM     84  C   UNL A   1      38.951  33.359  36.615  1.00  0.00     0.173 A 
ATOM     85  C   UNL A   1      37.804  31.336  37.221  1.00  0.00     0.173 A 
ATOM     86  F   UNL A   1      39.708  34.076  35.771  1.00  0.00    -0.203 F 
ATOM     87  C   UNL A   1      38.582  33.929  37.831  1.00  0.00     0.198 A 
ATOM     88  C   UNL A   1      37.404  31.923  38.418  1.00  0.00     0.198 A 
ATOM     89  F   UNL A   1      37.417  30.078  36.961  1.00  0.00    -0.203 F 
ATOM     90  F   UNL A   1      39.001  35.163  38.145  1.00  0.00    -0.200 F 
ATOM     91  C   UNL A   1      37.806  33.212  38.729  1.00  0.00     0.200 A 
ATOM     92  F   UNL A   1      36.636  31.235  39.275  1.00  0.00    -0.200 F 
ATOM     93  F   UNL A   1      37.454  33.761  39.899  1.00  0.00    -0.200 F 
ENDBRANCH  60  83
ENDBRANCH  34  35
ENDBRANCH  27  29
ENDBRANCH  26  27
ENDBRANCH  25  26
ENDBRANCH  24  25
ENDBRANCH  23  24
ENDBRANCH  22  23
ENDBRANCH   1  22
TORSDOF 20
ENDMDL
MODEL 3
REMARK VINA RESULT:     -10.0      1.066      2.127
REMARK SMILES CC[C@](C)(NC(=O)N1CCC[C@@H]1C)C(=O)OCCOCCOCCOC(=O)c1ccc(-c2c3nc(c(-c4c(F)c(F)c(F)c(F)c4F)c4ccc([nH]4)c(-c4c(F)c(F)c(F)c(F)c4F)c4nc(c(-c5c(F)c(F)c(F)c(F)c5F)c5ccc2[nH]5)C=C4)C=C3)cc1
REMARK SMILES IDX 20 1 19 2 18 3 17 4 16 5 14 6 15 7 3 8 4 9 2 10 1 11 5 12
REMARK SMILES IDX 6 13 7 15 8 16 9 17 12 18 10 19 11 20 13 21 21 22 22 23
REMARK SMILES IDX 23 24 24 25 25 26 26 27 27 28 28 29 29 30 90 31 30 32 89 33
REMARK SMILES IDX 31 34 32 35 33 36 83 37 34 38 88 39 82 40 84 41 35 42 87 43
REMARK SMILES IDX 81 44 80 45 36 47 68 48 48 49 67 50 49 51 52 52 66 53 85 54
REMARK SMILES IDX 50 55 51 56 65 58 86 59 53 60 37 61 38 62 46 63 39 64 40 65
REMARK SMILES IDX 44 66 47 67 41 68 42 69 45 70 43 71 69 72 70 73 78 74 71 75
REMARK SMILES IDX 72 76 76 77 79 78 73 79 74 80 77 81 75 82 54 83 55 84 63 85
REMARK SMILES IDX 56 86 57 87 61 88 64 89 58 90 59 91 62 92 60 93
REMARK H PARENT 5 14 84 46 52 57
REMARK Flexibility Score: inf
ROOT
ATOM      1  C   UNL A   1      34.637  34.162  30.183  1.00  0.00     0.188 C 
ENDROOT
BRANCH   1   2
ATOM      2  O   UNL A   1      34.423  32.756  30.295  1.00  0.00    -0.376 OA
BRANCH   2   3
ATOM      3  C   UNL A   1      34.496  31.952  29.109  1.00  0.00     0.202 C 
BRANCH   3   4
ATOM      4  C   UNL A   1      33.737  32.295  27.809  1.00  0.00     0.261 C 
BRANCH   4   5
ATOM      5  O   UNL A   1      33.505  31.147  26.991  1.00  0.00    -0.462 OA
BRANCH   5   6
ATOM      6  C   UNL A   1      32.239  30.971  26.553  1.00  0.00     0.331 C 
ATOM      7  O   UNL A   1      31.402  31.866  26.510  1.00  0.00    -0.249 OA
BRANCH   6   8
ATOM      8  C   UNL A   1      32.018  29.546  25.980  1.00  0.00     0.136 C 
ATOM      9  C   UNL A   1      31.631  28.610  27.163  1.00  0.00     0.047 C 
BRANCH   8  10
ATOM     10  C   UNL A   1      33.412  29.053  25.453  1.00  0.00     0.037 C 
ATOM     11  C   UNL A   1      34.041  27.832  26.135  1.00  0.00     0.007 C 
ENDBRANCH   8  10
BRANCH   8  12
ATOM     12  N   UNL A   1      31.058  29.383  24.791  1.00  0.00    -0.322 N 
ATOM     13  C   UNL A   1      31.028  28.771  23.568  1.00  0.00     0.318 C 
ATOM     14  H   UNL A   1      30.212  29.859  24.958  1.00  0.00     0.166 HD
ATOM     15  O   UNL A   1      30.664  29.482  22.626  1.00  0.00    -0.249 OA
BRANCH  13  16
ATOM     16  N   UNL A   1      31.126  27.391  23.423  1.00  0.00    -0.322 N 
ATOM     17  C   UNL A   1      31.072  26.538  24.609  1.00  0.00     0.122 C 
ATOM     18  C   UNL A   1      32.141  26.815  22.535  1.00  0.00     0.083 C 
ATOM     19  C   UNL A   1      31.553  25.156  24.245  1.00  0.00     0.024 C 
ATOM     20  C   UNL A   1      32.513  25.424  23.119  1.00  0.00     0.027 C 
ATOM     21  C   UNL A   1      33.425  27.641  22.485  1.00  0.00     0.031 C 
ENDBRANCH  13  16
ENDBRANCH   8  12
ENDBRANCH   6   8
ENDBRANCH   5   6
ENDBRANCH   4   5
ENDBRANCH   3   4
ENDBRANCH   2   3
ENDBRANCH   1   2
BRANCH   1  22
ATOM     22  C   UNL A   1      33.694  35.098  30.979  1.00  0.00     0.188 C 
BRANCH  22  23
ATOM     23  O   UNL A   1      34.190  35.437  32.268  1.00  0.00    -0.376 OA
BRANCH  23  24
ATOM     24  C   UNL A   1      35.385  34.854  32.793  1.00  0.00     0.202 C 
BRANCH  24  25
ATOM     25  C   UNL A   1      35.152  33.652  33.725  1.00  0.00     0.261 C 
BRANCH  25  26
ATOM     26  O   UNL A   1      35.662  32.432  33.166  1.00  0.00    -0.460 OA
BRANCH  26  27
ATOM     27  C   UNL A   1      36.837  32.032  33.715  1.00  0.00     0.338 C 
ATOM     28  O   UNL A   1      37.128  32.016  34.890  1.00  0.00    -0.246 OA
BRANCH  27  29
ATOM     29  C   UNL A   1      37.569  31.278  32.676  1.00  0.00     0.060 A 
ATOM     30  C   UNL A   1      38.437  30.272  33.123  1.00  0.00     0.016 A 
ATOM     31  C   UNL A   1      37.341  31.474  31.313  1.00  0.00     0.016 A 
ATOM     32  C   UNL A   1      39.117  29.484  32.207  1.00  0.00     0.010 A 
ATOM     33  C   UNL A   1      38.080  30.732  30.388  1.00  0.00     0.010 A 
ATOM     34  C   UNL A   1      39.009  29.777  30.842  1.00  0.00    -0.014 A 
BRANCH  34  35
ATOM     35  C   UNL A   1      40.143  29.362  29.990  1.00  0.00     0.031 A 
ATOM     36  C   UNL A   1      41.255  30.363  29.820  1.00  0.00     0.074 A 
ATOM     37  C   UNL A   1      40.256  28.114  29.509  1.00  0.00     0.049 A 
ATOM     38  N   UNL A   1      42.394  30.250  29.188  1.00  0.00    -0.248 NA
ATOM     39  C   UNL A   1      41.060  31.672  30.473  1.00  0.00     0.031 C 
ATOM     40  C   UNL A   1      39.280  27.043  29.685  1.00  0.00     0.029 A 
ATOM     41  N   UNL A   1      41.265  27.540  28.781  1.00  0.00    -0.354 N 
ATOM     42  C   UNL A   1      43.049  31.459  29.384  1.00  0.00     0.074 A 
ATOM     43  C   UNL A   1      42.173  32.308  30.157  1.00  0.00     0.031 C 
ATOM     44  C   UNL A   1      39.733  25.940  29.065  1.00  0.00     0.029 A 
ATOM     45  C   UNL A   1      41.017  26.238  28.429  1.00  0.00     0.049 A 
ATOM     46  H   UNL A   1      42.090  28.018  28.533  1.00  0.00     0.167 HD
ATOM     47  C   UNL A   1      44.282  31.827  28.968  1.00  0.00     0.037 A 
ATOM     48  C   UNL A   1      41.740  25.402  27.660  1.00  0.00     0.037 A 
ATOM     49  C   UNL A   1      45.139  30.988  28.178  1.00  0.00     0.049 A 
ATOM     50  C   UNL A   1      43.068  25.874  27.115  1.00  0.00     0.074 A 
ATOM     51  C   UNL A   1      46.389  31.273  27.662  1.00  0.00     0.029 A 
ATOM     52  N   UNL A   1      44.824  29.697  27.782  1.00  0.00    -0.354 N 
ATOM     53  N   UNL A   1      43.680  27.021  27.291  1.00  0.00    -0.248 NA
ATOM     54  C   UNL A   1      43.809  24.926  26.273  1.00  0.00     0.031 C 
ATOM     55  C   UNL A   1      46.808  30.173  26.908  1.00  0.00     0.029 A 
ATOM     56  C   UNL A   1      45.849  29.177  27.010  1.00  0.00     0.049 A 
ATOM     57  H   UNL A   1      43.994  29.221  28.015  1.00  0.00     0.167 HD
ATOM     58  C   UNL A   1      44.883  26.925  26.603  1.00  0.00     0.074 A 
ATOM     59  C   UNL A   1      44.928  25.594  26.033  1.00  0.00     0.031 C 
ATOM     60  C   UNL A   1      45.866  27.850  26.450  1.00  0.00     0.037 A 
BRANCH  47  61
ATOM     61  C   UNL A   1      44.748  33.206  29.331  1.00  0.00     0.064 A 
ATOM     62  C   UNL A   1      44.463  34.319  28.525  1.00  0.00     0.173 A 
ATOM     63  C   UNL A   1      45.484  33.418  30.506  1.00  0.00     0.173 A 
ATOM     64  F   UNL A   1      43.788  34.166  27.375  1.00  0.00    -0.203 F 
ATOM     65  C   UNL A   1      44.913  35.590  28.874  1.00  0.00     0.198 A 
ATOM     66  C   UNL A   1      45.904  34.695  30.868  1.00  0.00     0.198 A 
ATOM     67  F   UNL A   1      45.793  32.386  31.306  1.00  0.00    -0.203 F 
ATOM     68  F   UNL A   1      44.671  36.630  28.064  1.00  0.00    -0.200 F 
ATOM     69  C   UNL A   1      45.625  35.778  30.049  1.00  0.00     0.200 A 
ATOM     70  F   UNL A   1      46.585  34.875  32.008  1.00  0.00    -0.200 F 
ATOM     71  F   UNL A   1      46.048  37.003  30.389  1.00  0.00    -0.200 F 
ENDBRANCH  47  61
BRANCH  48  72
ATOM     72  C   UNL A   1      41.214  24.051  27.325  1.00  0.00     0.064 A 
ATOM     73  C   UNL A   1      40.094  23.880  26.501  1.00  0.00     0.173 A 
ATOM     74  C   UNL A   1      41.801  22.898  27.871  1.00  0.00     0.173 A 
ATOM     75  F   UNL A   1      39.476  24.950  25.979  1.00  0.00    -0.203 F 
ATOM     76  C   UNL A   1      39.564  22.612  26.259  1.00  0.00     0.198 A 
ATOM     77  C   UNL A   1      41.293  21.630  27.598  1.00  0.00     0.198 A 
ATOM     78  F   UNL A   1      42.871  23.003  28.673  1.00  0.00    -0.203 F 
ATOM     79  F   UNL A   1      38.453  22.484  25.521  1.00  0.00    -0.200 F 
ATOM     80  C   UNL A   1      40.167  21.489  26.803  1.00  0.00     0.200 A 
ATOM     81  F   UNL A   1      41.886  20.547  28.119  1.00  0.00    -0.200 F 
ATOM     82  F   UNL A   1      39.655  20.272  26.572  1.00  0.00    -0.200 F 
ENDBRANCH  48  72
BRANCH  60  83
ATOM     83  C   UNL A   1      47.078  27.438  25.662  1.00  0.00     0.064 A 
ATOM     84  C   UNL A   1      48.184  26.829  26.273  1.00  0.00     0.173 A 
ATOM     85  C   UNL A   1      47.127  27.644  24.275  1.00  0.00     0.173 A 
ATOM     86  F   UNL A   1      48.193  26.616  27.598  1.00  0.00    -0.203 F 
ATOM     87  C   UNL A   1      49.313  26.487  25.533  1.00  0.00     0.198 A 
ATOM     88  C   UNL A   1      48.241  27.265  23.532  1.00  0.00     0.198 A 
ATOM     89  F   UNL A   1      46.090  28.208  23.637  1.00  0.00    -0.203 F 
ATOM     90  F   UNL A   1      50.387  25.975  26.150  1.00  0.00    -0.200 F 
ATOM     91  C   UNL A   1      49.339  26.702  24.163  1.00  0.00     0.200 A 
ATOM     92  F   UNL A   1      48.255  27.454  22.205  1.00  0.00    -0.200 F 
ATOM     93  F   UNL A   1      50.427  26.376  23.453  1.00  0.00    -0.200 F 
ENDBRANCH  60  83
ENDBRANCH  34  35
ENDBRANCH  27  29
ENDBRANCH  26  27
ENDBRANCH  25  26
ENDBRANCH  24  25
ENDBRANCH  23  24
ENDBRANCH  22  23
ENDBRANCH   1  22
TORSDOF 20
ENDMDL
