MODEL 1
REMARK VINA RESULT:     -11.9      0.000      0.000
REMARK SMILES Nc1nc(N2CCOC[C@H]2C(=O)OCCOCCOCCOC(=O)c2ccc(-c3c4nc(c(-c5c(F)c(F)c(F)c(F)c5F)c5ccc([nH]5)c(-c5c(F)c(F)c(F)c(F)c5F)c5nc(c(-c6c(F)c(F)c(F)c(F)c6F)c6ccc3[nH]6)C=C5)C=C4)cc2)ccc1[N+](=O)[O-]
REMARK SMILES IDX 17 1 16 2 15 3 14 4 13 5 11 6 12 7 10 8 5 9 6 10 7 11 9 12
REMARK SMILES IDX 8 13 4 14 2 15 3 16 90 17 89 18 88 19 1 20 91 23 92 24 93 25
REMARK SMILES IDX 18 26 19 27 20 28 21 29 22 30 23 31 24 32 25 33 26 34 87 35
REMARK SMILES IDX 27 36 86 37 28 38 29 39 30 40 80 41 31 42 85 43 79 44 81 45
REMARK SMILES IDX 32 46 84 47 78 48 77 49 33 51 65 52 45 53 64 54 46 55 49 56
REMARK SMILES IDX 63 57 82 58 47 59 48 60 62 62 83 63 50 64 34 65 35 66 43 67
REMARK SMILES IDX 36 68 37 69 41 70 44 71 38 72 39 73 42 74 40 75 66 76 67 77
REMARK SMILES IDX 75 78 68 79 69 80 73 81 76 82 70 83 71 84 74 85 72 86 51 87
REMARK SMILES IDX 52 88 60 89 53 90 54 91 58 92 61 93 55 94 56 95 59 96 57 97
REMARK H PARENT 1 21 1 22 81 50 49 61
REMARK Flexibility Score: inf
ROOT
ATOM      1  C   UNL A   1      33.718  28.598  22.592  1.00  0.00     0.188 C 
ENDROOT
BRANCH   1   2
ATOM      2  O   UNL A   1      34.026  27.335  22.015  1.00  0.00    -0.376 OA
BRANCH   2   3
ATOM      3  C   UNL A   1      33.085  26.282  22.189  1.00  0.00     0.202 C 
BRANCH   3   4
ATOM      4  C   UNL A   1      33.064  25.671  23.591  1.00  0.00     0.261 C 
BRANCH   4   5
ATOM      5  O   UNL A   1      32.633  24.295  23.534  1.00  0.00    -0.462 OA
BRANCH   5   6
ATOM      6  C   UNL A   1      31.564  23.918  24.284  1.00  0.00     0.331 C 
ATOM      7  O   UNL A   1      30.631  24.665  24.565  1.00  0.00    -0.250 OA
BRANCH   6   8
ATOM      8  C   UNL A   1      31.658  22.481  24.829  1.00  0.00     0.220 C 
ATOM      9  N   UNL A   1      33.024  21.905  24.977  1.00  0.00    -0.339 N 
ATOM     10  C   UNL A   1      33.831  22.438  26.087  1.00  0.00     0.147 C 
ATOM     11  C   UNL A   1      33.018  22.454  27.387  1.00  0.00     0.181 C 
ATOM     12  C   UNL A   1      30.958  22.495  26.202  1.00  0.00     0.197 C 
ATOM     13  O   UNL A   1      31.760  23.125  27.223  1.00  0.00    -0.377 OA
BRANCH   9  14
ATOM     14  C   UNL A   1      33.258  20.617  24.511  1.00  0.00     0.132 A 
ATOM     15  C   UNL A   1      34.569  18.668  24.572  1.00  0.00     0.204 A 
ATOM     16  N   UNL A   1      34.421  19.999  24.842  1.00  0.00    -0.207 NA
ATOM     17  C   UNL A   1      33.585  17.941  23.910  1.00  0.00     0.311 A 
ATOM     18  C   UNL A   1      32.441  18.588  23.466  1.00  0.00     0.093 A 
ATOM     19  C   UNL A   1      32.284  19.935  23.775  1.00  0.00     0.054 A 
BRANCH  15  20
ATOM     20  N   UNL A   1      35.786  18.109  24.922  1.00  0.00    -0.378 N 
ATOM     21  H   UNL A   1      36.525  18.686  25.224  1.00  0.00     0.158 HD
ATOM     22  H   UNL A   1      35.914  17.135  24.867  1.00  0.00     0.158 HD
ENDBRANCH  15  20
BRANCH  17  23
ATOM     23  N   UNL A   1      33.723  16.512  23.685  1.00  0.00     0.066 N 
ATOM     24  O   UNL A   1      33.219  15.754  24.527  1.00  0.00    -0.258 OA
ATOM     25  O   UNL A   1      34.375  16.136  22.699  1.00  0.00    -0.258 OA
ENDBRANCH  17  23
ENDBRANCH   9  14
ENDBRANCH   6   8
ENDBRANCH   5   6
ENDBRANCH   4   5
ENDBRANCH   3   4
ENDBRANCH   2   3
ENDBRANCH   1   2
BRANCH   1  26
ATOM     26  C   UNL A   1      32.235  29.013  22.657  1.00  0.00     0.188 C 
BRANCH  26  27
ATOM     27  O   UNL A   1      31.619  29.128  23.933  1.00  0.00    -0.376 OA
BRANCH  27  28
ATOM     28  C   UNL A   1      32.466  29.446  25.031  1.00  0.00     0.202 C 
BRANCH  28  29
ATOM     29  C   UNL A   1      31.928  30.537  25.959  1.00  0.00     0.261 C 
BRANCH  29  30
ATOM     30  O   UNL A   1      32.622  30.517  27.222  1.00  0.00    -0.460 OA
BRANCH  30  31
ATOM     31  C   UNL A   1      33.373  31.608  27.483  1.00  0.00     0.338 C 
ATOM     32  O   UNL A   1      33.011  32.769  27.553  1.00  0.00    -0.246 OA
BRANCH  31  33
ATOM     33  C   UNL A   1      34.764  31.211  27.757  1.00  0.00     0.060 A 
ATOM     34  C   UNL A   1      35.046  29.879  28.067  1.00  0.00     0.016 A 
ATOM     35  C   UNL A   1      35.733  32.195  27.927  1.00  0.00     0.016 A 
ATOM     36  C   UNL A   1      36.262  29.542  28.661  1.00  0.00     0.010 A 
ATOM     37  C   UNL A   1      36.971  31.849  28.476  1.00  0.00     0.010 A 
ATOM     38  C   UNL A   1      37.222  30.531  28.904  1.00  0.00    -0.014 A 
BRANCH  38  39
ATOM     39  C   UNL A   1      38.427  30.237  29.720  1.00  0.00     0.031 A 
ATOM     40  C   UNL A   1      39.499  29.345  29.152  1.00  0.00     0.074 A 
ATOM     41  C   UNL A   1      38.587  30.771  30.944  1.00  0.00     0.049 A 
ATOM     42  N   UNL A   1      40.506  28.763  29.753  1.00  0.00    -0.248 NA
ATOM     43  C   UNL A   1      39.421  29.070  27.709  1.00  0.00     0.031 C 
ATOM     44  C   UNL A   1      37.689  31.738  31.572  1.00  0.00     0.029 A 
ATOM     45  N   UNL A   1      39.568  30.567  31.881  1.00  0.00    -0.354 N 
ATOM     46  C   UNL A   1      41.146  28.013  28.775  1.00  0.00     0.074 A 
ATOM     47  C   UNL A   1      40.421  28.217  27.540  1.00  0.00     0.031 C 
ATOM     48  C   UNL A   1      38.162  32.048  32.789  1.00  0.00     0.029 A 
ATOM     49  C   UNL A   1      39.348  31.239  33.057  1.00  0.00     0.049 A 
ATOM     50  H   UNL A   1      40.354  29.994  31.727  1.00  0.00     0.167 HD
ATOM     51  C   UNL A   1      42.237  27.220  28.903  1.00  0.00     0.037 A 
ATOM     52  C   UNL A   1      39.997  31.168  34.236  1.00  0.00     0.037 A 
ATOM     53  C   UNL A   1      42.979  27.059  30.126  1.00  0.00     0.049 A 
ATOM     54  C   UNL A   1      41.150  30.214  34.383  1.00  0.00     0.074 A 
ATOM     55  C   UNL A   1      44.093  26.273  30.368  1.00  0.00     0.029 A 
ATOM     56  N   UNL A   1      42.686  27.713  31.314  1.00  0.00    -0.354 N 
ATOM     57  N   UNL A   1      41.697  29.431  33.486  1.00  0.00    -0.248 NA
ATOM     58  C   UNL A   1      41.756  30.114  35.717  1.00  0.00     0.031 C 
ATOM     59  C   UNL A   1      44.454  26.429  31.712  1.00  0.00     0.029 A 
ATOM     60  C   UNL A   1      43.588  27.340  32.296  1.00  0.00     0.049 A 
ATOM     61  H   UNL A   1      41.945  28.349  31.440  1.00  0.00     0.167 HD
ATOM     62  C   UNL A   1      42.722  28.760  34.138  1.00  0.00     0.074 A 
ATOM     63  C   UNL A   1      42.727  29.235  35.506  1.00  0.00     0.031 C 
ATOM     64  C   UNL A   1      43.580  27.830  33.650  1.00  0.00     0.037 A 
BRANCH  51  65
ATOM     65  C   UNL A   1      42.662  26.428  27.702  1.00  0.00     0.064 A 
ATOM     66  C   UNL A   1      43.633  26.897  26.806  1.00  0.00     0.173 A 
ATOM     67  C   UNL A   1      42.099  25.166  27.457  1.00  0.00     0.173 A 
ATOM     68  F   UNL A   1      44.191  28.103  26.987  1.00  0.00    -0.203 F 
ATOM     69  C   UNL A   1      44.004  26.144  25.694  1.00  0.00     0.198 A 
ATOM     70  C   UNL A   1      42.489  24.405  26.359  1.00  0.00     0.198 A 
ATOM     71  F   UNL A   1      41.168  24.669  28.286  1.00  0.00    -0.203 F 
ATOM     72  F   UNL A   1      44.902  26.631  24.826  1.00  0.00    -0.200 F 
ATOM     73  C   UNL A   1      43.437  24.897  25.475  1.00  0.00     0.200 A 
ATOM     74  F   UNL A   1      41.947  23.197  26.155  1.00  0.00    -0.200 F 
ATOM     75  F   UNL A   1      43.797  24.173  24.405  1.00  0.00    -0.200 F 
ENDBRANCH  51  65
BRANCH  52  76
ATOM     76  C   UNL A   1      39.533  31.989  35.384  1.00  0.00     0.064 A 
ATOM     77  C   UNL A   1      40.030  33.282  35.589  1.00  0.00     0.173 A 
ATOM     78  C   UNL A   1      38.582  31.501  36.292  1.00  0.00     0.173 A 
ATOM     79  F   UNL A   1      40.963  33.780  34.764  1.00  0.00    -0.203 F 
ATOM     80  C   UNL A   1      39.596  34.055  36.663  1.00  0.00     0.198 A 
ATOM     81  C   UNL A   1      38.129  32.285  37.350  1.00  0.00     0.198 A 
ATOM     82  F   UNL A   1      38.081  30.266  36.143  1.00  0.00    -0.203 F 
ATOM     83  F   UNL A   1      40.113  35.277  36.859  1.00  0.00    -0.200 F 
ATOM     84  C   UNL A   1      38.639  33.561  37.537  1.00  0.00     0.200 A 
ATOM     85  F   UNL A   1      37.197  31.806  38.185  1.00  0.00    -0.200 F 
ATOM     86  F   UNL A   1      38.216  34.309  38.564  1.00  0.00    -0.200 F 
ENDBRANCH  52  76
BRANCH  64  87
ATOM     87  C   UNL A   1      44.614  27.295  34.593  1.00  0.00     0.064 A 
ATOM     88  C   UNL A   1      45.848  27.937  34.767  1.00  0.00     0.173 A 
ATOM     89  C   UNL A   1      44.352  26.147  35.355  1.00  0.00     0.173 A 
ATOM     90  F   UNL A   1      46.149  29.028  34.047  1.00  0.00    -0.203 F 
ATOM     91  C   UNL A   1      46.794  27.434  35.657  1.00  0.00     0.198 A 
ATOM     92  C   UNL A   1      45.291  25.662  36.261  1.00  0.00     0.198 A 
ATOM     93  F   UNL A   1      43.183  25.502  35.226  1.00  0.00    -0.203 F 
ATOM     94  F   UNL A   1      47.984  28.038  35.778  1.00  0.00    -0.200 F 
ATOM     95  C   UNL A   1      46.512  26.301  36.407  1.00  0.00     0.200 A 
ATOM     96  F   UNL A   1      45.014  24.571  36.991  1.00  0.00    -0.200 F 
ATOM     97  F   UNL A   1      47.423  25.821  37.264  1.00  0.00    -0.200 F 
ENDBRANCH  64  87
ENDBRANCH  38  39
ENDBRANCH  31  33
ENDBRANCH  30  31
ENDBRANCH  29  30
ENDBRANCH  28  29
ENDBRANCH  27  28
ENDBRANCH  26  27
ENDBRANCH   1  26
TORSDOF 20
ENDMDL
MODEL 2
REMARK VINA RESULT:     -11.6      4.590     10.282
REMARK SMILES Nc1nc(N2CCOC[C@H]2C(=O)OCCOCCOCCOC(=O)c2ccc(-c3c4nc(c(-c5c(F)c(F)c(F)c(F)c5F)c5ccc([nH]5)c(-c5c(F)c(F)c(F)c(F)c5F)c5nc(c(-c6c(F)c(F)c(F)c(F)c6F)c6ccc3[nH]6)C=C5)C=C4)cc2)ccc1[N+](=O)[O-]
REMARK SMILES IDX 17 1 16 2 15 3 14 4 13 5 11 6 12 7 10 8 5 9 6 10 7 11 9 12
REMARK SMILES IDX 8 13 4 14 2 15 3 16 90 17 89 18 88 19 1 20 91 23 92 24 93 25
REMARK SMILES IDX 18 26 19 27 20 28 21 29 22 30 23 31 24 32 25 33 26 34 87 35
REMARK SMILES IDX 27 36 86 37 28 38 29 39 30 40 80 41 31 42 85 43 79 44 81 45
REMARK SMILES IDX 32 46 84 47 78 48 77 49 33 51 65 52 45 53 64 54 46 55 49 56
REMARK SMILES IDX 63 57 82 58 47 59 48 60 62 62 83 63 50 64 34 65 35 66 43 67
REMARK SMILES IDX 36 68 37 69 41 70 44 71 38 72 39 73 42 74 40 75 66 76 67 77
REMARK SMILES IDX 75 78 68 79 69 80 73 81 76 82 70 83 71 84 74 85 72 86 51 87
REMARK SMILES IDX 52 88 60 89 53 90 54 91 58 92 61 93 55 94 56 95 59 96 57 97
REMARK H PARENT 1 21 1 22 81 50 49 61
REMARK Flexibility Score: inf
ROOT
ATOM      1  C   UNL A   1      35.152  23.319  26.367  1.00  0.00     0.188 C 
ENDROOT
BRANCH   1   2
ATOM      2  O   UNL A   1      33.857  23.268  26.953  1.00  0.00    -0.376 OA
BRANCH   2   3
ATOM      3  C   UNL A   1      32.824  22.622  26.217  1.00  0.00     0.202 C 
BRANCH   3   4
ATOM      4  C   UNL A   1      31.408  22.910  26.719  1.00  0.00     0.261 C 
BRANCH   4   5
ATOM      5  O   UNL A   1      30.633  23.562  25.692  1.00  0.00    -0.462 OA
BRANCH   5   6
ATOM      6  C   UNL A   1      30.692  24.916  25.595  1.00  0.00     0.331 C 
ATOM      7  O   UNL A   1      30.893  25.659  26.552  1.00  0.00    -0.250 OA
BRANCH   6   8
ATOM      8  C   UNL A   1      30.402  25.457  24.184  1.00  0.00     0.220 C 
ATOM      9  N   UNL A   1      31.009  26.770  23.828  1.00  0.00    -0.339 N 
ATOM     10  C   UNL A   1      32.462  26.765  23.587  1.00  0.00     0.147 C 
ATOM     11  C   UNL A   1      32.847  25.623  22.638  1.00  0.00     0.181 C 
ATOM     12  C   UNL A   1      30.900  24.381  23.199  1.00  0.00     0.197 C 
ATOM     13  O   UNL A   1      32.338  24.359  23.089  1.00  0.00    -0.377 OA
BRANCH   9  14
ATOM     14  C   UNL A   1      30.212  27.728  23.213  1.00  0.00     0.132 A 
ATOM     15  C   UNL A   1      28.085  28.683  22.922  1.00  0.00     0.204 A 
ATOM     16  N   UNL A   1      28.863  27.640  23.337  1.00  0.00    -0.207 NA
ATOM     17  C   UNL A   1      28.634  29.810  22.318  1.00  0.00     0.311 A 
ATOM     18  C   UNL A   1      29.999  29.862  22.082  1.00  0.00     0.093 A 
ATOM     19  C   UNL A   1      30.786  28.810  22.538  1.00  0.00     0.054 A 
BRANCH  15  20
ATOM     20  N   UNL A   1      26.718  28.516  23.064  1.00  0.00    -0.378 N 
ATOM     21  H   UNL A   1      26.106  28.862  22.375  1.00  0.00     0.158 HD
ATOM     22  H   UNL A   1      26.359  28.052  23.854  1.00  0.00     0.158 HD
ENDBRANCH  15  20
BRANCH  17  23
ATOM     23  N   UNL A   1      27.806  30.943  21.938  1.00  0.00     0.066 N 
ATOM     24  O   UNL A   1      27.251  31.571  22.852  1.00  0.00    -0.258 OA
ATOM     25  O   UNL A   1      27.662  31.183  20.729  1.00  0.00    -0.258 OA
ENDBRANCH  17  23
ENDBRANCH   9  14
ENDBRANCH   6   8
ENDBRANCH   5   6
ENDBRANCH   4   5
ENDBRANCH   3   4
ENDBRANCH   2   3
ENDBRANCH   1   2
BRANCH   1  26
ATOM     26  C   UNL A   1      35.240  23.347  24.828  1.00  0.00     0.188 C 
BRANCH  26  27
ATOM     27  O   UNL A   1      35.841  22.244  24.164  1.00  0.00    -0.376 OA
BRANCH  27  28
ATOM     28  C   UNL A   1      35.996  21.046  24.914  1.00  0.00     0.202 C 
BRANCH  28  29
ATOM     29  C   UNL A   1      37.420  20.492  24.950  1.00  0.00     0.261 C 
BRANCH  29  30
ATOM     30  O   UNL A   1      38.373  21.551  25.165  1.00  0.00    -0.460 OA
BRANCH  30  31
ATOM     31  C   UNL A   1      39.369  21.263  26.030  1.00  0.00     0.338 C 
ATOM     32  O   UNL A   1      39.948  20.202  26.181  1.00  0.00    -0.246 OA
BRANCH  31  33
ATOM     33  C   UNL A   1      39.751  22.470  26.783  1.00  0.00     0.060 A 
ATOM     34  C   UNL A   1      39.169  23.696  26.450  1.00  0.00     0.016 A 
ATOM     35  C   UNL A   1      40.840  22.418  27.648  1.00  0.00     0.016 A 
ATOM     36  C   UNL A   1      39.748  24.886  26.889  1.00  0.00     0.010 A 
ATOM     37  C   UNL A   1      41.389  23.610  28.129  1.00  0.00     0.010 A 
ATOM     38  C   UNL A   1      40.886  24.854  27.704  1.00  0.00    -0.014 A 
BRANCH  38  39
ATOM     39  C   UNL A   1      41.638  26.098  28.008  1.00  0.00     0.031 A 
ATOM     40  C   UNL A   1      40.969  27.184  28.807  1.00  0.00     0.074 A 
ATOM     41  C   UNL A   1      42.911  26.258  27.603  1.00  0.00     0.049 A 
ATOM     42  N   UNL A   1      41.330  28.429  28.988  1.00  0.00    -0.248 NA
ATOM     43  C   UNL A   1      39.720  26.815  29.491  1.00  0.00     0.031 C 
ATOM     44  C   UNL A   1      43.719  25.248  26.922  1.00  0.00     0.029 A 
ATOM     45  N   UNL A   1      43.745  27.343  27.704  1.00  0.00    -0.354 N 
ATOM     46  C   UNL A   1      40.328  29.003  29.760  1.00  0.00     0.074 A 
ATOM     47  C   UNL A   1      39.347  27.971  30.019  1.00  0.00     0.031 C 
ATOM     48  C   UNL A   1      44.935  25.758  26.670  1.00  0.00     0.029 A 
ATOM     49  C   UNL A   1      44.961  27.155  27.097  1.00  0.00     0.049 A 
ATOM     50  H   UNL A   1      43.496  28.176  28.166  1.00  0.00     0.167 HD
ATOM     51  C   UNL A   1      40.234  30.280  30.204  1.00  0.00     0.037 A 
ATOM     52  C   UNL A   1      45.961  28.026  26.862  1.00  0.00     0.037 A 
ATOM     53  C   UNL A   1      41.238  31.288  29.980  1.00  0.00     0.049 A 
ATOM     54  C   UNL A   1      45.800  29.461  27.283  1.00  0.00     0.074 A 
ATOM     55  C   UNL A   1      41.239  32.614  30.376  1.00  0.00     0.029 A 
ATOM     56  N   UNL A   1      42.431  31.071  29.306  1.00  0.00    -0.354 N 
ATOM     57  N   UNL A   1      44.810  30.028  27.928  1.00  0.00    -0.248 NA
ATOM     58  C   UNL A   1      46.884  30.381  26.916  1.00  0.00     0.031 C 
ATOM     59  C   UNL A   1      42.420  33.207  29.915  1.00  0.00     0.029 A 
ATOM     60  C   UNL A   1      43.171  32.240  29.264  1.00  0.00     0.049 A 
ATOM     61  H   UNL A   1      42.711  30.211  28.916  1.00  0.00     0.167 HD
ATOM     62  C   UNL A   1      45.158  31.365  28.061  1.00  0.00     0.074 A 
ATOM     63  C   UNL A   1      46.456  31.523  27.438  1.00  0.00     0.031 C 
ATOM     64  C   UNL A   1      44.464  32.374  28.644  1.00  0.00     0.037 A 
BRANCH  51  65
ATOM     65  C   UNL A   1      38.983  30.670  30.933  1.00  0.00     0.064 A 
ATOM     66  C   UNL A   1      37.842  31.129  30.260  1.00  0.00     0.173 A 
ATOM     67  C   UNL A   1      38.921  30.563  32.331  1.00  0.00     0.173 A 
ATOM     68  F   UNL A   1      37.854  31.264  28.925  1.00  0.00    -0.203 F 
ATOM     69  C   UNL A   1      36.694  31.492  30.961  1.00  0.00     0.198 A 
ATOM     70  C   UNL A   1      37.765  30.903  33.027  1.00  0.00     0.198 A 
ATOM     71  F   UNL A   1      39.984  30.126  33.023  1.00  0.00    -0.203 F 
ATOM     72  F   UNL A   1      35.629  31.970  30.302  1.00  0.00    -0.200 F 
ATOM     73  C   UNL A   1      36.655  31.373  32.343  1.00  0.00     0.200 A 
ATOM     74  F   UNL A   1      37.726  30.777  34.361  1.00  0.00    -0.200 F 
ATOM     75  F   UNL A   1      35.549  31.720  33.017  1.00  0.00    -0.200 F 
ENDBRANCH  51  65
BRANCH  52  76
ATOM     76  C   UNL A   1      47.181  27.573  26.146  1.00  0.00     0.064 A 
ATOM     77  C   UNL A   1      47.276  27.676  24.752  1.00  0.00     0.173 A 
ATOM     78  C   UNL A   1      48.277  27.036  26.838  1.00  0.00     0.173 A 
ATOM     79  F   UNL A   1      46.242  28.155  24.045  1.00  0.00    -0.203 F 
ATOM     80  C   UNL A   1      48.419  27.254  24.078  1.00  0.00     0.198 A 
ATOM     81  C   UNL A   1      49.430  26.640  26.165  1.00  0.00     0.198 A 
ATOM     82  F   UNL A   1      48.232  26.909  28.173  1.00  0.00    -0.203 F 
ATOM     83  F   UNL A   1      48.471  27.331  22.740  1.00  0.00    -0.200 F 
ATOM     84  C   UNL A   1      49.498  26.746  24.784  1.00  0.00     0.200 A 
ATOM     85  F   UNL A   1      50.474  26.159  26.854  1.00  0.00    -0.200 F 
ATOM     86  F   UNL A   1      50.601  26.349  24.135  1.00  0.00    -0.200 F 
ENDBRANCH  52  76
BRANCH  64  87
ATOM     87  C   UNL A   1      45.112  33.725  28.664  1.00  0.00     0.064 A 
ATOM     88  C   UNL A   1      45.990  34.101  29.690  1.00  0.00     0.173 A 
ATOM     89  C   UNL A   1      44.877  34.639  27.626  1.00  0.00     0.173 A 
ATOM     90  F   UNL A   1      46.231  33.267  30.712  1.00  0.00    -0.203 F 
ATOM     91  C   UNL A   1      46.594  35.356  29.687  1.00  0.00     0.198 A 
ATOM     92  C   UNL A   1      45.501  35.882  27.615  1.00  0.00     0.198 A 
ATOM     93  F   UNL A   1      44.048  34.321  26.620  1.00  0.00    -0.203 F 
ATOM     94  F   UNL A   1      47.397  35.712  30.698  1.00  0.00    -0.200 F 
ATOM     95  C   UNL A   1      46.353  36.242  28.647  1.00  0.00     0.200 A 
ATOM     96  F   UNL A   1      45.275  36.735  26.605  1.00  0.00    -0.200 F 
ATOM     97  F   UNL A   1      46.938  37.448  28.646  1.00  0.00    -0.200 F 
ENDBRANCH  64  87
ENDBRANCH  38  39
ENDBRANCH  31  33
ENDBRANCH  30  31
ENDBRANCH  29  30
ENDBRANCH  28  29
ENDBRANCH  27  28
ENDBRANCH  26  27
ENDBRANCH   1  26
TORSDOF 20
ENDMDL
MODEL 3
REMARK VINA RESULT:     -11.5      0.772      1.860
REMARK SMILES Nc1nc(N2CCOC[C@H]2C(=O)OCCOCCOCCOC(=O)c2ccc(-c3c4nc(c(-c5c(F)c(F)c(F)c(F)c5F)c5ccc([nH]5)c(-c5c(F)c(F)c(F)c(F)c5F)c5nc(c(-c6c(F)c(F)c(F)c(F)c6F)c6ccc3[nH]6)C=C5)C=C4)cc2)ccc1[N+](=O)[O-]
REMARK SMILES IDX 17 1 16 2 15 3 14 4 13 5 11 6 12 7 10 8 5 9 6 10 7 11 9 12
REMARK SMILES IDX 8 13 4 14 2 15 3 16 90 17 89 18 88 19 1 20 91 23 92 24 93 25
REMARK SMILES IDX 18 26 19 27 20 28 21 29 22 30 23 31 24 32 25 33 26 34 87 35
REMARK SMILES IDX 27 36 86 37 28 38 29 39 30 40 80 41 31 42 85 43 79 44 81 45
REMARK SMILES IDX 32 46 84 47 78 48 77 49 33 51 65 52 45 53 64 54 46 55 49 56
REMARK SMILES IDX 63 57 82 58 47 59 48 60 62 62 83 63 50 64 34 65 35 66 43 67
REMARK SMILES IDX 36 68 37 69 41 70 44 71 38 72 39 73 42 74 40 75 66 76 67 77
REMARK SMILES IDX 75 78 68 79 69 80 73 81 76 82 70 83 71 84 74 85 72 86 51 87
REMARK SMILES IDX 52 88 60 89 53 90 54 91 58 92 61 93 55 94 56 95 59 96 57 97
REMARK H PARENT 1 21 1 22 81 50 49 61
REMARK Flexibility Score: inf
ROOT
ATOM      1  C   UNL A   1      33.668  28.151  22.546  1.00  0.00     0.188 C 
ENDROOT
BRANCH   1   2
ATOM      2  O   UNL A   1      33.674  27.087  21.602  1.00  0.00    -0.376 OA
BRANCH   2   3
ATOM      3  C   UNL A   1      33.029  25.873  21.970  1.00  0.00     0.202 C 
BRANCH   3   4
ATOM      4  C   UNL A   1      33.371  25.369  23.373  1.00  0.00     0.261 C 
BRANCH   4   5
ATOM      5  O   UNL A   1      32.689  24.127  23.642  1.00  0.00    -0.462 OA
BRANCH   5   6
ATOM      6  C   UNL A   1      33.387  22.967  23.538  1.00  0.00     0.331 C 
ATOM      7  O   UNL A   1      34.236  22.757  22.676  1.00  0.00    -0.250 OA
BRANCH   6   8
ATOM      8  C   UNL A   1      32.966  21.888  24.553  1.00  0.00     0.220 C 
ATOM      9  N   UNL A   1      33.991  20.870  24.918  1.00  0.00    -0.339 N 
ATOM     10  C   UNL A   1      35.085  21.339  25.786  1.00  0.00     0.147 C 
ATOM     11  C   UNL A   1      34.527  22.118  26.983  1.00  0.00     0.181 C 
ATOM     12  C   UNL A   1      32.521  22.641  25.822  1.00  0.00     0.197 C 
ATOM     13  O   UNL A   1      33.636  23.165  26.572  1.00  0.00    -0.377 OA
BRANCH   9  14
ATOM     14  C   UNL A   1      33.623  19.531  24.936  1.00  0.00     0.132 A 
ATOM     15  C   UNL A   1      33.910  17.359  24.085  1.00  0.00     0.204 A 
ATOM     16  N   UNL A   1      34.088  18.708  23.961  1.00  0.00    -0.207 NA
ATOM     17  C   UNL A   1      33.211  16.809  25.155  1.00  0.00     0.311 A 
ATOM     18  C   UNL A   1      32.634  17.647  26.098  1.00  0.00     0.093 A 
ATOM     19  C   UNL A   1      32.849  19.016  25.980  1.00  0.00     0.054 A 
BRANCH  15  20
ATOM     20  N   UNL A   1      34.393  16.584  23.046  1.00  0.00    -0.378 N 
ATOM     21  H   UNL A   1      34.861  15.739  23.237  1.00  0.00     0.158 HD
ATOM     22  H   UNL A   1      34.270  16.877  22.114  1.00  0.00     0.158 HD
ENDBRANCH  15  20
BRANCH  17  23
ATOM     23  N   UNL A   1      33.082  15.369  25.314  1.00  0.00     0.066 N 
ATOM     24  O   UNL A   1      34.129  14.705  25.328  1.00  0.00    -0.258 OA
ATOM     25  O   UNL A   1      31.941  14.888  25.374  1.00  0.00    -0.258 OA
ENDBRANCH  17  23
ENDBRANCH   9  14
ENDBRANCH   6   8
ENDBRANCH   5   6
ENDBRANCH   4   5
ENDBRANCH   3   4
ENDBRANCH   2   3
ENDBRANCH   1   2
BRANCH   1  26
ATOM     26  C   UNL A   1      32.344  28.912  22.758  1.00  0.00     0.188 C 
BRANCH  26  27
ATOM     27  O   UNL A   1      31.784  28.945  24.064  1.00  0.00    -0.376 OA
BRANCH  27  28
ATOM     28  C   UNL A   1      32.601  29.467  25.104  1.00  0.00     0.202 C 
BRANCH  28  29
ATOM     29  C   UNL A   1      31.913  30.495  26.004  1.00  0.00     0.261 C 
BRANCH  29  30
ATOM     30  O   UNL A   1      32.588  30.591  27.274  1.00  0.00    -0.460 OA
BRANCH  30  31
ATOM     31  C   UNL A   1      33.346  31.695  27.441  1.00  0.00     0.338 C 
ATOM     32  O   UNL A   1      32.989  32.859  27.424  1.00  0.00    -0.246 OA
BRANCH  31  33
ATOM     33  C   UNL A   1      34.739  31.314  27.728  1.00  0.00     0.060 A 
ATOM     34  C   UNL A   1      35.044  29.972  27.970  1.00  0.00     0.016 A 
ATOM     35  C   UNL A   1      35.680  32.308  27.980  1.00  0.00     0.016 A 
ATOM     36  C   UNL A   1      36.252  29.629  28.576  1.00  0.00     0.010 A 
ATOM     37  C   UNL A   1      36.911  31.958  28.541  1.00  0.00     0.010 A 
ATOM     38  C   UNL A   1      37.182  30.624  28.900  1.00  0.00    -0.014 A 
BRANCH  38  39
ATOM     39  C   UNL A   1      38.373  30.310  29.730  1.00  0.00     0.031 A 
ATOM     40  C   UNL A   1      39.443  29.412  29.169  1.00  0.00     0.074 A 
ATOM     41  C   UNL A   1      38.522  30.833  30.960  1.00  0.00     0.049 A 
ATOM     42  N   UNL A   1      40.435  28.814  29.779  1.00  0.00    -0.248 NA
ATOM     43  C   UNL A   1      39.382  29.149  27.722  1.00  0.00     0.031 C 
ATOM     44  C   UNL A   1      37.625  31.804  31.584  1.00  0.00     0.029 A 
ATOM     45  N   UNL A   1      39.488  30.610  31.909  1.00  0.00    -0.354 N 
ATOM     46  C   UNL A   1      41.081  28.065  28.803  1.00  0.00     0.074 A 
ATOM     47  C   UNL A   1      40.375  28.287  27.560  1.00  0.00     0.031 C 
ATOM     48  C   UNL A   1      38.085  32.098  32.810  1.00  0.00     0.029 A 
ATOM     49  C   UNL A   1      39.259  31.275  33.087  1.00  0.00     0.049 A 
ATOM     50  H   UNL A   1      40.270  30.030  31.760  1.00  0.00     0.167 HD
ATOM     51  C   UNL A   1      42.162  27.259  28.939  1.00  0.00     0.037 A 
ATOM     52  C   UNL A   1      39.891  31.188  34.273  1.00  0.00     0.037 A 
ATOM     53  C   UNL A   1      42.886  27.081  30.170  1.00  0.00     0.049 A 
ATOM     54  C   UNL A   1      41.032  30.220  34.429  1.00  0.00     0.074 A 
ATOM     55  C   UNL A   1      43.987  26.281  30.421  1.00  0.00     0.029 A 
ATOM     56  N   UNL A   1      42.583  27.728  31.359  1.00  0.00    -0.354 N 
ATOM     57  N   UNL A   1      41.583  29.439  33.532  1.00  0.00    -0.248 NA
ATOM     58  C   UNL A   1      41.619  30.102  35.770  1.00  0.00     0.031 C 
ATOM     59  C   UNL A   1      44.332  26.422  31.771  1.00  0.00     0.029 A 
ATOM     60  C   UNL A   1      43.468  27.337  32.351  1.00  0.00     0.049 A 
ATOM     61  H   UNL A   1      41.847  28.371  31.481  1.00  0.00     0.167 HD
ATOM     62  C   UNL A   1      42.591  28.751  34.193  1.00  0.00     0.074 A 
ATOM     63  C   UNL A   1      42.583  29.215  35.565  1.00  0.00     0.031 C 
ATOM     64  C   UNL A   1      43.446  27.816  33.708  1.00  0.00     0.037 A 
BRANCH  51  65
ATOM     65  C   UNL A   1      42.595  26.473  27.737  1.00  0.00     0.064 A 
ATOM     66  C   UNL A   1      42.042  25.222  27.428  1.00  0.00     0.173 A 
ATOM     67  C   UNL A   1      43.568  26.993  26.870  1.00  0.00     0.173 A 
ATOM     68  F   UNL A   1      41.119  24.675  28.232  1.00  0.00    -0.203 F 
ATOM     69  C   UNL A   1      42.467  24.509  26.308  1.00  0.00     0.198 A 
ATOM     70  C   UNL A   1      43.973  26.289  25.739  1.00  0.00     0.198 A 
ATOM     71  F   UNL A   1      44.126  28.187  27.119  1.00  0.00    -0.203 F 
ATOM     72  F   UNL A   1      41.957  23.295  26.055  1.00  0.00    -0.200 F 
ATOM     73  C   UNL A   1      43.427  25.045  25.463  1.00  0.00     0.200 A 
ATOM     74  F   UNL A   1      44.893  26.814  24.919  1.00  0.00    -0.200 F 
ATOM     75  F   UNL A   1      43.834  24.359  24.386  1.00  0.00    -0.200 F 
ENDBRANCH  51  65
BRANCH  52  76
ATOM     76  C   UNL A   1      39.420  32.003  35.422  1.00  0.00     0.064 A 
ATOM     77  C   UNL A   1      39.856  33.324  35.591  1.00  0.00     0.173 A 
ATOM     78  C   UNL A   1      38.523  31.484  36.367  1.00  0.00     0.173 A 
ATOM     79  F   UNL A   1      40.737  33.853  34.730  1.00  0.00    -0.203 F 
ATOM     80  C   UNL A   1      39.415  34.093  36.666  1.00  0.00     0.198 A 
ATOM     81  C   UNL A   1      38.062  32.263  37.425  1.00  0.00     0.198 A 
ATOM     82  F   UNL A   1      38.082  30.223  36.253  1.00  0.00    -0.203 F 
ATOM     83  F   UNL A   1      39.874  35.342  36.826  1.00  0.00    -0.200 F 
ATOM     84  C   UNL A   1      38.512  33.566  37.577  1.00  0.00     0.200 A 
ATOM     85  F   UNL A   1      37.181  31.752  38.297  1.00  0.00    -0.200 F 
ATOM     86  F   UNL A   1      38.081  34.309  38.605  1.00  0.00    -0.200 F 
ENDBRANCH  52  76
BRANCH  64  87
ATOM     87  C   UNL A   1      44.462  27.263  34.661  1.00  0.00     0.064 A 
ATOM     88  C   UNL A   1      44.224  26.086  35.385  1.00  0.00     0.173 A 
ATOM     89  C   UNL A   1      45.701  27.902  34.825  1.00  0.00     0.173 A 
ATOM     90  F   UNL A   1      43.048  25.452  35.273  1.00  0.00    -0.203 F 
ATOM     91  C   UNL A   1      45.184  25.579  36.256  1.00  0.00     0.198 A 
ATOM     92  C   UNL A   1      46.666  27.378  35.680  1.00  0.00     0.198 A 
ATOM     93  F   UNL A   1      45.975  29.028  34.150  1.00  0.00    -0.203 F 
ATOM     94  F   UNL A   1      44.921  24.476  36.970  1.00  0.00    -0.200 F 
ATOM     95  C   UNL A   1      46.405  26.222  36.398  1.00  0.00     0.200 A 
ATOM     96  F   UNL A   1      47.849  27.996  35.810  1.00  0.00    -0.200 F 
ATOM     97  F   UNL A   1      47.328  25.730  37.237  1.00  0.00    -0.200 F 
ENDBRANCH  64  87
ENDBRANCH  38  39
ENDBRANCH  31  33
ENDBRANCH  30  31
ENDBRANCH  29  30
ENDBRANCH  28  29
ENDBRANCH  27  28
ENDBRANCH  26  27
ENDBRANCH   1  26
TORSDOF 20
ENDMDL
