MODEL 1
REMARK VINA RESULT:     -12.1      0.000      0.000
REMARK SMILES O=C(NC(=S)Nc1ccccc1C(=O)OCCOCCOCCOC(=O)c1ccc(-c2c3nc(c(-c4c(F)c(F)c(F)c(F)c4F)c4ccc([nH]4)c(-c4c(F)c(F)c(F)c(F)c4F)c4nc(c(-c5c(F)c(F)c(F)c(F)c5F)c5ccc2[nH]5)C=C4)C=C3)cc1)c1ccc2ccccc2c1
REMARK SMILES IDX 19 1 18 2 17 3 16 4 15 5 13 6 14 7 12 8 7 9 8 10 9 11 11 12
REMARK SMILES IDX 10 13 6 14 4 16 5 17 3 18 1 19 2 20 90 22 91 23 99 24 92 25
REMARK SMILES IDX 98 26 93 27 97 28 94 29 96 30 95 31 20 32 21 33 22 34 23 35
REMARK SMILES IDX 24 36 25 37 26 38 27 39 28 40 89 41 29 42 88 43 30 44 31 45
REMARK SMILES IDX 32 46 82 47 33 48 87 49 81 50 83 51 34 52 86 53 80 54 79 55
REMARK SMILES IDX 35 57 67 58 47 59 66 60 48 61 51 62 65 63 84 64 49 65 50 66
REMARK SMILES IDX 64 68 85 69 52 70 36 71 37 72 45 73 38 74 39 75 43 76 46 77
REMARK SMILES IDX 40 78 41 79 44 80 42 81 68 82 69 83 77 84 70 85 71 86 75 87
REMARK SMILES IDX 78 88 72 89 73 90 76 91 74 92 53 93 54 94 62 95 55 96 56 97
REMARK SMILES IDX 60 98 63 99 57 100 58 101 61 102 59 103
REMARK H PARENT 6 15 3 21 83 56 51 67
REMARK Flexibility Score: inf
ROOT
ATOM      1  C   UNL A   1      39.758  23.205  26.541  1.00  0.00     0.188 C 
ENDROOT
BRANCH   1   2
ATOM      2  O   UNL A   1      38.425  22.900  26.208  1.00  0.00    -0.376 OA
BRANCH   2   3
ATOM      3  C   UNL A   1      38.141  21.772  25.402  1.00  0.00     0.202 C 
BRANCH   3   4
ATOM      4  C   UNL A   1      36.842  21.559  24.599  1.00  0.00     0.261 C 
BRANCH   4   5
ATOM      5  O   UNL A   1      36.000  20.437  24.908  1.00  0.00    -0.460 OA
BRANCH   5   6
ATOM      6  C   UNL A   1      34.863  20.781  25.548  1.00  0.00     0.340 C 
ATOM      7  O   UNL A   1      34.812  21.457  26.571  1.00  0.00    -0.246 OA
BRANCH   6   8
ATOM      8  C   UNL A   1      33.581  20.297  24.935  1.00  0.00     0.083 A 
ATOM      9  C   UNL A   1      32.777  21.472  23.573  1.00  0.00     0.055 A 
ATOM     10  C   UNL A   1      32.005  20.623  21.919  1.00  0.00     0.027 A 
ATOM     11  C   UNL A   1      32.151  18.652  21.919  1.00  0.00     0.002 A 
ATOM     12  C   UNL A   1      33.734  18.327  24.913  1.00  0.00     0.018 A 
ATOM     13  C   UNL A   1      32.947  17.472  23.278  1.00  0.00     0.001 A 
BRANCH   9  14
ATOM     14  N   UNL A   1      33.268  22.771  23.431  1.00  0.00    -0.332 N 
ATOM     15  H   UNL A   1      33.706  23.010  22.582  1.00  0.00     0.169 HD
BRANCH  14  16
ATOM     16  C   UNL A   1      33.178  23.724  24.386  1.00  0.00     0.177 C 
ATOM     17  S   UNL A   1      34.149  25.080  24.252  1.00  0.00    -0.040 S 
BRANCH  16  18
ATOM     18  N   UNL A   1      32.349  23.592  25.503  1.00  0.00    -0.299 N 
ATOM     19  O   UNL A   1      30.811  23.531  27.185  1.00  0.00    -0.269 OA
ATOM     20  C   UNL A   1      31.368  24.232  26.334  1.00  0.00     0.257 C 
ATOM     21  H   UNL A   1      32.499  22.691  25.871  1.00  0.00     0.172 HD
BRANCH  20  22
ATOM     22  C   UNL A   1      30.900  25.665  26.287  1.00  0.00     0.040 A 
ATOM     23  C   UNL A   1      29.943  25.852  25.457  1.00  0.00     0.014 A 
ATOM     24  C   UNL A   1      30.669  26.590  25.362  1.00  0.00     0.022 A 
ATOM     25  C   UNL A   1      29.038  26.833  23.915  1.00  0.00     0.009 A 
ATOM     26  C   UNL A   1      29.956  27.752  23.795  1.00  0.00    -0.018 A 
ATOM     27  C   UNL A   1      28.923  27.761  23.068  1.00  0.00    -0.018 A 
ATOM     28  C   UNL A   1      30.387  29.070  22.915  1.00  0.00     0.009 A 
ATOM     29  C   UNL A   1      27.879  28.739  22.932  1.00  0.00     0.009 A 
ATOM     30  C   UNL A   1      29.599  29.990  22.126  1.00  0.00     0.001 A 
ATOM     31  C   UNL A   1      28.243  29.860  22.254  1.00  0.00     0.001 A 
ENDBRANCH  20  22
ENDBRANCH  16  18
ENDBRANCH  14  16
ENDBRANCH   9  14
ENDBRANCH   6   8
ENDBRANCH   5   6
ENDBRANCH   4   5
ENDBRANCH   3   4
ENDBRANCH   2   3
ENDBRANCH   1   2
BRANCH   1  32
ATOM     32  C   UNL A   1      40.564  22.034  27.157  1.00  0.00     0.188 C 
BRANCH  32  33
ATOM     33  O   UNL A   1      41.433  21.272  26.343  1.00  0.00    -0.376 OA
BRANCH  33  34
ATOM     34  C   UNL A   1      41.495  19.876  26.592  1.00  0.00     0.202 C 
BRANCH  34  35
ATOM     35  C   UNL A   1      42.571  18.974  25.928  1.00  0.00     0.261 C 
BRANCH  35  36
ATOM     36  O   UNL A   1      43.073  19.347  24.624  1.00  0.00    -0.460 OA
BRANCH  36  37
ATOM     37  C   UNL A   1      44.421  19.495  24.491  1.00  0.00     0.338 C 
ATOM     38  O   UNL A   1      45.198  18.685  24.014  1.00  0.00    -0.246 OA
BRANCH  37  39
ATOM     39  C   UNL A   1      44.806  20.907  24.780  1.00  0.00     0.060 A 
ATOM     40  C   UNL A   1      45.316  21.256  26.050  1.00  0.00     0.016 A 
ATOM     41  C   UNL A   1      44.664  21.890  23.806  1.00  0.00     0.016 A 
ATOM     42  C   UNL A   1      45.673  22.577  26.345  1.00  0.00     0.010 A 
ATOM     43  C   UNL A   1      44.972  23.221  24.119  1.00  0.00     0.010 A 
ATOM     44  C   UNL A   1      45.451  23.578  25.397  1.00  0.00    -0.014 A 
BRANCH  44  45
ATOM     45  C   UNL A   1      45.486  25.014  25.786  1.00  0.00     0.031 A 
ATOM     46  C   UNL A   1      46.811  25.726  25.722  1.00  0.00     0.074 A 
ATOM     47  C   UNL A   1      44.395  25.675  26.212  1.00  0.00     0.049 A 
ATOM     48  N   UNL A   1      47.147  26.914  26.158  1.00  0.00    -0.248 NA
ATOM     49  C   UNL A   1      47.913  24.985  25.086  1.00  0.00     0.031 C 
ATOM     50  C   UNL A   1      43.041  25.133  26.264  1.00  0.00     0.029 A 
ATOM     51  N   UNL A   1      44.267  26.950  26.713  1.00  0.00    -0.354 N 
ATOM     52  C   UNL A   1      48.501  27.050  25.875  1.00  0.00     0.074 A 
ATOM     53  C   UNL A   1      48.931  25.817  25.253  1.00  0.00     0.031 C 
ATOM     54  C   UNL A   1      42.222  26.057  26.800  1.00  0.00     0.029 A 
ATOM     55  C   UNL A   1      43.003  27.237  27.170  1.00  0.00     0.049 A 
ATOM     56  H   UNL A   1      45.010  27.595  26.742  1.00  0.00     0.167 HD
ATOM     57  C   UNL A   1      49.313  28.107  26.114  1.00  0.00     0.037 A 
ATOM     58  C   UNL A   1      42.543  28.310  27.847  1.00  0.00     0.037 A 
ATOM     59  C   UNL A   1      48.884  29.330  26.739  1.00  0.00     0.049 A 
ATOM     60  C   UNL A   1      43.488  29.439  28.188  1.00  0.00     0.074 A 
ATOM     61  C   UNL A   1      49.628  30.466  27.007  1.00  0.00     0.029 A 
ATOM     62  N   UNL A   1      47.602  29.572  27.208  1.00  0.00    -0.354 N 
ATOM     63  N   UNL A   1      44.762  29.571  27.905  1.00  0.00    -0.248 NA
ATOM     64  C   UNL A   1      42.930  30.570  28.948  1.00  0.00     0.031 C 
ATOM     65  C   UNL A   1      48.817  31.363  27.708  1.00  0.00     0.029 A 
ATOM     66  C   UNL A   1      47.543  30.825  27.797  1.00  0.00     0.049 A 
ATOM     67  H   UNL A   1      46.846  28.946  27.134  1.00  0.00     0.167 HD
ATOM     68  C   UNL A   1      45.143  30.810  28.411  1.00  0.00     0.074 A 
ATOM     69  C   UNL A   1      43.964  31.396  29.011  1.00  0.00     0.031 C 
ATOM     70  C   UNL A   1      46.359  31.409  28.376  1.00  0.00     0.037 A 
BRANCH  57  71
ATOM     71  C   UNL A   1      50.761  27.974  25.734  1.00  0.00     0.064 A 
ATOM     72  C   UNL A   1      51.752  27.665  26.679  1.00  0.00     0.173 A 
ATOM     73  C   UNL A   1      51.158  28.124  24.397  1.00  0.00     0.173 A 
ATOM     74  F   UNL A   1      51.430  27.521  27.973  1.00  0.00    -0.203 F 
ATOM     75  C   UNL A   1      53.087  27.543  26.304  1.00  0.00     0.198 A 
ATOM     76  C   UNL A   1      52.489  27.963  24.019  1.00  0.00     0.198 A 
ATOM     77  F   UNL A   1      50.253  28.415  23.450  1.00  0.00    -0.203 F 
ATOM     78  F   UNL A   1      54.023  27.304  27.232  1.00  0.00    -0.200 F 
ATOM     79  C   UNL A   1      53.453  27.684  24.973  1.00  0.00     0.200 A 
ATOM     80  F   UNL A   1      52.835  28.079  22.729  1.00  0.00    -0.200 F 
ATOM     81  F   UNL A   1      54.737  27.555  24.612  1.00  0.00    -0.200 F 
ENDBRANCH  57  71
BRANCH  58  82
ATOM     82  C   UNL A   1      41.118  28.369  28.281  1.00  0.00     0.064 A 
ATOM     83  C   UNL A   1      40.137  28.957  27.467  1.00  0.00     0.173 A 
ATOM     84  C   UNL A   1      40.712  27.884  29.533  1.00  0.00     0.173 A 
ATOM     85  F   UNL A   1      40.476  29.466  26.273  1.00  0.00    -0.203 F 
ATOM     86  C   UNL A   1      38.817  29.079  27.899  1.00  0.00     0.198 A 
ATOM     87  C   UNL A   1      39.385  27.972  29.948  1.00  0.00     0.198 A 
ATOM     88  F   UNL A   1      41.608  27.322  30.358  1.00  0.00    -0.203 F 
ATOM     89  F   UNL A   1      37.918  29.703  27.126  1.00  0.00    -0.200 F 
ATOM     90  C   UNL A   1      38.441  28.579  29.136  1.00  0.00     0.200 A 
ATOM     91  F   UNL A   1      39.024  27.478  31.140  1.00  0.00    -0.200 F 
ATOM     92  F   UNL A   1      37.172  28.697  29.550  1.00  0.00    -0.200 F 
ENDBRANCH  58  82
BRANCH  70  93
ATOM     93  C   UNL A   1      46.477  32.798  28.945  1.00  0.00     0.064 A 
ATOM     94  C   UNL A   1      46.701  33.031  30.310  1.00  0.00     0.173 A 
ATOM     95  C   UNL A   1      46.421  33.915  28.094  1.00  0.00     0.173 A 
ATOM     96  F   UNL A   1      46.754  32.004  31.171  1.00  0.00    -0.203 F 
ATOM     97  C   UNL A   1      46.835  34.327  30.804  1.00  0.00     0.198 A 
ATOM     98  C   UNL A   1      46.596  35.205  28.585  1.00  0.00     0.198 A 
ATOM     99  F   UNL A   1      46.220  33.753  26.777  1.00  0.00    -0.203 F 
ATOM    100  F   UNL A   1      46.994  34.527  32.120  1.00  0.00    -0.200 F 
ATOM    101  C   UNL A   1      46.794  35.412  29.941  1.00  0.00     0.200 A 
ATOM    102  F   UNL A   1      46.577  36.249  27.744  1.00  0.00    -0.200 F 
ATOM    103  F   UNL A   1      46.937  36.656  30.417  1.00  0.00    -0.200 F 
ENDBRANCH  70  93
ENDBRANCH  44  45
ENDBRANCH  37  39
ENDBRANCH  36  37
ENDBRANCH  35  36
ENDBRANCH  34  35
ENDBRANCH  33  34
ENDBRANCH  32  33
ENDBRANCH   1  32
TORSDOF 21
ENDMDL
MODEL 2
REMARK VINA RESULT:     -11.9      2.219      8.205
REMARK SMILES O=C(NC(=S)Nc1ccccc1C(=O)OCCOCCOCCOC(=O)c1ccc(-c2c3nc(c(-c4c(F)c(F)c(F)c(F)c4F)c4ccc([nH]4)c(-c4c(F)c(F)c(F)c(F)c4F)c4nc(c(-c5c(F)c(F)c(F)c(F)c5F)c5ccc2[nH]5)C=C4)C=C3)cc1)c1ccc2ccccc2c1
REMARK SMILES IDX 19 1 18 2 17 3 16 4 15 5 13 6 14 7 12 8 7 9 8 10 9 11 11 12
REMARK SMILES IDX 10 13 6 14 4 16 5 17 3 18 1 19 2 20 90 22 91 23 99 24 92 25
REMARK SMILES IDX 98 26 93 27 97 28 94 29 96 30 95 31 20 32 21 33 22 34 23 35
REMARK SMILES IDX 24 36 25 37 26 38 27 39 28 40 89 41 29 42 88 43 30 44 31 45
REMARK SMILES IDX 32 46 82 47 33 48 87 49 81 50 83 51 34 52 86 53 80 54 79 55
REMARK SMILES IDX 35 57 67 58 47 59 66 60 48 61 51 62 65 63 84 64 49 65 50 66
REMARK SMILES IDX 64 68 85 69 52 70 36 71 37 72 45 73 38 74 39 75 43 76 46 77
REMARK SMILES IDX 40 78 41 79 44 80 42 81 68 82 69 83 77 84 70 85 71 86 75 87
REMARK SMILES IDX 78 88 72 89 73 90 76 91 74 92 53 93 54 94 62 95 55 96 56 97
REMARK SMILES IDX 60 98 63 99 57 100 58 101 61 102 59 103
REMARK H PARENT 6 15 3 21 83 56 51 67
REMARK Flexibility Score: inf
ROOT
ATOM      1  C   UNL A   1      34.032  21.573  24.027  1.00  0.00     0.188 C 
ENDROOT
BRANCH   1   2
ATOM      2  O   UNL A   1      33.692  22.719  23.286  1.00  0.00    -0.376 OA
BRANCH   2   3
ATOM      3  C   UNL A   1      32.330  23.063  23.105  1.00  0.00     0.202 C 
BRANCH   3   4
ATOM      4  C   UNL A   1      31.821  24.393  22.517  1.00  0.00     0.261 C 
BRANCH   4   5
ATOM      5  O   UNL A   1      30.891  25.186  23.271  1.00  0.00    -0.460 OA
BRANCH   5   6
ATOM      6  C   UNL A   1      30.686  26.414  22.748  1.00  0.00     0.340 C 
ATOM      7  O   UNL A   1      31.062  26.772  21.636  1.00  0.00    -0.246 OA
BRANCH   6   8
ATOM      8  C   UNL A   1      29.931  27.386  23.607  1.00  0.00     0.083 A 
ATOM      9  C   UNL A   1      30.586  29.245  23.587  1.00  0.00     0.055 A 
ATOM     10  C   UNL A   1      29.229  30.731  23.525  1.00  0.00     0.027 A 
ATOM     11  C   UNL A   1      27.364  30.078  23.516  1.00  0.00     0.002 A 
ATOM     12  C   UNL A   1      28.061  26.748  23.583  1.00  0.00     0.018 A 
ATOM     13  C   UNL A   1      26.703  28.224  23.542  1.00  0.00     0.001 A 
BRANCH   9  14
ATOM     14  N   UNL A   1      31.828  29.514  23.011  1.00  0.00    -0.332 N 
ATOM     15  H   UNL A   1      31.845  29.834  22.080  1.00  0.00     0.169 HD
BRANCH  14  16
ATOM     16  C   UNL A   1      33.009  29.366  23.650  1.00  0.00     0.177 C 
ATOM     17  S   UNL A   1      34.139  28.314  23.004  1.00  0.00    -0.040 S 
BRANCH  16  18
ATOM     18  N   UNL A   1      33.298  30.013  24.855  1.00  0.00    -0.299 N 
ATOM     19  O   UNL A   1      33.850  30.820  26.914  1.00  0.00    -0.269 OA
ATOM     20  C   UNL A   1      33.310  29.904  26.287  1.00  0.00     0.257 C 
ATOM     21  H   UNL A   1      33.626  30.914  24.630  1.00  0.00     0.172 HD
BRANCH  20  22
ATOM     22  C   UNL A   1      32.767  28.784  27.140  1.00  0.00     0.040 A 
ATOM     23  C   UNL A   1      33.235  27.637  26.818  1.00  0.00     0.014 A 
ATOM     24  C   UNL A   1      32.206  27.595  26.953  1.00  0.00     0.022 A 
ATOM     25  C   UNL A   1      33.045  25.664  26.338  1.00  0.00     0.009 A 
ATOM     26  C   UNL A   1      31.751  25.619  26.503  1.00  0.00    -0.018 A 
ATOM     27  C   UNL A   1      32.406  24.586  26.186  1.00  0.00    -0.018 A 
ATOM     28  C   UNL A   1      30.447  24.625  26.396  1.00  0.00     0.009 A 
ATOM     29  C   UNL A   1      32.570  23.333  26.871  1.00  0.00     0.009 A 
ATOM     30  C   UNL A   1      30.338  23.186  26.458  1.00  0.00     0.001 A 
ATOM     31  C   UNL A   1      31.475  22.526  26.836  1.00  0.00     0.001 A 
ENDBRANCH  20  22
ENDBRANCH  16  18
ENDBRANCH  14  16
ENDBRANCH   9  14
ENDBRANCH   6   8
ENDBRANCH   5   6
ENDBRANCH   4   5
ENDBRANCH   3   4
ENDBRANCH   2   3
ENDBRANCH   1   2
BRANCH   1  32
ATOM     32  C   UNL A   1      35.285  21.722  24.928  1.00  0.00     0.188 C 
BRANCH  32  33
ATOM     33  O   UNL A   1      36.228  20.673  25.000  1.00  0.00    -0.376 OA
BRANCH  33  34
ATOM     34  C   UNL A   1      37.596  21.038  25.100  1.00  0.00     0.202 C 
BRANCH  34  35
ATOM     35  C   UNL A   1      38.721  19.975  25.225  1.00  0.00     0.261 C 
BRANCH  35  36
ATOM     36  O   UNL A   1      39.577  20.012  26.391  1.00  0.00    -0.460 OA
BRANCH  36  37
ATOM     37  C   UNL A   1      40.892  19.703  26.212  1.00  0.00     0.338 C 
ATOM     38  O   UNL A   1      41.338  18.707  25.668  1.00  0.00    -0.246 OA
BRANCH  37  39
ATOM     39  C   UNL A   1      41.740  20.884  26.549  1.00  0.00     0.060 A 
ATOM     40  C   UNL A   1      42.121  21.124  27.887  1.00  0.00     0.016 A 
ATOM     41  C   UNL A   1      42.157  21.760  25.551  1.00  0.00     0.016 A 
ATOM     42  C   UNL A   1      42.906  22.231  28.226  1.00  0.00     0.010 A 
ATOM     43  C   UNL A   1      42.899  22.897  25.899  1.00  0.00     0.010 A 
ATOM     44  C   UNL A   1      43.254  23.156  27.239  1.00  0.00    -0.014 A 
BRANCH  44  45
ATOM     45  C   UNL A   1      43.777  24.500  27.608  1.00  0.00     0.031 A 
ATOM     46  C   UNL A   1      42.787  25.534  28.074  1.00  0.00     0.074 A 
ATOM     47  C   UNL A   1      45.080  24.820  27.514  1.00  0.00     0.049 A 
ATOM     48  N   UNL A   1      42.952  26.814  28.294  1.00  0.00    -0.248 NA
ATOM     49  C   UNL A   1      41.415  25.055  28.310  1.00  0.00     0.031 C 
ATOM     50  C   UNL A   1      46.154  23.904  27.142  1.00  0.00     0.029 A 
ATOM     51  N   UNL A   1      45.715  26.026  27.700  1.00  0.00    -0.354 N 
ATOM     52  C   UNL A   1      41.704  27.296  28.667  1.00  0.00     0.074 A 
ATOM     53  C   UNL A   1      40.786  26.179  28.620  1.00  0.00     0.031 C 
ATOM     54  C   UNL A   1      47.312  24.588  27.094  1.00  0.00     0.029 A 
ATOM     55  C   UNL A   1      47.053  25.998  27.388  1.00  0.00     0.049 A 
ATOM     56  H   UNL A   1      45.254  26.833  28.027  1.00  0.00     0.167 HD
ATOM     57  C   UNL A   1      41.353  28.556  29.016  1.00  0.00     0.037 A 
ATOM     58  C   UNL A   1      47.952  27.001  27.307  1.00  0.00     0.037 A 
ATOM     59  C   UNL A   1      42.267  29.668  29.055  1.00  0.00     0.049 A 
ATOM     60  C   UNL A   1      47.517  28.417  27.608  1.00  0.00     0.074 A 
ATOM     61  C   UNL A   1      42.012  30.979  29.414  1.00  0.00     0.029 A 
ATOM     62  N   UNL A   1      43.608  29.602  28.709  1.00  0.00    -0.354 N 
ATOM     63  N   UNL A   1      46.341  28.866  27.977  1.00  0.00    -0.248 NA
ATOM     64  C   UNL A   1      48.539  29.469  27.480  1.00  0.00     0.031 C 
ATOM     65  C   UNL A   1      43.178  31.723  29.210  1.00  0.00     0.029 A 
ATOM     66  C   UNL A   1      44.184  30.858  28.812  1.00  0.00     0.049 A 
ATOM     67  H   UNL A   1      44.081  28.784  28.432  1.00  0.00     0.167 HD
ATOM     68  C   UNL A   1      46.493  30.236  28.163  1.00  0.00     0.074 A 
ATOM     69  C   UNL A   1      47.877  30.546  27.877  1.00  0.00     0.031 C 
ATOM     70  C   UNL A   1      45.569  31.154  28.542  1.00  0.00     0.037 A 
BRANCH  57  71
ATOM     71  C   UNL A   1      39.909  28.814  29.345  1.00  0.00     0.064 A 
ATOM     72  C   UNL A   1      39.406  28.672  30.647  1.00  0.00     0.173 A 
ATOM     73  C   UNL A   1      39.023  29.244  28.346  1.00  0.00     0.173 A 
ATOM     74  F   UNL A   1      40.207  28.253  31.639  1.00  0.00    -0.203 F 
ATOM     75  C   UNL A   1      38.065  28.920  30.929  1.00  0.00     0.198 A 
ATOM     76  C   UNL A   1      37.692  29.528  28.639  1.00  0.00     0.198 A 
ATOM     77  F   UNL A   1      39.450  29.402  27.084  1.00  0.00    -0.203 F 
ATOM     78  F   UNL A   1      37.595  28.723  32.168  1.00  0.00    -0.200 F 
ATOM     79  C   UNL A   1      37.211  29.356  29.927  1.00  0.00     0.200 A 
ATOM     80  F   UNL A   1      36.875  29.970  27.672  1.00  0.00    -0.200 F 
ATOM     81  F   UNL A   1      35.924  29.605  30.203  1.00  0.00    -0.200 F 
ENDBRANCH  57  71
BRANCH  58  82
ATOM     82  C   UNL A   1      49.357  26.719  26.896  1.00  0.00     0.064 A 
ATOM     83  C   UNL A   1      50.337  26.396  27.845  1.00  0.00     0.173 A 
ATOM     84  C   UNL A   1      49.759  26.811  25.555  1.00  0.00     0.173 A 
ATOM     85  F   UNL A   1      50.013  26.326  29.145  1.00  0.00    -0.203 F 
ATOM     86  C   UNL A   1      51.667  26.202  27.473  1.00  0.00     0.198 A 
ATOM     87  C   UNL A   1      51.081  26.580  25.180  1.00  0.00     0.198 A 
ATOM     88  F   UNL A   1      48.867  27.127  24.605  1.00  0.00    -0.203 F 
ATOM     89  F   UNL A   1      52.594  25.959  28.411  1.00  0.00    -0.200 F 
ATOM     90  C   UNL A   1      52.037  26.286  26.140  1.00  0.00     0.200 A 
ATOM     91  F   UNL A   1      51.431  26.652  23.888  1.00  0.00    -0.200 F 
ATOM     92  F   UNL A   1      53.315  26.100  25.783  1.00  0.00    -0.200 F 
ENDBRANCH  58  82
BRANCH  70  93
ATOM     93  C   UNL A   1      46.026  32.575  28.737  1.00  0.00     0.064 A 
ATOM     94  C   UNL A   1      46.516  33.041  29.966  1.00  0.00     0.173 A 
ATOM     95  C   UNL A   1      46.027  33.470  27.654  1.00  0.00     0.173 A 
ATOM     96  F   UNL A   1      46.531  32.235  31.038  1.00  0.00    -0.203 F 
ATOM     97  C   UNL A   1      46.961  34.355  30.110  1.00  0.00     0.198 A 
ATOM     98  C   UNL A   1      46.509  34.768  27.791  1.00  0.00     0.198 A 
ATOM     99  F   UNL A   1      45.581  33.076  26.451  1.00  0.00    -0.203 F 
ATOM    100  F   UNL A   1      47.374  34.793  31.308  1.00  0.00    -0.200 F 
ATOM    101  C   UNL A   1      46.967  35.213  29.021  1.00  0.00     0.200 A 
ATOM    102  F   UNL A   1      46.535  35.587  26.730  1.00  0.00    -0.200 F 
ATOM    103  F   UNL A   1      47.408  36.471  29.158  1.00  0.00    -0.200 F 
ENDBRANCH  70  93
ENDBRANCH  44  45
ENDBRANCH  37  39
ENDBRANCH  36  37
ENDBRANCH  35  36
ENDBRANCH  34  35
ENDBRANCH  33  34
ENDBRANCH  32  33
ENDBRANCH   1  32
TORSDOF 21
ENDMDL
MODEL 3
REMARK VINA RESULT:     -11.9      1.801      8.456
REMARK SMILES O=C(NC(=S)Nc1ccccc1C(=O)OCCOCCOCCOC(=O)c1ccc(-c2c3nc(c(-c4c(F)c(F)c(F)c(F)c4F)c4ccc([nH]4)c(-c4c(F)c(F)c(F)c(F)c4F)c4nc(c(-c5c(F)c(F)c(F)c(F)c5F)c5ccc2[nH]5)C=C4)C=C3)cc1)c1ccc2ccccc2c1
REMARK SMILES IDX 19 1 18 2 17 3 16 4 15 5 13 6 14 7 12 8 7 9 8 10 9 11 11 12
REMARK SMILES IDX 10 13 6 14 4 16 5 17 3 18 1 19 2 20 90 22 91 23 99 24 92 25
REMARK SMILES IDX 98 26 93 27 97 28 94 29 96 30 95 31 20 32 21 33 22 34 23 35
REMARK SMILES IDX 24 36 25 37 26 38 27 39 28 40 89 41 29 42 88 43 30 44 31 45
REMARK SMILES IDX 32 46 82 47 33 48 87 49 81 50 83 51 34 52 86 53 80 54 79 55
REMARK SMILES IDX 35 57 67 58 47 59 66 60 48 61 51 62 65 63 84 64 49 65 50 66
REMARK SMILES IDX 64 68 85 69 52 70 36 71 37 72 45 73 38 74 39 75 43 76 46 77
REMARK SMILES IDX 40 78 41 79 44 80 42 81 68 82 69 83 77 84 70 85 71 86 75 87
REMARK SMILES IDX 78 88 72 89 73 90 76 91 74 92 53 93 54 94 62 95 55 96 56 97
REMARK SMILES IDX 60 98 63 99 57 100 58 101 61 102 59 103
REMARK H PARENT 6 15 3 21 83 56 51 67
REMARK Flexibility Score: inf
ROOT
ATOM      1  C   UNL A   1      36.249  23.773  24.670  1.00  0.00     0.188 C 
ENDROOT
BRANCH   1   2
ATOM      2  O   UNL A   1      35.172  24.254  25.437  1.00  0.00    -0.376 OA
BRANCH   2   3
ATOM      3  C   UNL A   1      34.331  25.266  24.914  1.00  0.00     0.202 C 
BRANCH   3   4
ATOM      4  C   UNL A   1      33.669  26.385  25.741  1.00  0.00     0.261 C 
BRANCH   4   5
ATOM      5  O   UNL A   1      32.458  26.104  26.462  1.00  0.00    -0.460 OA
BRANCH   5   6
ATOM      6  C   UNL A   1      31.612  27.154  26.517  1.00  0.00     0.340 C 
ATOM      7  O   UNL A   1      31.001  27.509  27.521  1.00  0.00    -0.246 OA
BRANCH   6   8
ATOM      8  C   UNL A   1      31.434  27.934  25.247  1.00  0.00     0.083 A 
ATOM      9  C   UNL A   1      30.119  27.213  23.969  1.00  0.00     0.055 A 
ATOM     10  C   UNL A   1      28.893  28.507  23.033  1.00  0.00     0.027 A 
ATOM     11  C   UNL A   1      29.220  30.389  23.539  1.00  0.00     0.002 A 
ATOM     12  C   UNL A   1      31.739  29.819  25.754  1.00  0.00     0.018 A 
ATOM     13  C   UNL A   1      30.536  31.117  24.810  1.00  0.00     0.001 A 
BRANCH   9  14
ATOM     14  N   UNL A   1      29.624  25.923  24.169  1.00  0.00    -0.332 N 
ATOM     15  H   UNL A   1      28.650  25.812  24.260  1.00  0.00     0.169 HD
BRANCH  14  16
ATOM     16  C   UNL A   1      30.397  24.817  24.243  1.00  0.00     0.177 C 
ATOM     17  S   UNL A   1      31.344  24.416  22.923  1.00  0.00    -0.040 S 
BRANCH  16  18
ATOM     18  N   UNL A   1      30.392  23.972  25.355  1.00  0.00    -0.299 N 
ATOM     19  O   UNL A   1      30.661  22.624  27.175  1.00  0.00    -0.269 OA
ATOM     20  C   UNL A   1      31.093  22.935  26.061  1.00  0.00     0.257 C 
ATOM     21  H   UNL A   1      29.571  24.164  25.864  1.00  0.00     0.172 HD
BRANCH  20  22
ATOM     22  C   UNL A   1      32.326  22.182  25.625  1.00  0.00     0.040 A 
ATOM     23  C   UNL A   1      32.086  21.312  24.718  1.00  0.00     0.014 A 
ATOM     24  C   UNL A   1      32.693  20.916  25.463  1.00  0.00     0.022 A 
ATOM     25  C   UNL A   1      32.203  19.440  23.916  1.00  0.00     0.009 A 
ATOM     26  C   UNL A   1      32.959  18.947  24.858  1.00  0.00    -0.018 A 
ATOM     27  C   UNL A   1      32.612  18.247  23.865  1.00  0.00    -0.018 A 
ATOM     28  C   UNL A   1      33.698  17.569  25.362  1.00  0.00     0.009 A 
ATOM     29  C   UNL A   1      33.399  17.602  22.850  1.00  0.00     0.009 A 
ATOM     30  C   UNL A   1      34.123  16.394  24.637  1.00  0.00     0.001 A 
ATOM     31  C   UNL A   1      34.061  16.491  23.274  1.00  0.00     0.001 A 
ENDBRANCH  20  22
ENDBRANCH  16  18
ENDBRANCH  14  16
ENDBRANCH   9  14
ENDBRANCH   6   8
ENDBRANCH   5   6
ENDBRANCH   4   5
ENDBRANCH   3   4
ENDBRANCH   2   3
ENDBRANCH   1   2
BRANCH   1  32
ATOM     32  C   UNL A   1      36.108  22.306  24.189  1.00  0.00     0.188 C 
BRANCH  32  33
ATOM     33  O   UNL A   1      37.195  21.413  24.329  1.00  0.00    -0.376 OA
BRANCH  33  34
ATOM     34  C   UNL A   1      37.840  21.371  25.592  1.00  0.00     0.202 C 
BRANCH  34  35
ATOM     35  C   UNL A   1      39.382  21.244  25.720  1.00  0.00     0.261 C 
BRANCH  35  36
ATOM     36  O   UNL A   1      39.929  20.024  26.273  1.00  0.00    -0.460 OA
BRANCH  36  37
ATOM     37  C   UNL A   1      41.259  19.793  26.085  1.00  0.00     0.338 C 
ATOM     38  O   UNL A   1      41.757  18.870  25.463  1.00  0.00    -0.246 OA
BRANCH  37  39
ATOM     39  C   UNL A   1      42.047  20.978  26.534  1.00  0.00     0.060 A 
ATOM     40  C   UNL A   1      42.199  21.247  27.912  1.00  0.00     0.016 A 
ATOM     41  C   UNL A   1      42.634  21.829  25.602  1.00  0.00     0.016 A 
ATOM     42  C   UNL A   1      42.925  22.359  28.353  1.00  0.00     0.010 A 
ATOM     43  C   UNL A   1      43.315  22.971  26.044  1.00  0.00     0.010 A 
ATOM     44  C   UNL A   1      43.442  23.260  27.418  1.00  0.00    -0.014 A 
BRANCH  44  45
ATOM     45  C   UNL A   1      43.905  24.610  27.840  1.00  0.00     0.031 A 
ATOM     46  C   UNL A   1      42.858  25.634  28.190  1.00  0.00     0.074 A 
ATOM     47  C   UNL A   1      45.207  24.944  27.893  1.00  0.00     0.049 A 
ATOM     48  N   UNL A   1      42.984  26.916  28.424  1.00  0.00    -0.248 NA
ATOM     49  C   UNL A   1      41.473  25.140  28.272  1.00  0.00     0.031 C 
ATOM     50  C   UNL A   1      46.325  24.039  27.645  1.00  0.00     0.029 A 
ATOM     51  N   UNL A   1      45.805  26.157  28.146  1.00  0.00    -0.354 N 
ATOM     52  C   UNL A   1      41.696  27.384  28.653  1.00  0.00     0.074 A 
ATOM     53  C   UNL A   1      40.801  26.257  28.507  1.00  0.00     0.031 C 
ATOM     54  C   UNL A   1      47.474  24.735  27.727  1.00  0.00     0.029 A 
ATOM     55  C   UNL A   1      47.169  26.143  27.985  1.00  0.00     0.049 A 
ATOM     56  H   UNL A   1      45.301  26.959  28.416  1.00  0.00     0.167 HD
ATOM     57  C   UNL A   1      41.295  28.641  28.958  1.00  0.00     0.037 A 
ATOM     58  C   UNL A   1      48.061  27.156  28.003  1.00  0.00     0.037 A 
ATOM     59  C   UNL A   1      42.187  29.763  29.096  1.00  0.00     0.049 A 
ATOM     60  C   UNL A   1      47.580  28.567  28.250  1.00  0.00     0.074 A 
ATOM     61  C   UNL A   1      41.880  31.072  29.421  1.00  0.00     0.029 A 
ATOM     62  N   UNL A   1      43.560  29.711  28.903  1.00  0.00    -0.354 N 
ATOM     63  N   UNL A   1      46.365  29.004  28.483  1.00  0.00    -0.248 NA
ATOM     64  C   UNL A   1      48.598  29.630  28.235  1.00  0.00     0.031 C 
ATOM     65  C   UNL A   1      43.053  31.827  29.347  1.00  0.00     0.029 A 
ATOM     66  C   UNL A   1      44.107  30.973  29.066  1.00  0.00     0.049 A 
ATOM     67  H   UNL A   1      44.069  28.898  28.683  1.00  0.00     0.167 HD
ATOM     68  C   UNL A   1      46.481  30.376  28.682  1.00  0.00     0.074 A 
ATOM     69  C   UNL A   1      47.885  30.700  28.553  1.00  0.00     0.031 C 
ATOM     70  C   UNL A   1      45.510  31.284  28.953  1.00  0.00     0.037 A 
BRANCH  57  71
ATOM     71  C   UNL A   1      39.821  28.883  29.122  1.00  0.00     0.064 A 
ATOM     72  C   UNL A   1      39.181  28.760  30.365  1.00  0.00     0.173 A 
ATOM     73  C   UNL A   1      39.044  29.280  28.023  1.00  0.00     0.173 A 
ATOM     74  F   UNL A   1      39.874  28.374  31.446  1.00  0.00    -0.203 F 
ATOM     75  C   UNL A   1      37.814  28.993  30.493  1.00  0.00     0.198 A 
ATOM     76  C   UNL A   1      37.685  29.550  28.163  1.00  0.00     0.198 A 
ATOM     77  F   UNL A   1      39.603  29.419  26.812  1.00  0.00    -0.203 F 
ATOM     78  F   UNL A   1      37.214  28.814  31.678  1.00  0.00    -0.200 F 
ATOM     79  C   UNL A   1      37.069  29.396  29.395  1.00  0.00     0.200 A 
ATOM     80  F   UNL A   1      36.973  29.959  27.104  1.00  0.00    -0.200 F 
ATOM     81  F   UNL A   1      35.756  29.631  29.523  1.00  0.00    -0.200 F 
ENDBRANCH  57  71
BRANCH  58  82
ATOM     82  C   UNL A   1      49.505  26.889  27.753  1.00  0.00     0.064 A 
ATOM     83  C   UNL A   1      50.395  26.665  28.815  1.00  0.00     0.173 A 
ATOM     84  C   UNL A   1      50.037  26.896  26.455  1.00  0.00     0.173 A 
ATOM     85  F   UNL A   1      49.945  26.679  30.079  1.00  0.00    -0.203 F 
ATOM     86  C   UNL A   1      51.759  26.486  28.590  1.00  0.00     0.198 A 
ATOM     87  C   UNL A   1      51.395  26.679  26.228  1.00  0.00     0.198 A 
ATOM     88  F   UNL A   1      49.236  27.115  25.401  1.00  0.00    -0.203 F 
ATOM     89  F   UNL A   1      52.593  26.341  29.629  1.00  0.00    -0.200 F 
ATOM     90  C   UNL A   1      52.257  26.486  27.296  1.00  0.00     0.200 A 
ATOM     91  F   UNL A   1      51.870  26.668  24.975  1.00  0.00    -0.200 F 
ATOM     92  F   UNL A   1      53.568  26.314  27.080  1.00  0.00    -0.200 F 
ENDBRANCH  58  82
BRANCH  70  93
ATOM     93  C   UNL A   1      45.927  32.711  29.194  1.00  0.00     0.064 A 
ATOM     94  C   UNL A   1      46.338  33.166  30.456  1.00  0.00     0.173 A 
ATOM     95  C   UNL A   1      45.971  33.622  28.126  1.00  0.00     0.173 A 
ATOM     96  F   UNL A   1      46.308  32.343  31.515  1.00  0.00    -0.203 F 
ATOM     97  C   UNL A   1      46.748  34.485  30.644  1.00  0.00     0.198 A 
ATOM     98  C   UNL A   1      46.419  34.927  28.310  1.00  0.00     0.198 A 
ATOM     99  F   UNL A   1      45.601  33.239  26.895  1.00  0.00    -0.203 F 
ATOM    100  F   UNL A   1      47.083  34.912  31.870  1.00  0.00    -0.200 F 
ATOM    101  C   UNL A   1      46.798  35.360  29.569  1.00  0.00     0.200 A 
ATOM    102  F   UNL A   1      46.489  35.763  27.264  1.00  0.00    -0.200 F 
ATOM    103  F   UNL A   1      47.206  36.624  29.750  1.00  0.00    -0.200 F 
ENDBRANCH  70  93
ENDBRANCH  44  45
ENDBRANCH  37  39
ENDBRANCH  36  37
ENDBRANCH  35  36
ENDBRANCH  34  35
ENDBRANCH  33  34
ENDBRANCH  32  33
ENDBRANCH   1  32
TORSDOF 21
ENDMDL
