MODEL 1
REMARK VINA RESULT:     -10.8      0.000      0.000
REMARK SMILES CC(C)CN(C)c1cc2c(cc1Cl)C=C(C(=O)OCCOCCOCCOC(=O)c1ccc(-c3c4nc(c(-c5c(F)c(F)c(F)c(F)c5F)c5ccc([nH]5)c(-c5c(F)c(F)c(F)c(F)c5F)c5nc(c(-c6c(F)c(F)c(F)c(F)c6F)c6ccc3[nH]6)C=C5)C=C4)cc1)[C@@H](C(F)(F)F)O2
REMARK SMILES IDX 22 1 21 2 20 3 19 4 18 5 16 6 17 7 15 8 7 9 8 10 12 11 9 12
REMARK SMILES IDX 11 13 13 14 10 15 98 16 14 17 93 18 5 19 6 20 4 21 2 22 1 23
REMARK SMILES IDX 3 24 94 25 95 26 96 27 97 28 23 29 24 30 25 31 26 32 27 33
REMARK SMILES IDX 28 34 29 35 30 36 31 37 92 38 32 39 91 40 33 41 34 42 35 43
REMARK SMILES IDX 85 44 36 45 90 46 84 47 86 48 37 49 89 50 83 51 82 52 38 54
REMARK SMILES IDX 70 55 50 56 69 57 51 58 54 59 68 60 87 61 52 62 53 63 67 65
REMARK SMILES IDX 88 66 55 67 39 68 40 69 48 70 41 71 42 72 46 73 49 74 43 75
REMARK SMILES IDX 44 76 47 77 45 78 71 79 72 80 80 81 73 82 74 83 78 84 81 85
REMARK SMILES IDX 75 86 76 87 79 88 77 89 56 90 57 91 65 92 58 93 59 94 63 95
REMARK SMILES IDX 66 96 60 97 61 98 64 99 62 100
REMARK H PARENT 86 53 54 64
REMARK Flexibility Score: inf
ROOT
ATOM      1  C   UNL A   1      34.391  32.422  29.707  1.00  0.00     0.188 C 
ENDROOT
BRANCH   1   2
ATOM      2  O   UNL A   1      34.393  31.859  28.418  1.00  0.00    -0.376 OA
BRANCH   2   3
ATOM      3  C   UNL A   1      35.333  30.869  28.036  1.00  0.00     0.202 C 
BRANCH   3   4
ATOM      4  C   UNL A   1      35.010  29.555  27.302  1.00  0.00     0.261 C 
BRANCH   4   5
ATOM      5  O   UNL A   1      33.635  29.175  27.219  1.00  0.00    -0.460 OA
BRANCH   5   6
ATOM      6  C   UNL A   1      33.207  28.904  25.964  1.00  0.00     0.338 C 
ATOM      7  O   UNL A   1      33.206  29.674  25.015  1.00  0.00    -0.246 OA
BRANCH   6   8
ATOM      8  C   UNL A   1      32.883  27.474  25.826  1.00  0.00     0.087 C 
ATOM      9  C   UNL A   1      33.216  22.607  24.603  1.00  0.00     0.059 A 
ATOM     10  C   UNL A   1      32.169  23.428  25.080  1.00  0.00     0.074 A 
ATOM     11  C   UNL A   1      34.493  23.199  24.481  1.00  0.00     0.065 A 
ATOM     12  C   UNL A   1      32.393  24.771  25.416  1.00  0.00     0.130 A 
ATOM     13  C   UNL A   1      34.737  24.494  24.933  1.00  0.00     0.034 A 
ATOM     14  Cl  UNL A   1      35.813  22.434  23.663  1.00  0.00    -0.082 Cl
ATOM     15  C   UNL A   1      33.687  25.283  25.387  1.00  0.00     0.019 A 
ATOM     16  O   UNL A   1      31.310  25.537  25.767  1.00  0.00    -0.475 OA
ATOM     17  C   UNL A   1      33.943  26.664  25.734  1.00  0.00     0.027 C 
ATOM     18  C   UNL A   1      31.461  26.994  25.713  1.00  0.00     0.316 C 
BRANCH   9  19
ATOM     19  N   UNL A   1      32.980  21.280  24.222  1.00  0.00    -0.373 N 
ATOM     20  C   UNL A   1      32.237  21.098  22.979  1.00  0.00     0.143 C 
BRANCH  19  21
ATOM     21  C   UNL A   1      32.813  20.247  25.268  1.00  0.00     0.119 C 
BRANCH  21  22
ATOM     22  C   UNL A   1      32.966  18.806  24.730  1.00  0.00     0.002 C 
ATOM     23  C   UNL A   1      34.405  18.506  24.302  1.00  0.00     0.009 C 
ATOM     24  C   UNL A   1      32.528  17.757  25.756  1.00  0.00     0.009 C 
ENDBRANCH  21  22
ENDBRANCH  19  21
ENDBRANCH   9  19
BRANCH  18  25
ATOM     25  C   UNL A   1      30.786  27.564  24.458  1.00  0.00     0.430 C 
ATOM     26  F   UNL A   1      30.427  28.858  24.627  1.00  0.00    -0.167 F 
ATOM     27  F   UNL A   1      31.626  27.528  23.394  1.00  0.00    -0.167 F 
ATOM     28  F   UNL A   1      29.676  26.872  24.117  1.00  0.00    -0.167 F 
ENDBRANCH  18  25
ENDBRANCH   6   8
ENDBRANCH   5   6
ENDBRANCH   4   5
ENDBRANCH   3   4
ENDBRANCH   2   3
ENDBRANCH   1   2
BRANCH   1  29
ATOM     29  C   UNL A   1      34.954  33.846  29.896  1.00  0.00     0.188 C 
BRANCH  29  30
ATOM     30  O   UNL A   1      34.972  34.454  31.171  1.00  0.00    -0.376 OA
BRANCH  30  31
ATOM     31  C   UNL A   1      34.113  33.970  32.193  1.00  0.00     0.202 C 
BRANCH  31  32
ATOM     32  C   UNL A   1      34.622  33.080  33.339  1.00  0.00     0.261 C 
BRANCH  32  33
ATOM     33  O   UNL A   1      35.633  32.128  32.984  1.00  0.00    -0.460 OA
BRANCH  33  34
ATOM     34  C   UNL A   1      36.882  32.409  33.446  1.00  0.00     0.338 C 
ATOM     35  O   UNL A   1      37.186  32.891  34.512  1.00  0.00    -0.246 OA
BRANCH  34  36
ATOM     36  C   UNL A   1      37.865  31.834  32.504  1.00  0.00     0.060 A 
ATOM     37  C   UNL A   1      37.763  32.070  31.134  1.00  0.00     0.016 A 
ATOM     38  C   UNL A   1      38.907  31.049  33.018  1.00  0.00     0.016 A 
ATOM     39  C   UNL A   1      38.726  31.534  30.276  1.00  0.00     0.010 A 
ATOM     40  C   UNL A   1      39.858  30.499  32.157  1.00  0.00     0.010 A 
ATOM     41  C   UNL A   1      39.787  30.759  30.781  1.00  0.00    -0.014 A 
BRANCH  41  42
ATOM     42  C   UNL A   1      40.906  30.377  29.887  1.00  0.00     0.031 A 
ATOM     43  C   UNL A   1      42.024  31.316  29.562  1.00  0.00     0.074 A 
ATOM     44  C   UNL A   1      40.894  29.135  29.367  1.00  0.00     0.049 A 
ATOM     45  N   UNL A   1      43.123  31.080  28.889  1.00  0.00    -0.248 NA
ATOM     46  C   UNL A   1      41.896  32.699  30.043  1.00  0.00     0.031 C 
ATOM     47  C   UNL A   1      39.832  28.151  29.582  1.00  0.00     0.029 A 
ATOM     48  N   UNL A   1      41.798  28.485  28.568  1.00  0.00    -0.354 N 
ATOM     49  C   UNL A   1      43.832  32.272  28.887  1.00  0.00     0.074 A 
ATOM     50  C   UNL A   1      43.014  33.246  29.582  1.00  0.00     0.031 C 
ATOM     51  C   UNL A   1      40.161  27.011  28.958  1.00  0.00     0.029 A 
ATOM     52  C   UNL A   1      41.444  27.189  28.282  1.00  0.00     0.049 A 
ATOM     53  H   UNL A   1      42.622  28.906  28.230  1.00  0.00     0.167 HD
ATOM     54  C   UNL A   1      45.062  32.516  28.371  1.00  0.00     0.037 A 
ATOM     55  C   UNL A   1      42.084  26.246  27.568  1.00  0.00     0.037 A 
ATOM     56  C   UNL A   1      45.861  31.542  27.667  1.00  0.00     0.049 A 
ATOM     57  C   UNL A   1      43.428  26.557  26.974  1.00  0.00     0.074 A 
ATOM     58  C   UNL A   1      47.138  31.685  27.154  1.00  0.00     0.029 A 
ATOM     59  N   UNL A   1      45.453  30.251  27.361  1.00  0.00    -0.354 N 
ATOM     60  N   UNL A   1      44.135  27.657  27.062  1.00  0.00    -0.248 NA
ATOM     61  C   UNL A   1      44.069  25.492  26.190  1.00  0.00     0.031 C 
ATOM     62  C   UNL A   1      47.481  30.505  26.488  1.00  0.00     0.029 A 
ATOM     63  C   UNL A   1      46.441  29.601  26.635  1.00  0.00     0.049 A 
ATOM     64  H   UNL A   1      44.591  29.853  27.620  1.00  0.00     0.167 HD
ATOM     65  C   UNL A   1      45.308  27.415  26.362  1.00  0.00     0.074 A 
ATOM     66  C   UNL A   1      45.229  26.053  25.873  1.00  0.00     0.031 C 
ATOM     67  C   UNL A   1      46.354  28.248  26.144  1.00  0.00     0.037 A 
BRANCH  54  68
ATOM     68  C   UNL A   1      45.644  33.888  28.555  1.00  0.00     0.064 A 
ATOM     69  C   UNL A   1      45.417  34.906  27.616  1.00  0.00     0.173 A 
ATOM     70  C   UNL A   1      46.342  34.221  29.726  1.00  0.00     0.173 A 
ATOM     71  F   UNL A   1      44.753  34.641  26.480  1.00  0.00    -0.203 F 
ATOM     72  C   UNL A   1      45.877  36.202  27.837  1.00  0.00     0.198 A 
ATOM     73  C   UNL A   1      46.778  35.524  29.955  1.00  0.00     0.198 A 
ATOM     74  F   UNL A   1      46.573  33.290  30.663  1.00  0.00    -0.203 F 
ATOM     75  F   UNL A   1      45.668  37.151  26.914  1.00  0.00    -0.200 F 
ATOM     76  C   UNL A   1      46.548  36.511  29.010  1.00  0.00     0.200 A 
ATOM     77  F   UNL A   1      47.408  35.826  31.100  1.00  0.00    -0.200 F 
ATOM     78  F   UNL A   1      46.971  37.765  29.232  1.00  0.00    -0.200 F 
ENDBRANCH  54  68
BRANCH  55  79
ATOM     79  C   UNL A   1      41.469  24.902  27.422  1.00  0.00     0.064 A 
ATOM     80  C   UNL A   1      41.990  23.795  28.107  1.00  0.00     0.173 A 
ATOM     81  C   UNL A   1      40.329  24.705  26.629  1.00  0.00     0.173 A 
ATOM     82  F   UNL A   1      43.088  23.933  28.865  1.00  0.00    -0.203 F 
ATOM     83  C   UNL A   1      41.398  22.540  27.997  1.00  0.00     0.198 A 
ATOM     84  C   UNL A   1      39.722  23.455  26.543  1.00  0.00     0.198 A 
ATOM     85  F   UNL A   1      39.790  25.735  25.962  1.00  0.00    -0.203 F 
ATOM     86  F   UNL A   1      41.933  21.491  28.636  1.00  0.00    -0.200 F 
ATOM     87  C   UNL A   1      40.259  22.372  27.222  1.00  0.00     0.200 A 
ATOM     88  F   UNL A   1      38.611  23.302  25.809  1.00  0.00    -0.200 F 
ATOM     89  F   UNL A   1      39.681  21.168  27.130  1.00  0.00    -0.200 F 
ENDBRANCH  55  79
BRANCH  67  90
ATOM     90  C   UNL A   1      47.509  27.719  25.342  1.00  0.00     0.064 A 
ATOM     91  C   UNL A   1      47.529  27.804  23.942  1.00  0.00     0.173 A 
ATOM     92  C   UNL A   1      48.638  27.183  25.983  1.00  0.00     0.173 A 
ATOM     93  F   UNL A   1      46.470  28.293  23.281  1.00  0.00    -0.203 F 
ATOM     94  C   UNL A   1      48.628  27.358  23.213  1.00  0.00     0.198 A 
ATOM     95  C   UNL A   1      49.748  26.768  25.252  1.00  0.00     0.198 A 
ATOM     96  F   UNL A   1      48.674  27.084  27.320  1.00  0.00    -0.203 F 
ATOM     97  F   UNL A   1      48.609  27.415  21.874  1.00  0.00    -0.200 F 
ATOM     98  C   UNL A   1      49.740  26.851  23.868  1.00  0.00     0.200 A 
ATOM     99  F   UNL A   1      50.828  26.291  25.887  1.00  0.00    -0.200 F 
ATOM    100  F   UNL A   1      50.804  26.439  23.164  1.00  0.00    -0.200 F 
ENDBRANCH  67  90
ENDBRANCH  41  42
ENDBRANCH  34  36
ENDBRANCH  33  34
ENDBRANCH  32  33
ENDBRANCH  31  32
ENDBRANCH  30  31
ENDBRANCH  29  30
ENDBRANCH   1  29
TORSDOF 21
ENDMDL
MODEL 2
REMARK VINA RESULT:     -10.2      5.677     12.271
REMARK SMILES CC(C)CN(C)c1cc2c(cc1Cl)C=C(C(=O)OCCOCCOCCOC(=O)c1ccc(-c3c4nc(c(-c5c(F)c(F)c(F)c(F)c5F)c5ccc([nH]5)c(-c5c(F)c(F)c(F)c(F)c5F)c5nc(c(-c6c(F)c(F)c(F)c(F)c6F)c6ccc3[nH]6)C=C5)C=C4)cc1)[C@@H](C(F)(F)F)O2
REMARK SMILES IDX 22 1 21 2 20 3 19 4 18 5 16 6 17 7 15 8 7 9 8 10 12 11 9 12
REMARK SMILES IDX 11 13 13 14 10 15 98 16 14 17 93 18 5 19 6 20 4 21 2 22 1 23
REMARK SMILES IDX 3 24 94 25 95 26 96 27 97 28 23 29 24 30 25 31 26 32 27 33
REMARK SMILES IDX 28 34 29 35 30 36 31 37 92 38 32 39 91 40 33 41 34 42 35 43
REMARK SMILES IDX 85 44 36 45 90 46 84 47 86 48 37 49 89 50 83 51 82 52 38 54
REMARK SMILES IDX 70 55 50 56 69 57 51 58 54 59 68 60 87 61 52 62 53 63 67 65
REMARK SMILES IDX 88 66 55 67 39 68 40 69 48 70 41 71 42 72 46 73 49 74 43 75
REMARK SMILES IDX 44 76 47 77 45 78 71 79 72 80 80 81 73 82 74 83 78 84 81 85
REMARK SMILES IDX 75 86 76 87 79 88 77 89 56 90 57 91 65 92 58 93 59 94 63 95
REMARK SMILES IDX 66 96 60 97 61 98 64 99 62 100
REMARK H PARENT 86 53 54 64
REMARK Flexibility Score: inf
ROOT
ATOM      1  C   UNL A   1      43.507  21.845  25.846  1.00  0.00     0.188 C 
ENDROOT
BRANCH   1   2
ATOM      2  O   UNL A   1      42.922  22.750  24.942  1.00  0.00    -0.376 OA
BRANCH   2   3
ATOM      3  C   UNL A   1      42.852  24.140  25.216  1.00  0.00     0.202 C 
BRANCH   3   4
ATOM      4  C   UNL A   1      42.945  24.790  26.607  1.00  0.00     0.261 C 
BRANCH   4   5
ATOM      5  O   UNL A   1      41.828  24.623  27.482  1.00  0.00    -0.460 OA
BRANCH   5   6
ATOM      6  C   UNL A   1      40.788  25.450  27.223  1.00  0.00     0.338 C 
ATOM      7  O   UNL A   1      39.858  25.230  26.463  1.00  0.00    -0.246 OA
BRANCH   6   8
ATOM      8  C   UNL A   1      40.822  26.618  28.120  1.00  0.00     0.087 C 
ATOM      9  C   UNL A   1      39.430  30.086  31.486  1.00  0.00     0.059 A 
ATOM     10  C   UNL A   1      40.516  29.973  30.588  1.00  0.00     0.074 A 
ATOM     11  C   UNL A   1      38.536  28.995  31.555  1.00  0.00     0.065 A 
ATOM     12  C   UNL A   1      40.693  28.825  29.802  1.00  0.00     0.130 A 
ATOM     13  C   UNL A   1      38.785  27.809  30.866  1.00  0.00     0.034 A 
ATOM     14  Cl  UNL A   1      37.017  29.071  32.383  1.00  0.00    -0.082 Cl
ATOM     15  C   UNL A   1      39.854  27.729  29.982  1.00  0.00     0.019 A 
ATOM     16  O   UNL A   1      41.704  28.828  28.874  1.00  0.00    -0.475 OA
ATOM     17  C   UNL A   1      40.020  26.533  29.185  1.00  0.00     0.027 C 
ATOM     18  C   UNL A   1      41.639  27.839  27.794  1.00  0.00     0.316 C 
BRANCH   9  19
ATOM     19  N   UNL A   1      39.228  31.253  32.234  1.00  0.00    -0.373 N 
ATOM     20  C   UNL A   1      39.654  31.194  33.630  1.00  0.00     0.143 C 
BRANCH  19  21
ATOM     21  C   UNL A   1      38.079  32.127  31.914  1.00  0.00     0.119 C 
BRANCH  21  22
ATOM     22  C   UNL A   1      38.438  33.269  30.936  1.00  0.00     0.002 C 
ATOM     23  C   UNL A   1      39.877  33.755  31.130  1.00  0.00     0.009 C 
ATOM     24  C   UNL A   1      38.250  32.857  29.473  1.00  0.00     0.009 C 
ENDBRANCH  21  22
ENDBRANCH  19  21
ENDBRANCH   9  19
BRANCH  18  25
ATOM     25  C   UNL A   1      41.159  28.491  26.489  1.00  0.00     0.430 C 
ATOM     26  F   UNL A   1      41.430  27.716  25.413  1.00  0.00    -0.167 F 
ATOM     27  F   UNL A   1      39.816  28.680  26.505  1.00  0.00    -0.167 F 
ATOM     28  F   UNL A   1      41.731  29.697  26.280  1.00  0.00    -0.167 F 
ENDBRANCH  18  25
ENDBRANCH   6   8
ENDBRANCH   5   6
ENDBRANCH   4   5
ENDBRANCH   3   4
ENDBRANCH   2   3
ENDBRANCH   1   2
BRANCH   1  29
ATOM     29  C   UNL A   1      45.044  21.705  25.866  1.00  0.00     0.188 C 
BRANCH  29  30
ATOM     30  O   UNL A   1      45.786  21.716  24.664  1.00  0.00    -0.376 OA
BRANCH  30  31
ATOM     31  C   UNL A   1      46.430  22.911  24.246  1.00  0.00     0.202 C 
BRANCH  31  32
ATOM     32  C   UNL A   1      46.587  24.126  25.175  1.00  0.00     0.261 C 
BRANCH  32  33
ATOM     33  O   UNL A   1      46.233  25.393  24.607  1.00  0.00    -0.460 OA
BRANCH  33  34
ATOM     34  C   UNL A   1      47.138  26.390  24.800  1.00  0.00     0.338 C 
ATOM     35  O   UNL A   1      48.158  26.594  24.183  1.00  0.00    -0.246 OA
BRANCH  34  36
ATOM     36  C   UNL A   1      46.576  27.345  25.778  1.00  0.00     0.060 A 
ATOM     37  C   UNL A   1      45.215  27.648  25.778  1.00  0.00     0.016 A 
ATOM     38  C   UNL A   1      47.439  27.936  26.712  1.00  0.00     0.016 A 
ATOM     39  C   UNL A   1      44.713  28.532  26.735  1.00  0.00     0.010 A 
ATOM     40  C   UNL A   1      46.938  28.833  27.656  1.00  0.00     0.010 A 
ATOM     41  C   UNL A   1      45.566  29.119  27.688  1.00  0.00    -0.014 A 
BRANCH  41  42
ATOM     42  C   UNL A   1      44.987  29.886  28.817  1.00  0.00     0.031 A 
ATOM     43  C   UNL A   1      44.637  29.243  30.122  1.00  0.00     0.074 A 
ATOM     44  C   UNL A   1      44.782  31.204  28.638  1.00  0.00     0.049 A 
ATOM     45  N   UNL A   1      44.231  29.809  31.232  1.00  0.00    -0.248 NA
ATOM     46  C   UNL A   1      44.747  27.779  30.196  1.00  0.00     0.031 C 
ATOM     47  C   UNL A   1      45.046  31.926  27.392  1.00  0.00     0.029 A 
ATOM     48  N   UNL A   1      44.321  32.169  29.495  1.00  0.00    -0.354 N 
ATOM     49  C   UNL A   1      44.063  28.779  32.145  1.00  0.00     0.074 A 
ATOM     50  C   UNL A   1      44.361  27.546  31.445  1.00  0.00     0.031 C 
ATOM     51  C   UNL A   1      44.774  33.226  27.576  1.00  0.00     0.029 A 
ATOM     52  C   UNL A   1      44.298  33.426  28.943  1.00  0.00     0.049 A 
ATOM     53  H   UNL A   1      44.034  31.980  30.418  1.00  0.00     0.167 HD
ATOM     54  C   UNL A   1      43.714  28.866  33.453  1.00  0.00     0.037 A 
ATOM     55  C   UNL A   1      43.944  34.608  29.477  1.00  0.00     0.037 A 
ATOM     56  C   UNL A   1      43.404  30.099  34.135  1.00  0.00     0.049 A 
ATOM     57  C   UNL A   1      43.524  34.669  30.919  1.00  0.00     0.074 A 
ATOM     58  C   UNL A   1      43.091  30.289  35.471  1.00  0.00     0.029 A 
ATOM     59  N   UNL A   1      43.350  31.349  33.535  1.00  0.00    -0.354 N 
ATOM     60  N   UNL A   1      43.463  33.703  31.802  1.00  0.00    -0.248 NA
ATOM     61  C   UNL A   1      43.133  35.986  31.441  1.00  0.00     0.031 C 
ATOM     62  C   UNL A   1      42.790  31.640  35.665  1.00  0.00     0.029 A 
ATOM     63  C   UNL A   1      42.974  32.307  34.465  1.00  0.00     0.049 A 
ATOM     64  H   UNL A   1      43.551  31.531  32.588  1.00  0.00     0.167 HD
ATOM     65  C   UNL A   1      43.045  34.294  32.986  1.00  0.00     0.074 A 
ATOM     66  C   UNL A   1      42.889  35.708  32.714  1.00  0.00     0.031 C 
ATOM     67  C   UNL A   1      42.812  33.713  34.187  1.00  0.00     0.037 A 
BRANCH  54  68
ATOM     68  C   UNL A   1      43.660  27.597  34.254  1.00  0.00     0.064 A 
ATOM     69  C   UNL A   1      42.455  26.901  34.432  1.00  0.00     0.173 A 
ATOM     70  C   UNL A   1      44.833  27.014  34.756  1.00  0.00     0.173 A 
ATOM     71  F   UNL A   1      41.304  27.413  33.969  1.00  0.00    -0.203 F 
ATOM     72  C   UNL A   1      42.425  25.676  35.093  1.00  0.00     0.198 A 
ATOM     73  C   UNL A   1      44.804  25.777  35.394  1.00  0.00     0.198 A 
ATOM     74  F   UNL A   1      46.015  27.631  34.600  1.00  0.00    -0.203 F 
ATOM     75  F   UNL A   1      41.258  25.041  35.271  1.00  0.00    -0.200 F 
ATOM     76  C   UNL A   1      43.600  25.110  35.564  1.00  0.00     0.200 A 
ATOM     77  F   UNL A   1      45.944  25.222  35.831  1.00  0.00    -0.200 F 
ATOM     78  F   UNL A   1      43.573  23.920  36.181  1.00  0.00    -0.200 F 
ENDBRANCH  54  68
BRANCH  55  79
ATOM     79  C   UNL A   1      44.023  35.836  28.645  1.00  0.00     0.064 A 
ATOM     80  C   UNL A   1      45.241  36.505  28.464  1.00  0.00     0.173 A 
ATOM     81  C   UNL A   1      42.893  36.341  27.985  1.00  0.00     0.173 A 
ATOM     82  F   UNL A   1      46.344  36.067  29.088  1.00  0.00    -0.203 F 
ATOM     83  C   UNL A   1      45.324  37.639  27.659  1.00  0.00     0.198 A 
ATOM     84  C   UNL A   1      42.984  37.457  27.158  1.00  0.00     0.198 A 
ATOM     85  F   UNL A   1      41.707  35.730  28.122  1.00  0.00    -0.203 F 
ATOM     86  F   UNL A   1      46.495  38.278  27.527  1.00  0.00    -0.200 F 
ATOM     87  C   UNL A   1      44.198  38.109  27.000  1.00  0.00     0.200 A 
ATOM     88  F   UNL A   1      41.898  37.897  26.509  1.00  0.00    -0.200 F 
ATOM     89  F   UNL A   1      44.282  39.190  26.214  1.00  0.00    -0.200 F 
ENDBRANCH  55  79
BRANCH  67  90
ATOM     90  C   UNL A   1      42.361  34.601  35.313  1.00  0.00     0.064 A 
ATOM     91  C   UNL A   1      43.280  35.211  36.179  1.00  0.00     0.173 A 
ATOM     92  C   UNL A   1      40.999  34.898  35.487  1.00  0.00     0.173 A 
ATOM     93  F   UNL A   1      44.591  34.947  36.065  1.00  0.00    -0.203 F 
ATOM     94  C   UNL A   1      42.854  36.072  37.186  1.00  0.00     0.198 A 
ATOM     95  C   UNL A   1      40.580  35.785  36.475  1.00  0.00     0.198 A 
ATOM     96  F   UNL A   1      40.078  34.347  34.684  1.00  0.00    -0.203 F 
ATOM     97  F   UNL A   1      43.748  36.614  38.025  1.00  0.00    -0.200 F 
ATOM     98  C   UNL A   1      41.506  36.367  37.327  1.00  0.00     0.200 A 
ATOM     99  F   UNL A   1      39.278  36.080  36.600  1.00  0.00    -0.200 F 
ATOM    100  F   UNL A   1      41.100  37.211  38.285  1.00  0.00    -0.200 F 
ENDBRANCH  67  90
ENDBRANCH  41  42
ENDBRANCH  34  36
ENDBRANCH  33  34
ENDBRANCH  32  33
ENDBRANCH  31  32
ENDBRANCH  30  31
ENDBRANCH  29  30
ENDBRANCH   1  29
TORSDOF 21
ENDMDL
MODEL 3
REMARK VINA RESULT:     -10.0     10.962     16.048
REMARK SMILES CC(C)CN(C)c1cc2c(cc1Cl)C=C(C(=O)OCCOCCOCCOC(=O)c1ccc(-c3c4nc(c(-c5c(F)c(F)c(F)c(F)c5F)c5ccc([nH]5)c(-c5c(F)c(F)c(F)c(F)c5F)c5nc(c(-c6c(F)c(F)c(F)c(F)c6F)c6ccc3[nH]6)C=C5)C=C4)cc1)[C@@H](C(F)(F)F)O2
REMARK SMILES IDX 22 1 21 2 20 3 19 4 18 5 16 6 17 7 15 8 7 9 8 10 12 11 9 12
REMARK SMILES IDX 11 13 13 14 10 15 98 16 14 17 93 18 5 19 6 20 4 21 2 22 1 23
REMARK SMILES IDX 3 24 94 25 95 26 96 27 97 28 23 29 24 30 25 31 26 32 27 33
REMARK SMILES IDX 28 34 29 35 30 36 31 37 92 38 32 39 91 40 33 41 34 42 35 43
REMARK SMILES IDX 85 44 36 45 90 46 84 47 86 48 37 49 89 50 83 51 82 52 38 54
REMARK SMILES IDX 70 55 50 56 69 57 51 58 54 59 68 60 87 61 52 62 53 63 67 65
REMARK SMILES IDX 88 66 55 67 39 68 40 69 48 70 41 71 42 72 46 73 49 74 43 75
REMARK SMILES IDX 44 76 47 77 45 78 71 79 72 80 80 81 73 82 74 83 78 84 81 85
REMARK SMILES IDX 75 86 76 87 79 88 77 89 56 90 57 91 65 92 58 93 59 94 63 95
REMARK SMILES IDX 66 96 60 97 61 98 64 99 62 100
REMARK H PARENT 86 53 54 64
REMARK Flexibility Score: inf
ROOT
ATOM      1  C   UNL A   1      46.662  20.636  37.665  1.00  0.00     0.188 C 
ENDROOT
BRANCH   1   2
ATOM      2  O   UNL A   1      46.527  19.247  37.493  1.00  0.00    -0.376 OA
BRANCH   2   3
ATOM      3  C   UNL A   1      46.017  18.412  38.521  1.00  0.00     0.202 C 
BRANCH   3   4
ATOM      4  C   UNL A   1      45.186  17.134  38.314  1.00  0.00     0.261 C 
BRANCH   4   5
ATOM      5  O   UNL A   1      44.802  16.408  39.484  1.00  0.00    -0.460 OA
BRANCH   5   6
ATOM      6  C   UNL A   1      43.532  16.636  39.891  1.00  0.00     0.338 C 
ATOM      7  O   UNL A   1      42.617  17.067  39.206  1.00  0.00    -0.246 OA
BRANCH   6   8
ATOM      8  C   UNL A   1      43.331  16.133  41.261  1.00  0.00     0.087 C 
ATOM      9  C   UNL A   1      44.250  14.209  45.816  1.00  0.00     0.059 A 
ATOM     10  C   UNL A   1      43.072  14.447  45.073  1.00  0.00     0.074 A 
ATOM     11  C   UNL A   1      45.468  14.640  45.246  1.00  0.00     0.065 A 
ATOM     12  C   UNL A   1      43.116  15.084  43.823  1.00  0.00     0.130 A 
ATOM     13  C   UNL A   1      45.494  15.382  44.066  1.00  0.00     0.034 A 
ATOM     14  Cl  UNL A   1      47.016  14.191  45.877  1.00  0.00    -0.082 Cl
ATOM     15  C   UNL A   1      44.322  15.591  43.350  1.00  0.00     0.019 A 
ATOM     16  O   UNL A   1      41.948  15.183  43.109  1.00  0.00    -0.475 OA
ATOM     17  C   UNL A   1      44.390  16.256  42.066  1.00  0.00     0.027 C 
ATOM     18  C   UNL A   1      42.051  15.457  41.673  1.00  0.00     0.316 C 
BRANCH   9  19
ATOM     19  N   UNL A   1      44.210  13.530  47.040  1.00  0.00    -0.373 N 
ATOM     20  C   UNL A   1      45.006  14.112  48.116  1.00  0.00     0.143 C 
BRANCH  19  21
ATOM     21  C   UNL A   1      44.033  12.062  47.047  1.00  0.00     0.119 C 
BRANCH  21  22
ATOM     22  C   UNL A   1      44.847  11.346  45.946  1.00  0.00     0.002 C 
ATOM     23  C   UNL A   1      45.673  10.185  46.509  1.00  0.00     0.009 C 
ATOM     24  C   UNL A   1      43.953  10.814  44.821  1.00  0.00     0.009 C 
ENDBRANCH  21  22
ENDBRANCH  19  21
ENDBRANCH   9  19
BRANCH  18  25
ATOM     25  C   UNL A   1      41.818  14.177  40.858  1.00  0.00     0.430 C 
ATOM     26  F   UNL A   1      42.320  13.087  41.482  1.00  0.00    -0.167 F 
ATOM     27  F   UNL A   1      40.493  13.948  40.679  1.00  0.00    -0.167 F 
ATOM     28  F   UNL A   1      42.382  14.243  39.631  1.00  0.00    -0.167 F 
ENDBRANCH  18  25
ENDBRANCH   6   8
ENDBRANCH   5   6
ENDBRANCH   4   5
ENDBRANCH   3   4
ENDBRANCH   2   3
ENDBRANCH   1   2
BRANCH   1  29
ATOM     29  C   UNL A   1      46.705  21.205  39.099  1.00  0.00     0.188 C 
BRANCH  29  30
ATOM     30  O   UNL A   1      45.587  21.874  39.646  1.00  0.00    -0.376 OA
BRANCH  30  31
ATOM     31  C   UNL A   1      45.661  23.269  39.906  1.00  0.00     0.202 C 
BRANCH  31  32
ATOM     32  C   UNL A   1      45.258  24.321  38.859  1.00  0.00     0.261 C 
BRANCH  32  33
ATOM     33  O   UNL A   1      45.957  24.254  37.610  1.00  0.00    -0.460 OA
BRANCH  33  34
ATOM     34  C   UNL A   1      46.500  25.428  37.185  1.00  0.00     0.338 C 
ATOM     35  O   UNL A   1      47.604  25.860  37.422  1.00  0.00    -0.246 OA
BRANCH  34  36
ATOM     36  C   UNL A   1      45.587  26.029  36.191  1.00  0.00     0.060 A 
ATOM     37  C   UNL A   1      44.409  25.381  35.822  1.00  0.00     0.016 A 
ATOM     38  C   UNL A   1      45.927  27.268  35.630  1.00  0.00     0.016 A 
ATOM     39  C   UNL A   1      43.555  25.992  34.901  1.00  0.00     0.010 A 
ATOM     40  C   UNL A   1      45.081  27.868  34.696  1.00  0.00     0.010 A 
ATOM     41  C   UNL A   1      43.876  27.243  34.343  1.00  0.00    -0.014 A 
BRANCH  41  42
ATOM     42  C   UNL A   1      42.867  27.967  33.533  1.00  0.00     0.031 A 
ATOM     43  C   UNL A   1      42.690  27.716  32.069  1.00  0.00     0.074 A 
ATOM     44  C   UNL A   1      42.094  28.871  34.161  1.00  0.00     0.049 A 
ATOM     45  N   UNL A   1      41.775  28.190  31.261  1.00  0.00    -0.248 NA
ATOM     46  C   UNL A   1      43.665  26.827  31.422  1.00  0.00     0.031 C 
ATOM     47  C   UNL A   1      42.208  29.228  35.576  1.00  0.00     0.029 A 
ATOM     48  N   UNL A   1      41.058  29.644  33.703  1.00  0.00    -0.354 N 
ATOM     49  C   UNL A   1      42.043  27.639  30.017  1.00  0.00     0.074 A 
ATOM     50  C   UNL A   1      43.239  26.834  30.164  1.00  0.00     0.031 C 
ATOM     51  C   UNL A   1      41.258  30.124  35.879  1.00  0.00     0.029 A 
ATOM     52  C   UNL A   1      40.483  30.422  34.678  1.00  0.00     0.049 A 
ATOM     53  H   UNL A   1      40.755  29.642  32.766  1.00  0.00     0.167 HD
ATOM     54  C   UNL A   1      41.337  27.779  28.868  1.00  0.00     0.037 A 
ATOM     55  C   UNL A   1      39.441  31.270  34.616  1.00  0.00     0.037 A 
ATOM     56  C   UNL A   1      40.155  28.595  28.729  1.00  0.00     0.049 A 
ATOM     57  C   UNL A   1      38.701  31.435  33.319  1.00  0.00     0.074 A 
ATOM     58  C   UNL A   1      39.346  28.757  27.617  1.00  0.00     0.029 A 
ATOM     59  N   UNL A   1      39.624  29.402  29.725  1.00  0.00    -0.354 N 
ATOM     60  N   UNL A   1      38.901  30.834  32.172  1.00  0.00    -0.248 NA
ATOM     61  C   UNL A   1      37.582  32.389  33.309  1.00  0.00     0.031 C 
ATOM     62  C   UNL A   1      38.363  29.704  27.921  1.00  0.00     0.029 A 
ATOM     63  C   UNL A   1      38.520  30.090  29.242  1.00  0.00     0.049 A 
ATOM     64  H   UNL A   1      39.977  29.476  30.642  1.00  0.00     0.167 HD
ATOM     65  C   UNL A   1      37.928  31.320  31.310  1.00  0.00     0.074 A 
ATOM     66  C   UNL A   1      37.122  32.251  32.073  1.00  0.00     0.031 C 
ATOM     67  C   UNL A   1      37.726  31.022  30.004  1.00  0.00     0.037 A 
BRANCH  54  68
ATOM     68  C   UNL A   1      41.802  27.022  27.657  1.00  0.00     0.064 A 
ATOM     69  C   UNL A   1      42.669  27.607  26.723  1.00  0.00     0.173 A 
ATOM     70  C   UNL A   1      41.469  25.670  27.484  1.00  0.00     0.173 A 
ATOM     71  F   UNL A   1      43.021  28.896  26.843  1.00  0.00    -0.203 F 
ATOM     72  C   UNL A   1      43.175  26.871  25.654  1.00  0.00     0.198 A 
ATOM     73  C   UNL A   1      41.997  24.930  26.429  1.00  0.00     0.198 A 
ATOM     74  F   UNL A   1      40.655  25.056  28.357  1.00  0.00    -0.203 F 
ATOM     75  F   UNL A   1      43.984  27.459  24.761  1.00  0.00    -0.200 F 
ATOM     76  C   UNL A   1      42.847  25.531  25.514  1.00  0.00     0.200 A 
ATOM     77  F   UNL A   1      41.695  23.629  26.307  1.00  0.00    -0.200 F 
ATOM     78  F   UNL A   1      43.353  24.818  24.497  1.00  0.00    -0.200 F 
ENDBRANCH  54  68
BRANCH  55  79
ATOM     79  C   UNL A   1      39.014  31.990  35.843  1.00  0.00     0.064 A 
ATOM     80  C   UNL A   1      39.400  33.318  36.068  1.00  0.00     0.173 A 
ATOM     81  C   UNL A   1      38.183  31.378  36.793  1.00  0.00     0.173 A 
ATOM     82  F   UNL A   1      40.207  33.938  35.195  1.00  0.00    -0.203 F 
ATOM     83  C   UNL A   1      38.977  34.006  37.203  1.00  0.00     0.198 A 
ATOM     84  C   UNL A   1      37.737  32.077  37.912  1.00  0.00     0.198 A 
ATOM     85  F   UNL A   1      37.780  30.112  36.617  1.00  0.00    -0.203 F 
ATOM     86  F   UNL A   1      39.385  35.265  37.411  1.00  0.00    -0.200 F 
ATOM     87  C   UNL A   1      38.138  33.388  38.119  1.00  0.00     0.200 A 
ATOM     88  F   UNL A   1      36.912  31.482  38.785  1.00  0.00    -0.200 F 
ATOM     89  F   UNL A   1      37.719  34.055  39.202  1.00  0.00    -0.200 F 
ENDBRANCH  55  79
BRANCH  67  90
ATOM     90  C   UNL A   1      36.585  31.703  29.304  1.00  0.00     0.064 A 
ATOM     91  C   UNL A   1      35.429  31.001  28.930  1.00  0.00     0.173 A 
ATOM     92  C   UNL A   1      36.618  33.087  29.063  1.00  0.00     0.173 A 
ATOM     93  F   UNL A   1      35.353  29.676  29.124  1.00  0.00    -0.203 F 
ATOM     94  C   UNL A   1      34.357  31.654  28.329  1.00  0.00     0.198 A 
ATOM     95  C   UNL A   1      35.531  33.741  28.490  1.00  0.00     0.198 A 
ATOM     96  F   UNL A   1      37.696  33.807  29.405  1.00  0.00    -0.203 F 
ATOM     97  F   UNL A   1      33.278  30.956  27.947  1.00  0.00    -0.200 F 
ATOM     98  C   UNL A   1      34.404  33.024  28.119  1.00  0.00     0.200 A 
ATOM     99  F   UNL A   1      35.572  35.067  28.301  1.00  0.00    -0.200 F 
ATOM    100  F   UNL A   1      33.363  33.653  27.556  1.00  0.00    -0.200 F 
ENDBRANCH  67  90
ENDBRANCH  41  42
ENDBRANCH  34  36
ENDBRANCH  33  34
ENDBRANCH  32  33
ENDBRANCH  31  32
ENDBRANCH  30  31
ENDBRANCH  29  30
ENDBRANCH   1  29
TORSDOF 21
ENDMDL
