MODEL 1
REMARK VINA RESULT:     -12.0      0.000      0.000
REMARK SMILES CC1(C)[C@H](C(=O)Nc2cccc3[nH]ccc23)[C@H]1C(=O)OCCOCCOCCOC(=O)c1ccc(-c2c3nc(c(-c4c(F)c(F)c(F)c(F)c4F)c4ccc([nH]4)c(-c4c(F)c(F)c(F)c(F)c4F)c4nc(c(-c5c(F)c(F)c(F)c(F)c5F)c5ccc2[nH]5)C=C4)C=C3)cc1
REMARK SMILES IDX 24 1 23 2 22 3 21 4 20 5 18 6 19 7 17 8 1 9 2 10 3 11 4 12
REMARK SMILES IDX 5 13 6 14 7 15 8 17 9 18 16 19 10 20 12 21 15 22 11 23 13 24
REMARK SMILES IDX 14 25 25 27 26 28 27 29 28 30 29 31 30 32 31 33 32 34 33 35
REMARK SMILES IDX 94 36 34 37 93 38 35 39 36 40 37 41 87 42 38 43 92 44 86 45
REMARK SMILES IDX 88 46 39 47 91 48 85 49 84 50 40 52 72 53 52 54 71 55 53 56
REMARK SMILES IDX 56 57 70 58 89 59 54 60 55 61 69 63 90 64 57 65 41 66 42 67
REMARK SMILES IDX 50 68 43 69 44 70 48 71 51 72 45 73 46 74 49 75 47 76 73 77
REMARK SMILES IDX 74 78 82 79 75 80 76 81 80 82 83 83 77 84 78 85 81 86 79 87
REMARK SMILES IDX 58 88 59 89 67 90 60 91 61 92 65 93 68 94 62 95 63 96 66 97
REMARK SMILES IDX 64 98
REMARK H PARENT 7 16 13 26 88 51 56 62
REMARK Flexibility Score: inf
ROOT
ATOM      1  C   UNL A   1      39.861  21.827  26.255  1.00  0.00     0.188 C 
ENDROOT
BRANCH   1   2
ATOM      2  O   UNL A   1      38.452  22.038  26.177  1.00  0.00    -0.376 OA
BRANCH   2   3
ATOM      3  C   UNL A   1      37.731  21.494  25.069  1.00  0.00     0.202 C 
BRANCH   3   4
ATOM      4  C   UNL A   1      36.389  22.144  24.704  1.00  0.00     0.261 C 
BRANCH   4   5
ATOM      5  O   UNL A   1      35.837  22.886  25.802  1.00  0.00    -0.463 OA
BRANCH   5   6
ATOM      6  C   UNL A   1      34.684  22.413  26.332  1.00  0.00     0.310 C 
ATOM      7  O   UNL A   1      34.586  21.645  27.279  1.00  0.00    -0.252 OA
BRANCH   6   8
ATOM      8  C   UNL A   1      33.485  23.070  25.753  1.00  0.00     0.118 C 
ATOM      9  C   UNL A   1      32.706  21.045  24.233  1.00  0.00     0.013 C 
ATOM     10  C   UNL A   1      32.510  22.453  24.746  1.00  0.00    -0.009 C 
ATOM     11  C   UNL A   1      31.950  23.360  23.679  1.00  0.00     0.013 C 
ATOM     12  C   UNL A   1      32.133  22.593  26.219  1.00  0.00     0.100 C 
BRANCH  12  13
ATOM     13  C   UNL A   1      31.117  23.500  26.838  1.00  0.00     0.228 C 
ATOM     14  O   UNL A   1      30.212  22.993  27.492  1.00  0.00    -0.274 OA
ATOM     15  N   UNL A   1      31.414  24.839  26.939  1.00  0.00    -0.325 N 
ATOM     16  H   UNL A   1      31.824  25.142  27.781  1.00  0.00     0.169 HD
BRANCH  15  17
ATOM     17  C   UNL A   1      31.189  25.818  25.951  1.00  0.00     0.050 A 
ATOM     18  C   UNL A   1      29.980  25.896  25.250  1.00  0.00     0.027 A 
ATOM     19  C   UNL A   1      32.178  26.791  25.673  1.00  0.00     0.023 A 
ATOM     20  C   UNL A   1      29.806  26.780  24.186  1.00  0.00     0.004 A 
ATOM     21  C   UNL A   1      31.973  27.675  24.608  1.00  0.00     0.047 A 
ATOM     22  C   UNL A   1      33.446  27.128  26.237  1.00  0.00     0.030 A 
ATOM     23  C   UNL A   1      30.818  27.664  23.821  1.00  0.00     0.027 A 
ATOM     24  N   UNL A   1      33.074  28.495  24.531  1.00  0.00    -0.361 N 
ATOM     25  C   UNL A   1      33.958  28.193  25.532  1.00  0.00     0.083 A 
ATOM     26  H   UNL A   1      33.209  29.197  23.855  1.00  0.00     0.166 HD
ENDBRANCH  15  17
ENDBRANCH  12  13
ENDBRANCH   6   8
ENDBRANCH   5   6
ENDBRANCH   4   5
ENDBRANCH   3   4
ENDBRANCH   2   3
ENDBRANCH   1   2
BRANCH   1  27
ATOM     27  C   UNL A   1      40.395  20.382  26.302  1.00  0.00     0.188 C 
BRANCH  27  28
ATOM     28  O   UNL A   1      41.711  20.249  25.812  1.00  0.00    -0.376 OA
BRANCH  28  29
ATOM     29  C   UNL A   1      42.678  21.181  26.258  1.00  0.00     0.202 C 
BRANCH  29  30
ATOM     30  C   UNL A   1      43.537  21.921  25.216  1.00  0.00     0.261 C 
BRANCH  30  31
ATOM     31  O   UNL A   1      43.062  23.204  24.776  1.00  0.00    -0.460 OA
BRANCH  31  32
ATOM     32  C   UNL A   1      43.867  24.268  24.997  1.00  0.00     0.338 C 
ATOM     33  O   UNL A   1      44.910  24.533  24.430  1.00  0.00    -0.246 OA
BRANCH  32  34
ATOM     34  C   UNL A   1      43.165  25.184  25.923  1.00  0.00     0.060 A 
ATOM     35  C   UNL A   1      43.710  26.453  26.161  1.00  0.00     0.016 A 
ATOM     36  C   UNL A   1      41.990  24.790  26.568  1.00  0.00     0.016 A 
ATOM     37  C   UNL A   1      43.102  27.317  27.071  1.00  0.00     0.010 A 
ATOM     38  C   UNL A   1      41.391  25.651  27.495  1.00  0.00     0.010 A 
ATOM     39  C   UNL A   1      41.963  26.905  27.776  1.00  0.00    -0.014 A 
BRANCH  39  40
ATOM     40  C   UNL A   1      41.491  27.708  28.933  1.00  0.00     0.031 A 
ATOM     41  C   UNL A   1      42.244  27.609  30.232  1.00  0.00     0.074 A 
ATOM     42  C   UNL A   1      40.441  28.542  28.826  1.00  0.00     0.049 A 
ATOM     43  N   UNL A   1      42.015  28.200  31.376  1.00  0.00    -0.248 NA
ATOM     44  C   UNL A   1      43.419  26.723  30.237  1.00  0.00     0.031 C 
ATOM     45  C   UNL A   1      39.647  28.753  27.620  1.00  0.00     0.029 A 
ATOM     46  N   UNL A   1      39.857  29.362  29.762  1.00  0.00    -0.354 N 
ATOM     47  C   UNL A   1      43.010  27.753  32.237  1.00  0.00     0.074 A 
ATOM     48  C   UNL A   1      43.830  26.822  31.492  1.00  0.00     0.031 C 
ATOM     49  C   UNL A   1      38.666  29.633  27.892  1.00  0.00     0.029 A 
ATOM     50  C   UNL A   1      38.753  30.032  29.296  1.00  0.00     0.049 A 
ATOM     51  H   UNL A   1      40.200  29.461  30.680  1.00  0.00     0.167 HD
ATOM     52  C   UNL A   1      43.228  28.092  33.531  1.00  0.00     0.037 A 
ATOM     53  C   UNL A   1      37.902  30.856  29.938  1.00  0.00     0.037 A 
ATOM     54  C   UNL A   1      42.411  29.013  34.276  1.00  0.00     0.049 A 
ATOM     55  C   UNL A   1      38.128  31.170  31.397  1.00  0.00     0.074 A 
ATOM     56  C   UNL A   1      42.555  29.426  35.589  1.00  0.00     0.029 A 
ATOM     57  N   UNL A   1      41.290  29.658  33.774  1.00  0.00    -0.354 N 
ATOM     58  N   UNL A   1      39.088  30.766  32.193  1.00  0.00    -0.248 NA
ATOM     59  C   UNL A   1      37.152  32.061  32.043  1.00  0.00     0.031 C 
ATOM     60  C   UNL A   1      41.492  30.281  35.897  1.00  0.00     0.029 A 
ATOM     61  C   UNL A   1      40.720  30.448  34.758  1.00  0.00     0.049 A 
ATOM     62  H   UNL A   1      40.950  29.565  32.855  1.00  0.00     0.167 HD
ATOM     63  C   UNL A   1      38.848  31.373  33.422  1.00  0.00     0.074 A 
ATOM     64  C   UNL A   1      37.663  32.187  33.260  1.00  0.00     0.031 C 
ATOM     65  C   UNL A   1      39.548  31.267  34.579  1.00  0.00     0.037 A 
BRANCH  52  66
ATOM     66  C   UNL A   1      44.383  27.438  34.232  1.00  0.00     0.064 A 
ATOM     67  C   UNL A   1      44.253  26.195  34.868  1.00  0.00     0.173 A 
ATOM     68  C   UNL A   1      45.645  28.052  34.242  1.00  0.00     0.173 A 
ATOM     69  F   UNL A   1      43.064  25.574  34.900  1.00  0.00    -0.203 F 
ATOM     70  C   UNL A   1      45.337  25.602  35.511  1.00  0.00     0.198 A 
ATOM     71  C   UNL A   1      46.733  27.443  34.860  1.00  0.00     0.198 A 
ATOM     72  F   UNL A   1      45.823  29.240  33.646  1.00  0.00    -0.203 F 
ATOM     73  F   UNL A   1      45.178  24.437  36.154  1.00  0.00    -0.200 F 
ATOM     74  C   UNL A   1      46.577  26.223  35.501  1.00  0.00     0.200 A 
ATOM     75  F   UNL A   1      47.934  28.039  34.838  1.00  0.00    -0.200 F 
ATOM     76  F   UNL A   1      47.621  25.649  36.114  1.00  0.00    -0.200 F 
ENDBRANCH  52  66
BRANCH  53  77
ATOM     77  C   UNL A   1      36.749  31.451  29.211  1.00  0.00     0.064 A 
ATOM     78  C   UNL A   1      36.725  32.815  28.890  1.00  0.00     0.173 A 
ATOM     79  C   UNL A   1      35.636  30.677  28.850  1.00  0.00     0.173 A 
ATOM     80  F   UNL A   1      37.759  33.600  29.229  1.00  0.00    -0.203 F 
ATOM     81  C   UNL A   1      35.623  33.387  28.258  1.00  0.00     0.198 A 
ATOM     82  C   UNL A   1      34.548  31.244  28.189  1.00  0.00     0.198 A 
ATOM     83  F   UNL A   1      35.610  29.366  29.134  1.00  0.00    -0.203 F 
ATOM     84  F   UNL A   1      35.605  34.704  28.009  1.00  0.00    -0.200 F 
ATOM     85  C   UNL A   1      34.537  32.600  27.903  1.00  0.00     0.200 A 
ATOM     86  F   UNL A   1      33.508  30.477  27.836  1.00  0.00    -0.200 F 
ATOM     87  F   UNL A   1      33.480  33.151  27.293  1.00  0.00    -0.200 F 
ENDBRANCH  53  77
BRANCH  65  88
ATOM     88  C   UNL A   1      39.082  32.084  35.751  1.00  0.00     0.064 A 
ATOM     89  C   UNL A   1      38.273  31.542  36.760  1.00  0.00     0.173 A 
ATOM     90  C   UNL A   1      39.489  33.422  35.887  1.00  0.00     0.173 A 
ATOM     91  F   UNL A   1      37.846  30.273  36.672  1.00  0.00    -0.203 F 
ATOM     92  C   UNL A   1      37.866  32.315  37.845  1.00  0.00     0.198 A 
ATOM     93  C   UNL A   1      39.107  34.181  36.990  1.00  0.00     0.198 A 
ATOM     94  F   UNL A   1      40.271  33.988  34.956  1.00  0.00    -0.203 F 
ATOM     95  F   UNL A   1      37.050  31.789  38.771  1.00  0.00    -0.200 F 
ATOM     96  C   UNL A   1      38.289  33.630  37.963  1.00  0.00     0.200 A 
ATOM     97  F   UNL A   1      39.531  35.447  37.108  1.00  0.00    -0.200 F 
ATOM     98  F   UNL A   1      37.902  34.369  39.011  1.00  0.00    -0.200 F 
ENDBRANCH  65  88
ENDBRANCH  39  40
ENDBRANCH  32  34
ENDBRANCH  31  32
ENDBRANCH  30  31
ENDBRANCH  29  30
ENDBRANCH  28  29
ENDBRANCH  27  28
ENDBRANCH   1  27
TORSDOF 19
ENDMDL
MODEL 2
REMARK VINA RESULT:     -11.3      1.209      1.886
REMARK SMILES CC1(C)[C@H](C(=O)Nc2cccc3[nH]ccc23)[C@H]1C(=O)OCCOCCOCCOC(=O)c1ccc(-c2c3nc(c(-c4c(F)c(F)c(F)c(F)c4F)c4ccc([nH]4)c(-c4c(F)c(F)c(F)c(F)c4F)c4nc(c(-c5c(F)c(F)c(F)c(F)c5F)c5ccc2[nH]5)C=C4)C=C3)cc1
REMARK SMILES IDX 24 1 23 2 22 3 21 4 20 5 18 6 19 7 17 8 1 9 2 10 3 11 4 12
REMARK SMILES IDX 5 13 6 14 7 15 8 17 9 18 16 19 10 20 12 21 15 22 11 23 13 24
REMARK SMILES IDX 14 25 25 27 26 28 27 29 28 30 29 31 30 32 31 33 32 34 33 35
REMARK SMILES IDX 94 36 34 37 93 38 35 39 36 40 37 41 87 42 38 43 92 44 86 45
REMARK SMILES IDX 88 46 39 47 91 48 85 49 84 50 40 52 72 53 52 54 71 55 53 56
REMARK SMILES IDX 56 57 70 58 89 59 54 60 55 61 69 63 90 64 57 65 41 66 42 67
REMARK SMILES IDX 50 68 43 69 44 70 48 71 51 72 45 73 46 74 49 75 47 76 73 77
REMARK SMILES IDX 74 78 82 79 75 80 76 81 80 82 83 83 77 84 78 85 81 86 79 87
REMARK SMILES IDX 58 88 59 89 67 90 60 91 61 92 65 93 68 94 62 95 63 96 66 97
REMARK SMILES IDX 64 98
REMARK H PARENT 7 16 13 26 88 51 56 62
REMARK Flexibility Score: inf
ROOT
ATOM      1  C   UNL A   1      41.531  21.204  26.615  1.00  0.00     0.188 C 
ENDROOT
BRANCH   1   2
ATOM      2  O   UNL A   1      40.547  22.041  26.011  1.00  0.00    -0.376 OA
BRANCH   2   3
ATOM      3  C   UNL A   1      39.185  21.920  26.428  1.00  0.00     0.202 C 
BRANCH   3   4
ATOM      4  C   UNL A   1      38.096  22.382  25.448  1.00  0.00     0.261 C 
BRANCH   4   5
ATOM      5  O   UNL A   1      36.780  22.044  25.912  1.00  0.00    -0.463 OA
BRANCH   5   6
ATOM      6  C   UNL A   1      36.103  21.121  25.188  1.00  0.00     0.310 C 
ATOM      7  O   UNL A   1      36.446  19.962  24.993  1.00  0.00    -0.252 OA
BRANCH   6   8
ATOM      8  C   UNL A   1      34.761  21.601  24.774  1.00  0.00     0.118 C 
ATOM      9  C   UNL A   1      33.737  21.844  27.205  1.00  0.00     0.013 C 
ATOM     10  C   UNL A   1      33.599  21.959  25.705  1.00  0.00    -0.009 C 
ATOM     11  C   UNL A   1      32.207  21.600  25.246  1.00  0.00     0.013 C 
ATOM     12  C   UNL A   1      34.426  23.049  25.027  1.00  0.00     0.100 C 
BRANCH  12  13
ATOM     13  C   UNL A   1      34.014  23.993  23.943  1.00  0.00     0.228 C 
ATOM     14  O   UNL A   1      34.542  23.877  22.843  1.00  0.00    -0.274 OA
ATOM     15  N   UNL A   1      32.851  24.708  24.110  1.00  0.00    -0.325 N 
ATOM     16  H   UNL A   1      32.030  24.318  23.733  1.00  0.00     0.169 HD
BRANCH  15  17
ATOM     17  C   UNL A   1      32.723  25.947  24.770  1.00  0.00     0.050 A 
ATOM     18  C   UNL A   1      32.276  26.035  26.093  1.00  0.00     0.027 A 
ATOM     19  C   UNL A   1      33.096  27.145  24.117  1.00  0.00     0.023 A 
ATOM     20  C   UNL A   1      32.027  27.265  26.702  1.00  0.00     0.004 A 
ATOM     21  C   UNL A   1      32.847  28.365  24.754  1.00  0.00     0.047 A 
ATOM     22  C   UNL A   1      33.700  27.462  22.862  1.00  0.00     0.030 A 
ATOM     23  C   UNL A   1      32.275  28.457  26.026  1.00  0.00     0.027 A 
ATOM     24  N   UNL A   1      33.273  29.367  23.913  1.00  0.00    -0.361 N 
ATOM     25  C   UNL A   1      33.819  28.831  22.779  1.00  0.00     0.083 A 
ATOM     26  H   UNL A   1      33.195  30.331  24.099  1.00  0.00     0.166 HD
ENDBRANCH  15  17
ENDBRANCH  12  13
ENDBRANCH   6   8
ENDBRANCH   5   6
ENDBRANCH   4   5
ENDBRANCH   3   4
ENDBRANCH   2   3
ENDBRANCH   1   2
BRANCH   1  27
ATOM     27  C   UNL A   1      42.628  21.853  27.483  1.00  0.00     0.188 C 
BRANCH  27  28
ATOM     28  O   UNL A   1      43.834  22.085  26.791  1.00  0.00    -0.376 OA
BRANCH  28  29
ATOM     29  C   UNL A   1      43.915  21.653  25.446  1.00  0.00     0.202 C 
BRANCH  29  30
ATOM     30  C   UNL A   1      43.918  22.705  24.322  1.00  0.00     0.261 C 
BRANCH  30  31
ATOM     31  O   UNL A   1      43.299  23.969  24.616  1.00  0.00    -0.460 OA
BRANCH  31  32
ATOM     32  C   UNL A   1      44.105  24.967  25.041  1.00  0.00     0.338 C 
ATOM     33  O   UNL A   1      45.204  25.261  24.610  1.00  0.00    -0.246 OA
BRANCH  32  34
ATOM     34  C   UNL A   1      43.342  25.787  26.007  1.00  0.00     0.060 A 
ATOM     35  C   UNL A   1      43.775  27.093  26.275  1.00  0.00     0.016 A 
ATOM     36  C   UNL A   1      42.221  25.269  26.660  1.00  0.00     0.016 A 
ATOM     37  C   UNL A   1      43.109  27.871  27.222  1.00  0.00     0.010 A 
ATOM     38  C   UNL A   1      41.565  26.044  27.624  1.00  0.00     0.010 A 
ATOM     39  C   UNL A   1      42.026  27.336  27.933  1.00  0.00    -0.014 A 
BRANCH  39  40
ATOM     40  C   UNL A   1      41.507  28.059  29.123  1.00  0.00     0.031 A 
ATOM     41  C   UNL A   1      42.219  27.885  30.437  1.00  0.00     0.074 A 
ATOM     42  C   UNL A   1      40.451  28.887  29.034  1.00  0.00     0.049 A 
ATOM     43  N   UNL A   1      41.945  28.399  31.609  1.00  0.00    -0.248 NA
ATOM     44  C   UNL A   1      43.404  27.013  30.425  1.00  0.00     0.031 C 
ATOM     45  C   UNL A   1      39.694  29.166  27.818  1.00  0.00     0.029 A 
ATOM     46  N   UNL A   1      39.827  29.640  30.000  1.00  0.00    -0.354 N 
ATOM     47  C   UNL A   1      42.917  27.908  32.472  1.00  0.00     0.074 A 
ATOM     48  C   UNL A   1      43.772  27.035  31.697  1.00  0.00     0.031 C 
ATOM     49  C   UNL A   1      38.694  30.017  28.112  1.00  0.00     0.029 A 
ATOM     50  C   UNL A   1      38.730  30.326  29.541  1.00  0.00     0.049 A 
ATOM     51  H   UNL A   1      40.138  29.683  30.933  1.00  0.00     0.167 HD
ATOM     52  C   UNL A   1      43.088  28.166  33.791  1.00  0.00     0.037 A 
ATOM     53  C   UNL A   1      37.848  31.099  30.205  1.00  0.00     0.037 A 
ATOM     54  C   UNL A   1      42.236  29.029  34.565  1.00  0.00     0.049 A 
ATOM     55  C   UNL A   1      38.022  31.321  31.688  1.00  0.00     0.074 A 
ATOM     56  C   UNL A   1      42.331  29.358  35.906  1.00  0.00     0.029 A 
ATOM     57  N   UNL A   1      41.124  29.692  34.069  1.00  0.00    -0.354 N 
ATOM     58  N   UNL A   1      38.961  30.877  32.489  1.00  0.00    -0.248 NA
ATOM     59  C   UNL A   1      37.015  32.158  32.356  1.00  0.00     0.031 C 
ATOM     60  C   UNL A   1      41.248  30.181  36.232  1.00  0.00     0.029 A 
ATOM     61  C   UNL A   1      40.513  30.413  35.081  1.00  0.00     0.049 A 
ATOM     62  H   UNL A   1      40.816  29.655  33.135  1.00  0.00     0.167 HD
ATOM     63  C   UNL A   1      38.674  31.402  33.745  1.00  0.00     0.074 A 
ATOM     64  C   UNL A   1      37.484  32.212  33.595  1.00  0.00     0.031 C 
ATOM     65  C   UNL A   1      39.336  31.228  34.916  1.00  0.00     0.037 A 
BRANCH  52  66
ATOM     66  C   UNL A   1      44.227  27.480  34.487  1.00  0.00     0.064 A 
ATOM     67  C   UNL A   1      45.493  28.074  34.593  1.00  0.00     0.173 A 
ATOM     68  C   UNL A   1      44.040  26.223  35.083  1.00  0.00     0.173 A 
ATOM     69  F   UNL A   1      45.728  29.268  34.029  1.00  0.00    -0.203 F 
ATOM     70  C   UNL A   1      46.537  27.424  35.247  1.00  0.00     0.198 A 
ATOM     71  C   UNL A   1      45.078  25.589  35.760  1.00  0.00     0.198 A 
ATOM     72  F   UNL A   1      42.848  25.612  35.012  1.00  0.00    -0.203 F 
ATOM     73  F   UNL A   1      47.751  27.990  35.294  1.00  0.00    -0.200 F 
ATOM     74  C   UNL A   1      46.327  26.186  35.836  1.00  0.00     0.200 A 
ATOM     75  F   UNL A   1      44.869  24.398  36.339  1.00  0.00    -0.200 F 
ATOM     76  F   UNL A   1      47.331  25.565  36.470  1.00  0.00    -0.200 F 
ENDBRANCH  52  66
BRANCH  53  77
ATOM     77  C   UNL A   1      36.712  31.727  29.479  1.00  0.00     0.064 A 
ATOM     78  C   UNL A   1      36.688  33.106  29.235  1.00  0.00     0.173 A 
ATOM     79  C   UNL A   1      35.616  30.968  29.044  1.00  0.00     0.173 A 
ATOM     80  F   UNL A   1      37.706  33.877  29.647  1.00  0.00    -0.203 F 
ATOM     81  C   UNL A   1      35.600  33.707  28.604  1.00  0.00     0.198 A 
ATOM     82  C   UNL A   1      34.543  31.565  28.384  1.00  0.00     0.198 A 
ATOM     83  F   UNL A   1      35.591  29.643  29.254  1.00  0.00    -0.203 F 
ATOM     84  F   UNL A   1      35.580  35.035  28.429  1.00  0.00    -0.200 F 
ATOM     85  C   UNL A   1      34.531  32.935  28.174  1.00  0.00     0.200 A 
ATOM     86  F   UNL A   1      33.519  30.813  27.959  1.00  0.00    -0.200 F 
ATOM     87  F   UNL A   1      33.487  33.513  27.565  1.00  0.00    -0.200 F 
ENDBRANCH  53  77
BRANCH  65  88
ATOM     88  C   UNL A   1      38.822  31.965  36.121  1.00  0.00     0.064 A 
ATOM     89  C   UNL A   1      38.009  31.343  37.080  1.00  0.00     0.173 A 
ATOM     90  C   UNL A   1      39.187  33.304  36.341  1.00  0.00     0.173 A 
ATOM     91  F   UNL A   1      37.621  30.069  36.911  1.00  0.00    -0.203 F 
ATOM     92  C   UNL A   1      37.557  32.041  38.197  1.00  0.00     0.198 A 
ATOM     93  C   UNL A   1      38.760  33.988  37.476  1.00  0.00     0.198 A 
ATOM     94  F   UNL A   1      39.971  33.944  35.461  1.00  0.00    -0.203 F 
ATOM     95  F   UNL A   1      36.738  31.441  39.073  1.00  0.00    -0.200 F 
ATOM     96  C   UNL A   1      37.938  33.359  38.398  1.00  0.00     0.200 A 
ATOM     97  F   UNL A   1      39.143  35.256  37.675  1.00  0.00    -0.200 F 
ATOM     98  F   UNL A   1      37.508  34.026  39.477  1.00  0.00    -0.200 F 
ENDBRANCH  65  88
ENDBRANCH  39  40
ENDBRANCH  32  34
ENDBRANCH  31  32
ENDBRANCH  30  31
ENDBRANCH  29  30
ENDBRANCH  28  29
ENDBRANCH  27  28
ENDBRANCH   1  27
TORSDOF 19
ENDMDL
MODEL 3
REMARK VINA RESULT:     -11.2      3.599      9.021
REMARK SMILES CC1(C)[C@H](C(=O)Nc2cccc3[nH]ccc23)[C@H]1C(=O)OCCOCCOCCOC(=O)c1ccc(-c2c3nc(c(-c4c(F)c(F)c(F)c(F)c4F)c4ccc([nH]4)c(-c4c(F)c(F)c(F)c(F)c4F)c4nc(c(-c5c(F)c(F)c(F)c(F)c5F)c5ccc2[nH]5)C=C4)C=C3)cc1
REMARK SMILES IDX 24 1 23 2 22 3 21 4 20 5 18 6 19 7 17 8 1 9 2 10 3 11 4 12
REMARK SMILES IDX 5 13 6 14 7 15 8 17 9 18 16 19 10 20 12 21 15 22 11 23 13 24
REMARK SMILES IDX 14 25 25 27 26 28 27 29 28 30 29 31 30 32 31 33 32 34 33 35
REMARK SMILES IDX 94 36 34 37 93 38 35 39 36 40 37 41 87 42 38 43 92 44 86 45
REMARK SMILES IDX 88 46 39 47 91 48 85 49 84 50 40 52 72 53 52 54 71 55 53 56
REMARK SMILES IDX 56 57 70 58 89 59 54 60 55 61 69 63 90 64 57 65 41 66 42 67
REMARK SMILES IDX 50 68 43 69 44 70 48 71 51 72 45 73 46 74 49 75 47 76 73 77
REMARK SMILES IDX 74 78 82 79 75 80 76 81 80 82 83 83 77 84 78 85 81 86 79 87
REMARK SMILES IDX 58 88 59 89 67 90 60 91 61 92 65 93 68 94 62 95 63 96 66 97
REMARK SMILES IDX 64 98
REMARK H PARENT 7 16 13 26 88 51 56 62
REMARK Flexibility Score: inf
ROOT
ATOM      1  C   UNL A   1      33.859  29.318  27.276  1.00  0.00     0.188 C 
ENDROOT
BRANCH   1   2
ATOM      2  O   UNL A   1      32.868  28.327  27.542  1.00  0.00    -0.376 OA
BRANCH   2   3
ATOM      3  C   UNL A   1      32.399  27.511  26.467  1.00  0.00     0.202 C 
BRANCH   3   4
ATOM      4  C   UNL A   1      31.507  28.173  25.406  1.00  0.00     0.261 C 
BRANCH   4   5
ATOM      5  O   UNL A   1      30.697  27.212  24.713  1.00  0.00    -0.463 OA
BRANCH   5   6
ATOM      6  C   UNL A   1      30.448  27.463  23.405  1.00  0.00     0.310 C 
ATOM      7  O   UNL A   1      29.990  28.500  22.943  1.00  0.00    -0.252 OA
BRANCH   6   8
ATOM      8  C   UNL A   1      30.964  26.392  22.516  1.00  0.00     0.118 C 
ATOM      9  C   UNL A   1      33.431  27.327  22.274  1.00  0.00     0.013 C 
ATOM     10  C   UNL A   1      32.383  26.287  21.951  1.00  0.00    -0.009 C 
ATOM     11  C   UNL A   1      32.532  25.768  20.543  1.00  0.00     0.013 C 
ATOM     12  C   UNL A   1      31.930  25.397  23.106  1.00  0.00     0.100 C 
BRANCH  12  13
ATOM     13  C   UNL A   1      31.684  23.921  23.104  1.00  0.00     0.228 C 
ATOM     14  O   UNL A   1      30.533  23.526  23.254  1.00  0.00    -0.274 OA
ATOM     15  N   UNL A   1      32.668  23.098  22.608  1.00  0.00    -0.325 N 
ATOM     16  H   UNL A   1      32.606  22.853  21.657  1.00  0.00     0.169 HD
BRANCH  15  17
ATOM     17  C   UNL A   1      33.757  22.573  23.332  1.00  0.00     0.050 A 
ATOM     18  C   UNL A   1      35.019  23.177  23.308  1.00  0.00     0.027 A 
ATOM     19  C   UNL A   1      33.585  21.432  24.150  1.00  0.00     0.023 A 
ATOM     20  C   UNL A   1      36.126  22.587  23.918  1.00  0.00     0.004 A 
ATOM     21  C   UNL A   1      34.710  20.867  24.761  1.00  0.00     0.047 A 
ATOM     22  C   UNL A   1      32.470  20.630  24.539  1.00  0.00     0.030 A 
ATOM     23  C   UNL A   1      35.996  21.396  24.628  1.00  0.00     0.027 A 
ATOM     24  N   UNL A   1      34.287  19.769  25.474  1.00  0.00    -0.361 N 
ATOM     25  C   UNL A   1      32.929  19.635  25.372  1.00  0.00     0.083 A 
ATOM     26  H   UNL A   1      34.875  19.166  25.983  1.00  0.00     0.166 HD
ENDBRANCH  15  17
ENDBRANCH  12  13
ENDBRANCH   6   8
ENDBRANCH   5   6
ENDBRANCH   4   5
ENDBRANCH   3   4
ENDBRANCH   2   3
ENDBRANCH   1   2
BRANCH   1  27
ATOM     27  C   UNL A   1      33.438  30.800  27.237  1.00  0.00     0.188 C 
BRANCH  27  28
ATOM     28  O   UNL A   1      32.048  30.990  27.095  1.00  0.00    -0.376 OA
BRANCH  28  29
ATOM     29  C   UNL A   1      31.580  32.312  26.905  1.00  0.00     0.202 C 
BRANCH  29  30
ATOM     30  C   UNL A   1      32.528  33.489  27.196  1.00  0.00     0.261 C 
BRANCH  30  31
ATOM     31  O   UNL A   1      32.155  34.375  28.265  1.00  0.00    -0.460 OA
BRANCH  31  32
ATOM     32  C   UNL A   1      33.113  35.198  28.747  1.00  0.00     0.338 C 
ATOM     33  O   UNL A   1      33.027  36.398  28.934  1.00  0.00    -0.246 OA
BRANCH  32  34
ATOM     34  C   UNL A   1      34.243  34.362  29.205  1.00  0.00     0.060 A 
ATOM     35  C   UNL A   1      33.993  33.330  30.120  1.00  0.00     0.016 A 
ATOM     36  C   UNL A   1      35.543  34.603  28.753  1.00  0.00     0.016 A 
ATOM     37  C   UNL A   1      35.047  32.560  30.612  1.00  0.00     0.010 A 
ATOM     38  C   UNL A   1      36.602  33.842  29.263  1.00  0.00     0.010 A 
ATOM     39  C   UNL A   1      36.363  32.839  30.219  1.00  0.00    -0.014 A 
BRANCH  39  40
ATOM     40  C   UNL A   1      37.492  32.210  30.953  1.00  0.00     0.031 A 
ATOM     41  C   UNL A   1      38.262  31.109  30.276  1.00  0.00     0.074 A 
ATOM     42  C   UNL A   1      37.855  32.632  32.176  1.00  0.00     0.049 A 
ATOM     43  N   UNL A   1      39.272  30.404  30.719  1.00  0.00    -0.248 NA
ATOM     44  C   UNL A   1      37.836  30.758  28.912  1.00  0.00     0.031 C 
ATOM     45  C   UNL A   1      37.213  33.708  32.926  1.00  0.00     0.029 A 
ATOM     46  N   UNL A   1      38.856  32.192  33.009  1.00  0.00    -0.354 N 
ATOM     47  C   UNL A   1      39.596  29.524  29.694  1.00  0.00     0.074 A 
ATOM     48  C   UNL A   1      38.660  29.764  28.616  1.00  0.00     0.031 C 
ATOM     49  C   UNL A   1      37.824  33.834  34.118  1.00  0.00     0.029 A 
ATOM     50  C   UNL A   1      38.888  32.836  34.221  1.00  0.00     0.049 A 
ATOM     51  H   UNL A   1      39.492  31.483  32.758  1.00  0.00     0.167 HD
ATOM     52  C   UNL A   1      40.587  28.602  29.649  1.00  0.00     0.037 A 
ATOM     53  C   UNL A   1      39.675  32.628  35.295  1.00  0.00     0.037 A 
ATOM     54  C   UNL A   1      41.515  28.357  30.721  1.00  0.00     0.049 A 
ATOM     55  C   UNL A   1      40.733  31.552  35.245  1.00  0.00     0.074 A 
ATOM     56  C   UNL A   1      42.559  27.449  30.768  1.00  0.00     0.029 A 
ATOM     57  N   UNL A   1      41.504  29.017  31.940  1.00  0.00    -0.354 N 
ATOM     58  N   UNL A   1      41.050  30.746  34.261  1.00  0.00    -0.248 NA
ATOM     59  C   UNL A   1      41.545  31.363  36.457  1.00  0.00     0.031 C 
ATOM     60  C   UNL A   1      43.147  27.524  32.034  1.00  0.00     0.029 A 
ATOM     61  C   UNL A   1      42.509  28.521  32.755  1.00  0.00     0.049 A 
ATOM     62  H   UNL A   1      40.874  29.730  32.190  1.00  0.00     0.167 HD
ATOM     63  C   UNL A   1      42.113  29.976  34.723  1.00  0.00     0.074 A 
ATOM     64  C   UNL A   1      42.398  30.424  36.069  1.00  0.00     0.031 C 
ATOM     65  C   UNL A   1      42.792  28.988  34.089  1.00  0.00     0.037 A 
BRANCH  52  66
ATOM     66  C   UNL A   1      40.700  27.768  28.406  1.00  0.00     0.064 A 
ATOM     67  C   UNL A   1      41.488  28.168  27.317  1.00  0.00     0.173 A 
ATOM     68  C   UNL A   1      40.033  26.536  28.316  1.00  0.00     0.173 A 
ATOM     69  F   UNL A   1      42.134  29.344  27.348  1.00  0.00    -0.203 F 
ATOM     70  C   UNL A   1      41.584  27.379  26.173  1.00  0.00     0.198 A 
ATOM     71  C   UNL A   1      40.154  25.737  27.183  1.00  0.00     0.198 A 
ATOM     72  F   UNL A   1      39.268  26.106  29.330  1.00  0.00    -0.203 F 
ATOM     73  F   UNL A   1      42.305  27.804  25.126  1.00  0.00    -0.200 F 
ATOM     74  C   UNL A   1      40.923  26.162  26.110  1.00  0.00     0.200 A 
ATOM     75  F   UNL A   1      39.525  24.554  27.129  1.00  0.00    -0.200 F 
ATOM     76  F   UNL A   1      41.022  25.400  25.012  1.00  0.00    -0.200 F 
ENDBRANCH  52  66
BRANCH  53  77
ATOM     77  C   UNL A   1      39.501  33.454  36.519  1.00  0.00     0.064 A 
ATOM     78  C   UNL A   1      38.650  33.040  37.553  1.00  0.00     0.173 A 
ATOM     79  C   UNL A   1      40.154  34.686  36.666  1.00  0.00     0.173 A 
ATOM     80  F   UNL A   1      37.990  31.876  37.450  1.00  0.00    -0.203 F 
ATOM     81  C   UNL A   1      38.441  33.836  38.676  1.00  0.00     0.198 A 
ATOM     82  C   UNL A   1      39.969  35.468  37.805  1.00  0.00     0.198 A 
ATOM     83  F   UNL A   1      40.979  35.128  35.706  1.00  0.00    -0.203 F 
ATOM     84  F   UNL A   1      37.582  33.439  39.626  1.00  0.00    -0.200 F 
ATOM     85  C   UNL A   1      39.104  35.048  38.805  1.00  0.00     0.200 A 
ATOM     86  F   UNL A   1      40.622  36.630  37.931  1.00  0.00    -0.200 F 
ATOM     87  F   UNL A   1      38.904  35.812  39.887  1.00  0.00    -0.200 F 
ENDBRANCH  53  77
BRANCH  65  88
ATOM     88  C   UNL A   1      43.942  28.353  34.821  1.00  0.00     0.064 A 
ATOM     89  C   UNL A   1      45.254  28.834  34.701  1.00  0.00     0.173 A 
ATOM     90  C   UNL A   1      43.716  27.272  35.689  1.00  0.00     0.173 A 
ATOM     91  F   UNL A   1      45.525  29.856  33.874  1.00  0.00    -0.203 F 
ATOM     92  C   UNL A   1      46.301  28.239  35.400  1.00  0.00     0.198 A 
ATOM     93  C   UNL A   1      44.761  26.702  36.412  1.00  0.00     0.198 A 
ATOM     94  F   UNL A   1      42.479  26.779  35.849  1.00  0.00    -0.203 F 
ATOM     95  F   UNL A   1      47.554  28.683  35.230  1.00  0.00    -0.200 F 
ATOM     96  C   UNL A   1      46.053  27.180  36.261  1.00  0.00     0.200 A 
ATOM     97  F   UNL A   1      44.516  25.689  37.255  1.00  0.00    -0.200 F 
ATOM     98  F   UNL A   1      47.061  26.614  36.938  1.00  0.00    -0.200 F 
ENDBRANCH  65  88
ENDBRANCH  39  40
ENDBRANCH  32  34
ENDBRANCH  31  32
ENDBRANCH  30  31
ENDBRANCH  29  30
ENDBRANCH  28  29
ENDBRANCH  27  28
ENDBRANCH   1  27
TORSDOF 19
ENDMDL
