MODEL 1
REMARK VINA RESULT:     -13.5      0.000      0.000
REMARK SMILES Cc1ccc(S(=O)(=O)Nc2cc(C(=O)OCCOCCOCCOC(=O)c3ccc(-c4c5nc(c(-c6c(F)c(F)c(F)c(F)c6F)c6ccc([nH]6)c(-c6c(F)c(F)c(F)c(F)c6F)c6nc(c(-c7c(F)c(F)c(F)c(F)c7F)c7ccc4[nH]7)C=C6)C=C5)cc3)ccc2C)c(Br)c1
REMARK SMILES IDX 19 1 18 2 17 3 16 4 15 5 13 6 14 7 12 8 10 9 11 10 92 11
REMARK SMILES IDX 91 12 93 13 90 14 9 15 6 17 7 18 8 19 5 20 1 21 2 22 3 23
REMARK SMILES IDX 96 24 4 25 94 26 95 27 20 28 21 29 22 30 23 31 24 32 25 33
REMARK SMILES IDX 26 34 27 35 28 36 89 37 29 38 88 39 30 40 31 41 32 42 82 43
REMARK SMILES IDX 33 44 87 45 81 46 83 47 34 48 86 49 80 50 79 51 35 53 67 54
REMARK SMILES IDX 47 55 66 56 48 57 51 58 65 59 84 60 49 61 50 62 64 64 85 65
REMARK SMILES IDX 52 66 36 67 37 68 45 69 38 70 39 71 43 72 46 73 40 74 41 75
REMARK SMILES IDX 44 76 42 77 68 78 69 79 77 80 70 81 71 82 75 83 78 84 72 85
REMARK SMILES IDX 73 86 76 87 74 88 53 89 54 90 62 91 55 92 56 93 60 94 63 95
REMARK SMILES IDX 57 96 58 97 61 98 59 99
REMARK H PARENT 9 16 83 52 51 63
REMARK Flexibility Score: inf
ROOT
ATOM      1  C   UNL A   1      32.055  29.076  25.480  1.00  0.00     0.188 C 
ENDROOT
BRANCH   1   2
ATOM      2  O   UNL A   1      31.489  29.493  24.225  1.00  0.00    -0.376 OA
BRANCH   2   3
ATOM      3  C   UNL A   1      30.433  28.928  23.429  1.00  0.00     0.202 C 
BRANCH   3   4
ATOM      4  C   UNL A   1      29.486  27.450  23.577  1.00  0.00     0.261 C 
BRANCH   4   5
ATOM      5  O   UNL A   1      29.234  26.287  24.777  1.00  0.00    -0.460 OA
BRANCH   5   6
ATOM      6  C   UNL A   1      29.974  25.591  25.768  1.00  0.00     0.338 C 
ATOM      7  O   UNL A   1      30.451  26.016  26.824  1.00  0.00    -0.246 OA
BRANCH   6   8
ATOM      8  C   UNL A   1      30.367  24.180  25.685  1.00  0.00     0.062 A 
ATOM      9  C   UNL A   1      31.720  22.768  24.299  1.00  0.00     0.053 A 
ATOM     10  C   UNL A   1      30.697  23.718  24.422  1.00  0.00     0.042 A 
ATOM     11  C   UNL A   1      32.285  22.124  25.422  1.00  0.00    -0.027 A 
ATOM     12  C   UNL A   1      31.963  22.600  26.691  1.00  0.00     0.006 A 
ATOM     13  C   UNL A   1      33.329  21.043  25.315  1.00  0.00     0.046 C 
ATOM     14  C   UNL A   1      31.050  23.645  26.813  1.00  0.00     0.016 A 
BRANCH   9  15
ATOM     15  N   UNL A   1      32.310  22.502  23.016  1.00  0.00    -0.279 N 
ATOM     16  H   UNL A   1      32.073  21.686  22.520  1.00  0.00     0.180 HD
BRANCH  15  17
ATOM     17  S   UNL A   1      33.435  23.626  22.353  1.00  0.00     0.263 S 
ATOM     18  O   UNL A   1      32.779  24.914  22.597  1.00  0.00    -0.201 OA
ATOM     19  O   UNL A   1      33.726  23.188  21.024  1.00  0.00    -0.201 OA
BRANCH  17  20
ATOM     20  C   UNL A   1      34.949  23.633  23.283  1.00  0.00     0.101 A 
ATOM     21  C   UNL A   1      37.983  22.531  26.092  1.00  0.00     0.044 C 
ATOM     22  C   UNL A   1      36.995  23.030  25.087  1.00  0.00    -0.050 A 
ATOM     23  C   UNL A   1      37.053  22.555  23.780  1.00  0.00     0.005 A 
ATOM     24  C   UNL A   1      36.016  23.970  25.427  1.00  0.00     0.020 A 
ATOM     25  C   UNL A   1      36.043  22.874  22.876  1.00  0.00     0.024 A 
ATOM     26  C   UNL A   1      35.006  24.293  24.512  1.00  0.00     0.038 A 
ATOM     27  Br  UNL A   1      33.878  25.769  24.924  1.00  0.00    -0.049 Br
ENDBRANCH  17  20
ENDBRANCH  15  17
ENDBRANCH   9  15
ENDBRANCH   6   8
ENDBRANCH   5   6
ENDBRANCH   4   5
ENDBRANCH   3   4
ENDBRANCH   2   3
ENDBRANCH   1   2
BRANCH   1  28
ATOM     28  C   UNL A   1      33.313  29.662  26.095  1.00  0.00     0.188 C 
BRANCH  28  29
ATOM     29  O   UNL A   1      32.991  30.321  27.295  1.00  0.00    -0.376 OA
BRANCH  29  30
ATOM     30  C   UNL A   1      32.769  31.711  27.172  1.00  0.00     0.202 C 
BRANCH  30  31
ATOM     31  C   UNL A   1      33.765  32.578  27.969  1.00  0.00     0.261 C 
BRANCH  31  32
ATOM     32  O   UNL A   1      35.050  31.917  28.101  1.00  0.00    -0.460 OA
BRANCH  32  33
ATOM     33  C   UNL A   1      35.527  31.623  29.362  1.00  0.00     0.338 C 
ATOM     34  O   UNL A   1      35.668  32.436  30.257  1.00  0.00    -0.246 OA
BRANCH  33  35
ATOM     35  C   UNL A   1      36.122  30.230  29.368  1.00  0.00     0.060 A 
ATOM     36  C   UNL A   1      36.675  29.547  30.468  1.00  0.00     0.016 A 
ATOM     37  C   UNL A   1      36.587  29.830  28.172  1.00  0.00     0.016 A 
ATOM     38  C   UNL A   1      37.846  28.658  30.324  1.00  0.00     0.010 A 
ATOM     39  C   UNL A   1      37.900  29.373  28.221  1.00  0.00     0.010 A 
ATOM     40  C   UNL A   1      38.609  28.594  29.154  1.00  0.00    -0.014 A 
BRANCH  40  41
ATOM     41  C   UNL A   1      40.153  27.936  28.904  1.00  0.00     0.031 A 
ATOM     42  C   UNL A   1      40.751  26.439  28.304  1.00  0.00     0.074 A 
ATOM     43  C   UNL A   1      41.168  28.820  29.080  1.00  0.00     0.049 A 
ATOM     44  N   UNL A   1      42.025  26.189  28.036  1.00  0.00    -0.248 NA
ATOM     45  C   UNL A   1      40.050  25.176  27.894  1.00  0.00     0.031 C 
ATOM     46  C   UNL A   1      42.574  28.730  28.665  1.00  0.00     0.029 A 
ATOM     47  N   UNL A   1      41.127  30.051  29.749  1.00  0.00    -0.354 N 
ATOM     48  C   UNL A   1      42.153  24.921  27.468  1.00  0.00     0.074 A 
ATOM     49  C   UNL A   1      40.864  24.579  27.035  1.00  0.00     0.031 C 
ATOM     50  C   UNL A   1      43.303  29.597  29.378  1.00  0.00     0.029 A 
ATOM     51  C   UNL A   1      42.402  30.210  30.320  1.00  0.00     0.049 A 
ATOM     52  H   UNL A   1      40.366  30.672  29.806  1.00  0.00     0.167 HD
ATOM     53  C   UNL A   1      43.212  24.067  27.583  1.00  0.00     0.037 A 
ATOM     54  C   UNL A   1      42.528  30.211  31.667  1.00  0.00     0.037 A 
ATOM     55  C   UNL A   1      44.255  24.697  28.353  1.00  0.00     0.049 A 
ATOM     56  C   UNL A   1      43.369  29.050  32.136  1.00  0.00     0.074 A 
ATOM     57  C   UNL A   1      45.130  25.724  28.067  1.00  0.00     0.029 A 
ATOM     58  N   UNL A   1      44.199  24.599  29.731  1.00  0.00    -0.354 N 
ATOM     59  N   UNL A   1      43.589  27.941  31.469  1.00  0.00    -0.248 NA
ATOM     60  C   UNL A   1      44.110  29.118  33.384  1.00  0.00     0.031 C 
ATOM     61  C   UNL A   1      45.462  26.347  29.304  1.00  0.00     0.029 A 
ATOM     62  C   UNL A   1      44.849  25.657  30.345  1.00  0.00     0.049 A 
ATOM     63  H   UNL A   1      43.753  23.868  30.217  1.00  0.00     0.167 HD
ATOM     64  C   UNL A   1      44.458  27.147  32.183  1.00  0.00     0.074 A 
ATOM     65  C   UNL A   1      44.797  27.968  33.331  1.00  0.00     0.031 C 
ATOM     66  C   UNL A   1      44.821  25.877  31.804  1.00  0.00     0.037 A 
BRANCH  53  67
ATOM     67  C   UNL A   1      43.239  22.633  27.026  1.00  0.00     0.064 A 
ATOM     68  C   UNL A   1      44.186  22.251  26.059  1.00  0.00     0.173 A 
ATOM     69  C   UNL A   1      42.344  21.590  27.378  1.00  0.00     0.173 A 
ATOM     70  F   UNL A   1      45.159  23.097  25.694  1.00  0.00    -0.203 F 
ATOM     71  C   UNL A   1      44.162  20.989  25.433  1.00  0.00     0.198 A 
ATOM     72  C   UNL A   1      42.261  20.368  26.699  1.00  0.00     0.198 A 
ATOM     73  F   UNL A   1      41.549  21.686  28.447  1.00  0.00    -0.203 F 
ATOM     74  F   UNL A   1      45.106  20.673  24.534  1.00  0.00    -0.200 F 
ATOM     75  C   UNL A   1      43.173  20.066  25.718  1.00  0.00     0.200 A 
ATOM     76  F   UNL A   1      41.297  19.488  27.015  1.00  0.00    -0.200 F 
ATOM     77  F   UNL A   1      43.117  18.889  25.079  1.00  0.00    -0.200 F 
ENDBRANCH  53  67
BRANCH  54  78
ATOM     78  C   UNL A   1      41.379  30.903  32.333  1.00  0.00     0.064 A 
ATOM     79  C   UNL A   1      41.247  32.294  32.082  1.00  0.00     0.173 A 
ATOM     80  C   UNL A   1      40.250  30.242  32.825  1.00  0.00     0.173 A 
ATOM     81  F   UNL A   1      42.294  32.991  31.605  1.00  0.00    -0.203 F 
ATOM     82  C   UNL A   1      40.017  32.943  32.148  1.00  0.00     0.198 A 
ATOM     83  C   UNL A   1      39.024  30.918  32.950  1.00  0.00     0.198 A 
ATOM     84  F   UNL A   1      40.276  28.920  33.043  1.00  0.00    -0.203 F 
ATOM     85  F   UNL A   1      39.901  34.205  31.707  1.00  0.00    -0.200 F 
ATOM     86  C   UNL A   1      38.900  32.250  32.568  1.00  0.00     0.200 A 
ATOM     87  F   UNL A   1      37.917  30.235  33.283  1.00  0.00    -0.200 F 
ATOM     88  F   UNL A   1      37.693  32.833  32.521  1.00  0.00    -0.200 F 
ENDBRANCH  54  78
BRANCH  66  89
ATOM     89  C   UNL A   1      45.250  24.786  32.800  1.00  0.00     0.064 A 
ATOM     90  C   UNL A   1      44.496  23.629  33.097  1.00  0.00     0.173 A 
ATOM     91  C   UNL A   1      46.530  24.785  33.412  1.00  0.00     0.173 A 
ATOM     92  F   UNL A   1      43.377  23.313  32.438  1.00  0.00    -0.203 F 
ATOM     93  C   UNL A   1      44.898  22.664  34.026  1.00  0.00     0.198 A 
ATOM     94  C   UNL A   1      46.969  23.776  34.277  1.00  0.00     0.198 A 
ATOM     95  F   UNL A   1      47.448  25.722  33.145  1.00  0.00    -0.203 F 
ATOM     96  F   UNL A   1      44.080  21.639  34.304  1.00  0.00    -0.200 F 
ATOM     97  C   UNL A   1      46.136  22.735  34.617  1.00  0.00     0.200 A 
ATOM     98  F   UNL A   1      48.222  23.809  34.752  1.00  0.00    -0.200 F 
ATOM     99  F   UNL A   1      46.542  21.780  35.464  1.00  0.00    -0.200 F 
ENDBRANCH  66  89
ENDBRANCH  40  41
ENDBRANCH  33  35
ENDBRANCH  32  33
ENDBRANCH  31  32
ENDBRANCH  30  31
ENDBRANCH  29  30
ENDBRANCH  28  29
ENDBRANCH   1  28
TORSDOF 20
ENDMDL
MODEL 2
REMARK VINA RESULT:     -13.5      3.263      9.794
REMARK SMILES Cc1ccc(S(=O)(=O)Nc2cc(C(=O)OCCOCCOCCOC(=O)c3ccc(-c4c5nc(c(-c6c(F)c(F)c(F)c(F)c6F)c6ccc([nH]6)c(-c6c(F)c(F)c(F)c(F)c6F)c6nc(c(-c7c(F)c(F)c(F)c(F)c7F)c7ccc4[nH]7)C=C6)C=C5)cc3)ccc2C)c(Br)c1
REMARK SMILES IDX 19 1 18 2 17 3 16 4 15 5 13 6 14 7 12 8 10 9 11 10 92 11
REMARK SMILES IDX 91 12 93 13 90 14 9 15 6 17 7 18 8 19 5 20 1 21 2 22 3 23
REMARK SMILES IDX 96 24 4 25 94 26 95 27 20 28 21 29 22 30 23 31 24 32 25 33
REMARK SMILES IDX 26 34 27 35 28 36 89 37 29 38 88 39 30 40 31 41 32 42 82 43
REMARK SMILES IDX 33 44 87 45 81 46 83 47 34 48 86 49 80 50 79 51 35 53 67 54
REMARK SMILES IDX 47 55 66 56 48 57 51 58 65 59 84 60 49 61 50 62 64 64 85 65
REMARK SMILES IDX 52 66 36 67 37 68 45 69 38 70 39 71 43 72 46 73 40 74 41 75
REMARK SMILES IDX 44 76 42 77 68 78 69 79 77 80 70 81 71 82 75 83 78 84 72 85
REMARK SMILES IDX 73 86 76 87 74 88 53 89 54 90 62 91 55 92 56 93 60 94 63 95
REMARK SMILES IDX 57 96 58 97 61 98 59 99
REMARK H PARENT 9 16 83 52 51 63
REMARK Flexibility Score: inf
ROOT
ATOM      1  C   UNL A   1      36.137  23.332  24.582  1.00  0.00     0.188 C 
ENDROOT
BRANCH   1   2
ATOM      2  O   UNL A   1      35.049  23.378  25.522  1.00  0.00    -0.376 OA
BRANCH   2   3
ATOM      3  C   UNL A   1      34.902  22.792  26.826  1.00  0.00     0.202 C 
BRANCH   3   4
ATOM      4  C   UNL A   1      33.504  22.526  27.865  1.00  0.00     0.261 C 
BRANCH   4   5
ATOM      5  O   UNL A   1      31.859  22.908  27.804  1.00  0.00    -0.460 OA
BRANCH   5   6
ATOM      6  C   UNL A   1      30.918  23.459  26.896  1.00  0.00     0.338 C 
ATOM      7  O   UNL A   1      29.824  23.979  27.130  1.00  0.00    -0.246 OA
BRANCH   6   8
ATOM      8  C   UNL A   1      31.065  23.462  25.436  1.00  0.00     0.062 A 
ATOM      9  C   UNL A   1      32.455  24.482  23.770  1.00  0.00     0.053 A 
ATOM     10  C   UNL A   1      31.617  24.607  24.886  1.00  0.00     0.042 A 
ATOM     11  C   UNL A   1      32.596  23.263  23.070  1.00  0.00    -0.027 A 
ATOM     12  C   UNL A   1      32.052  22.109  23.632  1.00  0.00     0.006 A 
ATOM     13  C   UNL A   1      33.426  23.118  21.822  1.00  0.00     0.046 C 
ATOM     14  C   UNL A   1      31.336  22.206  24.823  1.00  0.00     0.016 A 
BRANCH   9  15
ATOM     15  N   UNL A   1      33.293  25.577  23.368  1.00  0.00    -0.279 N 
ATOM     16  H   UNL A   1      34.201  25.668  23.735  1.00  0.00     0.180 HD
BRANCH  15  17
ATOM     17  S   UNL A   1      32.693  26.731  22.237  1.00  0.00     0.263 S 
ATOM     18  O   UNL A   1      31.990  25.888  21.265  1.00  0.00    -0.201 OA
ATOM     19  O   UNL A   1      33.802  27.542  21.844  1.00  0.00    -0.201 OA
BRANCH  17  20
ATOM     20  C   UNL A   1      31.471  27.781  22.988  1.00  0.00     0.101 A 
ATOM     21  C   UNL A   1      29.029  31.191  23.835  1.00  0.00     0.044 C 
ATOM     22  C   UNL A   1      29.831  29.942  23.652  1.00  0.00    -0.050 A 
ATOM     23  C   UNL A   1      29.376  28.963  22.774  1.00  0.00     0.005 A 
ATOM     24  C   UNL A   1      31.025  29.730  24.349  1.00  0.00     0.020 A 
ATOM     25  C   UNL A   1      30.187  27.875  22.460  1.00  0.00     0.024 A 
ATOM     26  C   UNL A   1      31.835  28.630  24.035  1.00  0.00     0.038 A 
ATOM     27  Br  UNL A   1      33.292  28.245  25.195  1.00  0.00    -0.049 Br
ENDBRANCH  17  20
ENDBRANCH  15  17
ENDBRANCH   9  15
ENDBRANCH   6   8
ENDBRANCH   5   6
ENDBRANCH   4   5
ENDBRANCH   3   4
ENDBRANCH   2   3
ENDBRANCH   1   2
BRANCH   1  28
ATOM     28  C   UNL A   1      37.025  22.122  24.351  1.00  0.00     0.188 C 
BRANCH  28  29
ATOM     29  O   UNL A   1      38.199  22.244  25.115  1.00  0.00    -0.376 OA
BRANCH  29  30
ATOM     30  C   UNL A   1      38.637  21.051  25.731  1.00  0.00     0.202 C 
BRANCH  30  31
ATOM     31  C   UNL A   1      40.043  21.149  26.359  1.00  0.00     0.261 C 
BRANCH  31  32
ATOM     32  O   UNL A   1      40.762  22.307  25.860  1.00  0.00    -0.460 OA
BRANCH  32  33
ATOM     33  C   UNL A   1      41.331  23.183  26.762  1.00  0.00     0.338 C 
ATOM     34  O   UNL A   1      42.140  22.871  27.616  1.00  0.00    -0.246 OA
BRANCH  33  35
ATOM     35  C   UNL A   1      40.587  24.502  26.727  1.00  0.00     0.060 A 
ATOM     36  C   UNL A   1      41.063  25.733  26.237  1.00  0.00     0.016 A 
ATOM     37  C   UNL A   1      39.617  24.607  27.652  1.00  0.00     0.016 A 
ATOM     38  C   UNL A   1      40.706  27.015  26.877  1.00  0.00     0.010 A 
ATOM     39  C   UNL A   1      39.720  25.760  28.422  1.00  0.00     0.010 A 
ATOM     40  C   UNL A   1      40.060  27.091  28.115  1.00  0.00    -0.014 A 
BRANCH  40  41
ATOM     41  C   UNL A   1      39.885  28.411  29.166  1.00  0.00     0.031 A 
ATOM     42  C   UNL A   1      38.726  29.667  29.353  1.00  0.00     0.074 A 
ATOM     43  C   UNL A   1      40.776  28.426  30.190  1.00  0.00     0.049 A 
ATOM     44  N   UNL A   1      38.697  30.522  30.367  1.00  0.00    -0.248 NA
ATOM     45  C   UNL A   1      37.517  30.041  28.544  1.00  0.00     0.031 C 
ATOM     46  C   UNL A   1      40.754  29.193  31.442  1.00  0.00     0.029 A 
ATOM     47  N   UNL A   1      41.983  27.719  30.288  1.00  0.00    -0.354 N 
ATOM     48  C   UNL A   1      37.571  31.341  30.269  1.00  0.00     0.074 A 
ATOM     49  C   UNL A   1      36.712  30.681  29.379  1.00  0.00     0.031 C 
ATOM     50  C   UNL A   1      41.987  29.227  31.962  1.00  0.00     0.029 A 
ATOM     51  C   UNL A   1      42.845  28.550  31.024  1.00  0.00     0.049 A 
ATOM     52  H   UNL A   1      42.183  26.829  29.919  1.00  0.00     0.167 HD
ATOM     53  C   UNL A   1      37.453  32.636  30.685  1.00  0.00     0.037 A 
ATOM     54  C   UNL A   1      43.941  29.066  30.421  1.00  0.00     0.037 A 
ATOM     55  C   UNL A   1      38.678  33.049  31.324  1.00  0.00     0.049 A 
ATOM     56  C   UNL A   1      43.874  30.573  30.369  1.00  0.00     0.074 A 
ATOM     57  C   UNL A   1      39.248  32.724  32.537  1.00  0.00     0.029 A 
ATOM     58  N   UNL A   1      39.696  33.539  30.528  1.00  0.00    -0.354 N 
ATOM     59  N   UNL A   1      42.783  31.297  30.454  1.00  0.00    -0.248 NA
ATOM     60  C   UNL A   1      45.085  31.374  30.312  1.00  0.00     0.031 C 
ATOM     61  C   UNL A   1      40.658  32.871  32.388  1.00  0.00     0.029 A 
ATOM     62  C   UNL A   1      40.937  33.353  31.114  1.00  0.00     0.049 A 
ATOM     63  H   UNL A   1      39.557  33.968  29.652  1.00  0.00     0.167 HD
ATOM     64  C   UNL A   1      43.122  32.631  30.438  1.00  0.00     0.074 A 
ATOM     65  C   UNL A   1      44.573  32.609  30.418  1.00  0.00     0.031 C 
ATOM     66  C   UNL A   1      42.204  33.654  30.420  1.00  0.00     0.037 A 
BRANCH  53  67
ATOM     67  C   UNL A   1      36.218  33.520  30.440  1.00  0.00     0.064 A 
ATOM     68  C   UNL A   1      35.458  34.013  31.515  1.00  0.00     0.173 A 
ATOM     69  C   UNL A   1      35.708  33.898  29.172  1.00  0.00     0.173 A 
ATOM     70  F   UNL A   1      35.866  33.821  32.777  1.00  0.00    -0.203 F 
ATOM     71  C   UNL A   1      34.251  34.716  31.329  1.00  0.00     0.198 A 
ATOM     72  C   UNL A   1      34.467  34.520  28.980  1.00  0.00     0.198 A 
ATOM     73  F   UNL A   1      36.427  33.739  28.056  1.00  0.00    -0.203 F 
ATOM     74  F   UNL A   1      33.581  35.183  32.393  1.00  0.00    -0.200 F 
ATOM     75  C   UNL A   1      33.732  34.929  30.065  1.00  0.00     0.200 A 
ATOM     76  F   UNL A   1      34.003  34.725  27.737  1.00  0.00    -0.200 F 
ATOM     77  F   UNL A   1      32.555  35.546  29.892  1.00  0.00    -0.200 F 
ENDBRANCH  53  67
BRANCH  54  78
ATOM     78  C   UNL A   1      44.562  28.094  29.468  1.00  0.00     0.064 A 
ATOM     79  C   UNL A   1      45.124  26.920  30.038  1.00  0.00     0.173 A 
ATOM     80  C   UNL A   1      44.283  28.056  28.099  1.00  0.00     0.173 A 
ATOM     81  F   UNL A   1      45.415  26.888  31.350  1.00  0.00    -0.203 F 
ATOM     82  C   UNL A   1      45.232  25.730  29.323  1.00  0.00     0.198 A 
ATOM     83  C   UNL A   1      44.452  26.868  27.366  1.00  0.00     0.198 A 
ATOM     84  F   UNL A   1      43.707  29.104  27.493  1.00  0.00    -0.203 F 
ATOM     85  F   UNL A   1      45.576  24.598  29.956  1.00  0.00    -0.200 F 
ATOM     86  C   UNL A   1      44.880  25.700  27.989  1.00  0.00     0.200 A 
ATOM     87  F   UNL A   1      44.042  26.808  26.090  1.00  0.00    -0.200 F 
ATOM     88  F   UNL A   1      44.868  24.534  27.326  1.00  0.00    -0.200 F 
ENDBRANCH  54  78
BRANCH  66  89
ATOM     89  C   UNL A   1      42.488  35.036  29.807  1.00  0.00     0.064 A 
ATOM     90  C   UNL A   1      41.824  35.565  28.678  1.00  0.00     0.173 A 
ATOM     91  C   UNL A   1      43.363  35.968  30.423  1.00  0.00     0.173 A 
ATOM     92  F   UNL A   1      40.787  34.951  28.102  1.00  0.00    -0.203 F 
ATOM     93  C   UNL A   1      42.120  36.816  28.126  1.00  0.00     0.198 A 
ATOM     94  C   UNL A   1      43.596  37.254  29.920  1.00  0.00     0.198 A 
ATOM     95  F   UNL A   1      43.978  35.709  31.584  1.00  0.00    -0.203 F 
ATOM     96  F   UNL A   1      41.495  37.203  27.005  1.00  0.00    -0.200 F 
ATOM     97  C   UNL A   1      43.005  37.663  28.747  1.00  0.00     0.200 A 
ATOM     98  F   UNL A   1      44.376  38.102  30.604  1.00  0.00    -0.200 F 
ATOM     99  F   UNL A   1      43.245  38.883  28.248  1.00  0.00    -0.200 F 
ENDBRANCH  66  89
ENDBRANCH  40  41
ENDBRANCH  33  35
ENDBRANCH  32  33
ENDBRANCH  31  32
ENDBRANCH  30  31
ENDBRANCH  29  30
ENDBRANCH  28  29
ENDBRANCH   1  28
TORSDOF 20
ENDMDL
MODEL 3
REMARK VINA RESULT:     -13.3      4.745      8.094
REMARK SMILES Cc1ccc(S(=O)(=O)Nc2cc(C(=O)OCCOCCOCCOC(=O)c3ccc(-c4c5nc(c(-c6c(F)c(F)c(F)c(F)c6F)c6ccc([nH]6)c(-c6c(F)c(F)c(F)c(F)c6F)c6nc(c(-c7c(F)c(F)c(F)c(F)c7F)c7ccc4[nH]7)C=C6)C=C5)cc3)ccc2C)c(Br)c1
REMARK SMILES IDX 19 1 18 2 17 3 16 4 15 5 13 6 14 7 12 8 10 9 11 10 92 11
REMARK SMILES IDX 91 12 93 13 90 14 9 15 6 17 7 18 8 19 5 20 1 21 2 22 3 23
REMARK SMILES IDX 96 24 4 25 94 26 95 27 20 28 21 29 22 30 23 31 24 32 25 33
REMARK SMILES IDX 26 34 27 35 28 36 89 37 29 38 88 39 30 40 31 41 32 42 82 43
REMARK SMILES IDX 33 44 87 45 81 46 83 47 34 48 86 49 80 50 79 51 35 53 67 54
REMARK SMILES IDX 47 55 66 56 48 57 51 58 65 59 84 60 49 61 50 62 64 64 85 65
REMARK SMILES IDX 52 66 36 67 37 68 45 69 38 70 39 71 43 72 46 73 40 74 41 75
REMARK SMILES IDX 44 76 42 77 68 78 69 79 77 80 70 81 71 82 75 83 78 84 72 85
REMARK SMILES IDX 73 86 76 87 74 88 53 89 54 90 62 91 55 92 56 93 60 94 63 95
REMARK SMILES IDX 57 96 58 97 61 98 59 99
REMARK H PARENT 9 16 83 52 51 63
REMARK Flexibility Score: inf
ROOT
ATOM      1  C   UNL A   1      33.862  35.248  31.212  1.00  0.00     0.188 C 
ENDROOT
BRANCH   1   2
ATOM      2  O   UNL A   1      34.111  36.029  32.395  1.00  0.00    -0.376 OA
BRANCH   2   3
ATOM      3  C   UNL A   1      34.622  35.654  33.685  1.00  0.00     0.202 C 
BRANCH   3   4
ATOM      4  C   UNL A   1      35.257  34.140  34.324  1.00  0.00     0.261 C 
BRANCH   4   5
ATOM      5  O   UNL A   1      36.743  33.337  34.286  1.00  0.00    -0.460 OA
BRANCH   5   6
ATOM      6  C   UNL A   1      37.610  32.643  35.170  1.00  0.00     0.338 C 
ATOM      7  O   UNL A   1      37.387  31.633  35.843  1.00  0.00    -0.246 OA
BRANCH   6   8
ATOM      8  C   UNL A   1      38.981  33.053  35.495  1.00  0.00     0.062 A 
ATOM      9  C   UNL A   1      41.224  32.316  35.085  1.00  0.00     0.053 A 
ATOM     10  C   UNL A   1      39.923  32.040  35.528  1.00  0.00     0.042 A 
ATOM     11  C   UNL A   1      41.656  33.630  34.797  1.00  0.00    -0.027 A 
ATOM     12  C   UNL A   1      40.704  34.646  34.751  1.00  0.00     0.006 A 
ATOM     13  C   UNL A   1      43.069  33.966  34.397  1.00  0.00     0.046 C 
ATOM     14  C   UNL A   1      39.376  34.347  35.052  1.00  0.00     0.016 A 
BRANCH   9  15
ATOM     15  N   UNL A   1      42.134  31.242  34.798  1.00  0.00    -0.279 N 
ATOM     16  H   UNL A   1      42.355  31.013  33.867  1.00  0.00     0.180 HD
BRANCH  15  17
ATOM     17  S   UNL A   1      42.836  30.358  36.101  1.00  0.00     0.263 S 
ATOM     18  O   UNL A   1      41.878  30.581  37.188  1.00  0.00    -0.201 OA
ATOM     19  O   UNL A   1      44.193  30.791  36.214  1.00  0.00    -0.201 OA
BRANCH  17  20
ATOM     20  C   UNL A   1      42.832  28.614  35.760  1.00  0.00     0.101 A 
ATOM     21  C   UNL A   1      41.729  24.480  35.804  1.00  0.00     0.044 C 
ATOM     22  C   UNL A   1      42.226  25.887  35.720  1.00  0.00    -0.050 A 
ATOM     23  C   UNL A   1      41.724  26.730  34.733  1.00  0.00     0.005 A 
ATOM     24  C   UNL A   1      43.192  26.377  36.606  1.00  0.00     0.020 A 
ATOM     25  C   UNL A   1      42.044  28.085  34.742  1.00  0.00     0.024 A 
ATOM     26  C   UNL A   1      43.516  27.740  36.607  1.00  0.00     0.038 A 
ATOM     27  Br  UNL A   1      45.022  28.290  37.633  1.00  0.00    -0.049 Br
ENDBRANCH  17  20
ENDBRANCH  15  17
ENDBRANCH   9  15
ENDBRANCH   6   8
ENDBRANCH   5   6
ENDBRANCH   4   5
ENDBRANCH   3   4
ENDBRANCH   2   3
ENDBRANCH   1   2
BRANCH   1  28
ATOM     28  C   UNL A   1      33.030  35.716  30.031  1.00  0.00     0.188 C 
BRANCH  28  29
ATOM     29  O   UNL A   1      32.659  34.610  29.246  1.00  0.00    -0.376 OA
BRANCH  29  30
ATOM     30  C   UNL A   1      33.574  34.267  28.226  1.00  0.00     0.202 C 
BRANCH  30  31
ATOM     31  C   UNL A   1      33.746  32.747  28.023  1.00  0.00     0.261 C 
BRANCH  31  32
ATOM     32  O   UNL A   1      34.469  32.148  29.129  1.00  0.00    -0.460 OA
BRANCH  32  33
ATOM     33  C   UNL A   1      35.847  32.092  29.078  1.00  0.00     0.338 C 
ATOM     34  O   UNL A   1      36.575  33.054  28.918  1.00  0.00    -0.246 OA
BRANCH  33  35
ATOM     35  C   UNL A   1      36.292  30.649  28.950  1.00  0.00     0.060 A 
ATOM     36  C   UNL A   1      36.706  29.793  29.988  1.00  0.00     0.016 A 
ATOM     37  C   UNL A   1      36.780  30.334  27.739  1.00  0.00     0.016 A 
ATOM     38  C   UNL A   1      37.783  28.801  29.796  1.00  0.00     0.010 A 
ATOM     39  C   UNL A   1      38.033  29.733  27.794  1.00  0.00     0.010 A 
ATOM     40  C   UNL A   1      38.602  28.782  28.663  1.00  0.00    -0.014 A 
BRANCH  40  41
ATOM     41  C   UNL A   1      40.080  27.989  28.409  1.00  0.00     0.031 A 
ATOM     42  C   UNL A   1      40.539  26.399  27.943  1.00  0.00     0.074 A 
ATOM     43  C   UNL A   1      41.162  28.809  28.441  1.00  0.00     0.049 A 
ATOM     44  N   UNL A   1      41.776  26.028  27.640  1.00  0.00    -0.248 NA
ATOM     45  C   UNL A   1      39.732  25.156  27.703  1.00  0.00     0.031 C 
ATOM     46  C   UNL A   1      42.533  28.573  27.969  1.00  0.00     0.029 A 
ATOM     47  N   UNL A   1      41.244  30.101  28.977  1.00  0.00    -0.354 N 
ATOM     48  C   UNL A   1      41.784  24.703  27.204  1.00  0.00     0.074 A 
ATOM     49  C   UNL A   1      40.452  24.415  26.874  1.00  0.00     0.031 C 
ATOM     50  C   UNL A   1      43.359  29.451  28.550  1.00  0.00     0.029 A 
ATOM     51  C   UNL A   1      42.556  30.222  29.464  1.00  0.00     0.049 A 
ATOM     52  H   UNL A   1      40.532  30.780  29.005  1.00  0.00     0.167 HD
ATOM     53  C   UNL A   1      42.787  23.789  27.358  1.00  0.00     0.037 A 
ATOM     54  C   UNL A   1      42.758  30.352  30.796  1.00  0.00     0.037 A 
ATOM     55  C   UNL A   1      43.913  24.415  28.005  1.00  0.00     0.049 A 
ATOM     56  C   UNL A   1      43.542  29.186  31.344  1.00  0.00     0.074 A 
ATOM     57  C   UNL A   1      44.839  25.339  27.569  1.00  0.00     0.029 A 
ATOM     58  N   UNL A   1      43.928  24.463  29.386  1.00  0.00    -0.354 N 
ATOM     59  N   UNL A   1      43.648  28.001  30.788  1.00  0.00    -0.248 NA
ATOM     60  C   UNL A   1      44.355  29.326  32.540  1.00  0.00     0.031 C 
ATOM     61  C   UNL A   1      45.282  26.060  28.716  1.00  0.00     0.029 A 
ATOM     62  C   UNL A   1      44.682  25.527  29.853  1.00  0.00     0.049 A 
ATOM     63  H   UNL A   1      43.460  23.821  29.968  1.00  0.00     0.167 HD
ATOM     64  C   UNL A   1      44.498  27.222  31.539  1.00  0.00     0.074 A 
ATOM     65  C   UNL A   1      44.957  28.128  32.576  1.00  0.00     0.031 C 
ATOM     66  C   UNL A   1      44.752  25.896  31.279  1.00  0.00     0.037 A 
BRANCH  53  67
ATOM     67  C   UNL A   1      42.684  22.307  26.955  1.00  0.00     0.064 A 
ATOM     68  C   UNL A   1      41.904  21.408  27.702  1.00  0.00     0.173 A 
ATOM     69  C   UNL A   1      43.349  21.699  25.860  1.00  0.00     0.173 A 
ATOM     70  F   UNL A   1      41.140  21.851  28.710  1.00  0.00    -0.203 F 
ATOM     71  C   UNL A   1      41.886  20.023  27.441  1.00  0.00     0.198 A 
ATOM     72  C   UNL A   1      43.404  20.315  25.649  1.00  0.00     0.198 A 
ATOM     73  F   UNL A   1      43.925  22.429  24.900  1.00  0.00    -0.203 F 
ATOM     74  F   UNL A   1      41.104  19.217  28.174  1.00  0.00    -0.200 F 
ATOM     75  C   UNL A   1      42.671  19.471  26.446  1.00  0.00     0.200 A 
ATOM     76  F   UNL A   1      44.165  19.816  24.662  1.00  0.00    -0.200 F 
ATOM     77  F   UNL A   1      42.698  18.147  26.237  1.00  0.00    -0.200 F 
ENDBRANCH  53  67
BRANCH  54  78
ATOM     78  C   UNL A   1      41.699  31.192  31.440  1.00  0.00     0.064 A 
ATOM     79  C   UNL A   1      41.770  32.590  31.205  1.00  0.00     0.173 A 
ATOM     80  C   UNL A   1      40.475  30.691  31.892  1.00  0.00     0.173 A 
ATOM     81  F   UNL A   1      42.918  33.137  30.767  1.00  0.00    -0.203 F 
ATOM     82  C   UNL A   1      40.642  33.405  31.247  1.00  0.00     0.198 A 
ATOM     83  C   UNL A   1      39.352  31.532  31.993  1.00  0.00     0.198 A 
ATOM     84  F   UNL A   1      40.308  29.377  32.092  1.00  0.00    -0.203 F 
ATOM     85  F   UNL A   1      40.717  34.675  30.820  1.00  0.00    -0.200 F 
ATOM     86  C   UNL A   1      39.427  32.871  31.626  1.00  0.00     0.200 A 
ATOM     87  F   UNL A   1      38.151  31.008  32.286  1.00  0.00    -0.200 F 
ATOM     88  F   UNL A   1      38.316  33.619  31.554  1.00  0.00    -0.200 F 
ENDBRANCH  54  78
BRANCH  66  89
ATOM     89  C   UNL A   1      45.159  24.884  32.364  1.00  0.00     0.064 A 
ATOM     90  C   UNL A   1      44.362  23.798  32.789  1.00  0.00     0.173 A 
ATOM     91  C   UNL A   1      46.456  24.878  32.939  1.00  0.00     0.173 A 
ATOM     92  F   UNL A   1      43.211  23.477  32.192  1.00  0.00    -0.203 F 
ATOM     93  C   UNL A   1      44.747  22.906  33.795  1.00  0.00     0.198 A 
ATOM     94  C   UNL A   1      46.874  23.934  33.885  1.00  0.00     0.198 A 
ATOM     95  F   UNL A   1      47.409  25.739  32.560  1.00  0.00    -0.203 F 
ATOM     96  F   UNL A   1      43.892  21.954  34.190  1.00  0.00    -0.200 F 
ATOM     97  C   UNL A   1      46.005  22.972  34.344  1.00  0.00     0.200 A 
ATOM     98  F   UNL A   1      48.142  23.950  34.321  1.00  0.00    -0.200 F 
ATOM     99  F   UNL A   1      46.392  22.082  35.267  1.00  0.00    -0.200 F 
ENDBRANCH  66  89
ENDBRANCH  40  41
ENDBRANCH  33  35
ENDBRANCH  32  33
ENDBRANCH  31  32
ENDBRANCH  30  31
ENDBRANCH  29  30
ENDBRANCH  28  29
ENDBRANCH   1  28
TORSDOF 20
ENDMDL
