MODEL 1
REMARK VINA RESULT:      -9.5      0.000      0.000
REMARK SMILES [N-]=[N+]=NC[C@@H](Nc1ccccc1Br)C(=O)OCCOCCOCCOC(=O)c1ccc(-c2c3nc(c(-c4c(F)c(F)c(F)c(F)c4F)c4ccc([nH]4)c(-c4c(F)c(F)c(F)c(F)c4F)c4nc(c(-c5c(F)c(F)c(F)c(F)c5F)c5ccc2[nH]5)C=C4)C=C3)cc1
REMARK SMILES IDX 20 1 19 2 18 3 17 4 16 5 14 6 15 7 5 8 4 9 3 10 1 11 2 12
REMARK SMILES IDX 6 13 7 15 8 16 12 17 9 18 11 19 13 20 10 21 21 22 22 23
REMARK SMILES IDX 23 24 24 25 25 26 26 27 27 28 28 29 29 30 90 31 30 32 89 33
REMARK SMILES IDX 31 34 32 35 33 36 83 37 34 38 88 39 82 40 84 41 35 42 87 43
REMARK SMILES IDX 81 44 80 45 36 47 68 48 48 49 67 50 49 51 52 52 66 53 85 54
REMARK SMILES IDX 50 55 51 56 65 58 86 59 53 60 37 61 38 62 46 63 39 64 40 65
REMARK SMILES IDX 44 66 47 67 41 68 42 69 45 70 43 71 69 72 70 73 78 74 71 75
REMARK SMILES IDX 72 76 76 77 79 78 73 79 74 80 77 81 75 82 54 83 55 84 63 85
REMARK SMILES IDX 56 86 57 87 61 88 64 89 58 90 59 91 62 92 60 93
REMARK H PARENT 6 14 84 46 52 57
REMARK Flexibility Score: inf
ROOT
ATOM      1  C   UNL A   1      39.965  22.390  26.517  1.00  0.00     0.188 C 
ENDROOT
BRANCH   1   2
ATOM      2  O   UNL A   1      39.166  21.589  25.688  1.00  0.00    -0.376 OA
BRANCH   2   3
ATOM      3  C   UNL A   1      37.783  21.843  25.544  1.00  0.00     0.202 C 
BRANCH   3   4
ATOM      4  C   UNL A   1      37.034  23.166  25.821  1.00  0.00     0.261 C 
BRANCH   4   5
ATOM      5  O   UNL A   1      36.444  23.933  24.759  1.00  0.00    -0.462 OA
BRANCH   5   6
ATOM      6  C   UNL A   1      35.200  23.510  24.382  1.00  0.00     0.328 C 
ATOM      7  O   UNL A   1      35.023  22.685  23.489  1.00  0.00    -0.250 OA
BRANCH   6   8
ATOM      8  C   UNL A   1      34.027  24.179  25.141  1.00  0.00     0.195 C 
BRANCH   8   9
ATOM      9  C   UNL A   1      33.531  23.440  26.403  1.00  0.00     0.127 C 
BRANCH   9  10
ATOM     10  N   UNL A   1      32.231  22.785  26.124  1.00  0.00    -0.091 NA
ATOM     11  N   UNL A   1      30.326  23.765  27.159  1.00  0.00    -0.003 NA
ATOM     12  N   UNL A   1      31.232  23.284  26.673  1.00  0.00     0.001 N 
ENDBRANCH   9  10
ENDBRANCH   8   9
BRANCH   8  13
ATOM     13  N   UNL A   1      34.262  25.623  25.450  1.00  0.00    -0.371 N 
ATOM     14  H   UNL A   1      35.146  25.952  25.729  1.00  0.00     0.161 HD
BRANCH  13  15
ATOM     15  C   UNL A   1      33.167  26.482  25.326  1.00  0.00     0.049 A 
ATOM     16  C   UNL A   1      32.496  26.898  26.481  1.00  0.00     0.027 A 
ATOM     17  C   UNL A   1      32.824  27.083  24.099  1.00  0.00     0.041 A 
ATOM     18  C   UNL A   1      31.583  27.953  26.433  1.00  0.00     0.002 A 
ATOM     19  C   UNL A   1      31.951  28.172  24.059  1.00  0.00     0.018 A 
ATOM     20  Br  UNL A   1      33.485  26.414  22.443  1.00  0.00    -0.049 Br
ATOM     21  C   UNL A   1      31.344  28.615  25.231  1.00  0.00     0.001 A 
ENDBRANCH  13  15
ENDBRANCH   8  13
ENDBRANCH   6   8
ENDBRANCH   5   6
ENDBRANCH   4   5
ENDBRANCH   3   4
ENDBRANCH   2   3
ENDBRANCH   1   2
BRANCH   1  22
ATOM     22  C   UNL A   1      40.820  21.655  27.554  1.00  0.00     0.188 C 
BRANCH  22  23
ATOM     23  O   UNL A   1      40.833  20.246  27.605  1.00  0.00    -0.376 OA
BRANCH  23  24
ATOM     24  C   UNL A   1      42.046  19.567  27.309  1.00  0.00     0.202 C 
BRANCH  24  25
ATOM     25  C   UNL A   1      42.504  19.231  25.870  1.00  0.00     0.261 C 
BRANCH  25  26
ATOM     26  O   UNL A   1      43.901  18.977  25.656  1.00  0.00    -0.460 OA
BRANCH  26  27
ATOM     27  C   UNL A   1      44.436  19.489  24.517  1.00  0.00     0.338 C 
ATOM     28  O   UNL A   1      44.437  18.980  23.410  1.00  0.00    -0.246 OA
BRANCH  27  29
ATOM     29  C   UNL A   1      44.831  20.896  24.766  1.00  0.00     0.060 A 
ATOM     30  C   UNL A   1      45.380  21.251  26.012  1.00  0.00     0.016 A 
ATOM     31  C   UNL A   1      44.650  21.862  23.780  1.00  0.00     0.016 A 
ATOM     32  C   UNL A   1      45.739  22.574  26.281  1.00  0.00     0.010 A 
ATOM     33  C   UNL A   1      44.965  23.193  24.065  1.00  0.00     0.010 A 
ATOM     34  C   UNL A   1      45.481  23.561  25.325  1.00  0.00    -0.014 A 
BRANCH  34  35
ATOM     35  C   UNL A   1      45.491  24.997  25.697  1.00  0.00     0.031 A 
ATOM     36  C   UNL A   1      46.809  25.718  25.631  1.00  0.00     0.074 A 
ATOM     37  C   UNL A   1      44.389  25.642  26.120  1.00  0.00     0.049 A 
ATOM     38  N   UNL A   1      47.149  26.888  26.108  1.00  0.00    -0.248 NA
ATOM     39  C   UNL A   1      47.902  25.008  24.945  1.00  0.00     0.031 C 
ATOM     40  C   UNL A   1      43.040  25.088  26.153  1.00  0.00     0.029 A 
ATOM     41  N   UNL A   1      44.249  26.909  26.634  1.00  0.00    -0.354 N 
ATOM     42  C   UNL A   1      48.494  27.043  25.798  1.00  0.00     0.074 A 
ATOM     43  C   UNL A   1      48.918  25.840  25.119  1.00  0.00     0.031 C 
ATOM     44  C   UNL A   1      42.210  25.999  26.695  1.00  0.00     0.029 A 
ATOM     45  C   UNL A   1      42.981  27.177  27.092  1.00  0.00     0.049 A 
ATOM     46  H   UNL A   1      44.984  27.562  26.670  1.00  0.00     0.167 HD
ATOM     47  C   UNL A   1      49.301  28.096  26.057  1.00  0.00     0.037 A 
ATOM     48  C   UNL A   1      42.516  28.232  27.793  1.00  0.00     0.037 A 
ATOM     49  C   UNL A   1      48.876  29.289  26.738  1.00  0.00     0.049 A 
ATOM     50  C   UNL A   1      43.466  29.347  28.169  1.00  0.00     0.074 A 
ATOM     51  C   UNL A   1      49.621  30.408  27.064  1.00  0.00     0.029 A 
ATOM     52  N   UNL A   1      47.588  29.516  27.198  1.00  0.00    -0.354 N 
ATOM     53  N   UNL A   1      44.740  29.487  27.889  1.00  0.00    -0.248 NA
ATOM     54  C   UNL A   1      42.912  30.454  28.965  1.00  0.00     0.031 C 
ATOM     55  C   UNL A   1      48.798  31.289  27.771  1.00  0.00     0.029 A 
ATOM     56  C   UNL A   1      47.522  30.751  27.819  1.00  0.00     0.049 A 
ATOM     57  H   UNL A   1      46.834  28.890  27.100  1.00  0.00     0.167 HD
ATOM     58  C   UNL A   1      45.119  30.716  28.420  1.00  0.00     0.074 A 
ATOM     59  C   UNL A   1      43.943  31.283  29.042  1.00  0.00     0.031 C 
ATOM     60  C   UNL A   1      46.330  31.324  28.390  1.00  0.00     0.037 A 
BRANCH  47  61
ATOM     61  C   UNL A   1      50.735  28.001  25.622  1.00  0.00     0.064 A 
ATOM     62  C   UNL A   1      51.116  28.223  24.291  1.00  0.00     0.173 A 
ATOM     63  C   UNL A   1      51.745  27.737  26.560  1.00  0.00     0.173 A 
ATOM     64  F   UNL A   1      50.188  28.463  23.353  1.00  0.00    -0.203 F 
ATOM     65  C   UNL A   1      52.454  28.164  23.910  1.00  0.00     0.198 A 
ATOM     66  C   UNL A   1      53.085  27.713  26.183  1.00  0.00     0.198 A 
ATOM     67  F   UNL A   1      51.434  27.520  27.847  1.00  0.00    -0.203 F 
ATOM     68  F   UNL A   1      52.792  28.336  22.625  1.00  0.00    -0.200 F 
ATOM     69  C   UNL A   1      53.438  27.921  24.859  1.00  0.00     0.200 A 
ATOM     70  F   UNL A   1      54.034  27.495  27.103  1.00  0.00    -0.200 F 
ATOM     71  F   UNL A   1      54.727  27.882  24.494  1.00  0.00    -0.200 F 
ENDBRANCH  47  61
BRANCH  48  72
ATOM     72  C   UNL A   1      41.091  28.292  28.224  1.00  0.00     0.064 A 
ATOM     73  C   UNL A   1      40.118  28.896  27.413  1.00  0.00     0.173 A 
ATOM     74  C   UNL A   1      40.683  27.821  29.481  1.00  0.00     0.173 A 
ATOM     75  F   UNL A   1      40.460  29.391  26.214  1.00  0.00    -0.203 F 
ATOM     76  C   UNL A   1      38.808  29.064  27.858  1.00  0.00     0.198 A 
ATOM     77  C   UNL A   1      39.364  27.954  29.909  1.00  0.00     0.198 A 
ATOM     78  F   UNL A   1      41.571  27.241  30.302  1.00  0.00    -0.203 F 
ATOM     79  F   UNL A   1      37.922  29.718  27.094  1.00  0.00    -0.200 F 
ATOM     80  C   UNL A   1      38.431  28.589  29.105  1.00  0.00     0.200 A 
ATOM     81  F   UNL A   1      39.001  27.486  31.112  1.00  0.00    -0.200 F 
ATOM     82  F   UNL A   1      37.175  28.763  29.538  1.00  0.00    -0.200 F 
ENDBRANCH  48  72
BRANCH  60  83
ATOM     83  C   UNL A   1      46.438  32.713  28.953  1.00  0.00     0.064 A 
ATOM     84  C   UNL A   1      46.188  33.856  28.181  1.00  0.00     0.173 A 
ATOM     85  C   UNL A   1      46.724  32.893  30.317  1.00  0.00     0.173 A 
ATOM     86  F   UNL A   1      45.919  33.742  26.871  1.00  0.00    -0.203 F 
ATOM     87  C   UNL A   1      46.242  35.129  28.747  1.00  0.00     0.198 A 
ATOM     88  C   UNL A   1      46.742  34.163  30.887  1.00  0.00     0.198 A 
ATOM     89  F   UNL A   1      46.959  31.833  31.105  1.00  0.00    -0.203 F 
ATOM     90  F   UNL A   1      46.043  36.209  27.981  1.00  0.00    -0.200 F 
ATOM     91  C   UNL A   1      46.507  35.280  30.101  1.00  0.00     0.200 A 
ATOM     92  F   UNL A   1      46.976  34.304  32.199  1.00  0.00    -0.200 F 
ATOM     93  F   UNL A   1      46.540  36.503  30.647  1.00  0.00    -0.200 F 
ENDBRANCH  60  83
ENDBRANCH  34  35
ENDBRANCH  27  29
ENDBRANCH  26  27
ENDBRANCH  25  26
ENDBRANCH  24  25
ENDBRANCH  23  24
ENDBRANCH  22  23
ENDBRANCH   1  22
TORSDOF 21
ENDMDL
MODEL 2
REMARK VINA RESULT:      -8.9      6.815     11.781
REMARK SMILES [N-]=[N+]=NC[C@@H](Nc1ccccc1Br)C(=O)OCCOCCOCCOC(=O)c1ccc(-c2c3nc(c(-c4c(F)c(F)c(F)c(F)c4F)c4ccc([nH]4)c(-c4c(F)c(F)c(F)c(F)c4F)c4nc(c(-c5c(F)c(F)c(F)c(F)c5F)c5ccc2[nH]5)C=C4)C=C3)cc1
REMARK SMILES IDX 20 1 19 2 18 3 17 4 16 5 14 6 15 7 5 8 4 9 3 10 1 11 2 12
REMARK SMILES IDX 6 13 7 15 8 16 12 17 9 18 11 19 13 20 10 21 21 22 22 23
REMARK SMILES IDX 23 24 24 25 25 26 26 27 27 28 28 29 29 30 90 31 30 32 89 33
REMARK SMILES IDX 31 34 32 35 33 36 83 37 34 38 88 39 82 40 84 41 35 42 87 43
REMARK SMILES IDX 81 44 80 45 36 47 68 48 48 49 67 50 49 51 52 52 66 53 85 54
REMARK SMILES IDX 50 55 51 56 65 58 86 59 53 60 37 61 38 62 46 63 39 64 40 65
REMARK SMILES IDX 44 66 47 67 41 68 42 69 45 70 43 71 69 72 70 73 78 74 71 75
REMARK SMILES IDX 72 76 76 77 79 78 73 79 74 80 77 81 75 82 54 83 55 84 63 85
REMARK SMILES IDX 56 86 57 87 61 88 64 89 58 90 59 91 62 92 60 93
REMARK H PARENT 6 14 84 46 52 57
REMARK Flexibility Score: inf
ROOT
ATOM      1  C   UNL A   1      38.133  31.855  36.725  1.00  0.00     0.188 C 
ENDROOT
BRANCH   1   2
ATOM      2  O   UNL A   1      37.050  32.607  36.248  1.00  0.00    -0.376 OA
BRANCH   2   3
ATOM      3  C   UNL A   1      37.167  33.387  35.073  1.00  0.00     0.202 C 
BRANCH   3   4
ATOM      4  C   UNL A   1      37.388  32.886  33.628  1.00  0.00     0.261 C 
BRANCH   4   5
ATOM      5  O   UNL A   1      37.413  33.793  32.514  1.00  0.00    -0.462 OA
BRANCH   5   6
ATOM      6  C   UNL A   1      37.346  33.186  31.292  1.00  0.00     0.328 C 
ATOM      7  O   UNL A   1      38.034  33.540  30.337  1.00  0.00    -0.250 OA
BRANCH   6   8
ATOM      8  C   UNL A   1      36.308  32.041  31.190  1.00  0.00     0.195 C 
BRANCH   8   9
ATOM      9  C   UNL A   1      34.846  32.475  30.946  1.00  0.00     0.127 C 
BRANCH   9  10
ATOM     10  N   UNL A   1      34.151  32.654  32.243  1.00  0.00    -0.091 NA
ATOM     11  N   UNL A   1      34.017  34.885  33.055  1.00  0.00    -0.003 NA
ATOM     12  N   UNL A   1      34.089  33.817  32.681  1.00  0.00     0.001 N 
ENDBRANCH   9  10
ENDBRANCH   8   9
BRANCH   8  13
ATOM     13  N   UNL A   1      36.694  30.969  30.221  1.00  0.00    -0.371 N 
ATOM     14  H   UNL A   1      36.419  31.006  29.278  1.00  0.00     0.161 HD
BRANCH  13  15
ATOM     15  C   UNL A   1      37.462  29.913  30.719  1.00  0.00     0.049 A 
ATOM     16  C   UNL A   1      37.374  29.591  32.078  1.00  0.00     0.027 A 
ATOM     17  C   UNL A   1      38.185  29.051  29.872  1.00  0.00     0.041 A 
ATOM     18  C   UNL A   1      37.903  28.393  32.561  1.00  0.00     0.002 A 
ATOM     19  C   UNL A   1      38.669  27.830  30.344  1.00  0.00     0.018 A 
ATOM     20  Br  UNL A   1      38.583  29.527  28.071  1.00  0.00    -0.049 Br
ATOM     21  C   UNL A   1      38.512  27.496  31.687  1.00  0.00     0.001 A 
ENDBRANCH  13  15
ENDBRANCH   8  13
ENDBRANCH   6   8
ENDBRANCH   5   6
ENDBRANCH   4   5
ENDBRANCH   3   4
ENDBRANCH   2   3
ENDBRANCH   1   2
BRANCH   1  22
ATOM     22  C   UNL A   1      39.061  32.556  37.721  1.00  0.00     0.188 C 
BRANCH  22  23
ATOM     23  O   UNL A   1      38.534  33.228  38.843  1.00  0.00    -0.376 OA
BRANCH  23  24
ATOM     24  C   UNL A   1      39.407  33.537  39.922  1.00  0.00     0.202 C 
BRANCH  24  25
ATOM     25  C   UNL A   1      39.694  34.980  40.399  1.00  0.00     0.261 C 
BRANCH  25  26
ATOM     26  O   UNL A   1      40.667  35.743  39.669  1.00  0.00    -0.460 OA
BRANCH  26  27
ATOM     27  C   UNL A   1      40.209  36.417  38.582  1.00  0.00     0.338 C 
ATOM     28  O   UNL A   1      39.536  37.433  38.575  1.00  0.00    -0.246 OA
BRANCH  27  29
ATOM     29  C   UNL A   1      40.852  35.858  37.369  1.00  0.00     0.060 A 
ATOM     30  C   UNL A   1      40.056  35.509  36.262  1.00  0.00     0.016 A 
ATOM     31  C   UNL A   1      42.230  35.668  37.328  1.00  0.00     0.016 A 
ATOM     32  C   UNL A   1      40.634  34.958  35.116  1.00  0.00     0.010 A 
ATOM     33  C   UNL A   1      42.802  35.073  36.199  1.00  0.00     0.010 A 
ATOM     34  C   UNL A   1      42.005  34.687  35.103  1.00  0.00    -0.014 A 
BRANCH  34  35
ATOM     35  C   UNL A   1      42.588  33.778  34.085  1.00  0.00     0.031 A 
ATOM     36  C   UNL A   1      42.900  34.363  32.734  1.00  0.00     0.074 A 
ATOM     37  C   UNL A   1      42.800  32.471  34.321  1.00  0.00     0.049 A 
ATOM     38  N   UNL A   1      43.194  33.763  31.610  1.00  0.00    -0.248 NA
ATOM     39  C   UNL A   1      42.855  35.832  32.639  1.00  0.00     0.031 C 
ATOM     40  C   UNL A   1      42.619  31.798  35.602  1.00  0.00     0.029 A 
ATOM     41  N   UNL A   1      43.189  31.471  33.463  1.00  0.00    -0.354 N 
ATOM     42  C   UNL A   1      43.348  34.777  30.674  1.00  0.00     0.074 A 
ATOM     43  C   UNL A   1      43.088  36.028  31.350  1.00  0.00     0.031 C 
ATOM     44  C   UNL A   1      42.863  30.484  35.440  1.00  0.00     0.029 A 
ATOM     45  C   UNL A   1      43.166  30.220  34.034  1.00  0.00     0.049 A 
ATOM     46  H   UNL A   1      43.459  31.632  32.530  1.00  0.00     0.167 HD
ATOM     47  C   UNL A   1      43.678  34.673  29.366  1.00  0.00     0.037 A 
ATOM     48  C   UNL A   1      43.325  29.005  33.469  1.00  0.00     0.037 A 
ATOM     49  C   UNL A   1      43.930  33.425  28.696  1.00  0.00     0.049 A 
ATOM     50  C   UNL A   1      43.581  28.908  31.981  1.00  0.00     0.074 A 
ATOM     51  C   UNL A   1      44.257  33.210  27.370  1.00  0.00     0.029 A 
ATOM     52  N   UNL A   1      43.883  32.181  29.306  1.00  0.00    -0.354 N 
ATOM     53  N   UNL A   1      43.713  29.865  31.093  1.00  0.00    -0.248 NA
ATOM     54  C   UNL A   1      43.708  27.556  31.414  1.00  0.00     0.031 C 
ATOM     55  C   UNL A   1      44.352  31.831  27.162  1.00  0.00     0.029 A 
ATOM     56  C   UNL A   1      44.160  31.193  28.377  1.00  0.00     0.049 A 
ATOM     57  H   UNL A   1      43.681  32.024  30.257  1.00  0.00     0.167 HD
ATOM     58  C   UNL A   1      43.995  29.234  29.886  1.00  0.00     0.074 A 
ATOM     59  C   UNL A   1      44.013  27.813  30.151  1.00  0.00     0.031 C 
ATOM     60  C   UNL A   1      44.224  29.783  28.668  1.00  0.00     0.037 A 
BRANCH  47  61
ATOM     61  C   UNL A   1      43.765  35.938  28.564  1.00  0.00     0.064 A 
ATOM     62  C   UNL A   1      44.985  36.604  28.371  1.00  0.00     0.173 A 
ATOM     63  C   UNL A   1      42.623  36.462  27.939  1.00  0.00     0.173 A 
ATOM     64  F   UNL A   1      46.101  36.154  28.961  1.00  0.00    -0.203 F 
ATOM     65  C   UNL A   1      45.054  37.759  27.596  1.00  0.00     0.198 A 
ATOM     66  C   UNL A   1      42.703  37.597  27.136  1.00  0.00     0.198 A 
ATOM     67  F   UNL A   1      41.433  35.863  28.090  1.00  0.00    -0.203 F 
ATOM     68  F   UNL A   1      46.221  38.404  27.460  1.00  0.00    -0.200 F 
ATOM     69  C   UNL A   1      43.916  38.247  26.970  1.00  0.00     0.200 A 
ATOM     70  F   UNL A   1      41.607  38.057  26.519  1.00  0.00    -0.200 F 
ATOM     71  F   UNL A   1      43.988  39.349  26.211  1.00  0.00    -0.200 F 
ENDBRANCH  47  61
BRANCH  48  72
ATOM     72  C   UNL A   1      43.217  27.765  34.287  1.00  0.00     0.064 A 
ATOM     73  C   UNL A   1      44.364  27.141  34.802  1.00  0.00     0.173 A 
ATOM     74  C   UNL A   1      41.984  27.134  34.507  1.00  0.00     0.173 A 
ATOM     75  F   UNL A   1      45.572  27.685  34.595  1.00  0.00    -0.203 F 
ATOM     76  C   UNL A   1      44.285  25.918  35.466  1.00  0.00     0.198 A 
ATOM     77  C   UNL A   1      41.902  25.931  35.205  1.00  0.00     0.198 A 
ATOM     78  F   UNL A   1      40.855  27.680  34.031  1.00  0.00    -0.203 F 
ATOM     79  F   UNL A   1      45.406  25.307  35.874  1.00  0.00    -0.200 F 
ATOM     80  C   UNL A   1      43.053  25.315  35.671  1.00  0.00     0.200 A 
ATOM     81  F   UNL A   1      40.708  25.356  35.409  1.00  0.00    -0.200 F 
ATOM     82  F   UNL A   1      42.980  24.133  36.297  1.00  0.00    -0.200 F 
ENDBRANCH  48  72
BRANCH  60  83
ATOM     83  C   UNL A   1      44.616  28.868  27.542  1.00  0.00     0.064 A 
ATOM     84  C   UNL A   1      45.942  28.467  27.330  1.00  0.00     0.173 A 
ATOM     85  C   UNL A   1      43.625  28.323  26.708  1.00  0.00     0.173 A 
ATOM     86  F   UNL A   1      46.929  28.963  28.091  1.00  0.00    -0.203 F 
ATOM     87  C   UNL A   1      46.266  27.573  26.311  1.00  0.00     0.198 A 
ATOM     88  C   UNL A   1      43.947  27.403  25.715  1.00  0.00     0.198 A 
ATOM     89  F   UNL A   1      42.338  28.664  26.875  1.00  0.00    -0.203 F 
ATOM     90  F   UNL A   1      47.545  27.237  26.098  1.00  0.00    -0.200 F 
ATOM     91  C   UNL A   1      45.267  27.033  25.512  1.00  0.00     0.200 A 
ATOM     92  F   UNL A   1      42.977  26.867  24.960  1.00  0.00    -0.200 F 
ATOM     93  F   UNL A   1      45.578  26.159  24.546  1.00  0.00    -0.200 F 
ENDBRANCH  60  83
ENDBRANCH  34  35
ENDBRANCH  27  29
ENDBRANCH  26  27
ENDBRANCH  25  26
ENDBRANCH  24  25
ENDBRANCH  23  24
ENDBRANCH  22  23
ENDBRANCH   1  22
TORSDOF 21
ENDMDL
MODEL 3
REMARK VINA RESULT:      -8.8      1.134      2.103
REMARK SMILES [N-]=[N+]=NC[C@@H](Nc1ccccc1Br)C(=O)OCCOCCOCCOC(=O)c1ccc(-c2c3nc(c(-c4c(F)c(F)c(F)c(F)c4F)c4ccc([nH]4)c(-c4c(F)c(F)c(F)c(F)c4F)c4nc(c(-c5c(F)c(F)c(F)c(F)c5F)c5ccc2[nH]5)C=C4)C=C3)cc1
REMARK SMILES IDX 20 1 19 2 18 3 17 4 16 5 14 6 15 7 5 8 4 9 3 10 1 11 2 12
REMARK SMILES IDX 6 13 7 15 8 16 12 17 9 18 11 19 13 20 10 21 21 22 22 23
REMARK SMILES IDX 23 24 24 25 25 26 26 27 27 28 28 29 29 30 90 31 30 32 89 33
REMARK SMILES IDX 31 34 32 35 33 36 83 37 34 38 88 39 82 40 84 41 35 42 87 43
REMARK SMILES IDX 81 44 80 45 36 47 68 48 48 49 67 50 49 51 52 52 66 53 85 54
REMARK SMILES IDX 50 55 51 56 65 58 86 59 53 60 37 61 38 62 46 63 39 64 40 65
REMARK SMILES IDX 44 66 47 67 41 68 42 69 45 70 43 71 69 72 70 73 78 74 71 75
REMARK SMILES IDX 72 76 76 77 79 78 73 79 74 80 77 81 75 82 54 83 55 84 63 85
REMARK SMILES IDX 56 86 57 87 61 88 64 89 58 90 59 91 62 92 60 93
REMARK H PARENT 6 14 84 46 52 57
REMARK Flexibility Score: inf
ROOT
ATOM      1  C   UNL A   1      38.463  22.897  26.135  1.00  0.00     0.188 C 
ENDROOT
BRANCH   1   2
ATOM      2  O   UNL A   1      37.662  22.493  25.057  1.00  0.00    -0.376 OA
BRANCH   2   3
ATOM      3  C   UNL A   1      36.318  22.921  24.948  1.00  0.00     0.202 C 
BRANCH   3   4
ATOM      4  C   UNL A   1      35.492  23.114  23.657  1.00  0.00     0.261 C 
BRANCH   4   5
ATOM      5  O   UNL A   1      34.180  22.546  23.512  1.00  0.00    -0.462 OA
BRANCH   5   6
ATOM      6  C   UNL A   1      33.393  23.174  22.588  1.00  0.00     0.328 C 
ATOM      7  O   UNL A   1      33.714  23.283  21.408  1.00  0.00    -0.250 OA
BRANCH   6   8
ATOM      8  C   UNL A   1      32.080  23.772  23.151  1.00  0.00     0.195 C 
BRANCH   8   9
ATOM      9  C   UNL A   1      32.107  24.176  24.642  1.00  0.00     0.127 C 
BRANCH   9  10
ATOM     10  N   UNL A   1      31.145  23.348  25.406  1.00  0.00    -0.091 NA
ATOM     11  N   UNL A   1      29.671  24.529  26.852  1.00  0.00    -0.003 NA
ATOM     12  N   UNL A   1      30.379  23.958  26.175  1.00  0.00     0.001 N 
ENDBRANCH   9  10
ENDBRANCH   8   9
BRANCH   8  13
ATOM     13  N   UNL A   1      31.531  24.891  22.326  1.00  0.00    -0.371 N 
ATOM     14  H   UNL A   1      30.900  24.725  21.589  1.00  0.00     0.161 HD
BRANCH  13  15
ATOM     15  C   UNL A   1      31.955  26.183  22.649  1.00  0.00     0.049 A 
ATOM     16  C   UNL A   1      33.263  26.567  22.332  1.00  0.00     0.027 A 
ATOM     17  C   UNL A   1      31.063  27.166  23.122  1.00  0.00     0.041 A 
ATOM     18  C   UNL A   1      33.642  27.910  22.386  1.00  0.00     0.002 A 
ATOM     19  C   UNL A   1      31.427  28.513  23.126  1.00  0.00     0.018 A 
ATOM     20  Br  UNL A   1      29.353  26.706  23.822  1.00  0.00    -0.049 Br
ATOM     21  C   UNL A   1      32.713  28.884  22.742  1.00  0.00     0.001 A 
ENDBRANCH  13  15
ENDBRANCH   8  13
ENDBRANCH   6   8
ENDBRANCH   5   6
ENDBRANCH   4   5
ENDBRANCH   3   4
ENDBRANCH   2   3
ENDBRANCH   1   2
BRANCH   1  22
ATOM     22  C   UNL A   1      39.847  22.247  26.234  1.00  0.00     0.188 C 
BRANCH  22  23
ATOM     23  O   UNL A   1      40.063  21.144  27.086  1.00  0.00    -0.376 OA
BRANCH  23  24
ATOM     24  C   UNL A   1      41.354  20.551  27.113  1.00  0.00     0.202 C 
BRANCH  24  25
ATOM     25  C   UNL A   1      41.844  19.529  26.060  1.00  0.00     0.261 C 
BRANCH  25  26
ATOM     26  O   UNL A   1      43.228  19.150  26.091  1.00  0.00    -0.460 OA
BRANCH  26  27
ATOM     27  C   UNL A   1      43.964  19.474  24.996  1.00  0.00     0.338 C 
ATOM     28  O   UNL A   1      44.116  18.809  23.987  1.00  0.00    -0.246 OA
BRANCH  27  29
ATOM     29  C   UNL A   1      44.385  20.892  25.108  1.00  0.00     0.060 A 
ATOM     30  C   UNL A   1      45.319  21.261  26.093  1.00  0.00     0.016 A 
ATOM     31  C   UNL A   1      43.853  21.852  24.252  1.00  0.00     0.016 A 
ATOM     32  C   UNL A   1      45.714  22.594  26.235  1.00  0.00     0.010 A 
ATOM     33  C   UNL A   1      44.213  23.192  24.424  1.00  0.00     0.010 A 
ATOM     34  C   UNL A   1      45.119  23.573  25.434  1.00  0.00    -0.014 A 
BRANCH  34  35
ATOM     35  C   UNL A   1      45.220  25.009  25.793  1.00  0.00     0.031 A 
ATOM     36  C   UNL A   1      46.570  25.661  25.661  1.00  0.00     0.074 A 
ATOM     37  C   UNL A   1      44.173  25.712  26.261  1.00  0.00     0.049 A 
ATOM     38  N   UNL A   1      46.990  26.815  26.112  1.00  0.00    -0.248 NA
ATOM     39  C   UNL A   1      47.592  24.891  24.931  1.00  0.00     0.031 C 
ATOM     40  C   UNL A   1      42.801  25.228  26.362  1.00  0.00     0.029 A 
ATOM     41  N   UNL A   1      44.122  26.988  26.771  1.00  0.00    -0.354 N 
ATOM     42  C   UNL A   1      48.325  26.898  25.739  1.00  0.00     0.074 A 
ATOM     43  C   UNL A   1      48.655  25.670  25.051  1.00  0.00     0.031 C 
ATOM     44  C   UNL A   1      42.045  26.184  26.934  1.00  0.00     0.029 A 
ATOM     45  C   UNL A   1      42.893  27.323  27.285  1.00  0.00     0.049 A 
ATOM     46  H   UNL A   1      44.891  27.602  26.768  1.00  0.00     0.167 HD
ATOM     47  C   UNL A   1      49.197  27.910  25.951  1.00  0.00     0.037 A 
ATOM     48  C   UNL A   1      42.515  28.405  27.998  1.00  0.00     0.037 A 
ATOM     49  C   UNL A   1      48.865  29.127  26.642  1.00  0.00     0.049 A 
ATOM     50  C   UNL A   1      43.538  29.472  28.320  1.00  0.00     0.074 A 
ATOM     51  C   UNL A   1      49.681  30.208  26.923  1.00  0.00     0.029 A 
ATOM     52  N   UNL A   1      47.613  29.422  27.159  1.00  0.00    -0.354 N 
ATOM     53  N   UNL A   1      44.803  29.545  27.981  1.00  0.00    -0.248 NA
ATOM     54  C   UNL A   1      43.079  30.610  29.132  1.00  0.00     0.031 C 
ATOM     55  C   UNL A   1      48.938  31.134  27.660  1.00  0.00     0.029 A 
ATOM     56  C   UNL A   1      47.639  30.663  27.771  1.00  0.00     0.049 A 
ATOM     57  H   UNL A   1      46.825  28.836  27.101  1.00  0.00     0.167 HD
ATOM     58  C   UNL A   1      45.268  30.755  28.484  1.00  0.00     0.074 A 
ATOM     59  C   UNL A   1      44.153  31.386  29.155  1.00  0.00     0.031 C 
ATOM     60  C   UNL A   1      46.506  31.300  28.393  1.00  0.00     0.037 A 
BRANCH  47  61
ATOM     61  C   UNL A   1      50.602  27.739  25.452  1.00  0.00     0.064 A 
ATOM     62  C   UNL A   1      51.640  27.331  26.302  1.00  0.00     0.173 A 
ATOM     63  C   UNL A   1      50.902  27.935  24.095  1.00  0.00     0.173 A 
ATOM     64  F   UNL A   1      51.409  27.146  27.610  1.00  0.00    -0.203 F 
ATOM     65  C   UNL A   1      52.932  27.144  25.816  1.00  0.00     0.198 A 
ATOM     66  C   UNL A   1      52.186  27.713  23.606  1.00  0.00     0.198 A 
ATOM     67  F   UNL A   1      49.945  28.323  23.239  1.00  0.00    -0.203 F 
ATOM     68  F   UNL A   1      53.918  26.796  26.655  1.00  0.00    -0.200 F 
ATOM     69  C   UNL A   1      53.201  27.324  24.467  1.00  0.00     0.200 A 
ATOM     70  F   UNL A   1      52.440  27.871  22.300  1.00  0.00    -0.200 F 
ATOM     71  F   UNL A   1      54.440  27.127  23.998  1.00  0.00    -0.200 F 
ENDBRANCH  47  61
BRANCH  48  72
ATOM     72  C   UNL A   1      41.117  28.541  28.494  1.00  0.00     0.064 A 
ATOM     73  C   UNL A   1      40.768  28.124  29.787  1.00  0.00     0.173 A 
ATOM     74  C   UNL A   1      40.087  29.013  27.667  1.00  0.00     0.173 A 
ATOM     75  F   UNL A   1      41.710  27.634  30.609  1.00  0.00    -0.203 F 
ATOM     76  C   UNL A   1      39.443  28.135  30.218  1.00  0.00     0.198 A 
ATOM     77  C   UNL A   1      38.768  29.061  28.113  1.00  0.00     0.198 A 
ATOM     78  F   UNL A   1      40.359  29.419  26.418  1.00  0.00    -0.203 F 
ATOM     79  F   UNL A   1      39.132  27.653  31.430  1.00  0.00    -0.200 F 
ATOM     80  C   UNL A   1      38.443  28.607  29.382  1.00  0.00     0.200 A 
ATOM     81  F   UNL A   1      37.805  29.527  27.304  1.00  0.00    -0.200 F 
ATOM     82  F   UNL A   1      37.168  28.605  29.792  1.00  0.00    -0.200 F 
ENDBRANCH  48  72
BRANCH  60  83
ATOM     83  C   UNL A   1      46.711  32.685  28.938  1.00  0.00     0.064 A 
ATOM     84  C   UNL A   1      46.491  33.835  28.167  1.00  0.00     0.173 A 
ATOM     85  C   UNL A   1      47.062  32.859  30.288  1.00  0.00     0.173 A 
ATOM     86  F   UNL A   1      46.163  33.727  26.871  1.00  0.00    -0.203 F 
ATOM     87  C   UNL A   1      46.637  35.106  28.719  1.00  0.00     0.198 A 
ATOM     88  C   UNL A   1      47.171  34.129  30.845  1.00  0.00     0.198 A 
ATOM     89  F   UNL A   1      47.273  31.793  31.075  1.00  0.00    -0.203 F 
ATOM     90  F   UNL A   1      46.464  36.191  27.952  1.00  0.00    -0.200 F 
ATOM     91  C   UNL A   1      46.965  35.252  30.060  1.00  0.00     0.200 A 
ATOM     92  F   UNL A   1      47.467  34.266  32.145  1.00  0.00    -0.200 F 
ATOM     93  F   UNL A   1      47.085  36.475  30.593  1.00  0.00    -0.200 F 
ENDBRANCH  60  83
ENDBRANCH  34  35
ENDBRANCH  27  29
ENDBRANCH  26  27
ENDBRANCH  25  26
ENDBRANCH  24  25
ENDBRANCH  23  24
ENDBRANCH  22  23
ENDBRANCH   1  22
TORSDOF 21
ENDMDL
