MODEL 1
REMARK VINA RESULT:     -13.9      0.000      0.000
REMARK SMILES Cc1ccc(NC(=O)Cn2c(CCC(=O)OCCOCCOCCOC(=O)c3ccc(-c4c5nc(c(-c6c(F)c(F)c(F)c(F)c6F)c6ccc([nH]6)c(-c6c(F)c(F)c(F)c(F)c6F)c6nc(c(-c7c(F)c(F)c(F)c(F)c7F)c7ccc4[nH]7)C=C6)C=C5)cc3)ccc2-c2ccccc2)cc1
REMARK SMILES IDX 19 1 18 2 17 3 16 4 14 5 15 6 13 7 12 8 11 9 10 10 93 11
REMARK SMILES IDX 91 12 92 13 9 14 7 15 6 16 8 18 5 19 1 20 2 21 3 22 101 23
REMARK SMILES IDX 4 24 100 25 94 26 95 27 99 28 96 29 98 30 97 31 20 32 21 33
REMARK SMILES IDX 22 34 23 35 24 36 25 37 26 38 27 39 28 40 29 41 90 42 30 43
REMARK SMILES IDX 89 44 31 45 32 46 33 47 83 48 34 49 88 50 82 51 84 52 35 53
REMARK SMILES IDX 87 54 81 55 80 56 36 58 68 59 48 60 67 61 49 62 52 63 66 64
REMARK SMILES IDX 85 65 50 66 51 67 65 69 86 70 53 71 37 72 38 73 46 74 39 75
REMARK SMILES IDX 40 76 44 77 47 78 41 79 42 80 45 81 43 82 69 83 70 84 78 85
REMARK SMILES IDX 71 86 72 87 76 88 79 89 73 90 74 91 77 92 75 93 54 94 55 95
REMARK SMILES IDX 63 96 56 97 57 98 61 99 64 100 58 101 59 102 62 103 60 104
REMARK H PARENT 6 17 84 57 52 68
REMARK Flexibility Score: inf
ROOT
ATOM      1  O   UNL A   1      34.227  32.761  28.584  1.00  0.00    -0.376 OA
ENDROOT
BRANCH   1   2
ATOM      2  C   UNL A   1      34.894  31.890  27.692  1.00  0.00     0.202 C 
BRANCH   2   3
ATOM      3  C   UNL A   1      35.121  30.358  28.047  1.00  0.00     0.261 C 
BRANCH   3   4
ATOM      4  O   UNL A   1      34.335  29.073  27.682  1.00  0.00    -0.463 OA
BRANCH   4   5
ATOM      5  C   UNL A   1      33.427  28.672  26.719  1.00  0.00     0.306 C 
ATOM      6  O   UNL A   1      32.780  29.493  26.061  1.00  0.00    -0.252 OA
BRANCH   5   7
ATOM      7  C   UNL A   1      33.437  26.910  26.118  1.00  0.00     0.129 C 
BRANCH   7   8
ATOM      8  C   UNL A   1      34.955  25.179  25.803  1.00  0.00     0.066 C 
BRANCH   8   9
ATOM      9  C   UNL A   1      34.423  23.335  26.314  1.00  0.00     0.019 A 
ATOM     10  N   UNL A   1      34.268  22.178  25.214  1.00  0.00    -0.335 N 
ATOM     11  C   UNL A   1      33.928  21.001  25.833  1.00  0.00     0.049 A 
ATOM     12  C   UNL A   1      34.057  22.696  27.487  1.00  0.00     0.024 A 
ATOM     13  C   UNL A   1      33.756  21.309  27.183  1.00  0.00     0.029 A 
BRANCH  10  14
ATOM     14  C   UNL A   1      34.381  22.420  23.446  1.00  0.00     0.222 C 
BRANCH  14  15
ATOM     15  C   UNL A   1      32.727  22.373  22.385  1.00  0.00     0.244 C 
ATOM     16  N   UNL A   1      32.100  23.997  21.847  1.00  0.00    -0.325 N 
ATOM     17  H   UNL A   1      31.799  24.033  20.911  1.00  0.00     0.169 HD
ATOM     18  O   UNL A   1      32.065  21.484  21.865  1.00  0.00    -0.273 OA
BRANCH  16  19
ATOM     19  C   UNL A   1      31.921  25.761  22.875  1.00  0.00     0.041 A 
ATOM     20  C   UNL A   1      30.005  29.854  23.643  1.00  0.00     0.044 C 
ATOM     21  C   UNL A   1      30.688  28.547  23.384  1.00  0.00    -0.051 A 
ATOM     22  C   UNL A   1      30.092  27.428  23.888  1.00  0.00     0.005 A 
ATOM     23  C   UNL A   1      31.918  28.371  22.752  1.00  0.00     0.005 A 
ATOM     24  C   UNL A   1      30.690  26.172  23.701  1.00  0.00     0.026 A 
ATOM     25  C   UNL A   1      32.540  27.072  22.564  1.00  0.00     0.026 A 
ENDBRANCH  16  19
ENDBRANCH  14  15
ENDBRANCH  10  14
BRANCH  11  26
ATOM     26  C   UNL A   1      33.773  19.742  25.089  1.00  0.00    -0.002 A 
ATOM     27  C   UNL A   1      32.532  19.346  24.580  1.00  0.00     0.010 A 
ATOM     28  C   UNL A   1      34.885  18.918  24.839  1.00  0.00     0.010 A 
ATOM     29  C   UNL A   1      32.411  18.162  23.840  1.00  0.00     0.001 A 
ATOM     30  C   UNL A   1      34.775  17.764  24.062  1.00  0.00     0.001 A 
ATOM     31  C   UNL A   1      33.534  17.378  23.573  1.00  0.00     0.000 A 
ENDBRANCH  11  26
ENDBRANCH   8   9
ENDBRANCH   7   8
ENDBRANCH   5   7
ENDBRANCH   4   5
ENDBRANCH   3   4
ENDBRANCH   2   3
ENDBRANCH   1   2
BRANCH   1  32
ATOM     32  C   UNL A   1      33.427  33.834  28.098  1.00  0.00     0.188 C 
BRANCH  32  33
ATOM     33  C   UNL A   1      33.133  35.091  28.904  1.00  0.00     0.188 C 
BRANCH  33  34
ATOM     34  O   UNL A   1      33.895  35.399  30.060  1.00  0.00    -0.376 OA
BRANCH  34  35
ATOM     35  C   UNL A   1      33.187  35.561  31.285  1.00  0.00     0.202 C 
BRANCH  35  36
ATOM     36  C   UNL A   1      34.032  36.232  32.376  1.00  0.00     0.261 C 
BRANCH  36  37
ATOM     37  O   UNL A   1      34.684  35.094  33.081  1.00  0.00    -0.460 OA
BRANCH  37  38
ATOM     38  C   UNL A   1      34.384  33.760  32.933  1.00  0.00     0.338 C 
ATOM     39  O   UNL A   1      33.289  33.253  33.101  1.00  0.00    -0.246 OA
BRANCH  38  40
ATOM     40  C   UNL A   1      35.668  32.932  32.726  1.00  0.00     0.060 A 
ATOM     41  C   UNL A   1      36.449  32.217  31.059  1.00  0.00     0.016 A 
ATOM     42  C   UNL A   1      36.952  32.553  34.208  1.00  0.00     0.016 A 
ATOM     43  C   UNL A   1      38.127  31.204  31.008  1.00  0.00     0.010 A 
ATOM     44  C   UNL A   1      38.396  31.089  34.097  1.00  0.00     0.010 A 
ATOM     45  C   UNL A   1      39.350  30.508  32.383  1.00  0.00    -0.014 A 
BRANCH  45  46
ATOM     46  C   UNL A   1      40.658  29.392  32.498  1.00  0.00     0.031 A 
ATOM     47  C   UNL A   1      40.212  28.326  31.646  1.00  0.00     0.074 A 
ATOM     48  C   UNL A   1      42.043  29.079  32.722  1.00  0.00     0.049 A 
ATOM     49  N   UNL A   1      40.573  28.425  30.423  1.00  0.00    -0.248 NA
ATOM     50  C   UNL A   1      39.182  27.364  31.960  1.00  0.00     0.031 C 
ATOM     51  C   UNL A   1      43.096  29.832  33.403  1.00  0.00     0.029 A 
ATOM     52  N   UNL A   1      42.911  27.953  32.145  1.00  0.00    -0.354 N 
ATOM     53  C   UNL A   1      39.959  27.425  29.767  1.00  0.00     0.074 A 
ATOM     54  C   UNL A   1      39.000  26.892  30.721  1.00  0.00     0.031 C 
ATOM     55  C   UNL A   1      44.336  29.343  33.119  1.00  0.00     0.029 A 
ATOM     56  C   UNL A   1      44.334  28.181  32.172  1.00  0.00     0.049 A 
ATOM     57  H   UNL A   1      42.521  27.127  31.777  1.00  0.00     0.167 HD
ATOM     58  C   UNL A   1      40.457  27.144  28.547  1.00  0.00     0.037 A 
ATOM     59  C   UNL A   1      45.512  27.844  31.429  1.00  0.00     0.037 A 
ATOM     60  C   UNL A   1      41.323  28.224  27.945  1.00  0.00     0.049 A 
ATOM     61  C   UNL A   1      45.530  29.124  30.683  1.00  0.00     0.074 A 
ATOM     62  C   UNL A   1      41.435  28.709  26.658  1.00  0.00     0.029 A 
ATOM     63  N   UNL A   1      42.216  29.047  28.687  1.00  0.00    -0.354 N 
ATOM     64  N   UNL A   1      44.627  29.296  29.775  1.00  0.00    -0.248 NA
ATOM     65  C   UNL A   1      46.395  30.246  30.976  1.00  0.00     0.031 C 
ATOM     66  C   UNL A   1      42.425  29.739  26.628  1.00  0.00     0.029 A 
ATOM     67  C   UNL A   1      42.858  30.041  27.913  1.00  0.00     0.049 A 
ATOM     68  H   UNL A   1      42.372  28.933  29.653  1.00  0.00     0.167 HD
ATOM     69  C   UNL A   1      44.675  30.603  29.438  1.00  0.00     0.074 A 
ATOM     70  C   UNL A   1      45.691  31.171  30.316  1.00  0.00     0.031 C 
ATOM     71  C   UNL A   1      43.822  31.070  28.495  1.00  0.00     0.037 A 
BRANCH  58  72
ATOM     72  C   UNL A   1      40.282  25.748  27.986  1.00  0.00     0.064 A 
ATOM     73  C   UNL A   1      41.262  24.790  28.299  1.00  0.00     0.173 A 
ATOM     74  C   UNL A   1      39.151  25.226  27.309  1.00  0.00     0.173 A 
ATOM     75  F   UNL A   1      42.365  25.125  28.980  1.00  0.00    -0.203 F 
ATOM     76  C   UNL A   1      41.120  23.439  27.984  1.00  0.00     0.198 A 
ATOM     77  C   UNL A   1      38.983  23.865  27.046  1.00  0.00     0.198 A 
ATOM     78  F   UNL A   1      38.154  25.991  26.860  1.00  0.00    -0.203 F 
ATOM     79  F   UNL A   1      42.094  22.581  28.314  1.00  0.00    -0.200 F 
ATOM     80  C   UNL A   1      39.974  22.970  27.378  1.00  0.00     0.200 A 
ATOM     81  F   UNL A   1      37.844  23.430  26.487  1.00  0.00    -0.200 F 
ATOM     82  F   UNL A   1      39.820  21.666  27.122  1.00  0.00    -0.200 F 
ENDBRANCH  58  72
BRANCH  59  83
ATOM     83  C   UNL A   1      46.331  26.841  30.442  1.00  0.00     0.064 A 
ATOM     84  C   UNL A   1      47.738  26.715  30.548  1.00  0.00     0.173 A 
ATOM     85  C   UNL A   1      45.865  26.291  29.186  1.00  0.00     0.173 A 
ATOM     86  F   UNL A   1      48.391  27.395  31.500  1.00  0.00    -0.203 F 
ATOM     87  C   UNL A   1      48.545  25.989  29.613  1.00  0.00     0.198 A 
ATOM     88  C   UNL A   1      46.662  25.557  28.269  1.00  0.00     0.198 A 
ATOM     89  F   UNL A   1      44.644  26.542  28.700  1.00  0.00    -0.203 F 
ATOM     90  F   UNL A   1      49.879  25.936  29.771  1.00  0.00    -0.200 F 
ATOM     91  C   UNL A   1      48.000  25.376  28.500  1.00  0.00     0.200 A 
ATOM     92  F   UNL A   1      46.126  25.096  27.125  1.00  0.00    -0.200 F 
ATOM     93  F   UNL A   1      48.760  24.687  27.632  1.00  0.00    -0.200 F 
ENDBRANCH  59  83
BRANCH  71  94
ATOM     94  C   UNL A   1      43.828  32.569  28.188  1.00  0.00     0.064 A 
ATOM     95  C   UNL A   1      43.343  33.635  28.964  1.00  0.00     0.173 A 
ATOM     96  C   UNL A   1      44.311  33.020  26.978  1.00  0.00     0.173 A 
ATOM     97  F   UNL A   1      43.466  33.627  30.298  1.00  0.00    -0.203 F 
ATOM     98  C   UNL A   1      42.957  34.872  28.424  1.00  0.00     0.198 A 
ATOM     99  C   UNL A   1      43.958  34.250  26.411  1.00  0.00     0.198 A 
ATOM    100  F   UNL A   1      45.311  32.347  26.403  1.00  0.00    -0.203 F 
ATOM    101  F   UNL A   1      42.493  35.836  29.233  1.00  0.00    -0.200 F 
ATOM    102  C   UNL A   1      43.180  35.143  27.100  1.00  0.00     0.200 A 
ATOM    103  F   UNL A   1      44.492  34.608  25.239  1.00  0.00    -0.200 F 
ATOM    104  F   UNL A   1      42.852  36.329  26.570  1.00  0.00    -0.200 F 
ENDBRANCH  71  94
ENDBRANCH  45  46
ENDBRANCH  38  40
ENDBRANCH  37  38
ENDBRANCH  36  37
ENDBRANCH  35  36
ENDBRANCH  34  35
ENDBRANCH  33  34
ENDBRANCH  32  33
ENDBRANCH   1  32
TORSDOF 23
ENDMDL
MODEL 2
REMARK VINA RESULT:     -13.1      4.156     10.058
REMARK SMILES Cc1ccc(NC(=O)Cn2c(CCC(=O)OCCOCCOCCOC(=O)c3ccc(-c4c5nc(c(-c6c(F)c(F)c(F)c(F)c6F)c6ccc([nH]6)c(-c6c(F)c(F)c(F)c(F)c6F)c6nc(c(-c7c(F)c(F)c(F)c(F)c7F)c7ccc4[nH]7)C=C6)C=C5)cc3)ccc2-c2ccccc2)cc1
REMARK SMILES IDX 19 1 18 2 17 3 16 4 14 5 15 6 13 7 12 8 11 9 10 10 93 11
REMARK SMILES IDX 91 12 92 13 9 14 7 15 6 16 8 18 5 19 1 20 2 21 3 22 101 23
REMARK SMILES IDX 4 24 100 25 94 26 95 27 99 28 96 29 98 30 97 31 20 32 21 33
REMARK SMILES IDX 22 34 23 35 24 36 25 37 26 38 27 39 28 40 29 41 90 42 30 43
REMARK SMILES IDX 89 44 31 45 32 46 33 47 83 48 34 49 88 50 82 51 84 52 35 53
REMARK SMILES IDX 87 54 81 55 80 56 36 58 68 59 48 60 67 61 49 62 52 63 66 64
REMARK SMILES IDX 85 65 50 66 51 67 65 69 86 70 53 71 37 72 38 73 46 74 39 75
REMARK SMILES IDX 40 76 44 77 47 78 41 79 42 80 45 81 43 82 69 83 70 84 78 85
REMARK SMILES IDX 71 86 72 87 76 88 79 89 73 90 74 91 77 92 75 93 54 94 55 95
REMARK SMILES IDX 63 96 56 97 57 98 61 99 64 100 58 101 59 102 62 103 60 104
REMARK H PARENT 6 17 84 57 52 68
REMARK Flexibility Score: inf
ROOT
ATOM      1  O   UNL A   1      37.526  19.385  25.364  1.00  0.00    -0.376 OA
ENDROOT
BRANCH   1   2
ATOM      2  C   UNL A   1      36.658  18.578  24.593  1.00  0.00     0.202 C 
BRANCH   2   3
ATOM      3  C   UNL A   1      35.099  18.518  24.891  1.00  0.00     0.261 C 
BRANCH   3   4
ATOM      4  O   UNL A   1      33.878  19.186  24.211  1.00  0.00    -0.463 OA
BRANCH   4   5
ATOM      5  C   UNL A   1      32.532  19.363  24.477  1.00  0.00     0.306 C 
ATOM      6  O   UNL A   1      31.841  18.450  24.941  1.00  0.00    -0.252 OA
BRANCH   5   7
ATOM      7  C   UNL A   1      31.816  21.080  24.512  1.00  0.00     0.129 C 
BRANCH   7   8
ATOM      8  C   UNL A   1      31.119  22.715  23.014  1.00  0.00     0.066 C 
BRANCH   8   9
ATOM      9  C   UNL A   1      31.883  24.541  23.166  1.00  0.00     0.019 A 
ATOM     10  N   UNL A   1      31.423  25.543  24.333  1.00  0.00    -0.335 N 
ATOM     11  C   UNL A   1      32.126  26.717  24.230  1.00  0.00     0.049 A 
ATOM     12  C   UNL A   1      32.774  25.309  22.435  1.00  0.00     0.024 A 
ATOM     13  C   UNL A   1      32.901  26.606  23.076  1.00  0.00     0.029 A 
BRANCH  10  14
ATOM     14  C   UNL A   1      30.102  25.227  25.495  1.00  0.00     0.222 C 
BRANCH  14  15
ATOM     15  C   UNL A   1      30.319  23.759  26.784  1.00  0.00     0.244 C 
ATOM     16  N   UNL A   1      32.034  23.423  27.302  1.00  0.00    -0.325 N 
ATOM     17  H   UNL A   1      32.151  23.274  28.267  1.00  0.00     0.169 HD
ATOM     18  O   UNL A   1      29.549  23.079  27.450  1.00  0.00    -0.273 OA
BRANCH  16  19
ATOM     19  C   UNL A   1      33.757  23.307  26.199  1.00  0.00     0.041 A 
ATOM     20  C   UNL A   1      38.320  23.233  25.765  1.00  0.00     0.044 C 
ATOM     21  C   UNL A   1      36.828  23.310  25.868  1.00  0.00    -0.051 A 
ATOM     22  C   UNL A   1      36.171  22.157  26.183  1.00  0.00     0.005 A 
ATOM     23  C   UNL A   1      36.039  24.425  25.588  1.00  0.00     0.005 A 
ATOM     24  C   UNL A   1      34.770  22.152  26.274  1.00  0.00     0.026 A 
ATOM     25  C   UNL A   1      34.590  24.418  25.678  1.00  0.00     0.026 A 
ENDBRANCH  16  19
ENDBRANCH  14  15
ENDBRANCH  10  14
BRANCH  11  26
ATOM     26  C   UNL A   1      31.965  27.812  25.199  1.00  0.00    -0.002 A 
ATOM     27  C   UNL A   1      31.954  27.570  26.576  1.00  0.00     0.010 A 
ATOM     28  C   UNL A   1      31.854  29.144  24.760  1.00  0.00     0.010 A 
ATOM     29  C   UNL A   1      31.839  28.631  27.485  1.00  0.00     0.001 A 
ATOM     30  C   UNL A   1      31.788  30.205  25.664  1.00  0.00     0.001 A 
ATOM     31  C   UNL A   1      31.766  29.947  27.028  1.00  0.00     0.000 A 
ENDBRANCH  11  26
ENDBRANCH   8   9
ENDBRANCH   7   8
ENDBRANCH   5   7
ENDBRANCH   4   5
ENDBRANCH   3   4
ENDBRANCH   2   3
ENDBRANCH   1   2
BRANCH   1  32
ATOM     32  C   UNL A   1      38.888  19.560  24.992  1.00  0.00     0.188 C 
BRANCH  32  33
ATOM     33  C   UNL A   1      40.032  19.607  25.995  1.00  0.00     0.188 C 
BRANCH  33  34
ATOM     34  O   UNL A   1      41.232  18.892  25.750  1.00  0.00    -0.376 OA
BRANCH  34  35
ATOM     35  C   UNL A   1      42.342  19.169  26.599  1.00  0.00     0.202 C 
BRANCH  35  36
ATOM     36  C   UNL A   1      42.656  20.668  26.698  1.00  0.00     0.261 C 
BRANCH  36  37
ATOM     37  O   UNL A   1      43.499  20.941  25.502  1.00  0.00    -0.460 OA
BRANCH  37  38
ATOM     38  C   UNL A   1      44.536  21.841  25.419  1.00  0.00     0.338 C 
ATOM     39  O   UNL A   1      45.689  21.575  25.130  1.00  0.00    -0.246 OA
BRANCH  38  40
ATOM     40  C   UNL A   1      44.103  23.223  25.947  1.00  0.00     0.060 A 
ATOM     41  C   UNL A   1      42.636  24.399  25.341  1.00  0.00     0.016 A 
ATOM     42  C   UNL A   1      44.910  24.051  27.575  1.00  0.00     0.016 A 
ATOM     43  C   UNL A   1      42.227  26.124  26.179  1.00  0.00     0.010 A 
ATOM     44  C   UNL A   1      44.712  26.049  28.035  1.00  0.00     0.010 A 
ATOM     45  C   UNL A   1      43.085  27.203  27.582  1.00  0.00    -0.014 A 
BRANCH  45  46
ATOM     46  C   UNL A   1      43.009  28.811  28.197  1.00  0.00     0.031 A 
ATOM     47  C   UNL A   1      41.614  29.118  28.050  1.00  0.00     0.074 A 
ATOM     48  C   UNL A   1      43.495  29.874  29.034  1.00  0.00     0.049 A 
ATOM     49  N   UNL A   1      40.889  28.833  29.065  1.00  0.00    -0.248 NA
ATOM     50  C   UNL A   1      40.936  29.412  26.809  1.00  0.00     0.031 C 
ATOM     51  C   UNL A   1      44.803  30.081  29.654  1.00  0.00     0.029 A 
ATOM     52  N   UNL A   1      42.741  31.025  29.713  1.00  0.00    -0.354 N 
ATOM     53  C   UNL A   1      39.618  29.063  28.694  1.00  0.00     0.074 A 
ATOM     54  C   UNL A   1      39.683  29.273  27.257  1.00  0.00     0.031 C 
ATOM     55  C   UNL A   1      44.760  31.035  30.627  1.00  0.00     0.029 A 
ATOM     56  C   UNL A   1      43.399  31.624  30.846  1.00  0.00     0.049 A 
ATOM     57  H   UNL A   1      41.862  31.334  29.395  1.00  0.00     0.167 HD
ATOM     58  C   UNL A   1      38.729  29.148  29.704  1.00  0.00     0.037 A 
ATOM     59  C   UNL A   1      43.078  32.275  32.082  1.00  0.00     0.037 A 
ATOM     60  C   UNL A   1      39.200  28.578  31.021  1.00  0.00     0.049 A 
ATOM     61  C   UNL A   1      43.251  31.046  32.892  1.00  0.00     0.074 A 
ATOM     62  C   UNL A   1      38.556  27.839  31.992  1.00  0.00     0.029 A 
ATOM     63  N   UNL A   1      40.536  28.665  31.503  1.00  0.00    -0.354 N 
ATOM     64  N   UNL A   1      42.349  30.129  32.780  1.00  0.00    -0.248 NA
ATOM     65  C   UNL A   1      44.411  30.739  33.699  1.00  0.00     0.031 C 
ATOM     66  C   UNL A   1      39.470  27.563  33.056  1.00  0.00     0.029 A 
ATOM     67  C   UNL A   1      40.750  27.985  32.724  1.00  0.00     0.049 A 
ATOM     68  H   UNL A   1      41.246  29.155  31.028  1.00  0.00     0.167 HD
ATOM     69  C   UNL A   1      42.853  29.030  33.382  1.00  0.00     0.074 A 
ATOM     70  C   UNL A   1      44.190  29.425  33.807  1.00  0.00     0.031 C 
ATOM     71  C   UNL A   1      42.109  27.898  33.413  1.00  0.00     0.037 A 
BRANCH  58  72
ATOM     72  C   UNL A   1      37.461  29.952  29.501  1.00  0.00     0.064 A 
ATOM     73  C   UNL A   1      37.240  31.048  30.354  1.00  0.00     0.173 A 
ATOM     74  C   UNL A   1      36.531  29.841  28.438  1.00  0.00     0.173 A 
ATOM     75  F   UNL A   1      38.065  31.309  31.375  1.00  0.00    -0.203 F 
ATOM     76  C   UNL A   1      36.201  31.957  30.153  1.00  0.00     0.198 A 
ATOM     77  C   UNL A   1      35.528  30.784  28.204  1.00  0.00     0.198 A 
ATOM     78  F   UNL A   1      36.530  28.824  27.574  1.00  0.00    -0.203 F 
ATOM     79  F   UNL A   1      36.049  32.979  31.004  1.00  0.00    -0.200 F 
ATOM     80  C   UNL A   1      35.358  31.840  29.068  1.00  0.00     0.200 A 
ATOM     81  F   UNL A   1      34.743  30.666  27.122  1.00  0.00    -0.200 F 
ATOM     82  F   UNL A   1      34.393  32.742  28.852  1.00  0.00    -0.200 F 
ENDBRANCH  58  72
BRANCH  59  83
ATOM     83  C   UNL A   1      42.071  33.169  32.996  1.00  0.00     0.064 A 
ATOM     84  C   UNL A   1      40.784  33.521  32.520  1.00  0.00     0.173 A 
ATOM     85  C   UNL A   1      42.432  33.990  34.135  1.00  0.00     0.173 A 
ATOM     86  F   UNL A   1      40.380  33.073  31.322  1.00  0.00    -0.203 F 
ATOM     87  C   UNL A   1      39.910  34.440  33.186  1.00  0.00     0.198 A 
ATOM     88  C   UNL A   1      41.560  34.887  34.805  1.00  0.00     0.198 A 
ATOM     89  F   UNL A   1      43.687  34.079  34.587  1.00  0.00    -0.203 F 
ATOM     90  F   UNL A   1      38.713  34.739  32.655  1.00  0.00    -0.200 F 
ATOM     91  C   UNL A   1      40.283  35.087  34.350  1.00  0.00     0.200 A 
ATOM     92  F   UNL A   1      42.003  35.608  35.851  1.00  0.00    -0.200 F 
ATOM     93  F   UNL A   1      39.456  35.940  34.978  1.00  0.00    -0.200 F 
ENDBRANCH  59  83
BRANCH  71  94
ATOM     94  C   UNL A   1      42.728  26.638  34.020  1.00  0.00     0.064 A 
ATOM     95  C   UNL A   1      43.863  25.918  33.606  1.00  0.00     0.173 A 
ATOM     96  C   UNL A   1      42.121  26.025  35.096  1.00  0.00     0.173 A 
ATOM     97  F   UNL A   1      44.941  26.551  33.127  1.00  0.00    -0.203 F 
ATOM     98  C   UNL A   1      44.069  24.562  33.902  1.00  0.00     0.198 A 
ATOM     99  C   UNL A   1      42.309  24.678  35.429  1.00  0.00     0.198 A 
ATOM    100  F   UNL A   1      41.474  26.788  35.980  1.00  0.00    -0.203 F 
ATOM    101  F   UNL A   1      45.174  23.944  33.460  1.00  0.00    -0.200 F 
ATOM    102  C   UNL A   1      43.217  23.907  34.751  1.00  0.00     0.200 A 
ATOM    103  F   UNL A   1      41.689  24.177  36.502  1.00  0.00    -0.200 F 
ATOM    104  F   UNL A   1      43.414  22.622  35.077  1.00  0.00    -0.200 F 
ENDBRANCH  71  94
ENDBRANCH  45  46
ENDBRANCH  38  40
ENDBRANCH  37  38
ENDBRANCH  36  37
ENDBRANCH  35  36
ENDBRANCH  34  35
ENDBRANCH  33  34
ENDBRANCH  32  33
ENDBRANCH   1  32
TORSDOF 23
ENDMDL
MODEL 3
REMARK VINA RESULT:     -13.0      1.216      2.322
REMARK SMILES Cc1ccc(NC(=O)Cn2c(CCC(=O)OCCOCCOCCOC(=O)c3ccc(-c4c5nc(c(-c6c(F)c(F)c(F)c(F)c6F)c6ccc([nH]6)c(-c6c(F)c(F)c(F)c(F)c6F)c6nc(c(-c7c(F)c(F)c(F)c(F)c7F)c7ccc4[nH]7)C=C6)C=C5)cc3)ccc2-c2ccccc2)cc1
REMARK SMILES IDX 19 1 18 2 17 3 16 4 14 5 15 6 13 7 12 8 11 9 10 10 93 11
REMARK SMILES IDX 91 12 92 13 9 14 7 15 6 16 8 18 5 19 1 20 2 21 3 22 101 23
REMARK SMILES IDX 4 24 100 25 94 26 95 27 99 28 96 29 98 30 97 31 20 32 21 33
REMARK SMILES IDX 22 34 23 35 24 36 25 37 26 38 27 39 28 40 29 41 90 42 30 43
REMARK SMILES IDX 89 44 31 45 32 46 33 47 83 48 34 49 88 50 82 51 84 52 35 53
REMARK SMILES IDX 87 54 81 55 80 56 36 58 68 59 48 60 67 61 49 62 52 63 66 64
REMARK SMILES IDX 85 65 50 66 51 67 65 69 86 70 53 71 37 72 38 73 46 74 39 75
REMARK SMILES IDX 40 76 44 77 47 78 41 79 42 80 45 81 43 82 69 83 70 84 78 85
REMARK SMILES IDX 71 86 72 87 76 88 79 89 73 90 74 91 77 92 75 93 54 94 55 95
REMARK SMILES IDX 63 96 56 97 57 98 61 99 64 100 58 101 59 102 62 103 60 104
REMARK H PARENT 6 17 84 57 52 68
REMARK Flexibility Score: inf
ROOT
ATOM      1  O   UNL A   1      34.342  32.318  28.651  1.00  0.00    -0.376 OA
ENDROOT
BRANCH   1   2
ATOM      2  C   UNL A   1      35.270  31.617  27.847  1.00  0.00     0.202 C 
BRANCH   2   3
ATOM      3  C   UNL A   1      35.296  30.029  27.808  1.00  0.00     0.261 C 
BRANCH   3   4
ATOM      4  O   UNL A   1      34.266  28.977  27.325  1.00  0.00    -0.463 OA
BRANCH   4   5
ATOM      5  C   UNL A   1      33.822  28.463  26.120  1.00  0.00     0.306 C 
ATOM      6  O   UNL A   1      33.575  29.196  25.158  1.00  0.00    -0.252 OA
BRANCH   5   7
ATOM      7  C   UNL A   1      33.957  26.636  25.791  1.00  0.00     0.129 C 
BRANCH   7   8
ATOM      8  C   UNL A   1      34.024  25.186  23.975  1.00  0.00     0.066 C 
BRANCH   8   9
ATOM      9  C   UNL A   1      34.748  23.356  24.237  1.00  0.00     0.019 A 
ATOM     10  N   UNL A   1      33.776  22.106  24.498  1.00  0.00    -0.335 N 
ATOM     11  C   UNL A   1      34.526  20.961  24.611  1.00  0.00     0.049 A 
ATOM     12  C   UNL A   1      36.008  22.789  24.318  1.00  0.00     0.024 A 
ATOM     13  C   UNL A   1      35.859  21.363  24.549  1.00  0.00     0.029 A 
BRANCH  10  14
ATOM     14  C   UNL A   1      32.008  22.212  24.744  1.00  0.00     0.222 C 
BRANCH  14  15
ATOM     15  C   UNL A   1      31.333  23.319  26.221  1.00  0.00     0.244 C 
ATOM     16  N   UNL A   1      29.973  24.452  25.787  1.00  0.00    -0.325 N 
ATOM     17  H   UNL A   1      29.235  24.480  26.437  1.00  0.00     0.169 HD
ATOM     18  O   UNL A   1      31.513  23.341  27.432  1.00  0.00    -0.273 OA
BRANCH  16  19
ATOM     19  C   UNL A   1      29.732  25.679  24.163  1.00  0.00     0.041 A 
ATOM     20  C   UNL A   1      30.124  29.703  22.002  1.00  0.00     0.044 C 
ATOM     21  C   UNL A   1      29.931  28.392  22.699  1.00  0.00    -0.051 A 
ATOM     22  C   UNL A   1      31.002  27.547  22.731  1.00  0.00     0.005 A 
ATOM     23  C   UNL A   1      28.739  27.914  23.241  1.00  0.00     0.005 A 
ATOM     24  C   UNL A   1      30.885  26.292  23.349  1.00  0.00     0.026 A 
ATOM     25  C   UNL A   1      28.617  26.613  23.875  1.00  0.00     0.026 A 
ENDBRANCH  16  19
ENDBRANCH  14  15
ENDBRANCH  10  14
BRANCH  11  26
ATOM     26  C   UNL A   1      33.910  19.638  24.795  1.00  0.00    -0.002 A 
ATOM     27  C   UNL A   1      34.182  18.581  23.921  1.00  0.00     0.010 A 
ATOM     28  C   UNL A   1      33.054  19.394  25.884  1.00  0.00     0.010 A 
ATOM     29  C   UNL A   1      33.616  17.316  24.136  1.00  0.00     0.001 A 
ATOM     30  C   UNL A   1      32.528  18.124  26.126  1.00  0.00     0.001 A 
ATOM     31  C   UNL A   1      32.798  17.087  25.243  1.00  0.00     0.000 A 
ENDBRANCH  11  26
ENDBRANCH   8   9
ENDBRANCH   7   8
ENDBRANCH   5   7
ENDBRANCH   4   5
ENDBRANCH   3   4
ENDBRANCH   2   3
ENDBRANCH   1   2
BRANCH   1  32
ATOM     32  C   UNL A   1      33.649  33.455  28.148  1.00  0.00     0.188 C 
BRANCH  32  33
ATOM     33  C   UNL A   1      33.506  34.758  28.922  1.00  0.00     0.188 C 
BRANCH  33  34
ATOM     34  O   UNL A   1      34.186  34.942  30.153  1.00  0.00    -0.376 OA
BRANCH  34  35
ATOM     35  C   UNL A   1      33.436  35.476  31.239  1.00  0.00     0.202 C 
BRANCH  35  36
ATOM     36  C   UNL A   1      34.319  36.153  32.297  1.00  0.00     0.261 C 
BRANCH  36  37
ATOM     37  O   UNL A   1      34.624  35.064  33.265  1.00  0.00    -0.460 OA
BRANCH  37  38
ATOM     38  C   UNL A   1      34.456  33.715  33.059  1.00  0.00     0.338 C 
ATOM     39  O   UNL A   1      33.408  33.102  33.169  1.00  0.00    -0.246 OA
BRANCH  38  40
ATOM     40  C   UNL A   1      35.817  33.017  32.871  1.00  0.00     0.060 A 
ATOM     41  C   UNL A   1      36.828  32.656  31.212  1.00  0.00     0.016 A 
ATOM     42  C   UNL A   1      36.962  32.464  34.411  1.00  0.00     0.016 A 
ATOM     43  C   UNL A   1      38.579  31.774  31.193  1.00  0.00     0.010 A 
ATOM     44  C   UNL A   1      38.525  31.135  34.229  1.00  0.00     0.010 A 
ATOM     45  C   UNL A   1      39.700  30.923  32.568  1.00  0.00    -0.014 A 
BRANCH  45  46
ATOM     46  C   UNL A   1      41.075  29.888  32.649  1.00  0.00     0.031 A 
ATOM     47  C   UNL A   1      40.638  28.756  31.881  1.00  0.00     0.074 A 
ATOM     48  C   UNL A   1      42.487  29.663  32.796  1.00  0.00     0.049 A 
ATOM     49  N   UNL A   1      40.914  28.812  30.633  1.00  0.00    -0.248 NA
ATOM     50  C   UNL A   1      39.687  27.757  32.308  1.00  0.00     0.031 C 
ATOM     51  C   UNL A   1      43.536  30.506  33.369  1.00  0.00     0.029 A 
ATOM     52  N   UNL A   1      43.380  28.558  32.217  1.00  0.00    -0.354 N 
ATOM     53  C   UNL A   1      40.319  27.748  30.069  1.00  0.00     0.074 A 
ATOM     54  C   UNL A   1      39.455  27.213  31.108  1.00  0.00     0.031 C 
ATOM     55  C   UNL A   1      44.782  30.072  33.027  1.00  0.00     0.029 A 
ATOM     56  C   UNL A   1      44.786  28.863  32.139  1.00  0.00     0.049 A 
ATOM     57  H   UNL A   1      43.016  27.694  31.916  1.00  0.00     0.167 HD
ATOM     58  C   UNL A   1      40.754  27.431  28.832  1.00  0.00     0.037 A 
ATOM     59  C   UNL A   1      45.933  28.553  31.337  1.00  0.00     0.037 A 
ATOM     60  C   UNL A   1      41.516  28.525  28.123  1.00  0.00     0.049 A 
ATOM     61  C   UNL A   1      45.829  29.792  30.531  1.00  0.00     0.074 A 
ATOM     62  C   UNL A   1      41.519  28.948  26.810  1.00  0.00     0.029 A 
ATOM     63  N   UNL A   1      42.406  29.432  28.765  1.00  0.00    -0.354 N 
ATOM     64  N   UNL A   1      44.863  29.867  29.677  1.00  0.00    -0.248 NA
ATOM     65  C   UNL A   1      46.645  30.973  30.712  1.00  0.00     0.031 C 
ATOM     66  C   UNL A   1      42.444  30.028  26.665  1.00  0.00     0.029 A 
ATOM     67  C   UNL A   1      42.939  30.418  27.903  1.00  0.00     0.049 A 
ATOM     68  H   UNL A   1      42.629  29.377  29.722  1.00  0.00     0.167 HD
ATOM     69  C   UNL A   1      44.813  31.156  29.276  1.00  0.00     0.074 A 
ATOM     70  C   UNL A   1      45.848  31.823  30.056  1.00  0.00     0.031 C 
ATOM     71  C   UNL A   1      43.877  31.527  28.370  1.00  0.00     0.037 A 
BRANCH  58  72
ATOM     72  C   UNL A   1      40.624  26.000  28.352  1.00  0.00     0.064 A 
ATOM     73  C   UNL A   1      39.463  25.654  27.641  1.00  0.00     0.173 A 
ATOM     74  C   UNL A   1      41.614  24.987  28.384  1.00  0.00     0.173 A 
ATOM     75  F   UNL A   1      38.460  26.526  27.484  1.00  0.00    -0.203 F 
ATOM     76  C   UNL A   1      39.311  24.421  27.006  1.00  0.00     0.198 A 
ATOM     77  C   UNL A   1      41.486  23.777  27.700  1.00  0.00     0.198 A 
ATOM     78  F   UNL A   1      42.751  25.100  29.075  1.00  0.00    -0.203 F 
ATOM     79  F   UNL A   1      38.177  24.158  26.344  1.00  0.00    -0.200 F 
ATOM     80  C   UNL A   1      40.328  23.490  27.016  1.00  0.00     0.200 A 
ATOM     81  F   UNL A   1      42.504  22.902  27.696  1.00  0.00    -0.200 F 
ATOM     82  F   UNL A   1      40.198  22.328  26.364  1.00  0.00    -0.200 F 
ENDBRANCH  58  72
BRANCH  59  83
ATOM     83  C   UNL A   1      46.744  27.547  30.347  1.00  0.00     0.064 A 
ATOM     84  C   UNL A   1      46.055  26.783  29.374  1.00  0.00     0.173 A 
ATOM     85  C   UNL A   1      48.082  27.030  30.544  1.00  0.00     0.173 A 
ATOM     86  F   UNL A   1      44.728  26.926  29.241  1.00  0.00    -0.203 F 
ATOM     87  C   UNL A   1      46.669  25.756  28.585  1.00  0.00     0.198 A 
ATOM     88  C   UNL A   1      48.696  26.024  29.752  1.00  0.00     0.198 A 
ATOM     89  F   UNL A   1      48.834  27.364  31.599  1.00  0.00    -0.203 F 
ATOM     90  F   UNL A   1      45.939  25.059  27.698  1.00  0.00    -0.200 F 
ATOM     91  C   UNL A   1      47.998  25.409  28.745  1.00  0.00     0.200 A 
ATOM     92  F   UNL A   1      49.945  25.612  30.029  1.00  0.00    -0.200 F 
ATOM     93  F   UNL A   1      48.573  24.453  27.996  1.00  0.00    -0.200 F 
ENDBRANCH  59  83
BRANCH  71  94
ATOM     94  C   UNL A   1      43.777  33.006  27.992  1.00  0.00     0.064 A 
ATOM     95  C   UNL A   1      44.316  33.675  26.879  1.00  0.00     0.173 A 
ATOM     96  C   UNL A   1      43.131  33.888  28.832  1.00  0.00     0.173 A 
ATOM     97  F   UNL A   1      44.360  33.086  25.678  1.00  0.00    -0.203 F 
ATOM     98  C   UNL A   1      44.585  35.052  26.861  1.00  0.00     0.198 A 
ATOM     99  C   UNL A   1      43.366  35.268  28.838  1.00  0.00     0.198 A 
ATOM    100  F   UNL A   1      42.094  33.441  29.544  1.00  0.00    -0.203 F 
ATOM    101  F   UNL A   1      45.110  35.614  25.762  1.00  0.00    -0.200 F 
ATOM    102  C   UNL A   1      44.190  35.844  27.907  1.00  0.00     0.200 A 
ATOM    103  F   UNL A   1      42.677  36.045  29.680  1.00  0.00    -0.200 F 
ATOM    104  F   UNL A   1      44.404  37.166  27.896  1.00  0.00    -0.200 F 
ENDBRANCH  71  94
ENDBRANCH  45  46
ENDBRANCH  38  40
ENDBRANCH  37  38
ENDBRANCH  36  37
ENDBRANCH  35  36
ENDBRANCH  34  35
ENDBRANCH  33  34
ENDBRANCH  32  33
ENDBRANCH   1  32
TORSDOF 23
ENDMDL
