MODEL 1
REMARK VINA RESULT:     -10.5      0.000      0.000
REMARK SMILES CCN(C(=O)N[C@@H]1CCOC1)[C@H]1COC[C@H]1C(=O)OCCOCCOCCOC(=O)c1ccc(-c2c3nc(c(-c4c(F)c(F)c(F)c(F)c4F)c4ccc([nH]4)c(-c4c(F)c(F)c(F)c(F)c4F)c4nc(c(-c5c(F)c(F)c(F)c(F)c5F)c5ccc2[nH]5)C=C4)C=C3)cc1
REMARK SMILES IDX 23 1 22 2 21 3 20 4 19 5 17 6 18 7 16 8 12 9 13 10 14 11
REMARK SMILES IDX 15 12 3 13 2 14 1 15 4 16 5 17 6 18 7 20 8 21 11 22 9 23
REMARK SMILES IDX 10 24 24 25 25 26 26 27 27 28 28 29 29 30 30 31 31 32 32 33
REMARK SMILES IDX 93 34 33 35 92 36 34 37 35 38 36 39 86 40 37 41 91 42 85 43
REMARK SMILES IDX 87 44 38 45 90 46 84 47 83 48 39 50 71 51 51 52 70 53 52 54
REMARK SMILES IDX 55 55 69 56 88 57 53 58 54 59 68 61 89 62 56 63 40 64 41 65
REMARK SMILES IDX 49 66 42 67 43 68 47 69 50 70 44 71 45 72 48 73 46 74 72 75
REMARK SMILES IDX 73 76 81 77 74 78 75 79 79 80 82 81 76 82 77 83 80 84 78 85
REMARK SMILES IDX 57 86 58 87 66 88 59 89 60 90 64 91 67 92 61 93 62 94 65 95
REMARK SMILES IDX 63 96
REMARK H PARENT 6 19 87 49 55 60
REMARK Flexibility Score: inf
ROOT
ATOM      1  C   UNL A   1      40.406  22.091  27.224  1.00  0.00     0.188 C 
ENDROOT
BRANCH   1   2
ATOM      2  O   UNL A   1      39.225  22.238  26.446  1.00  0.00    -0.376 OA
BRANCH   2   3
ATOM      3  C   UNL A   1      38.672  23.545  26.285  1.00  0.00     0.202 C 
BRANCH   3   4
ATOM      4  C   UNL A   1      37.144  23.705  26.240  1.00  0.00     0.261 C 
BRANCH   4   5
ATOM      5  O   UNL A   1      36.623  23.979  24.923  1.00  0.00    -0.463 OA
BRANCH   5   6
ATOM      6  C   UNL A   1      35.295  24.210  24.834  1.00  0.00     0.313 C 
ATOM      7  O   UNL A   1      34.688  24.955  25.602  1.00  0.00    -0.252 OA
BRANCH   6   8
ATOM      8  C   UNL A   1      34.604  23.633  23.610  1.00  0.00     0.150 C 
ATOM      9  C   UNL A   1      33.878  22.286  23.427  1.00  0.00     0.129 C 
ATOM     10  C   UNL A   1      32.750  22.620  22.436  1.00  0.00     0.186 C 
ATOM     11  O   UNL A   1      32.788  24.014  22.136  1.00  0.00    -0.378 OA
ATOM     12  C   UNL A   1      33.582  24.651  23.136  1.00  0.00     0.177 C 
BRANCH   9  13
ATOM     13  N   UNL A   1      33.416  21.429  24.547  1.00  0.00    -0.319 N 
BRANCH  13  14
ATOM     14  C   UNL A   1      32.128  21.843  25.140  1.00  0.00     0.118 C 
ATOM     15  C   UNL A   1      32.268  22.550  26.484  1.00  0.00     0.027 C 
ENDBRANCH  13  14
BRANCH  13  16
ATOM     16  C   UNL A   1      34.252  20.446  24.994  1.00  0.00     0.318 C 
ATOM     17  O   UNL A   1      35.343  20.718  25.505  1.00  0.00    -0.249 OA
ATOM     18  N   UNL A   1      34.000  19.131  24.913  1.00  0.00    -0.333 N 
ATOM     19  H   UNL A   1      34.809  18.600  25.097  1.00  0.00     0.165 HD
BRANCH  18  20
ATOM     20  C   UNL A   1      32.855  18.267  24.626  1.00  0.00     0.112 C 
ATOM     21  C   UNL A   1      33.259  16.816  24.776  1.00  0.00     0.056 C 
ATOM     22  C   UNL A   1      32.470  18.293  23.145  1.00  0.00     0.185 C 
ATOM     23  C   UNL A   1      33.978  16.557  23.469  1.00  0.00     0.162 C 
ATOM     24  O   UNL A   1      33.314  17.344  22.471  1.00  0.00    -0.379 OA
ENDBRANCH  18  20
ENDBRANCH  13  16
ENDBRANCH   9  13
ENDBRANCH   6   8
ENDBRANCH   5   6
ENDBRANCH   4   5
ENDBRANCH   3   4
ENDBRANCH   2   3
ENDBRANCH   1   2
BRANCH   1  25
ATOM     25  C   UNL A   1      41.695  21.630  26.528  1.00  0.00     0.188 C 
BRANCH  25  26
ATOM     26  O   UNL A   1      42.196  20.383  26.935  1.00  0.00    -0.376 OA
BRANCH  26  27
ATOM     27  C   UNL A   1      42.171  19.267  26.072  1.00  0.00     0.202 C 
BRANCH  27  28
ATOM     28  C   UNL A   1      43.430  18.609  25.478  1.00  0.00     0.261 C 
BRANCH  28  29
ATOM     29  O   UNL A   1      43.923  19.101  24.229  1.00  0.00    -0.460 OA
BRANCH  29  30
ATOM     30  C   UNL A   1      45.178  19.606  24.217  1.00  0.00     0.338 C 
ATOM     31  O   UNL A   1      46.167  19.119  23.691  1.00  0.00    -0.246 OA
BRANCH  30  32
ATOM     32  C   UNL A   1      45.088  20.992  24.728  1.00  0.00     0.060 A 
ATOM     33  C   UNL A   1      44.580  21.995  23.889  1.00  0.00     0.016 A 
ATOM     34  C   UNL A   1      45.453  21.287  26.042  1.00  0.00     0.016 A 
ATOM     35  C   UNL A   1      44.456  23.303  24.358  1.00  0.00     0.010 A 
ATOM     36  C   UNL A   1      45.352  22.602  26.503  1.00  0.00     0.010 A 
ATOM     37  C   UNL A   1      44.879  23.620  25.654  1.00  0.00    -0.014 A 
BRANCH  37  38
ATOM     38  C   UNL A   1      45.022  25.037  26.065  1.00  0.00     0.031 A 
ATOM     39  C   UNL A   1      46.384  25.667  25.965  1.00  0.00     0.074 A 
ATOM     40  C   UNL A   1      43.979  25.749  26.523  1.00  0.00     0.049 A 
ATOM     41  N   UNL A   1      46.788  26.849  26.353  1.00  0.00    -0.248 NA
ATOM     42  C   UNL A   1      47.437  24.844  25.347  1.00  0.00     0.031 C 
ATOM     43  C   UNL A   1      42.604  25.266  26.629  1.00  0.00     0.029 A 
ATOM     44  N   UNL A   1      43.923  27.035  27.004  1.00  0.00    -0.354 N 
ATOM     45  C   UNL A   1      48.140  26.905  26.042  1.00  0.00     0.074 A 
ATOM     46  C   UNL A   1      48.496  25.631  25.457  1.00  0.00     0.031 C 
ATOM     47  C   UNL A   1      41.842  26.237  27.163  1.00  0.00     0.029 A 
ATOM     48  C   UNL A   1      42.683  27.393  27.474  1.00  0.00     0.049 A 
ATOM     49  H   UNL A   1      44.699  27.640  27.013  1.00  0.00     0.167 HD
ATOM     50  C   UNL A   1      49.005  27.929  26.223  1.00  0.00     0.037 A 
ATOM     51  C   UNL A   1      42.287  28.512  28.111  1.00  0.00     0.037 A 
ATOM     52  C   UNL A   1      48.646  29.196  26.803  1.00  0.00     0.049 A 
ATOM     53  C   UNL A   1      43.289  29.612  28.369  1.00  0.00     0.074 A 
ATOM     54  C   UNL A   1      49.444  30.307  27.006  1.00  0.00     0.029 A 
ATOM     55  N   UNL A   1      47.385  29.515  27.283  1.00  0.00    -0.354 N 
ATOM     56  N   UNL A   1      44.559  29.672  28.046  1.00  0.00    -0.248 NA
ATOM     57  C   UNL A   1      42.800  30.803  29.079  1.00  0.00     0.031 C 
ATOM     58  C   UNL A   1      48.683  31.275  27.668  1.00  0.00     0.029 A 
ATOM     59  C   UNL A   1      47.392  30.796  27.811  1.00  0.00     0.049 A 
ATOM     60  H   UNL A   1      46.601  28.920  27.254  1.00  0.00     0.167 HD
ATOM     61  C   UNL A   1      45.007  30.915  28.480  1.00  0.00     0.074 A 
ATOM     62  C   UNL A   1      43.871  31.582  29.076  1.00  0.00     0.031 C 
ATOM     63  C   UNL A   1      46.248  31.455  28.390  1.00  0.00     0.037 A 
BRANCH  50  64
ATOM     64  C   UNL A   1      50.434  27.714  25.819  1.00  0.00     0.064 A 
ATOM     65  C   UNL A   1      50.863  27.876  24.494  1.00  0.00     0.173 A 
ATOM     66  C   UNL A   1      51.397  27.383  26.784  1.00  0.00     0.173 A 
ATOM     67  F   UNL A   1      49.979  28.174  23.529  1.00  0.00    -0.203 F 
ATOM     68  C   UNL A   1      52.199  27.694  24.146  1.00  0.00     0.198 A 
ATOM     69  C   UNL A   1      52.737  27.236  26.440  1.00  0.00     0.198 A 
ATOM     70  F   UNL A   1      51.040  27.216  28.067  1.00  0.00    -0.203 F 
ATOM     71  F   UNL A   1      52.578  27.808  22.866  1.00  0.00    -0.200 F 
ATOM     72  C   UNL A   1      53.136  27.384  25.121  1.00  0.00     0.200 A 
ATOM     73  F   UNL A   1      53.643  26.948  27.385  1.00  0.00    -0.200 F 
ATOM     74  F   UNL A   1      54.424  27.223  24.787  1.00  0.00    -0.200 F 
ENDBRANCH  50  64
BRANCH  51  75
ATOM     75  C   UNL A   1      40.880  28.651  28.579  1.00  0.00     0.064 A 
ATOM     76  C   UNL A   1      40.510  28.295  29.883  1.00  0.00     0.173 A 
ATOM     77  C   UNL A   1      39.868  29.099  27.716  1.00  0.00     0.173 A 
ATOM     78  F   UNL A   1      41.435  27.832  30.738  1.00  0.00    -0.203 F 
ATOM     79  C   UNL A   1      39.180  28.353  30.298  1.00  0.00     0.198 A 
ATOM     80  C   UNL A   1      38.544  29.191  28.142  1.00  0.00     0.198 A 
ATOM     81  F   UNL A   1      40.164  29.447  26.455  1.00  0.00    -0.203 F 
ATOM     82  F   UNL A   1      38.847  27.944  31.530  1.00  0.00    -0.200 F 
ATOM     83  C   UNL A   1      38.200  28.807  29.429  1.00  0.00     0.200 A 
ATOM     84  F   UNL A   1      37.602  29.639  27.302  1.00  0.00    -0.200 F 
ATOM     85  F   UNL A   1      36.921  28.858  29.826  1.00  0.00    -0.200 F 
ENDBRANCH  51  75
BRANCH  63  86
ATOM     86  C   UNL A   1      46.436  32.858  28.899  1.00  0.00     0.064 A 
ATOM     87  C   UNL A   1      46.837  33.123  30.217  1.00  0.00     0.173 A 
ATOM     88  C   UNL A   1      46.258  33.952  28.038  1.00  0.00     0.173 A 
ATOM     89  F   UNL A   1      47.012  32.114  31.084  1.00  0.00    -0.203 F 
ATOM     90  C   UNL A   1      47.022  34.430  30.661  1.00  0.00     0.198 A 
ATOM     91  C   UNL A   1      46.479  35.255  28.474  1.00  0.00     0.198 A 
ATOM     92  F   UNL A   1      45.886  33.756  26.763  1.00  0.00    -0.203 F 
ATOM     93  F   UNL A   1      47.352  34.661  31.939  1.00  0.00    -0.200 F 
ATOM     94  C   UNL A   1      46.850  35.494  29.787  1.00  0.00     0.200 A 
ATOM     95  F   UNL A   1      46.333  36.280  27.623  1.00  0.00    -0.200 F 
ATOM     96  F   UNL A   1      47.040  36.750  30.214  1.00  0.00    -0.200 F 
ENDBRANCH  63  86
ENDBRANCH  37  38
ENDBRANCH  30  32
ENDBRANCH  29  30
ENDBRANCH  28  29
ENDBRANCH  27  28
ENDBRANCH  26  27
ENDBRANCH  25  26
ENDBRANCH   1  25
TORSDOF 21
ENDMDL
MODEL 2
REMARK VINA RESULT:     -10.2      5.164      9.196
REMARK SMILES CCN(C(=O)N[C@@H]1CCOC1)[C@H]1COC[C@H]1C(=O)OCCOCCOCCOC(=O)c1ccc(-c2c3nc(c(-c4c(F)c(F)c(F)c(F)c4F)c4ccc([nH]4)c(-c4c(F)c(F)c(F)c(F)c4F)c4nc(c(-c5c(F)c(F)c(F)c(F)c5F)c5ccc2[nH]5)C=C4)C=C3)cc1
REMARK SMILES IDX 23 1 22 2 21 3 20 4 19 5 17 6 18 7 16 8 12 9 13 10 14 11
REMARK SMILES IDX 15 12 3 13 2 14 1 15 4 16 5 17 6 18 7 20 8 21 11 22 9 23
REMARK SMILES IDX 10 24 24 25 25 26 26 27 27 28 28 29 29 30 30 31 31 32 32 33
REMARK SMILES IDX 93 34 33 35 92 36 34 37 35 38 36 39 86 40 37 41 91 42 85 43
REMARK SMILES IDX 87 44 38 45 90 46 84 47 83 48 39 50 71 51 51 52 70 53 52 54
REMARK SMILES IDX 55 55 69 56 88 57 53 58 54 59 68 61 89 62 56 63 40 64 41 65
REMARK SMILES IDX 49 66 42 67 43 68 47 69 50 70 44 71 45 72 48 73 46 74 72 75
REMARK SMILES IDX 73 76 81 77 74 78 75 79 79 80 82 81 76 82 77 83 80 84 78 85
REMARK SMILES IDX 57 86 58 87 66 88 59 89 60 90 64 91 67 92 61 93 62 94 65 95
REMARK SMILES IDX 63 96
REMARK H PARENT 6 19 87 49 55 60
REMARK Flexibility Score: inf
ROOT
ATOM      1  C   UNL A   1      30.306  27.388  22.741  1.00  0.00     0.188 C 
ENDROOT
BRANCH   1   2
ATOM      2  O   UNL A   1      31.169  27.122  21.644  1.00  0.00    -0.376 OA
BRANCH   2   3
ATOM      3  C   UNL A   1      31.868  25.877  21.610  1.00  0.00     0.202 C 
BRANCH   3   4
ATOM      4  C   UNL A   1      33.318  25.825  22.119  1.00  0.00     0.261 C 
BRANCH   4   5
ATOM      5  O   UNL A   1      33.489  25.050  23.323  1.00  0.00    -0.463 OA
BRANCH   5   6
ATOM      6  C   UNL A   1      33.647  23.717  23.167  1.00  0.00     0.313 C 
ATOM      7  O   UNL A   1      34.667  23.209  22.705  1.00  0.00    -0.252 OA
BRANCH   6   8
ATOM      8  C   UNL A   1      32.553  22.847  23.763  1.00  0.00     0.150 C 
ATOM      9  C   UNL A   1      32.658  21.635  24.709  1.00  0.00     0.129 C 
ATOM     10  C   UNL A   1      31.397  21.750  25.580  1.00  0.00     0.186 C 
ATOM     11  O   UNL A   1      30.683  22.931  25.217  1.00  0.00    -0.378 OA
ATOM     12  C   UNL A   1      31.573  23.764  24.475  1.00  0.00     0.177 C 
BRANCH   9  13
ATOM     13  N   UNL A   1      33.867  21.298  25.500  1.00  0.00    -0.319 N 
BRANCH  13  14
ATOM     14  C   UNL A   1      33.968  22.006  26.792  1.00  0.00     0.118 C 
ATOM     15  C   UNL A   1      34.684  23.351  26.703  1.00  0.00     0.027 C 
ENDBRANCH  13  14
BRANCH  13  16
ATOM     16  C   UNL A   1      34.806  20.486  24.929  1.00  0.00     0.318 C 
ATOM     17  O   UNL A   1      35.926  20.916  24.630  1.00  0.00    -0.249 OA
ATOM     18  N   UNL A   1      34.618  19.193  24.625  1.00  0.00    -0.333 N 
ATOM     19  H   UNL A   1      35.335  18.856  24.039  1.00  0.00     0.165 HD
BRANCH  18  20
ATOM     20  C   UNL A   1      33.642  18.145  24.923  1.00  0.00     0.112 C 
ATOM     21  C   UNL A   1      34.245  16.787  24.633  1.00  0.00     0.056 C 
ATOM     22  C   UNL A   1      32.476  18.145  23.931  1.00  0.00     0.185 C 
ATOM     23  C   UNL A   1      34.109  16.701  23.128  1.00  0.00     0.162 C 
ATOM     24  O   UNL A   1      32.895  17.384  22.785  1.00  0.00    -0.379 OA
ENDBRANCH  18  20
ENDBRANCH  13  16
ENDBRANCH   9  13
ENDBRANCH   6   8
ENDBRANCH   5   6
ENDBRANCH   4   5
ENDBRANCH   3   4
ENDBRANCH   2   3
ENDBRANCH   1   2
BRANCH   1  25
ATOM     25  C   UNL A   1      30.884  28.081  23.984  1.00  0.00     0.188 C 
BRANCH  25  26
ATOM     26  O   UNL A   1      30.645  29.461  24.079  1.00  0.00    -0.376 OA
BRANCH  26  27
ATOM     27  C   UNL A   1      31.128  30.215  25.170  1.00  0.00     0.202 C 
BRANCH  27  28
ATOM     28  C   UNL A   1      32.550  30.086  25.744  1.00  0.00     0.261 C 
BRANCH  28  29
ATOM     29  O   UNL A   1      32.765  30.464  27.107  1.00  0.00    -0.460 OA
BRANCH  29  30
ATOM     30  C   UNL A   1      33.444  31.613  27.328  1.00  0.00     0.338 C 
ATOM     31  O   UNL A   1      33.012  32.754  27.251  1.00  0.00    -0.246 OA
BRANCH  30  32
ATOM     32  C   UNL A   1      34.736  31.238  27.941  1.00  0.00     0.060 A 
ATOM     33  C   UNL A   1      34.933  29.912  28.356  1.00  0.00     0.016 A 
ATOM     34  C   UNL A   1      35.764  32.175  28.058  1.00  0.00     0.016 A 
ATOM     35  C   UNL A   1      36.155  29.526  28.909  1.00  0.00     0.010 A 
ATOM     36  C   UNL A   1      36.978  31.794  28.634  1.00  0.00     0.010 A 
ATOM     37  C   UNL A   1      37.168  30.475  29.087  1.00  0.00    -0.014 A 
BRANCH  37  38
ATOM     38  C   UNL A   1      38.349  30.155  29.924  1.00  0.00     0.031 A 
ATOM     39  C   UNL A   1      39.358  29.183  29.378  1.00  0.00     0.074 A 
ATOM     40  C   UNL A   1      38.525  30.703  31.138  1.00  0.00     0.049 A 
ATOM     41  N   UNL A   1      40.414  28.666  29.951  1.00  0.00    -0.248 NA
ATOM     42  C   UNL A   1      39.137  28.724  27.997  1.00  0.00     0.031 C 
ATOM     43  C   UNL A   1      37.643  31.688  31.759  1.00  0.00     0.029 A 
ATOM     44  N   UNL A   1      39.506  30.489  32.076  1.00  0.00    -0.354 N 
ATOM     45  C   UNL A   1      40.973  27.813  29.009  1.00  0.00     0.074 A 
ATOM     46  C   UNL A   1      40.127  27.859  27.837  1.00  0.00     0.031 C 
ATOM     47  C   UNL A   1      38.111  31.978  32.986  1.00  0.00     0.029 A 
ATOM     48  C   UNL A   1      39.301  31.170  33.251  1.00  0.00     0.049 A 
ATOM     49  H   UNL A   1      40.280  29.902  31.921  1.00  0.00     0.167 HD
ATOM     50  C   UNL A   1      42.094  27.063  29.110  1.00  0.00     0.037 A 
ATOM     51  C   UNL A   1      39.979  31.116  34.414  1.00  0.00     0.037 A 
ATOM     52  C   UNL A   1      42.935  27.022  30.277  1.00  0.00     0.049 A 
ATOM     53  C   UNL A   1      41.185  30.214  34.528  1.00  0.00     0.074 A 
ATOM     54  C   UNL A   1      44.106  26.312  30.470  1.00  0.00     0.029 A 
ATOM     55  N   UNL A   1      42.685  27.710  31.455  1.00  0.00    -0.354 N 
ATOM     56  N   UNL A   1      41.726  29.432  33.624  1.00  0.00    -0.248 NA
ATOM     57  C   UNL A   1      41.876  30.188  35.825  1.00  0.00     0.031 C 
ATOM     58  C   UNL A   1      44.531  26.521  31.785  1.00  0.00     0.029 A 
ATOM     59  C   UNL A   1      43.665  27.417  32.388  1.00  0.00     0.049 A 
ATOM     60  H   UNL A   1      41.924  28.318  31.605  1.00  0.00     0.167 HD
ATOM     61  C   UNL A   1      42.836  28.855  34.231  1.00  0.00     0.074 A 
ATOM     62  C   UNL A   1      42.899  29.386  35.575  1.00  0.00     0.031 C 
ATOM     63  C   UNL A   1      43.724  27.966  33.720  1.00  0.00     0.037 A 
BRANCH  50  64
ATOM     64  C   UNL A   1      42.463  26.198  27.940  1.00  0.00     0.064 A 
ATOM     65  C   UNL A   1      41.879  24.940  27.734  1.00  0.00     0.173 A 
ATOM     66  C   UNL A   1      43.386  26.658  26.988  1.00  0.00     0.173 A 
ATOM     67  F   UNL A   1      41.005  24.446  28.624  1.00  0.00    -0.203 F 
ATOM     68  C   UNL A   1      42.220  24.165  26.628  1.00  0.00     0.198 A 
ATOM     69  C   UNL A   1      43.699  25.896  25.866  1.00  0.00     0.198 A 
ATOM     70  F   UNL A   1      43.974  27.854  27.138  1.00  0.00    -0.203 F 
ATOM     71  F   UNL A   1      41.684  22.947  26.475  1.00  0.00    -0.200 F 
ATOM     72  C   UNL A   1      43.121  24.648  25.691  1.00  0.00     0.200 A 
ATOM     73  F   UNL A   1      44.560  26.369  24.956  1.00  0.00    -0.200 F 
ATOM     74  F   UNL A   1      43.438  23.906  24.620  1.00  0.00    -0.200 F 
ENDBRANCH  50  64
BRANCH  51  75
ATOM     75  C   UNL A   1      39.528  31.920  35.584  1.00  0.00     0.064 A 
ATOM     76  C   UNL A   1      38.558  31.431  36.470  1.00  0.00     0.173 A 
ATOM     77  C   UNL A   1      40.024  33.212  35.812  1.00  0.00     0.173 A 
ATOM     78  F   UNL A   1      38.030  30.213  36.278  1.00  0.00    -0.203 F 
ATOM     79  C   UNL A   1      38.081  32.213  37.521  1.00  0.00     0.198 A 
ATOM     80  C   UNL A   1      39.572  33.981  36.884  1.00  0.00     0.198 A 
ATOM     81  F   UNL A   1      40.949  33.733  34.992  1.00  0.00    -0.203 F 
ATOM     82  F   UNL A   1      37.106  31.744  38.312  1.00  0.00    -0.200 F 
ATOM     83  C   UNL A   1      38.593  33.485  37.730  1.00  0.00     0.200 A 
ATOM     84  F   UNL A   1      40.077  35.205  37.087  1.00  0.00    -0.200 F 
ATOM     85  F   UNL A   1      38.130  34.238  38.737  1.00  0.00    -0.200 F 
ENDBRANCH  51  75
BRANCH  63  86
ATOM     86  C   UNL A   1      44.874  27.548  34.595  1.00  0.00     0.064 A 
ATOM     87  C   UNL A   1      46.074  28.273  34.644  1.00  0.00     0.173 A 
ATOM     88  C   UNL A   1      44.752  26.428  35.435  1.00  0.00     0.173 A 
ATOM     89  F   UNL A   1      46.246  29.345  33.856  1.00  0.00    -0.203 F 
ATOM     90  C   UNL A   1      47.118  27.876  35.476  1.00  0.00     0.198 A 
ATOM     91  C   UNL A   1      45.784  26.056  36.291  1.00  0.00     0.198 A 
ATOM     92  F   UNL A   1      43.622  25.704  35.437  1.00  0.00    -0.203 F 
ATOM     93  F   UNL A   1      48.274  28.553  35.465  1.00  0.00    -0.200 F 
ATOM     94  C   UNL A   1      46.969  26.773  36.304  1.00  0.00     0.200 A 
ATOM     95  F   UNL A   1      45.630  25.002  37.105  1.00  0.00    -0.200 F 
ATOM     96  F   UNL A   1      47.972  26.400  37.111  1.00  0.00    -0.200 F 
ENDBRANCH  63  86
ENDBRANCH  37  38
ENDBRANCH  30  32
ENDBRANCH  29  30
ENDBRANCH  28  29
ENDBRANCH  27  28
ENDBRANCH  26  27
ENDBRANCH  25  26
ENDBRANCH   1  25
TORSDOF 21
ENDMDL
MODEL 3
REMARK VINA RESULT:     -10.0      2.775      8.402
REMARK SMILES CCN(C(=O)N[C@@H]1CCOC1)[C@H]1COC[C@H]1C(=O)OCCOCCOCCOC(=O)c1ccc(-c2c3nc(c(-c4c(F)c(F)c(F)c(F)c4F)c4ccc([nH]4)c(-c4c(F)c(F)c(F)c(F)c4F)c4nc(c(-c5c(F)c(F)c(F)c(F)c5F)c5ccc2[nH]5)C=C4)C=C3)cc1
REMARK SMILES IDX 23 1 22 2 21 3 20 4 19 5 17 6 18 7 16 8 12 9 13 10 14 11
REMARK SMILES IDX 15 12 3 13 2 14 1 15 4 16 5 17 6 18 7 20 8 21 11 22 9 23
REMARK SMILES IDX 10 24 24 25 25 26 26 27 27 28 28 29 29 30 30 31 31 32 32 33
REMARK SMILES IDX 93 34 33 35 92 36 34 37 35 38 36 39 86 40 37 41 91 42 85 43
REMARK SMILES IDX 87 44 38 45 90 46 84 47 83 48 39 50 71 51 51 52 70 53 52 54
REMARK SMILES IDX 55 55 69 56 88 57 53 58 54 59 68 61 89 62 56 63 40 64 41 65
REMARK SMILES IDX 49 66 42 67 43 68 47 69 50 70 44 71 45 72 48 73 46 74 72 75
REMARK SMILES IDX 73 76 81 77 74 78 75 79 79 80 82 81 76 82 77 83 80 84 78 85
REMARK SMILES IDX 57 86 58 87 66 88 59 89 60 90 64 91 67 92 61 93 62 94 65 95
REMARK SMILES IDX 63 96
REMARK H PARENT 6 19 87 49 55 60
REMARK Flexibility Score: inf
ROOT
ATOM      1  C   UNL A   1      36.534  22.990  25.793  1.00  0.00     0.188 C 
ENDROOT
BRANCH   1   2
ATOM      2  O   UNL A   1      35.318  22.269  25.938  1.00  0.00    -0.376 OA
BRANCH   2   3
ATOM      3  C   UNL A   1      34.350  22.744  26.874  1.00  0.00     0.202 C 
BRANCH   3   4
ATOM      4  C   UNL A   1      32.947  23.118  26.368  1.00  0.00     0.261 C 
BRANCH   4   5
ATOM      5  O   UNL A   1      32.952  24.048  25.266  1.00  0.00    -0.463 OA
BRANCH   5   6
ATOM      6  C   UNL A   1      31.838  24.089  24.504  1.00  0.00     0.313 C 
ATOM      7  O   UNL A   1      30.721  23.796  24.928  1.00  0.00    -0.252 OA
BRANCH   6   8
ATOM      8  C   UNL A   1      32.004  24.694  23.120  1.00  0.00     0.150 C 
ATOM      9  C   UNL A   1      31.484  26.030  22.554  1.00  0.00     0.129 C 
ATOM     10  C   UNL A   1      32.589  26.459  21.575  1.00  0.00     0.186 C 
ATOM     11  O   UNL A   1      33.651  25.508  21.622  1.00  0.00    -0.378 OA
ATOM     12  C   UNL A   1      33.491  24.738  22.813  1.00  0.00     0.177 C 
BRANCH   9  13
ATOM     13  N   UNL A   1      30.997  27.155  23.390  1.00  0.00    -0.319 N 
BRANCH  13  14
ATOM     14  C   UNL A   1      32.043  27.809  24.202  1.00  0.00     0.118 C 
ATOM     15  C   UNL A   1      31.565  28.251  25.582  1.00  0.00     0.027 C 
ENDBRANCH  13  14
BRANCH  13  16
ATOM     16  C   UNL A   1      29.652  27.396  23.427  1.00  0.00     0.318 C 
ATOM     17  O   UNL A   1      28.866  26.563  23.888  1.00  0.00    -0.249 OA
ATOM     18  N   UNL A   1      29.061  28.510  22.969  1.00  0.00    -0.333 N 
ATOM     19  H   UNL A   1      28.086  28.393  22.900  1.00  0.00     0.165 HD
BRANCH  18  20
ATOM     20  C   UNL A   1      29.466  29.849  22.542  1.00  0.00     0.112 C 
ATOM     21  C   UNL A   1      29.193  30.843  23.652  1.00  0.00     0.056 C 
ATOM     22  C   UNL A   1      28.554  30.405  21.446  1.00  0.00     0.185 C 
ATOM     23  C   UNL A   1      27.705  31.076  23.501  1.00  0.00     0.162 C 
ATOM     24  O   UNL A   1      27.415  30.992  22.100  1.00  0.00    -0.379 OA
ENDBRANCH  18  20
ENDBRANCH  13  16
ENDBRANCH   9  13
ENDBRANCH   6   8
ENDBRANCH   5   6
ENDBRANCH   4   5
ENDBRANCH   3   4
ENDBRANCH   2   3
ENDBRANCH   1   2
BRANCH   1  25
ATOM     25  C   UNL A   1      37.840  22.204  25.603  1.00  0.00     0.188 C 
BRANCH  25  26
ATOM     26  O   UNL A   1      37.754  21.066  24.786  1.00  0.00    -0.376 OA
BRANCH  26  27
ATOM     27  C   UNL A   1      38.335  19.839  25.175  1.00  0.00     0.202 C 
BRANCH  27  28
ATOM     28  C   UNL A   1      39.623  19.722  26.007  1.00  0.00     0.261 C 
BRANCH  28  29
ATOM     29  O   UNL A   1      40.754  19.076  25.413  1.00  0.00    -0.460 OA
BRANCH  29  30
ATOM     30  C   UNL A   1      41.906  19.076  26.121  1.00  0.00     0.338 C 
ATOM     31  O   UNL A   1      42.668  18.137  26.293  1.00  0.00    -0.246 OA
BRANCH  30  32
ATOM     32  C   UNL A   1      42.220  20.488  26.431  1.00  0.00     0.060 A 
ATOM     33  C   UNL A   1      42.397  21.394  25.374  1.00  0.00     0.016 A 
ATOM     34  C   UNL A   1      42.287  20.924  27.755  1.00  0.00     0.016 A 
ATOM     35  C   UNL A   1      42.663  22.737  25.641  1.00  0.00     0.010 A 
ATOM     36  C   UNL A   1      42.578  22.264  28.021  1.00  0.00     0.010 A 
ATOM     37  C   UNL A   1      42.795  23.170  26.966  1.00  0.00    -0.014 A 
BRANCH  37  38
ATOM     38  C   UNL A   1      43.353  24.511  27.259  1.00  0.00     0.031 A 
ATOM     39  C   UNL A   1      42.424  25.558  27.806  1.00  0.00     0.074 A 
ATOM     40  C   UNL A   1      44.647  24.801  27.041  1.00  0.00     0.049 A 
ATOM     41  N   UNL A   1      42.643  26.825  28.048  1.00  0.00    -0.248 NA
ATOM     42  C   UNL A   1      41.055  25.115  28.117  1.00  0.00     0.031 C 
ATOM     43  C   UNL A   1      45.655  23.863  26.553  1.00  0.00     0.029 A 
ATOM     44  N   UNL A   1      45.329  25.985  27.187  1.00  0.00    -0.354 N 
ATOM     45  C   UNL A   1      41.440  27.331  28.521  1.00  0.00     0.074 A 
ATOM     46  C   UNL A   1      40.486  26.243  28.510  1.00  0.00     0.031 C 
ATOM     47  C   UNL A   1      46.825  24.513  26.420  1.00  0.00     0.029 A 
ATOM     48  C   UNL A   1      46.638  25.920  26.774  1.00  0.00     0.049 A 
ATOM     49  H   UNL A   1      44.919  26.801  27.552  1.00  0.00     0.167 HD
ATOM     50  C   UNL A   1      41.157  28.588  28.933  1.00  0.00     0.037 A 
ATOM     51  C   UNL A   1      47.562  26.894  26.664  1.00  0.00     0.037 A 
ATOM     52  C   UNL A   1      42.110  29.667  28.945  1.00  0.00     0.049 A 
ATOM     53  C   UNL A   1      47.200  28.306  27.060  1.00  0.00     0.074 A 
ATOM     54  C   UNL A   1      41.928  30.971  29.368  1.00  0.00     0.029 A 
ATOM     55  N   UNL A   1      43.420  29.568  28.502  1.00  0.00    -0.354 N 
ATOM     56  N   UNL A   1      46.070  28.773  27.535  1.00  0.00    -0.248 NA
ATOM     57  C   UNL A   1      48.246  29.328  26.906  1.00  0.00     0.031 C 
ATOM     58  C   UNL A   1      43.109  31.678  29.121  1.00  0.00     0.029 A 
ATOM     59  C   UNL A   1      44.049  30.797  28.613  1.00  0.00     0.049 A 
ATOM     60  H   UNL A   1      43.841  28.746  28.160  1.00  0.00     0.167 HD
ATOM     61  C   UNL A   1      46.282  30.127  27.770  1.00  0.00     0.074 A 
ATOM     62  C   UNL A   1      47.652  30.405  27.398  1.00  0.00     0.031 C 
ATOM     63  C   UNL A   1      45.420  31.056  28.252  1.00  0.00     0.037 A 
BRANCH  50  64
ATOM     64  C   UNL A   1      39.753  28.878  29.377  1.00  0.00     0.064 A 
ATOM     65  C   UNL A   1      38.765  29.306  28.478  1.00  0.00     0.173 A 
ATOM     66  C   UNL A   1      39.383  28.682  30.716  1.00  0.00     0.173 A 
ATOM     67  F   UNL A   1      39.071  29.526  27.190  1.00  0.00    -0.203 F 
ATOM     68  C   UNL A   1      37.462  29.546  28.908  1.00  0.00     0.198 A 
ATOM     69  C   UNL A   1      38.072  28.890  31.136  1.00  0.00     0.198 A 
ATOM     70  F   UNL A   1      40.290  28.274  31.616  1.00  0.00    -0.203 F 
ATOM     71  F   UNL A   1      36.546  29.998  28.042  1.00  0.00    -0.200 F 
ATOM     72  C   UNL A   1      37.115  29.328  30.234  1.00  0.00     0.200 A 
ATOM     73  F   UNL A   1      37.736  28.667  32.414  1.00  0.00    -0.200 F 
ATOM     74  F   UNL A   1      35.858  29.547  30.643  1.00  0.00    -0.200 F 
ENDBRANCH  50  64
BRANCH  51  75
ATOM     75  C   UNL A   1      48.918  26.586  26.133  1.00  0.00     0.064 A 
ATOM     76  C   UNL A   1      49.944  26.138  26.976  1.00  0.00     0.173 A 
ATOM     77  C   UNL A   1      49.229  26.778  24.778  1.00  0.00     0.173 A 
ATOM     78  F   UNL A   1      49.707  25.968  28.286  1.00  0.00    -0.203 F 
ATOM     79  C   UNL A   1      51.234  25.923  26.493  1.00  0.00     0.198 A 
ATOM     80  C   UNL A   1      50.510  26.529  24.288  1.00  0.00     0.198 A 
ATOM     81  F   UNL A   1      48.287  27.212  23.927  1.00  0.00    -0.203 F 
ATOM     82  F   UNL A   1      52.210  25.558  27.336  1.00  0.00    -0.200 F 
ATOM     83  C   UNL A   1      51.514  26.113  25.149  1.00  0.00     0.200 A 
ATOM     84  F   UNL A   1      50.773  26.704  22.987  1.00  0.00    -0.200 F 
ATOM     85  F   UNL A   1      52.755  25.910  24.685  1.00  0.00    -0.200 F 
ENDBRANCH  51  75
BRANCH  63  86
ATOM     86  C   UNL A   1      45.942  32.452  28.457  1.00  0.00     0.064 A 
ATOM     87  C   UNL A   1      45.829  33.441  27.470  1.00  0.00     0.173 A 
ATOM     88  C   UNL A   1      46.523  32.816  29.683  1.00  0.00     0.173 A 
ATOM     89  F   UNL A   1      45.291  33.145  26.277  1.00  0.00    -0.203 F 
ATOM     90  C   UNL A   1      46.304  34.731  27.690  1.00  0.00     0.198 A 
ATOM     91  C   UNL A   1      46.964  34.115  29.913  1.00  0.00     0.198 A 
ATOM     92  F   UNL A   1      46.647  31.912  30.668  1.00  0.00    -0.203 F 
ATOM     93  F   UNL A   1      46.234  35.645  26.712  1.00  0.00    -0.200 F 
ATOM     94  C   UNL A   1      46.864  35.069  28.913  1.00  0.00     0.200 A 
ATOM     95  F   UNL A   1      47.485  34.444  31.103  1.00  0.00    -0.200 F 
ATOM     96  F   UNL A   1      47.311  36.315  29.126  1.00  0.00    -0.200 F 
ENDBRANCH  63  86
ENDBRANCH  37  38
ENDBRANCH  30  32
ENDBRANCH  29  30
ENDBRANCH  28  29
ENDBRANCH  27  28
ENDBRANCH  26  27
ENDBRANCH  25  26
ENDBRANCH   1  25
TORSDOF 21
ENDMDL
