MODEL 1
REMARK VINA RESULT:     -11.5      0.000      0.000
REMARK SMILES O=C(OCCOCCOCCOC(=O)[C@@H]1CN(c2ncnc3c2CCC3)CCO1)c1ccc(-c2c3nc(c(-c4c(F)c(F)c(F)c(F)c4F)c4ccc([nH]4)c(-c4c(F)c(F)c(F)c(F)c4F)c4nc(c(-c5c(F)c(F)c(F)c(F)c5F)c5ccc2[nH]5)C=C4)C=C3)cc1
REMARK SMILES IDX 7 1 6 2 5 3 4 4 3 5 2 6 1 7 30 8 31 9 92 10 32 11 91 12
REMARK SMILES IDX 33 13 34 14 35 15 85 16 36 17 90 18 84 19 86 20 37 21 89 22
REMARK SMILES IDX 83 23 82 24 38 26 70 27 50 28 69 29 51 30 54 31 68 32 87 33
REMARK SMILES IDX 52 34 53 35 67 37 88 38 55 39 39 40 40 41 48 42 41 43 42 44
REMARK SMILES IDX 46 45 49 46 43 47 44 48 47 49 45 50 71 51 72 52 80 53 73 54
REMARK SMILES IDX 74 55 78 56 81 57 75 58 76 59 79 60 77 61 56 62 57 63 65 64
REMARK SMILES IDX 58 65 59 66 63 67 66 68 60 69 61 70 64 71 62 72 8 73 9 74
REMARK SMILES IDX 10 75 11 76 12 77 13 78 14 79 15 80 16 81 29 82 17 83 28 84
REMARK SMILES IDX 27 85 18 86 19 87 23 88 20 89 22 90 24 91 21 92 26 93 25 94
REMARK H PARENT 86 25 54 36
REMARK Flexibility Score: inf
ROOT
ATOM      1  C   UNL A   1      32.714  30.067  25.797  1.00  0.00     0.188 C 
ENDROOT
BRANCH   1   2
ATOM      2  O   UNL A   1      32.322  30.722  27.011  1.00  0.00    -0.376 OA
BRANCH   2   3
ATOM      3  C   UNL A   1      31.390  31.788  26.816  1.00  0.00     0.202 C 
BRANCH   3   4
ATOM      4  C   UNL A   1      32.024  33.175  26.637  1.00  0.00     0.261 C 
BRANCH   4   5
ATOM      5  O   UNL A   1      32.420  33.779  27.878  1.00  0.00    -0.460 OA
BRANCH   5   6
ATOM      6  C   UNL A   1      33.651  34.210  28.247  1.00  0.00     0.338 C 
ATOM      7  O   UNL A   1      33.864  35.421  28.261  1.00  0.00    -0.246 OA
BRANCH   6   8
ATOM      8  C   UNL A   1      34.775  33.303  28.657  1.00  0.00     0.060 A 
ATOM      9  C   UNL A   1      34.633  32.003  29.143  1.00  0.00     0.016 A 
ATOM     10  C   UNL A   1      36.084  33.790  28.492  1.00  0.00     0.016 A 
ATOM     11  C   UNL A   1      35.726  31.248  29.559  1.00  0.00     0.010 A 
ATOM     12  C   UNL A   1      37.196  33.020  28.863  1.00  0.00     0.010 A 
ATOM     13  C   UNL A   1      37.014  31.756  29.443  1.00  0.00    -0.014 A 
BRANCH  13  14
ATOM     14  C   UNL A   1      38.128  31.032  30.095  1.00  0.00     0.031 A 
ATOM     15  C   UNL A   1      38.518  31.452  31.481  1.00  0.00     0.074 A 
ATOM     16  C   UNL A   1      38.711  29.963  29.520  1.00  0.00     0.049 A 
ATOM     17  N   UNL A   1      39.456  30.974  32.254  1.00  0.00    -0.248 NA
ATOM     18  C   UNL A   1      37.712  32.520  32.103  1.00  0.00     0.031 C 
ATOM     19  C   UNL A   1      38.321  29.353  28.252  1.00  0.00     0.029 A 
ATOM     20  N   UNL A   1      39.786  29.209  29.921  1.00  0.00    -0.354 N 
ATOM     21  C   UNL A   1      39.311  31.637  33.464  1.00  0.00     0.074 A 
ATOM     22  C   UNL A   1      38.259  32.613  33.304  1.00  0.00     0.031 C 
ATOM     23  C   UNL A   1      39.224  28.417  27.908  1.00  0.00     0.029 A 
ATOM     24  C   UNL A   1      40.234  28.345  28.950  1.00  0.00     0.049 A 
ATOM     25  H   UNL A   1      40.194  29.280  30.813  1.00  0.00     0.167 HD
ATOM     26  C   UNL A   1      39.964  31.405  34.623  1.00  0.00     0.037 A 
ATOM     27  C   UNL A   1      41.358  27.612  28.907  1.00  0.00     0.037 A 
ATOM     28  C   UNL A   1      41.009  30.435  34.775  1.00  0.00     0.049 A 
ATOM     29  C   UNL A   1      42.209  27.535  30.139  1.00  0.00     0.074 A 
ATOM     30  C   UNL A   1      41.721  30.102  35.911  1.00  0.00     0.029 A 
ATOM     31  N   UNL A   1      41.501  29.650  33.744  1.00  0.00    -0.354 N 
ATOM     32  N   UNL A   1      42.045  28.135  31.289  1.00  0.00    -0.248 NA
ATOM     33  C   UNL A   1      43.369  26.634  30.082  1.00  0.00     0.031 C 
ATOM     34  C   UNL A   1      42.685  29.153  35.556  1.00  0.00     0.029 A 
ATOM     35  C   UNL A   1      42.544  28.870  34.208  1.00  0.00     0.049 A 
ATOM     36  H   UNL A   1      41.160  29.650  32.820  1.00  0.00     0.167 HD
ATOM     37  C   UNL A   1      43.059  27.664  32.104  1.00  0.00     0.074 A 
ATOM     38  C   UNL A   1      43.833  26.727  31.318  1.00  0.00     0.031 C 
ATOM     39  C   UNL A   1      43.315  27.967  33.397  1.00  0.00     0.037 A 
BRANCH  26  40
ATOM     40  C   UNL A   1      39.551  32.202  35.818  1.00  0.00     0.064 A 
ATOM     41  C   UNL A   1      40.158  33.430  36.115  1.00  0.00     0.173 A 
ATOM     42  C   UNL A   1      38.511  31.758  36.644  1.00  0.00     0.173 A 
ATOM     43  F   UNL A   1      41.175  33.882  35.365  1.00  0.00    -0.203 F 
ATOM     44  C   UNL A   1      39.737  34.189  37.203  1.00  0.00     0.198 A 
ATOM     45  C   UNL A   1      38.079  32.529  37.719  1.00  0.00     0.198 A 
ATOM     46  F   UNL A   1      37.909  30.584  36.402  1.00  0.00    -0.203 F 
ATOM     47  F   UNL A   1      40.345  35.350  37.485  1.00  0.00    -0.200 F 
ATOM     48  C   UNL A   1      38.691  33.742  37.998  1.00  0.00     0.200 A 
ATOM     49  F   UNL A   1      37.068  32.097  38.486  1.00  0.00    -0.200 F 
ATOM     50  F   UNL A   1      38.277  34.479  39.037  1.00  0.00    -0.200 F 
ENDBRANCH  26  40
BRANCH  27  51
ATOM     51  C   UNL A   1      41.828  26.957  27.664  1.00  0.00     0.064 A 
ATOM     52  C   UNL A   1      41.589  25.605  27.403  1.00  0.00     0.173 A 
ATOM     53  C   UNL A   1      42.698  27.654  26.810  1.00  0.00     0.173 A 
ATOM     54  F   UNL A   1      40.781  24.900  28.207  1.00  0.00    -0.203 F 
ATOM     55  C   UNL A   1      42.248  24.954  26.362  1.00  0.00     0.198 A 
ATOM     56  C   UNL A   1      43.347  27.004  25.765  1.00  0.00     0.198 A 
ATOM     57  F   UNL A   1      42.948  28.954  27.023  1.00  0.00    -0.203 F 
ATOM     58  F   UNL A   1      42.047  23.645  26.158  1.00  0.00    -0.200 F 
ATOM     59  C   UNL A   1      43.138  25.650  25.554  1.00  0.00     0.200 A 
ATOM     60  F   UNL A   1      44.187  27.684  24.973  1.00  0.00    -0.200 F 
ATOM     61  F   UNL A   1      43.781  25.019  24.564  1.00  0.00    -0.200 F 
ENDBRANCH  27  51
BRANCH  39  62
ATOM     62  C   UNL A   1      44.480  27.282  34.029  1.00  0.00     0.064 A 
ATOM     63  C   UNL A   1      44.348  26.007  34.597  1.00  0.00     0.173 A 
ATOM     64  C   UNL A   1      45.743  27.889  34.039  1.00  0.00     0.173 A 
ATOM     65  F   UNL A   1      43.148  25.406  34.636  1.00  0.00    -0.203 F 
ATOM     66  C   UNL A   1      45.443  25.366  35.163  1.00  0.00     0.198 A 
ATOM     67  C   UNL A   1      46.841  27.232  34.580  1.00  0.00     0.198 A 
ATOM     68  F   UNL A   1      45.910  29.112  33.514  1.00  0.00    -0.203 F 
ATOM     69  F   UNL A   1      45.290  24.165  35.738  1.00  0.00    -0.200 F 
ATOM     70  C   UNL A   1      46.690  25.974  35.144  1.00  0.00     0.200 A 
ATOM     71  F   UNL A   1      48.047  27.817  34.556  1.00  0.00    -0.200 F 
ATOM     72  F   UNL A   1      47.747  25.349  35.679  1.00  0.00    -0.200 F 
ENDBRANCH  39  62
ENDBRANCH  13  14
ENDBRANCH   6   8
ENDBRANCH   5   6
ENDBRANCH   4   5
ENDBRANCH   3   4
ENDBRANCH   2   3
ENDBRANCH   1   2
BRANCH   1  73
ATOM     73  C   UNL A   1      31.559  29.252  25.212  1.00  0.00     0.188 C 
BRANCH  73  74
ATOM     74  O   UNL A   1      31.655  28.901  23.829  1.00  0.00    -0.376 OA
BRANCH  74  75
ATOM     75  C   UNL A   1      32.944  28.954  23.225  1.00  0.00     0.202 C 
BRANCH  75  76
ATOM     76  C   UNL A   1      33.682  27.622  23.010  1.00  0.00     0.261 C 
BRANCH  76  77
ATOM     77  O   UNL A   1      33.765  27.199  21.643  1.00  0.00    -0.461 OA
BRANCH  77  78
ATOM     78  C   UNL A   1      33.092  26.048  21.360  1.00  0.00     0.337 C 
ATOM     79  O   UNL A   1      32.981  25.572  20.233  1.00  0.00    -0.249 OA
BRANCH  78  80
ATOM     80  C   UNL A   1      32.514  25.372  22.609  1.00  0.00     0.247 C 
ATOM     81  C   UNL A   1      32.940  23.898  22.524  1.00  0.00     0.162 C 
ATOM     82  O   UNL A   1      31.088  25.451  22.783  1.00  0.00    -0.363 OA
ATOM     83  N   UNL A   1      32.474  23.170  23.702  1.00  0.00    -0.351 N 
ATOM     84  C   UNL A   1      30.698  24.818  24.021  1.00  0.00     0.183 C 
ATOM     85  C   UNL A   1      31.073  23.326  24.060  1.00  0.00     0.146 C 
BRANCH  83  86
ATOM     86  C   UNL A   1      33.086  21.986  24.023  1.00  0.00     0.135 A 
ATOM     87  N   UNL A   1      32.337  20.877  23.884  1.00  0.00    -0.219 NA
ATOM     88  C   UNL A   1      34.375  21.890  24.482  1.00  0.00     0.016 A 
ATOM     89  C   UNL A   1      32.895  19.698  24.222  1.00  0.00     0.224 A 
ATOM     90  C   UNL A   1      34.851  20.626  24.777  1.00  0.00     0.049 A 
ATOM     91  C   UNL A   1      35.443  22.912  24.672  1.00  0.00     0.042 C 
ATOM     92  N   UNL A   1      34.145  19.500  24.664  1.00  0.00    -0.241 NA
ATOM     93  C   UNL A   1      36.292  20.672  25.199  1.00  0.00     0.057 C 
ATOM     94  C   UNL A   1      36.425  22.151  25.573  1.00  0.00     0.011 C 
ENDBRANCH  83  86
ENDBRANCH  78  80
ENDBRANCH  77  78
ENDBRANCH  76  77
ENDBRANCH  75  76
ENDBRANCH  74  75
ENDBRANCH  73  74
ENDBRANCH   1  73
TORSDOF 18
ENDMDL
MODEL 2
REMARK VINA RESULT:     -11.4      3.967      9.142
REMARK SMILES O=C(OCCOCCOCCOC(=O)[C@@H]1CN(c2ncnc3c2CCC3)CCO1)c1ccc(-c2c3nc(c(-c4c(F)c(F)c(F)c(F)c4F)c4ccc([nH]4)c(-c4c(F)c(F)c(F)c(F)c4F)c4nc(c(-c5c(F)c(F)c(F)c(F)c5F)c5ccc2[nH]5)C=C4)C=C3)cc1
REMARK SMILES IDX 7 1 6 2 5 3 4 4 3 5 2 6 1 7 30 8 31 9 92 10 32 11 91 12
REMARK SMILES IDX 33 13 34 14 35 15 85 16 36 17 90 18 84 19 86 20 37 21 89 22
REMARK SMILES IDX 83 23 82 24 38 26 70 27 50 28 69 29 51 30 54 31 68 32 87 33
REMARK SMILES IDX 52 34 53 35 67 37 88 38 55 39 39 40 40 41 48 42 41 43 42 44
REMARK SMILES IDX 46 45 49 46 43 47 44 48 47 49 45 50 71 51 72 52 80 53 73 54
REMARK SMILES IDX 74 55 78 56 81 57 75 58 76 59 79 60 77 61 56 62 57 63 65 64
REMARK SMILES IDX 58 65 59 66 63 67 66 68 60 69 61 70 64 71 62 72 8 73 9 74
REMARK SMILES IDX 10 75 11 76 12 77 13 78 14 79 15 80 16 81 29 82 17 83 28 84
REMARK SMILES IDX 27 85 18 86 19 87 23 88 20 89 22 90 24 91 21 92 26 93 25 94
REMARK H PARENT 86 25 54 36
REMARK Flexibility Score: inf
ROOT
ATOM      1  C   UNL A   1      43.287  18.884  25.464  1.00  0.00     0.188 C 
ENDROOT
BRANCH   1   2
ATOM      2  O   UNL A   1      44.705  18.674  25.494  1.00  0.00    -0.376 OA
BRANCH   2   3
ATOM      3  C   UNL A   1      45.467  19.834  25.152  1.00  0.00     0.202 C 
BRANCH   3   4
ATOM      4  C   UNL A   1      44.650  20.991  24.558  1.00  0.00     0.261 C 
BRANCH   4   5
ATOM      5  O   UNL A   1      44.471  22.083  25.473  1.00  0.00    -0.460 OA
BRANCH   5   6
ATOM      6  C   UNL A   1      44.530  23.413  25.216  1.00  0.00     0.338 C 
ATOM      7  O   UNL A   1      45.139  23.785  24.214  1.00  0.00    -0.246 OA
BRANCH   6   8
ATOM      8  C   UNL A   1      43.887  24.467  26.067  1.00  0.00     0.060 A 
ATOM      9  C   UNL A   1      44.277  25.805  26.137  1.00  0.00     0.016 A 
ATOM     10  C   UNL A   1      42.765  24.084  26.824  1.00  0.00     0.016 A 
ATOM     11  C   UNL A   1      43.665  26.709  27.000  1.00  0.00     0.010 A 
ATOM     12  C   UNL A   1      42.108  24.999  27.661  1.00  0.00     0.010 A 
ATOM     13  C   UNL A   1      42.590  26.310  27.785  1.00  0.00    -0.014 A 
BRANCH  13  14
ATOM     14  C   UNL A   1      42.106  27.218  28.848  1.00  0.00     0.031 A 
ATOM     15  C   UNL A   1      42.760  27.126  30.195  1.00  0.00     0.074 A 
ATOM     16  C   UNL A   1      41.187  28.171  28.603  1.00  0.00     0.049 A 
ATOM     17  N   UNL A   1      42.513  27.811  31.280  1.00  0.00    -0.248 NA
ATOM     18  C   UNL A   1      43.877  26.172  30.328  1.00  0.00     0.031 C 
ATOM     19  C   UNL A   1      40.592  28.473  27.305  1.00  0.00     0.029 A 
ATOM     20  N   UNL A   1      40.567  29.053  29.452  1.00  0.00    -0.354 N 
ATOM     21  C   UNL A   1      43.476  27.415  32.195  1.00  0.00     0.074 A 
ATOM     22  C   UNL A   1      44.259  26.369  31.580  1.00  0.00     0.031 C 
ATOM     23  C   UNL A   1      39.597  29.364  27.463  1.00  0.00     0.029 A 
ATOM     24  C   UNL A   1      39.511  29.714  28.870  1.00  0.00     0.049 A 
ATOM     25  H   UNL A   1      40.850  29.197  30.384  1.00  0.00     0.167 HD
ATOM     26  C   UNL A   1      43.719  27.926  33.422  1.00  0.00     0.037 A 
ATOM     27  C   UNL A   1      38.566  30.483  29.434  1.00  0.00     0.037 A 
ATOM     28  C   UNL A   1      42.938  28.964  34.028  1.00  0.00     0.049 A 
ATOM     29  C   UNL A   1      38.723  30.870  30.873  1.00  0.00     0.074 A 
ATOM     30  C   UNL A   1      43.111  29.571  35.256  1.00  0.00     0.029 A 
ATOM     31  N   UNL A   1      41.817  29.537  33.446  1.00  0.00    -0.354 N 
ATOM     32  N   UNL A   1      39.656  30.521  31.721  1.00  0.00    -0.248 NA
ATOM     33  C   UNL A   1      37.726  31.803  31.417  1.00  0.00     0.031 C 
ATOM     34  C   UNL A   1      42.061  30.475  35.444  1.00  0.00     0.029 A 
ATOM     35  C   UNL A   1      41.259  30.456  34.316  1.00  0.00     0.049 A 
ATOM     36  H   UNL A   1      41.470  29.321  32.551  1.00  0.00     0.167 HD
ATOM     37  C   UNL A   1      39.380  31.212  32.887  1.00  0.00     0.074 A 
ATOM     38  C   UNL A   1      38.192  32.002  32.640  1.00  0.00     0.031 C 
ATOM     39  C   UNL A   1      40.062  31.207  34.055  1.00  0.00     0.037 A 
BRANCH  26  40
ATOM     40  C   UNL A   1      44.888  27.380  34.176  1.00  0.00     0.064 A 
ATOM     41  C   UNL A   1      46.121  28.049  34.186  1.00  0.00     0.173 A 
ATOM     42  C   UNL A   1      44.763  26.208  34.932  1.00  0.00     0.173 A 
ATOM     43  F   UNL A   1      46.294  29.162  33.457  1.00  0.00    -0.203 F 
ATOM     44  C   UNL A   1      47.191  27.559  34.928  1.00  0.00     0.198 A 
ATOM     45  C   UNL A   1      45.829  25.732  35.688  1.00  0.00     0.198 A 
ATOM     46  F   UNL A   1      43.604  25.532  34.943  1.00  0.00    -0.203 F 
ATOM     47  F   UNL A   1      48.369  28.199  34.907  1.00  0.00    -0.200 F 
ATOM     48  C   UNL A   1      47.041  26.406  35.686  1.00  0.00     0.200 A 
ATOM     49  F   UNL A   1      45.683  24.619  36.421  1.00  0.00    -0.200 F 
ATOM     50  F   UNL A   1      48.068  25.943  36.412  1.00  0.00    -0.200 F 
ENDBRANCH  26  40
BRANCH  27  51
ATOM     51  C   UNL A   1      37.337  30.883  28.710  1.00  0.00     0.064 A 
ATOM     52  C   UNL A   1      37.064  32.218  28.395  1.00  0.00     0.173 A 
ATOM     53  C   UNL A   1      36.326  29.932  28.499  1.00  0.00     0.173 A 
ATOM     54  F   UNL A   1      37.995  33.159  28.601  1.00  0.00    -0.203 F 
ATOM     55  C   UNL A   1      35.801  32.599  27.945  1.00  0.00     0.198 A 
ATOM     56  C   UNL A   1      35.069  30.313  28.039  1.00  0.00     0.198 A 
ATOM     57  F   UNL A   1      36.550  28.641  28.783  1.00  0.00    -0.203 F 
ATOM     58  F   UNL A   1      35.541  33.889  27.696  1.00  0.00    -0.200 F 
ATOM     59  C   UNL A   1      34.801  31.649  27.783  1.00  0.00     0.200 A 
ATOM     60  F   UNL A   1      34.114  29.391  27.863  1.00  0.00    -0.200 F 
ATOM     61  F   UNL A   1      33.584  32.019  27.364  1.00  0.00    -0.200 F 
ENDBRANCH  27  51
BRANCH  39  62
ATOM     62  C   UNL A   1      39.531  32.077  35.146  1.00  0.00     0.064 A 
ATOM     63  C   UNL A   1      38.708  31.553  36.151  1.00  0.00     0.173 A 
ATOM     64  C   UNL A   1      39.875  33.434  35.203  1.00  0.00     0.173 A 
ATOM     65  F   UNL A   1      38.330  30.265  36.113  1.00  0.00    -0.203 F 
ATOM     66  C   UNL A   1      38.237  32.364  37.176  1.00  0.00     0.198 A 
ATOM     67  C   UNL A   1      39.425  34.235  36.246  1.00  0.00     0.198 A 
ATOM     68  F   UNL A   1      40.654  33.976  34.256  1.00  0.00    -0.203 F 
ATOM     69  F   UNL A   1      37.417  31.857  38.107  1.00  0.00    -0.200 F 
ATOM     70  C   UNL A   1      38.605  33.701  37.229  1.00  0.00     0.200 A 
ATOM     71  F   UNL A   1      39.786  35.525  36.300  1.00  0.00    -0.200 F 
ATOM     72  F   UNL A   1      38.160  34.479  38.225  1.00  0.00    -0.200 F 
ENDBRANCH  39  62
ENDBRANCH  13  14
ENDBRANCH   6   8
ENDBRANCH   5   6
ENDBRANCH   4   5
ENDBRANCH   3   4
ENDBRANCH   2   3
ENDBRANCH   1   2
BRANCH   1  73
ATOM     73  C   UNL A   1      42.685  18.777  26.867  1.00  0.00     0.188 C 
BRANCH  73  74
ATOM     74  O   UNL A   1      41.584  19.641  27.160  1.00  0.00    -0.376 OA
BRANCH  74  75
ATOM     75  C   UNL A   1      41.203  20.584  26.164  1.00  0.00     0.202 C 
BRANCH  75  76
ATOM     76  C   UNL A   1      40.059  21.552  26.503  1.00  0.00     0.261 C 
BRANCH  76  77
ATOM     77  O   UNL A   1      38.818  21.267  25.844  1.00  0.00    -0.461 OA
BRANCH  77  78
ATOM     78  C   UNL A   1      37.981  22.333  25.716  1.00  0.00     0.337 C 
ATOM     79  O   UNL A   1      38.237  23.467  26.116  1.00  0.00    -0.249 OA
BRANCH  78  80
ATOM     80  C   UNL A   1      36.682  21.988  24.976  1.00  0.00     0.247 C 
ATOM     81  C   UNL A   1      35.892  23.302  24.877  1.00  0.00     0.162 C 
ATOM     82  O   UNL A   1      35.855  20.972  25.567  1.00  0.00    -0.363 OA
ATOM     83  N   UNL A   1      34.649  23.089  24.141  1.00  0.00    -0.351 N 
ATOM     84  C   UNL A   1      34.700  20.719  24.736  1.00  0.00     0.183 C 
ATOM     85  C   UNL A   1      33.820  21.969  24.560  1.00  0.00     0.146 C 
BRANCH  83  86
ATOM     86  C   UNL A   1      34.021  24.176  23.590  1.00  0.00     0.135 A 
ATOM     87  N   UNL A   1      33.724  24.087  22.282  1.00  0.00    -0.219 NA
ATOM     88  C   UNL A   1      33.713  25.317  24.289  1.00  0.00     0.016 A 
ATOM     89  C   UNL A   1      33.136  25.151  21.699  1.00  0.00     0.224 A 
ATOM     90  C   UNL A   1      33.090  26.337  23.593  1.00  0.00     0.049 A 
ATOM     91  C   UNL A   1      33.858  25.672  25.728  1.00  0.00     0.042 C 
ATOM     92  N   UNL A   1      32.783  26.299  22.296  1.00  0.00    -0.241 NA
ATOM     93  C   UNL A   1      32.754  27.486  24.500  1.00  0.00     0.057 C 
ATOM     94  C   UNL A   1      33.693  27.198  25.675  1.00  0.00     0.011 C 
ENDBRANCH  83  86
ENDBRANCH  78  80
ENDBRANCH  77  78
ENDBRANCH  76  77
ENDBRANCH  75  76
ENDBRANCH  74  75
ENDBRANCH  73  74
ENDBRANCH   1  73
TORSDOF 18
ENDMDL
MODEL 3
REMARK VINA RESULT:     -11.3      1.589      7.372
REMARK SMILES O=C(OCCOCCOCCOC(=O)[C@@H]1CN(c2ncnc3c2CCC3)CCO1)c1ccc(-c2c3nc(c(-c4c(F)c(F)c(F)c(F)c4F)c4ccc([nH]4)c(-c4c(F)c(F)c(F)c(F)c4F)c4nc(c(-c5c(F)c(F)c(F)c(F)c5F)c5ccc2[nH]5)C=C4)C=C3)cc1
REMARK SMILES IDX 7 1 6 2 5 3 4 4 3 5 2 6 1 7 30 8 31 9 92 10 32 11 91 12
REMARK SMILES IDX 33 13 34 14 35 15 85 16 36 17 90 18 84 19 86 20 37 21 89 22
REMARK SMILES IDX 83 23 82 24 38 26 70 27 50 28 69 29 51 30 54 31 68 32 87 33
REMARK SMILES IDX 52 34 53 35 67 37 88 38 55 39 39 40 40 41 48 42 41 43 42 44
REMARK SMILES IDX 46 45 49 46 43 47 44 48 47 49 45 50 71 51 72 52 80 53 73 54
REMARK SMILES IDX 74 55 78 56 81 57 75 58 76 59 79 60 77 61 56 62 57 63 65 64
REMARK SMILES IDX 58 65 59 66 63 67 66 68 60 69 61 70 64 71 62 72 8 73 9 74
REMARK SMILES IDX 10 75 11 76 12 77 13 78 14 79 15 80 16 81 29 82 17 83 28 84
REMARK SMILES IDX 27 85 18 86 19 87 23 88 20 89 22 90 24 91 21 92 26 93 25 94
REMARK H PARENT 86 25 54 36
REMARK Flexibility Score: inf
ROOT
ATOM      1  C   UNL A   1      31.484  29.714  25.158  1.00  0.00     0.188 C 
ENDROOT
BRANCH   1   2
ATOM      2  O   UNL A   1      31.826  30.212  26.459  1.00  0.00    -0.376 OA
BRANCH   2   3
ATOM      3  C   UNL A   1      31.646  31.622  26.602  1.00  0.00     0.202 C 
BRANCH   3   4
ATOM      4  C   UNL A   1      32.790  32.350  27.323  1.00  0.00     0.261 C 
BRANCH   4   5
ATOM      5  O   UNL A   1      32.467  33.706  27.668  1.00  0.00    -0.460 OA
BRANCH   5   6
ATOM      6  C   UNL A   1      33.091  34.518  28.557  1.00  0.00     0.338 C 
ATOM      7  O   UNL A   1      32.622  35.639  28.750  1.00  0.00    -0.246 OA
BRANCH   6   8
ATOM      8  C   UNL A   1      34.314  34.135  29.336  1.00  0.00     0.060 A 
ATOM      9  C   UNL A   1      35.630  34.235  28.883  1.00  0.00     0.016 A 
ATOM     10  C   UNL A   1      34.120  33.680  30.653  1.00  0.00     0.016 A 
ATOM     11  C   UNL A   1      36.709  33.800  29.647  1.00  0.00     0.010 A 
ATOM     12  C   UNL A   1      35.203  33.285  31.451  1.00  0.00     0.010 A 
ATOM     13  C   UNL A   1      36.504  33.301  30.929  1.00  0.00    -0.014 A 
BRANCH  13  14
ATOM     14  C   UNL A   1      37.631  32.643  31.627  1.00  0.00     0.031 A 
ATOM     15  C   UNL A   1      38.193  31.392  31.018  1.00  0.00     0.074 A 
ATOM     16  C   UNL A   1      38.211  33.192  32.711  1.00  0.00     0.049 A 
ATOM     17  N   UNL A   1      39.174  30.640  31.440  1.00  0.00    -0.248 NA
ATOM     18  C   UNL A   1      37.609  30.956  29.736  1.00  0.00     0.031 C 
ATOM     19  C   UNL A   1      37.868  34.479  33.306  1.00  0.00     0.029 A 
ATOM     20  N   UNL A   1      39.204  32.715  33.530  1.00  0.00    -0.354 N 
ATOM     21  C   UNL A   1      39.360  29.686  30.451  1.00  0.00     0.074 A 
ATOM     22  C   UNL A   1      38.341  29.892  29.449  1.00  0.00     0.031 C 
ATOM     23  C   UNL A   1      38.530  34.627  34.468  1.00  0.00     0.029 A 
ATOM     24  C   UNL A   1      39.365  33.456  34.676  1.00  0.00     0.049 A 
ATOM     25  H   UNL A   1      39.746  31.921  33.317  1.00  0.00     0.167 HD
ATOM     26  C   UNL A   1      40.338  28.758  30.363  1.00  0.00     0.037 A 
ATOM     27  C   UNL A   1      40.081  33.186  35.778  1.00  0.00     0.037 A 
ATOM     28  C   UNL A   1      41.346  28.557  31.362  1.00  0.00     0.049 A 
ATOM     29  C   UNL A   1      41.010  32.010  35.757  1.00  0.00     0.074 A 
ATOM     30  C   UNL A   1      42.397  27.661  31.362  1.00  0.00     0.029 A 
ATOM     31  N   UNL A   1      41.415  29.263  32.554  1.00  0.00    -0.354 N 
ATOM     32  N   UNL A   1      41.208  31.136  34.805  1.00  0.00    -0.248 NA
ATOM     33  C   UNL A   1      41.857  31.818  36.943  1.00  0.00     0.031 C 
ATOM     34  C   UNL A   1      43.071  27.785  32.580  1.00  0.00     0.029 A 
ATOM     35  C   UNL A   1      42.462  28.784  33.320  1.00  0.00     0.049 A 
ATOM     36  H   UNL A   1      40.808  29.993  32.816  1.00  0.00     0.167 HD
ATOM     37  C   UNL A   1      42.219  30.309  35.259  1.00  0.00     0.074 A 
ATOM     38  C   UNL A   1      42.597  30.785  36.573  1.00  0.00     0.031 C 
ATOM     39  C   UNL A   1      42.797  29.258  34.634  1.00  0.00     0.037 A 
BRANCH  26  40
ATOM     40  C   UNL A   1      40.370  27.905  29.136  1.00  0.00     0.064 A 
ATOM     41  C   UNL A   1      39.635  26.713  29.062  1.00  0.00     0.173 A 
ATOM     42  C   UNL A   1      41.101  28.305  28.010  1.00  0.00     0.173 A 
ATOM     43  F   UNL A   1      38.940  26.279  30.125  1.00  0.00    -0.203 F 
ATOM     44  C   UNL A   1      39.633  25.948  27.900  1.00  0.00     0.198 A 
ATOM     45  C   UNL A   1      41.080  27.547  26.844  1.00  0.00     0.198 A 
ATOM     46  F   UNL A   1      41.825  29.433  28.041  1.00  0.00    -0.203 F 
ATOM     47  F   UNL A   1      38.943  24.800  27.856  1.00  0.00    -0.200 F 
ATOM     48  C   UNL A   1      40.348  26.372  26.789  1.00  0.00     0.200 A 
ATOM     49  F   UNL A   1      41.770  27.958  25.770  1.00  0.00    -0.200 F 
ATOM     50  F   UNL A   1      40.334  25.641  25.665  1.00  0.00    -0.200 F 
ENDBRANCH  26  40
BRANCH  27  51
ATOM     51  C   UNL A   1      39.918  33.953  37.035  1.00  0.00     0.064 A 
ATOM     52  C   UNL A   1      39.029  33.552  38.037  1.00  0.00     0.173 A 
ATOM     53  C   UNL A   1      40.524  35.213  37.152  1.00  0.00     0.173 A 
ATOM     54  F   UNL A   1      38.415  32.364  37.952  1.00  0.00    -0.203 F 
ATOM     55  C   UNL A   1      38.707  34.410  39.088  1.00  0.00     0.198 A 
ATOM     56  C   UNL A   1      40.209  36.064  38.207  1.00  0.00     0.198 A 
ATOM     57  F   UNL A   1      41.387  35.632  36.215  1.00  0.00    -0.203 F 
ATOM     58  F   UNL A   1      37.815  34.030  40.012  1.00  0.00    -0.200 F 
ATOM     59  C   UNL A   1      39.285  35.670  39.163  1.00  0.00     0.200 A 
ATOM     60  F   UNL A   1      40.786  37.270  38.289  1.00  0.00    -0.200 F 
ATOM     61  F   UNL A   1      38.964  36.498  40.165  1.00  0.00    -0.200 F 
ENDBRANCH  27  51
BRANCH  39  62
ATOM     62  C   UNL A   1      43.890  28.557  35.371  1.00  0.00     0.064 A 
ATOM     63  C   UNL A   1      43.608  27.499  36.245  1.00  0.00     0.173 A 
ATOM     64  C   UNL A   1      45.228  28.925  35.178  1.00  0.00     0.173 A 
ATOM     65  F   UNL A   1      42.337  27.137  36.482  1.00  0.00    -0.203 F 
ATOM     66  C   UNL A   1      44.633  26.836  36.910  1.00  0.00     0.198 A 
ATOM     67  C   UNL A   1      46.252  28.241  35.822  1.00  0.00     0.198 A 
ATOM     68  F   UNL A   1      45.539  29.939  34.356  1.00  0.00    -0.203 F 
ATOM     69  F   UNL A   1      44.343  25.853  37.774  1.00  0.00    -0.200 F 
ATOM     70  C   UNL A   1      45.953  27.200  36.690  1.00  0.00     0.200 A 
ATOM     71  F   UNL A   1      47.528  28.589  35.604  1.00  0.00    -0.200 F 
ATOM     72  F   UNL A   1      46.941  26.552  37.321  1.00  0.00    -0.200 F 
ENDBRANCH  39  62
ENDBRANCH  13  14
ENDBRANCH   6   8
ENDBRANCH   5   6
ENDBRANCH   4   5
ENDBRANCH   3   4
ENDBRANCH   2   3
ENDBRANCH   1   2
BRANCH   1  73
ATOM     73  C   UNL A   1      31.363  28.189  25.165  1.00  0.00     0.188 C 
BRANCH  73  74
ATOM     74  O   UNL A   1      30.247  27.630  24.467  1.00  0.00    -0.376 OA
BRANCH  74  75
ATOM     75  C   UNL A   1      30.064  28.009  23.107  1.00  0.00     0.202 C 
BRANCH  75  76
ATOM     76  C   UNL A   1      31.231  27.760  22.138  1.00  0.00     0.261 C 
BRANCH  76  77
ATOM     77  O   UNL A   1      31.328  26.414  21.652  1.00  0.00    -0.461 OA
BRANCH  77  78
ATOM     78  C   UNL A   1      32.468  25.760  22.007  1.00  0.00     0.337 C 
ATOM     79  O   UNL A   1      33.525  25.823  21.383  1.00  0.00    -0.249 OA
BRANCH  78  80
ATOM     80  C   UNL A   1      32.317  24.956  23.305  1.00  0.00     0.247 C 
ATOM     81  C   UNL A   1      33.207  23.715  23.137  1.00  0.00     0.162 C 
ATOM     82  O   UNL A   1      30.984  24.549  23.658  1.00  0.00    -0.363 OA
ATOM     83  N   UNL A   1      33.169  22.900  24.348  1.00  0.00    -0.351 N 
ATOM     84  C   UNL A   1      30.992  23.849  24.923  1.00  0.00     0.183 C 
ATOM     85  C   UNL A   1      31.856  22.576  24.883  1.00  0.00     0.146 C 
BRANCH  83  86
ATOM     86  C   UNL A   1      34.184  22.003  24.564  1.00  0.00     0.135 A 
ATOM     87  N   UNL A   1      33.834  20.704  24.565  1.00  0.00    -0.219 NA
ATOM     88  C   UNL A   1      35.488  22.363  24.792  1.00  0.00     0.016 A 
ATOM     89  C   UNL A   1      34.800  19.796  24.808  1.00  0.00     0.224 A 
ATOM     90  C   UNL A   1      36.399  21.345  25.007  1.00  0.00     0.049 A 
ATOM     91  C   UNL A   1      36.170  23.688  24.786  1.00  0.00     0.042 C 
ATOM     92  N   UNL A   1      36.099  20.046  25.026  1.00  0.00    -0.241 NA
ATOM     93  C   UNL A   1      37.790  21.886  25.170  1.00  0.00     0.057 C 
ATOM     94  C   UNL A   1      37.482  23.349  25.507  1.00  0.00     0.011 C 
ENDBRANCH  83  86
ENDBRANCH  78  80
ENDBRANCH  77  78
ENDBRANCH  76  77
ENDBRANCH  75  76
ENDBRANCH  74  75
ENDBRANCH  73  74
ENDBRANCH   1  73
TORSDOF 18
ENDMDL
