MODEL 1
REMARK VINA RESULT:     -11.8      0.000      0.000
REMARK SMILES Cc1cc(NC(=O)Nc2sc(C)c(C)c2C(=O)OCCOCCOCCOC(=O)c2ccc(-c3c4nc(c(-c5c(F)c(F)c(F)c(F)c5F)c5ccc([nH]5)c(-c5c(F)c(F)c(F)c(F)c5F)c5nc(c(-c6c(F)c(F)c(F)c(F)c6F)c6ccc3[nH]6)C=C5)C=C4)cc2)ccn1
REMARK SMILES IDX 22 1 21 2 20 3 19 4 18 5 16 6 17 7 15 8 9 9 10 10 11 11
REMARK SMILES IDX 13 12 12 13 14 14 8 15 5 16 6 17 7 19 4 21 1 22 2 23 3 24
REMARK SMILES IDX 95 25 94 26 93 27 23 28 24 29 25 30 26 31 27 32 28 33 29 34
REMARK SMILES IDX 30 35 31 36 92 37 32 38 91 39 33 40 34 41 35 42 85 43 36 44
REMARK SMILES IDX 90 45 84 46 86 47 37 48 89 49 83 50 82 51 38 53 70 54 50 55
REMARK SMILES IDX 69 56 51 57 54 58 68 59 87 60 52 61 53 62 67 64 88 65 55 66
REMARK SMILES IDX 39 67 40 68 48 69 41 70 42 71 46 72 49 73 43 74 44 75 47 76
REMARK SMILES IDX 45 77 71 78 72 79 80 80 73 81 74 82 78 83 81 84 75 85 76 86
REMARK SMILES IDX 79 87 77 88 56 89 57 90 65 91 58 92 59 93 63 94 66 95 60 96
REMARK SMILES IDX 61 97 64 98 62 99
REMARK H PARENT 5 18 8 20 86 52 54 63
REMARK Flexibility Score: inf
ROOT
ATOM      1  C   UNL A   1      39.560  21.836  26.223  1.00  0.00     0.188 C 
ENDROOT
BRANCH   1   2
ATOM      2  O   UNL A   1      38.427  21.788  25.357  1.00  0.00    -0.376 OA
BRANCH   2   3
ATOM      3  C   UNL A   1      37.388  22.742  25.483  1.00  0.00     0.202 C 
BRANCH   3   4
ATOM      4  C   UNL A   1      35.989  22.155  25.276  1.00  0.00     0.261 C 
BRANCH   4   5
ATOM      5  O   UNL A   1      35.051  23.086  24.702  1.00  0.00    -0.460 OA
BRANCH   5   6
ATOM      6  C   UNL A   1      33.872  22.525  24.291  1.00  0.00     0.341 C 
ATOM      7  O   UNL A   1      33.750  21.342  23.993  1.00  0.00    -0.246 OA
BRANCH   6   8
ATOM      8  C   UNL A   1      32.741  23.460  24.237  1.00  0.00     0.098 A 
ATOM      9  C   UNL A   1      32.296  24.176  23.133  1.00  0.00     0.112 A 
ATOM     10  S   UNL A   1      30.692  24.707  23.373  1.00  0.00    -0.122 S 
ATOM     11  C   UNL A   1      30.882  24.647  25.064  1.00  0.00     0.007 A 
ATOM     12  C   UNL A   1      31.998  23.904  25.416  1.00  0.00    -0.021 A 
ATOM     13  C   UNL A   1      29.896  25.340  25.943  1.00  0.00     0.057 C 
ATOM     14  C   UNL A   1      32.431  23.645  26.828  1.00  0.00     0.046 C 
BRANCH   9  15
ATOM     15  N   UNL A   1      32.906  24.382  21.910  1.00  0.00    -0.298 N 
ATOM     16  N   UNL A   1      32.524  26.699  21.400  1.00  0.00    -0.308 N 
ATOM     17  C   UNL A   1      32.804  25.419  21.040  1.00  0.00     0.324 C 
ATOM     18  H   UNL A   1      32.114  27.225  20.676  1.00  0.00     0.171 HD
ATOM     19  O   UNL A   1      33.005  25.196  19.841  1.00  0.00    -0.248 OA
ATOM     20  H   UNL A   1      33.513  23.662  21.625  1.00  0.00     0.172 HD
BRANCH  16  21
ATOM     21  C   UNL A   1      32.696  27.437  22.592  1.00  0.00     0.046 A 
ATOM     22  C   UNL A   1      30.754  30.017  24.579  1.00  0.00     0.067 C 
ATOM     23  C   UNL A   1      31.813  29.045  24.152  1.00  0.00     0.039 A 
ATOM     24  C   UNL A   1      31.713  28.370  22.936  1.00  0.00     0.049 A 
ATOM     25  N   UNL A   1      32.816  28.821  25.028  1.00  0.00    -0.261 NA
ATOM     26  C   UNL A   1      33.768  27.948  24.654  1.00  0.00     0.113 A 
ATOM     27  C   UNL A   1      33.780  27.281  23.443  1.00  0.00     0.046 A 
ENDBRANCH  16  21
ENDBRANCH   9  15
ENDBRANCH   6   8
ENDBRANCH   5   6
ENDBRANCH   4   5
ENDBRANCH   3   4
ENDBRANCH   2   3
ENDBRANCH   1   2
BRANCH   1  28
ATOM     28  C   UNL A   1      40.389  20.583  26.537  1.00  0.00     0.188 C 
BRANCH  28  29
ATOM     29  O   UNL A   1      41.573  20.484  25.755  1.00  0.00    -0.376 OA
BRANCH  29  30
ATOM     30  C   UNL A   1      42.748  21.032  26.345  1.00  0.00     0.202 C 
BRANCH  30  31
ATOM     31  C   UNL A   1      43.544  21.857  25.328  1.00  0.00     0.261 C 
BRANCH  31  32
ATOM     32  O   UNL A   1      42.902  23.089  24.957  1.00  0.00    -0.460 OA
BRANCH  32  33
ATOM     33  C   UNL A   1      43.657  24.203  25.072  1.00  0.00     0.338 C 
ATOM     34  O   UNL A   1      44.635  24.503  24.411  1.00  0.00    -0.246 OA
BRANCH  33  35
ATOM     35  C   UNL A   1      43.001  25.114  26.030  1.00  0.00     0.060 A 
ATOM     36  C   UNL A   1      43.475  26.426  26.117  1.00  0.00     0.016 A 
ATOM     37  C   UNL A   1      41.957  24.682  26.850  1.00  0.00     0.016 A 
ATOM     38  C   UNL A   1      42.917  27.313  27.037  1.00  0.00     0.010 A 
ATOM     39  C   UNL A   1      41.414  25.562  27.790  1.00  0.00     0.010 A 
ATOM     40  C   UNL A   1      41.906  26.874  27.902  1.00  0.00    -0.014 A 
BRANCH  40  41
ATOM     41  C   UNL A   1      41.479  27.725  29.038  1.00  0.00     0.031 A 
ATOM     42  C   UNL A   1      42.242  27.639  30.329  1.00  0.00     0.074 A 
ATOM     43  C   UNL A   1      40.428  28.554  28.928  1.00  0.00     0.049 A 
ATOM     44  N   UNL A   1      42.024  28.249  31.466  1.00  0.00    -0.248 NA
ATOM     45  C   UNL A   1      43.409  26.743  30.338  1.00  0.00     0.031 C 
ATOM     46  C   UNL A   1      39.627  28.752  27.724  1.00  0.00     0.029 A 
ATOM     47  N   UNL A   1      39.849  29.378  29.861  1.00  0.00    -0.354 N 
ATOM     48  C   UNL A   1      43.028  27.818  32.321  1.00  0.00     0.074 A 
ATOM     49  C   UNL A   1      43.840  26.873  31.584  1.00  0.00     0.031 C 
ATOM     50  C   UNL A   1      38.647  29.633  27.995  1.00  0.00     0.029 A 
ATOM     51  C   UNL A   1      38.740  30.039  29.397  1.00  0.00     0.049 A 
ATOM     52  H   UNL A   1      40.198  29.485  30.776  1.00  0.00     0.167 HD
ATOM     53  C   UNL A   1      43.260  28.181  33.604  1.00  0.00     0.037 A 
ATOM     54  C   UNL A   1      37.889  30.861  30.041  1.00  0.00     0.037 A 
ATOM     55  C   UNL A   1      42.446  29.103  34.350  1.00  0.00     0.049 A 
ATOM     56  C   UNL A   1      38.113  31.178  31.497  1.00  0.00     0.074 A 
ATOM     57  C   UNL A   1      42.607  29.540  35.653  1.00  0.00     0.029 A 
ATOM     58  N   UNL A   1      41.307  29.722  33.858  1.00  0.00    -0.354 N 
ATOM     59  N   UNL A   1      39.082  30.790  32.291  1.00  0.00    -0.248 NA
ATOM     60  C   UNL A   1      37.120  32.047  32.147  1.00  0.00     0.031 C 
ATOM     61  C   UNL A   1      41.540  30.391  35.963  1.00  0.00     0.029 A 
ATOM     62  C   UNL A   1      40.740  30.517  34.840  1.00  0.00     0.049 A 
ATOM     63  H   UNL A   1      40.954  29.613  32.945  1.00  0.00     0.167 HD
ATOM     64  C   UNL A   1      38.830  31.386  33.520  1.00  0.00     0.074 A 
ATOM     65  C   UNL A   1      37.622  32.168  33.368  1.00  0.00     0.031 C 
ATOM     66  C   UNL A   1      39.540  31.295  34.672  1.00  0.00     0.037 A 
BRANCH  53  67
ATOM     67  C   UNL A   1      44.435  27.555  34.290  1.00  0.00     0.064 A 
ATOM     68  C   UNL A   1      45.699  28.163  34.273  1.00  0.00     0.173 A 
ATOM     69  C   UNL A   1      44.295  26.343  34.979  1.00  0.00     0.173 A 
ATOM     70  F   UNL A   1      45.886  29.315  33.611  1.00  0.00    -0.203 F 
ATOM     71  C   UNL A   1      46.786  27.567  34.905  1.00  0.00     0.198 A 
ATOM     72  C   UNL A   1      45.379  25.760  35.629  1.00  0.00     0.198 A 
ATOM     73  F   UNL A   1      43.106  25.723  35.022  1.00  0.00    -0.203 F 
ATOM     74  F   UNL A   1      47.995  28.143  34.842  1.00  0.00    -0.200 F 
ATOM     75  C   UNL A   1      46.625  26.370  35.586  1.00  0.00     0.200 A 
ATOM     76  F   UNL A   1      45.221  24.607  36.291  1.00  0.00    -0.200 F 
ATOM     77  F   UNL A   1      47.672  25.796  36.194  1.00  0.00    -0.200 F 
ENDBRANCH  53  67
BRANCH  54  78
ATOM     78  C   UNL A   1      36.730  31.442  29.317  1.00  0.00     0.064 A 
ATOM     79  C   UNL A   1      35.645  30.642  28.936  1.00  0.00     0.173 A 
ATOM     80  C   UNL A   1      36.697  32.801  28.970  1.00  0.00     0.173 A 
ATOM     81  F   UNL A   1      35.649  29.331  29.221  1.00  0.00    -0.203 F 
ATOM     82  C   UNL A   1      34.575  31.175  28.220  1.00  0.00     0.198 A 
ATOM     83  C   UNL A   1      35.616  33.337  28.274  1.00  0.00     0.198 A 
ATOM     84  F   UNL A   1      37.716  33.605  29.305  1.00  0.00    -0.203 F 
ATOM     85  F   UNL A   1      33.570  30.379  27.831  1.00  0.00    -0.200 F 
ATOM     86  C   UNL A   1      34.559  32.523  27.894  1.00  0.00     0.200 A 
ATOM     87  F   UNL A   1      35.603  34.640  27.963  1.00  0.00    -0.200 F 
ATOM     88  F   UNL A   1      33.531  33.035  27.204  1.00  0.00    -0.200 F 
ENDBRANCH  54  78
BRANCH  66  89
ATOM     89  C   UNL A   1      39.050  32.083  35.850  1.00  0.00     0.064 A 
ATOM     90  C   UNL A   1      38.224  31.507  36.827  1.00  0.00     0.173 A 
ATOM     91  C   UNL A   1      39.452  33.415  36.031  1.00  0.00     0.173 A 
ATOM     92  F   UNL A   1      37.801  30.242  36.691  1.00  0.00    -0.203 F 
ATOM     93  C   UNL A   1      37.803  32.243  37.931  1.00  0.00     0.198 A 
ATOM     94  C   UNL A   1      39.049  34.141  37.149  1.00  0.00     0.198 A 
ATOM     95  F   UNL A   1      40.246  34.010  35.128  1.00  0.00    -0.203 F 
ATOM     96  F   UNL A   1      36.985  31.684  38.834  1.00  0.00    -0.200 F 
ATOM     97  C   UNL A   1      38.222  33.556  38.095  1.00  0.00     0.200 A 
ATOM     98  F   UNL A   1      39.463  35.405  37.310  1.00  0.00    -0.200 F 
ATOM     99  F   UNL A   1      37.823  34.259  39.164  1.00  0.00    -0.200 F 
ENDBRANCH  66  89
ENDBRANCH  40  41
ENDBRANCH  33  35
ENDBRANCH  32  33
ENDBRANCH  31  32
ENDBRANCH  30  31
ENDBRANCH  29  30
ENDBRANCH  28  29
ENDBRANCH   1  28
TORSDOF 19
ENDMDL
MODEL 2
REMARK VINA RESULT:     -11.6      1.389      2.584
REMARK SMILES Cc1cc(NC(=O)Nc2sc(C)c(C)c2C(=O)OCCOCCOCCOC(=O)c2ccc(-c3c4nc(c(-c5c(F)c(F)c(F)c(F)c5F)c5ccc([nH]5)c(-c5c(F)c(F)c(F)c(F)c5F)c5nc(c(-c6c(F)c(F)c(F)c(F)c6F)c6ccc3[nH]6)C=C5)C=C4)cc2)ccn1
REMARK SMILES IDX 22 1 21 2 20 3 19 4 18 5 16 6 17 7 15 8 9 9 10 10 11 11
REMARK SMILES IDX 13 12 12 13 14 14 8 15 5 16 6 17 7 19 4 21 1 22 2 23 3 24
REMARK SMILES IDX 95 25 94 26 93 27 23 28 24 29 25 30 26 31 27 32 28 33 29 34
REMARK SMILES IDX 30 35 31 36 92 37 32 38 91 39 33 40 34 41 35 42 85 43 36 44
REMARK SMILES IDX 90 45 84 46 86 47 37 48 89 49 83 50 82 51 38 53 70 54 50 55
REMARK SMILES IDX 69 56 51 57 54 58 68 59 87 60 52 61 53 62 67 64 88 65 55 66
REMARK SMILES IDX 39 67 40 68 48 69 41 70 42 71 46 72 49 73 43 74 44 75 47 76
REMARK SMILES IDX 45 77 71 78 72 79 80 80 73 81 74 82 78 83 81 84 75 85 76 86
REMARK SMILES IDX 79 87 77 88 56 89 57 90 65 91 58 92 59 93 63 94 66 95 60 96
REMARK SMILES IDX 61 97 64 98 62 99
REMARK H PARENT 5 18 8 20 86 52 54 63
REMARK Flexibility Score: inf
ROOT
ATOM      1  C   UNL A   1      39.734  21.980  26.451  1.00  0.00     0.188 C 
ENDROOT
BRANCH   1   2
ATOM      2  O   UNL A   1      38.545  22.074  25.668  1.00  0.00    -0.376 OA
BRANCH   2   3
ATOM      3  C   UNL A   1      37.553  23.035  25.984  1.00  0.00     0.202 C 
BRANCH   3   4
ATOM      4  C   UNL A   1      36.127  22.480  25.943  1.00  0.00     0.261 C 
BRANCH   4   5
ATOM      5  O   UNL A   1      35.110  23.489  26.098  1.00  0.00    -0.460 OA
BRANCH   5   6
ATOM      6  C   UNL A   1      34.193  23.224  27.079  1.00  0.00     0.341 C 
ATOM      7  O   UNL A   1      34.495  22.913  28.226  1.00  0.00    -0.246 OA
BRANCH   6   8
ATOM      8  C   UNL A   1      32.794  23.347  26.651  1.00  0.00     0.098 A 
ATOM      9  C   UNL A   1      31.960  22.330  26.204  1.00  0.00     0.112 A 
ATOM     10  S   UNL A   1      30.325  22.804  26.318  1.00  0.00    -0.122 S 
ATOM     11  C   UNL A   1      30.754  24.451  26.235  1.00  0.00     0.007 A 
ATOM     12  C   UNL A   1      32.107  24.628  26.479  1.00  0.00    -0.021 A 
ATOM     13  C   UNL A   1      29.709  25.473  25.938  1.00  0.00     0.057 C 
ATOM     14  C   UNL A   1      32.796  25.959  26.498  1.00  0.00     0.046 C 
BRANCH   9  15
ATOM     15  N   UNL A   1      32.270  21.037  25.827  1.00  0.00    -0.298 N 
ATOM     16  N   UNL A   1      32.281  21.068  23.424  1.00  0.00    -0.308 N 
ATOM     17  C   UNL A   1      32.176  20.427  24.617  1.00  0.00     0.324 C 
ATOM     18  H   UNL A   1      31.824  20.598  22.690  1.00  0.00     0.171 HD
ATOM     19  O   UNL A   1      32.013  19.202  24.594  1.00  0.00    -0.248 OA
ATOM     20  H   UNL A   1      32.613  20.467  26.552  1.00  0.00     0.172 HD
BRANCH  16  21
ATOM     21  C   UNL A   1      32.905  22.266  23.012  1.00  0.00     0.046 A 
ATOM     22  C   UNL A   1      31.836  25.756  21.985  1.00  0.00     0.067 C 
ATOM     23  C   UNL A   1      32.679  24.565  22.328  1.00  0.00     0.039 A 
ATOM     24  C   UNL A   1      32.089  23.343  22.651  1.00  0.00     0.049 A 
ATOM     25  N   UNL A   1      34.015  24.760  22.367  1.00  0.00    -0.261 NA
ATOM     26  C   UNL A   1      34.777  23.696  22.678  1.00  0.00     0.113 A 
ATOM     27  C   UNL A   1      34.281  22.436  22.953  1.00  0.00     0.046 A 
ENDBRANCH  16  21
ENDBRANCH   9  15
ENDBRANCH   6   8
ENDBRANCH   5   6
ENDBRANCH   4   5
ENDBRANCH   3   4
ENDBRANCH   2   3
ENDBRANCH   1   2
BRANCH   1  28
ATOM     28  C   UNL A   1      40.503  20.658  26.595  1.00  0.00     0.188 C 
BRANCH  28  29
ATOM     29  O   UNL A   1      41.646  20.581  25.753  1.00  0.00    -0.376 OA
BRANCH  29  30
ATOM     30  C   UNL A   1      42.804  21.263  26.224  1.00  0.00     0.202 C 
BRANCH  30  31
ATOM     31  C   UNL A   1      43.530  21.978  25.080  1.00  0.00     0.261 C 
BRANCH  31  32
ATOM     32  O   UNL A   1      43.011  23.291  24.801  1.00  0.00    -0.460 OA
BRANCH  32  33
ATOM     33  C   UNL A   1      43.839  24.321  25.077  1.00  0.00     0.338 C 
ATOM     34  O   UNL A   1      44.903  24.575  24.542  1.00  0.00    -0.246 OA
BRANCH  33  35
ATOM     35  C   UNL A   1      43.163  25.220  26.032  1.00  0.00     0.060 A 
ATOM     36  C   UNL A   1      43.635  26.531  26.145  1.00  0.00     0.016 A 
ATOM     37  C   UNL A   1      42.103  24.777  26.825  1.00  0.00     0.016 A 
ATOM     38  C   UNL A   1      43.057  27.407  27.064  1.00  0.00     0.010 A 
ATOM     39  C   UNL A   1      41.541  25.646  27.764  1.00  0.00     0.010 A 
ATOM     40  C   UNL A   1      42.029  26.956  27.903  1.00  0.00    -0.014 A 
BRANCH  40  41
ATOM     41  C   UNL A   1      41.579  27.793  29.040  1.00  0.00     0.031 A 
ATOM     42  C   UNL A   1      42.325  27.703  30.341  1.00  0.00     0.074 A 
ATOM     43  C   UNL A   1      40.521  28.613  28.923  1.00  0.00     0.049 A 
ATOM     44  N   UNL A   1      42.085  28.301  31.480  1.00  0.00    -0.248 NA
ATOM     45  C   UNL A   1      43.500  26.818  30.358  1.00  0.00     0.031 C 
ATOM     46  C   UNL A   1      39.735  28.815  27.710  1.00  0.00     0.029 A 
ATOM     47  N   UNL A   1      39.922  29.424  29.855  1.00  0.00    -0.354 N 
ATOM     48  C   UNL A   1      43.081  27.872  32.345  1.00  0.00     0.074 A 
ATOM     49  C   UNL A   1      43.912  26.941  31.611  1.00  0.00     0.031 C 
ATOM     50  C   UNL A   1      38.744  29.684  27.974  1.00  0.00     0.029 A 
ATOM     51  C   UNL A   1      38.813  30.079  29.381  1.00  0.00     0.049 A 
ATOM     52  H   UNL A   1      40.257  29.525  30.776  1.00  0.00     0.167 HD
ATOM     53  C   UNL A   1      43.291  28.225  33.634  1.00  0.00     0.037 A 
ATOM     54  C   UNL A   1      37.945  30.886  30.020  1.00  0.00     0.037 A 
ATOM     55  C   UNL A   1      42.459  29.133  34.377  1.00  0.00     0.049 A 
ATOM     56  C   UNL A   1      38.147  31.193  31.483  1.00  0.00     0.074 A 
ATOM     57  C   UNL A   1      42.598  29.559  35.686  1.00  0.00     0.029 A 
ATOM     58  N   UNL A   1      41.321  29.746  33.874  1.00  0.00    -0.354 N 
ATOM     59  N   UNL A   1      39.107  30.807  32.286  1.00  0.00    -0.248 NA
ATOM     60  C   UNL A   1      37.136  32.046  32.126  1.00  0.00     0.031 C 
ATOM     61  C   UNL A   1      41.519  30.398  35.988  1.00  0.00     0.029 A 
ATOM     62  C   UNL A   1      40.733  30.526  34.856  1.00  0.00     0.049 A 
ATOM     63  H   UNL A   1      40.982  29.641  32.955  1.00  0.00     0.167 HD
ATOM     64  C   UNL A   1      38.833  31.389  33.517  1.00  0.00     0.074 A 
ATOM     65  C   UNL A   1      37.620  32.162  33.355  1.00  0.00     0.031 C 
ATOM     66  C   UNL A   1      39.528  31.295  34.677  1.00  0.00     0.037 A 
BRANCH  53  67
ATOM     67  C   UNL A   1      44.463  27.604  34.331  1.00  0.00     0.064 A 
ATOM     68  C   UNL A   1      44.329  26.420  35.072  1.00  0.00     0.173 A 
ATOM     69  C   UNL A   1      45.733  28.190  34.248  1.00  0.00     0.173 A 
ATOM     70  F   UNL A   1      43.129  25.833  35.194  1.00  0.00    -0.203 F 
ATOM     71  C   UNL A   1      45.422  25.858  35.723  1.00  0.00     0.198 A 
ATOM     72  C   UNL A   1      46.830  27.612  34.881  1.00  0.00     0.198 A 
ATOM     73  F   UNL A   1      45.912  29.322  33.552  1.00  0.00    -0.203 F 
ATOM     74  F   UNL A   1      45.264  24.750  36.460  1.00  0.00    -0.200 F 
ATOM     75  C   UNL A   1      46.672  26.451  35.623  1.00  0.00     0.200 A 
ATOM     76  F   UNL A   1      48.037  28.183  34.781  1.00  0.00    -0.200 F 
ATOM     77  F   UNL A   1      47.724  25.908  36.251  1.00  0.00    -0.200 F 
ENDBRANCH  53  67
BRANCH  54  78
ATOM     78  C   UNL A   1      36.791  31.464  29.286  1.00  0.00     0.064 A 
ATOM     79  C   UNL A   1      36.752  32.826  28.964  1.00  0.00     0.173 A 
ATOM     80  C   UNL A   1      35.694  30.671  28.917  1.00  0.00     0.173 A 
ATOM     81  F   UNL A   1      37.766  33.628  29.324  1.00  0.00    -0.203 F 
ATOM     82  C   UNL A   1      35.653  33.380  28.312  1.00  0.00     0.198 A 
ATOM     83  C   UNL A   1      34.605  31.222  28.245  1.00  0.00     0.198 A 
ATOM     84  F   UNL A   1      35.681  29.363  29.212  1.00  0.00    -0.203 F 
ATOM     85  F   UNL A   1      35.622  34.694  28.053  1.00  0.00    -0.200 F 
ATOM     86  C   UNL A   1      34.582  32.576  27.949  1.00  0.00     0.200 A 
ATOM     87  F   UNL A   1      33.574  30.441  27.894  1.00  0.00    -0.200 F 
ATOM     88  F   UNL A   1      33.523  33.109  27.324  1.00  0.00    -0.200 F 
ENDBRANCH  54  78
BRANCH  66  89
ATOM     89  C   UNL A   1      39.014  32.067  35.856  1.00  0.00     0.064 A 
ATOM     90  C   UNL A   1      38.207  31.466  36.833  1.00  0.00     0.173 A 
ATOM     91  C   UNL A   1      39.374  33.412  36.036  1.00  0.00     0.173 A 
ATOM     92  F   UNL A   1      37.824  30.189  36.698  1.00  0.00    -0.203 F 
ATOM     93  C   UNL A   1      37.764  32.189  37.937  1.00  0.00     0.198 A 
ATOM     94  C   UNL A   1      38.949  34.125  37.154  1.00  0.00     0.198 A 
ATOM     95  F   UNL A   1      40.148  34.031  35.132  1.00  0.00    -0.203 F 
ATOM     96  F   UNL A   1      36.965  31.606  38.841  1.00  0.00    -0.200 F 
ATOM     97  C   UNL A   1      38.142  33.515  38.101  1.00  0.00     0.200 A 
ATOM     98  F   UNL A   1      39.323  35.402  37.314  1.00  0.00    -0.200 F 
ATOM     99  F   UNL A   1      37.721  34.206  39.169  1.00  0.00    -0.200 F 
ENDBRANCH  66  89
ENDBRANCH  40  41
ENDBRANCH  33  35
ENDBRANCH  32  33
ENDBRANCH  31  32
ENDBRANCH  30  31
ENDBRANCH  29  30
ENDBRANCH  28  29
ENDBRANCH   1  28
TORSDOF 19
ENDMDL
MODEL 3
REMARK VINA RESULT:     -11.4      1.315      2.134
REMARK SMILES Cc1cc(NC(=O)Nc2sc(C)c(C)c2C(=O)OCCOCCOCCOC(=O)c2ccc(-c3c4nc(c(-c5c(F)c(F)c(F)c(F)c5F)c5ccc([nH]5)c(-c5c(F)c(F)c(F)c(F)c5F)c5nc(c(-c6c(F)c(F)c(F)c(F)c6F)c6ccc3[nH]6)C=C5)C=C4)cc2)ccn1
REMARK SMILES IDX 22 1 21 2 20 3 19 4 18 5 16 6 17 7 15 8 9 9 10 10 11 11
REMARK SMILES IDX 13 12 12 13 14 14 8 15 5 16 6 17 7 19 4 21 1 22 2 23 3 24
REMARK SMILES IDX 95 25 94 26 93 27 23 28 24 29 25 30 26 31 27 32 28 33 29 34
REMARK SMILES IDX 30 35 31 36 92 37 32 38 91 39 33 40 34 41 35 42 85 43 36 44
REMARK SMILES IDX 90 45 84 46 86 47 37 48 89 49 83 50 82 51 38 53 70 54 50 55
REMARK SMILES IDX 69 56 51 57 54 58 68 59 87 60 52 61 53 62 67 64 88 65 55 66
REMARK SMILES IDX 39 67 40 68 48 69 41 70 42 71 46 72 49 73 43 74 44 75 47 76
REMARK SMILES IDX 45 77 71 78 72 79 80 80 73 81 74 82 78 83 81 84 75 85 76 86
REMARK SMILES IDX 79 87 77 88 56 89 57 90 65 91 58 92 59 93 63 94 66 95 60 96
REMARK SMILES IDX 61 97 64 98 62 99
REMARK H PARENT 5 18 8 20 86 52 54 63
REMARK Flexibility Score: inf
ROOT
ATOM      1  C   UNL A   1      39.286  21.545  26.063  1.00  0.00     0.188 C 
ENDROOT
BRANCH   1   2
ATOM      2  O   UNL A   1      39.603  22.853  26.537  1.00  0.00    -0.376 OA
BRANCH   2   3
ATOM      3  C   UNL A   1      38.611  23.865  26.567  1.00  0.00     0.202 C 
BRANCH   3   4
ATOM      4  C   UNL A   1      37.433  23.595  25.627  1.00  0.00     0.261 C 
BRANCH   4   5
ATOM      5  O   UNL A   1      36.158  23.553  26.297  1.00  0.00    -0.460 OA
BRANCH   5   6
ATOM      6  C   UNL A   1      35.108  24.010  25.549  1.00  0.00     0.341 C 
ATOM      7  O   UNL A   1      34.861  25.200  25.378  1.00  0.00    -0.246 OA
BRANCH   6   8
ATOM      8  C   UNL A   1      34.283  22.953  24.950  1.00  0.00     0.098 A 
ATOM      9  C   UNL A   1      33.856  22.866  23.631  1.00  0.00     0.112 A 
ATOM     10  S   UNL A   1      33.391  21.268  23.258  1.00  0.00    -0.122 S 
ATOM     11  C   UNL A   1      33.067  20.936  24.897  1.00  0.00     0.007 A 
ATOM     12  C   UNL A   1      33.641  21.890  25.723  1.00  0.00    -0.021 A 
ATOM     13  C   UNL A   1      32.264  19.733  25.263  1.00  0.00     0.057 C 
ATOM     14  C   UNL A   1      33.556  21.874  27.220  1.00  0.00     0.046 C 
BRANCH   9  15
ATOM     15  N   UNL A   1      33.884  23.819  22.631  1.00  0.00    -0.298 N 
ATOM     16  N   UNL A   1      31.732  24.887  22.722  1.00  0.00    -0.308 N 
ATOM     17  C   UNL A   1      32.875  24.540  22.075  1.00  0.00     0.324 C 
ATOM     18  H   UNL A   1      30.975  25.049  22.114  1.00  0.00     0.171 HD
ATOM     19  O   UNL A   1      33.013  24.932  20.911  1.00  0.00    -0.248 OA
ATOM     20  H   UNL A   1      34.776  24.006  22.262  1.00  0.00     0.172 HD
BRANCH  16  21
ATOM     21  C   UNL A   1      31.397  25.065  24.083  1.00  0.00     0.046 A 
ATOM     22  C   UNL A   1      29.950  22.972  26.894  1.00  0.00     0.067 C 
ATOM     23  C   UNL A   1      30.543  24.114  26.124  1.00  0.00     0.039 A 
ATOM     24  C   UNL A   1      30.800  23.996  24.758  1.00  0.00     0.049 A 
ATOM     25  N   UNL A   1      30.866  25.218  26.832  1.00  0.00    -0.261 NA
ATOM     26  C   UNL A   1      31.402  26.245  26.149  1.00  0.00     0.113 A 
ATOM     27  C   UNL A   1      31.635  26.236  24.787  1.00  0.00     0.046 A 
ENDBRANCH  16  21
ENDBRANCH   9  15
ENDBRANCH   6   8
ENDBRANCH   5   6
ENDBRANCH   4   5
ENDBRANCH   3   4
ENDBRANCH   2   3
ENDBRANCH   1   2
BRANCH   1  28
ATOM     28  C   UNL A   1      40.305  20.398  26.117  1.00  0.00     0.188 C 
BRANCH  28  29
ATOM     29  O   UNL A   1      41.572  20.798  26.624  1.00  0.00    -0.376 OA
BRANCH  29  30
ATOM     30  C   UNL A   1      42.701  20.336  25.890  1.00  0.00     0.202 C 
BRANCH  30  31
ATOM     31  C   UNL A   1      43.660  21.487  25.566  1.00  0.00     0.261 C 
BRANCH  31  32
ATOM     32  O   UNL A   1      43.004  22.649  25.029  1.00  0.00    -0.460 OA
BRANCH  32  33
ATOM     33  C   UNL A   1      43.727  23.790  25.040  1.00  0.00     0.338 C 
ATOM     34  O   UNL A   1      44.647  24.086  24.300  1.00  0.00    -0.246 OA
BRANCH  33  35
ATOM     35  C   UNL A   1      43.106  24.725  25.997  1.00  0.00     0.060 A 
ATOM     36  C   UNL A   1      43.440  26.079  25.900  1.00  0.00     0.016 A 
ATOM     37  C   UNL A   1      42.234  24.280  26.992  1.00  0.00     0.016 A 
ATOM     38  C   UNL A   1      42.913  26.998  26.808  1.00  0.00     0.010 A 
ATOM     39  C   UNL A   1      41.727  25.194  27.918  1.00  0.00     0.010 A 
ATOM     40  C   UNL A   1      42.081  26.553  27.844  1.00  0.00    -0.014 A 
BRANCH  40  41
ATOM     41  C   UNL A   1      41.716  27.470  28.949  1.00  0.00     0.031 A 
ATOM     42  C   UNL A   1      42.537  27.445  30.207  1.00  0.00     0.074 A 
ATOM     43  C   UNL A   1      40.670  28.306  28.842  1.00  0.00     0.049 A 
ATOM     44  N   UNL A   1      42.379  28.119  31.317  1.00  0.00    -0.248 NA
ATOM     45  C   UNL A   1      43.694  26.535  30.211  1.00  0.00     0.031 C 
ATOM     46  C   UNL A   1      39.816  28.449  27.667  1.00  0.00     0.029 A 
ATOM     47  N   UNL A   1      40.144  29.188  29.753  1.00  0.00    -0.354 N 
ATOM     48  C   UNL A   1      43.417  27.722  32.148  1.00  0.00     0.074 A 
ATOM     49  C   UNL A   1      44.183  26.728  31.427  1.00  0.00     0.031 C 
ATOM     50  C   UNL A   1      38.860  29.357  27.933  1.00  0.00     0.029 A 
ATOM     51  C   UNL A   1      39.022  29.837  29.305  1.00  0.00     0.049 A 
ATOM     52  H   UNL A   1      40.536  29.339  30.644  1.00  0.00     0.167 HD
ATOM     53  C   UNL A   1      43.711  28.151  33.397  1.00  0.00     0.037 A 
ATOM     54  C   UNL A   1      38.210  30.704  29.940  1.00  0.00     0.037 A 
ATOM     55  C   UNL A   1      42.943  29.124  34.127  1.00  0.00     0.049 A 
ATOM     56  C   UNL A   1      38.506  31.097  31.365  1.00  0.00     0.074 A 
ATOM     57  C   UNL A   1      43.169  29.628  35.396  1.00  0.00     0.029 A 
ATOM     58  N   UNL A   1      41.790  29.730  33.654  1.00  0.00    -0.354 N 
ATOM     59  N   UNL A   1      39.506  30.741  32.134  1.00  0.00    -0.248 NA
ATOM     60  C   UNL A   1      37.553  32.013  32.011  1.00  0.00     0.031 C 
ATOM     61  C   UNL A   1      42.127  30.510  35.706  1.00  0.00     0.029 A 
ATOM     62  C   UNL A   1      41.277  30.584  34.616  1.00  0.00     0.049 A 
ATOM     63  H   UNL A   1      41.393  29.575  32.765  1.00  0.00     0.167 HD
ATOM     64  C   UNL A   1      39.318  31.406  33.339  1.00  0.00     0.074 A 
ATOM     65  C   UNL A   1      38.112  32.195  33.199  1.00  0.00     0.031 C 
ATOM     66  C   UNL A   1      40.079  31.368  34.460  1.00  0.00     0.037 A 
BRANCH  53  67
ATOM     67  C   UNL A   1      44.910  27.548  34.061  1.00  0.00     0.064 A 
ATOM     68  C   UNL A   1      46.179  28.136  33.953  1.00  0.00     0.173 A 
ATOM     69  C   UNL A   1      44.789  26.378  34.823  1.00  0.00     0.173 A 
ATOM     70  F   UNL A   1      46.347  29.248  33.220  1.00  0.00    -0.203 F 
ATOM     71  C   UNL A   1      47.288  27.562  34.567  1.00  0.00     0.198 A 
ATOM     72  C   UNL A   1      45.896  25.817  35.454  1.00  0.00     0.198 A 
ATOM     73  F   UNL A   1      43.597  25.777  34.955  1.00  0.00    -0.203 F 
ATOM     74  F   UNL A   1      48.499  28.116  34.416  1.00  0.00    -0.200 F 
ATOM     75  C   UNL A   1      47.145  26.406  35.320  1.00  0.00     0.200 A 
ATOM     76  F   UNL A   1      45.756  24.704  36.186  1.00  0.00    -0.200 F 
ATOM     77  F   UNL A   1      48.213  25.853  35.910  1.00  0.00    -0.200 F 
ENDBRANCH  53  67
BRANCH  54  78
ATOM     78  C   UNL A   1      37.026  31.261  29.240  1.00  0.00     0.064 A 
ATOM     79  C   UNL A   1      35.909  30.459  28.967  1.00  0.00     0.173 A 
ATOM     80  C   UNL A   1      36.998  32.594  28.805  1.00  0.00     0.173 A 
ATOM     81  F   UNL A   1      35.905  29.170  29.338  1.00  0.00    -0.203 F 
ATOM     82  C   UNL A   1      34.812  30.966  28.274  1.00  0.00     0.198 A 
ATOM     83  C   UNL A   1      35.891  33.105  28.131  1.00  0.00     0.198 A 
ATOM     84  F   UNL A   1      38.047  33.397  29.034  1.00  0.00    -0.203 F 
ATOM     85  F   UNL A   1      33.775  30.168  27.989  1.00  0.00    -0.200 F 
ATOM     86  C   UNL A   1      34.803  32.290  27.860  1.00  0.00     0.200 A 
ATOM     87  F   UNL A   1      35.885  34.386  27.735  1.00  0.00    -0.200 F 
ATOM     88  F   UNL A   1      33.749  32.777  27.190  1.00  0.00    -0.200 F 
ENDBRANCH  54  78
BRANCH  66  89
ATOM     89  C   UNL A   1      39.653  32.226  35.615  1.00  0.00     0.064 A 
ATOM     90  C   UNL A   1      40.131  33.535  35.774  1.00  0.00     0.173 A 
ATOM     91  C   UNL A   1      38.716  31.750  36.545  1.00  0.00     0.173 A 
ATOM     92  F   UNL A   1      41.038  34.029  34.919  1.00  0.00    -0.203 F 
ATOM     93  C   UNL A   1      39.701  34.329  36.833  1.00  0.00     0.198 A 
ATOM     94  C   UNL A   1      38.270  32.556  37.590  1.00  0.00     0.198 A 
ATOM     95  F   UNL A   1      38.225  30.507  36.434  1.00  0.00    -0.203 F 
ATOM     96  F   UNL A   1      40.198  35.564  36.986  1.00  0.00    -0.200 F 
ATOM     97  C   UNL A   1      38.766  33.842  37.735  1.00  0.00     0.200 A 
ATOM     98  F   UNL A   1      37.359  32.086  38.454  1.00  0.00    -0.200 F 
ATOM     99  F   UNL A   1      38.347  34.612  38.749  1.00  0.00    -0.200 F 
ENDBRANCH  66  89
ENDBRANCH  40  41
ENDBRANCH  33  35
ENDBRANCH  32  33
ENDBRANCH  31  32
ENDBRANCH  30  31
ENDBRANCH  29  30
ENDBRANCH  28  29
ENDBRANCH   1  28
TORSDOF 19
ENDMDL
