MODEL 1
REMARK VINA RESULT:     -10.7      0.000      0.000
REMARK SMILES O=C(OCCOCCOCCOC(=O)c1ccc(-c2c3nc(c(-c4c(F)c(F)c(F)c(F)c4F)c4ccc([nH]4)c(-c4c(F)c(F)c(F)c(F)c4F)c4nc(c(-c5c(F)c(F)c(F)c(F)c5F)c5ccc2[nH]5)C=C4)C=C3)cc1)C1=Cc2cc(Cl)cc(-c3ccc(CO)cc3)c2O[C@@H]1C(F)(F)F
REMARK SMILES IDX 7 1 6 2 5 3 4 4 3 5 2 6 1 7 78 8 79 9 96 10 80 11 95 12
REMARK SMILES IDX 81 13 94 14 82 15 85 16 83 17 84 18 97 19 98 20 99 21 100 22
REMARK SMILES IDX 86 23 87 24 93 25 88 26 92 27 89 28 90 29 91 30 8 32 9 33
REMARK SMILES IDX 10 34 11 35 12 36 13 37 14 38 15 39 16 40 77 41 17 42 76 43
REMARK SMILES IDX 18 44 19 45 20 46 70 47 21 48 75 49 69 50 71 51 22 52 74 53
REMARK SMILES IDX 68 54 67 55 23 57 55 58 35 59 54 60 36 61 39 62 53 63 72 64
REMARK SMILES IDX 37 65 38 66 52 68 73 69 40 70 24 71 25 72 33 73 26 74 27 75
REMARK SMILES IDX 31 76 34 77 28 78 29 79 32 80 30 81 56 82 57 83 65 84 58 85
REMARK SMILES IDX 59 86 63 87 66 88 60 89 61 90 64 91 62 92 41 93 42 94 50 95
REMARK SMILES IDX 43 96 44 97 48 98 51 99 45 100 46 101 49 102 47 103
REMARK H PARENT 91 31 71 56 39 67
REMARK Flexibility Score: inf
ROOT
ATOM      1  C   UNL A   1      37.455  33.103  37.683  1.00  0.00     0.188 C 
ENDROOT
BRANCH   1   2
ATOM      2  O   UNL A   1      36.651  33.037  36.387  1.00  0.00    -0.376 OA
BRANCH   2   3
ATOM      3  C   UNL A   1      37.006  33.895  34.870  1.00  0.00     0.202 C 
BRANCH   3   4
ATOM      4  C   UNL A   1      35.454  34.956  33.771  1.00  0.00     0.261 C 
BRANCH   4   5
ATOM      5  O   UNL A   1      35.364  35.086  32.240  1.00  0.00    -0.460 OA
BRANCH   5   6
ATOM      6  C   UNL A   1      34.616  34.119  31.686  1.00  0.00     0.338 C 
ATOM      7  O   UNL A   1      34.061  33.191  32.219  1.00  0.00    -0.246 OA
BRANCH   6   8
ATOM      8  C   UNL A   1      35.151  34.268  30.347  1.00  0.00     0.087 C 
ATOM      9  C   UNL A   1      36.295  33.447  30.023  1.00  0.00     0.027 C 
ATOM     10  C   UNL A   1      33.439  34.162  29.501  1.00  0.00     0.316 C 
ATOM     11  C   UNL A   1      36.210  31.991  28.996  1.00  0.00     0.019 A 
ATOM     12  O   UNL A   1      33.275  32.474  28.492  1.00  0.00    -0.475 OA
ATOM     13  C   UNL A   1      37.337  31.211  28.964  1.00  0.00     0.032 A 
ATOM     14  C   UNL A   1      34.752  31.416  28.261  1.00  0.00     0.135 A 
ATOM     15  C   UNL A   1      37.213  30.009  28.267  1.00  0.00     0.042 A 
ATOM     16  C   UNL A   1      34.747  30.238  27.522  1.00  0.00     0.026 A 
ATOM     17  Cl  UNL A   1      38.594  28.966  28.222  1.00  0.00    -0.084 Cl
ATOM     18  C   UNL A   1      36.020  29.575  27.585  1.00  0.00     0.033 A 
BRANCH  10  19
ATOM     19  C   UNL A   1      33.577  35.818  29.006  1.00  0.00     0.430 C 
ATOM     20  F   UNL A   1      34.590  36.250  28.240  1.00  0.00    -0.167 F 
ATOM     21  F   UNL A   1      32.428  36.176  28.375  1.00  0.00    -0.167 F 
ATOM     22  F   UNL A   1      33.647  36.662  30.087  1.00  0.00    -0.167 F 
ENDBRANCH  10  19
BRANCH  16  23
ATOM     23  C   UNL A   1      33.782  29.607  26.623  1.00  0.00    -0.015 A 
ATOM     24  C   UNL A   1      32.732  30.323  26.041  1.00  0.00     0.009 A 
ATOM     25  C   UNL A   1      33.700  28.199  26.571  1.00  0.00     0.009 A 
ATOM     26  C   UNL A   1      31.718  29.668  25.323  1.00  0.00     0.007 A 
ATOM     27  C   UNL A   1      32.707  27.541  25.829  1.00  0.00     0.007 A 
ATOM     28  C   UNL A   1      31.734  28.278  25.152  1.00  0.00    -0.023 A 
BRANCH  28  29
ATOM     29  C   UNL A   1      30.729  27.594  24.263  1.00  0.00     0.191 C 
BRANCH  29  30
ATOM     30  O   UNL A   1      30.954  27.894  22.895  1.00  0.00    -0.392 OA
ATOM     31  H   UNL A   1      31.121  28.845  22.797  1.00  0.00     0.211 HD
ENDBRANCH  29  30
ENDBRANCH  28  29
ENDBRANCH  16  23
ENDBRANCH   6   8
ENDBRANCH   5   6
ENDBRANCH   4   5
ENDBRANCH   3   4
ENDBRANCH   2   3
ENDBRANCH   1   2
BRANCH   1  32
ATOM     32  C   UNL A   1      36.970  32.529  39.023  1.00  0.00     0.188 C 
BRANCH  32  33
ATOM     33  O   UNL A   1      37.911  32.008  39.917  1.00  0.00    -0.376 OA
BRANCH  33  34
ATOM     34  C   UNL A   1      37.497  32.014  41.265  1.00  0.00     0.202 C 
BRANCH  34  35
ATOM     35  C   UNL A   1      38.123  33.012  42.245  1.00  0.00     0.261 C 
BRANCH  35  36
ATOM     36  O   UNL A   1      38.241  34.349  41.739  1.00  0.00    -0.460 OA
BRANCH  36  37
ATOM     37  C   UNL A   1      39.435  34.957  41.932  1.00  0.00     0.338 C 
ATOM     38  O   UNL A   1      39.999  35.180  42.989  1.00  0.00    -0.246 OA
BRANCH  37  39
ATOM     39  C   UNL A   1      40.071  35.157  40.621  1.00  0.00     0.060 A 
ATOM     40  C   UNL A   1      39.358  35.788  39.589  1.00  0.00     0.016 A 
ATOM     41  C   UNL A   1      41.353  34.657  40.402  1.00  0.00     0.016 A 
ATOM     42  C   UNL A   1      39.931  35.928  38.329  1.00  0.00     0.010 A 
ATOM     43  C   UNL A   1      41.907  34.752  39.127  1.00  0.00     0.010 A 
ATOM     44  C   UNL A   1      41.185  35.361  38.085  1.00  0.00    -0.014 A 
BRANCH  44  45
ATOM     45  C   UNL A   1      41.617  35.154  36.688  1.00  0.00     0.031 A 
ATOM     46  C   UNL A   1      42.478  36.216  36.068  1.00  0.00     0.074 A 
ATOM     47  C   UNL A   1      41.263  34.058  36.000  1.00  0.00     0.049 A 
ATOM     48  N   UNL A   1      42.936  36.312  34.849  1.00  0.00    -0.248 NA
ATOM     49  C   UNL A   1      42.870  37.331  36.949  1.00  0.00     0.031 C 
ATOM     50  C   UNL A   1      40.478  32.946  36.528  1.00  0.00     0.029 A 
ATOM     51  N   UNL A   1      41.516  33.712  34.698  1.00  0.00    -0.354 N 
ATOM     52  C   UNL A   1      43.666  37.492  34.817  1.00  0.00     0.074 A 
ATOM     53  C   UNL A   1      43.561  38.100  36.124  1.00  0.00     0.031 C 
ATOM     54  C   UNL A   1      40.298  32.041  35.549  1.00  0.00     0.029 A 
ATOM     55  C   UNL A   1      40.926  32.531  34.322  1.00  0.00     0.049 A 
ATOM     56  H   UNL A   1      42.067  34.258  34.092  1.00  0.00     0.167 HD
ATOM     57  C   UNL A   1      44.368  38.017  33.786  1.00  0.00     0.037 A 
ATOM     58  C   UNL A   1      40.885  31.937  33.113  1.00  0.00     0.037 A 
ATOM     59  C   UNL A   1      44.439  37.415  32.483  1.00  0.00     0.049 A 
ATOM     60  C   UNL A   1      41.589  32.598  31.951  1.00  0.00     0.074 A 
ATOM     61  C   UNL A   1      45.115  37.862  31.362  1.00  0.00     0.029 A 
ATOM     62  N   UNL A   1      43.794  36.240  32.122  1.00  0.00    -0.354 N 
ATOM     63  N   UNL A   1      42.299  33.702  31.927  1.00  0.00    -0.248 NA
ATOM     64  C   UNL A   1      41.491  31.925  30.650  1.00  0.00     0.031 C 
ATOM     65  C   UNL A   1      44.818  36.997  30.305  1.00  0.00     0.029 A 
ATOM     66  C   UNL A   1      44.030  35.964  30.787  1.00  0.00     0.049 A 
ATOM     67  H   UNL A   1      43.250  35.686  32.727  1.00  0.00     0.167 HD
ATOM     68  C   UNL A   1      42.761  33.834  30.623  1.00  0.00     0.074 A 
ATOM     69  C   UNL A   1      42.263  32.689  29.889  1.00  0.00     0.031 C 
ATOM     70  C   UNL A   1      43.531  34.810  30.079  1.00  0.00     0.037 A 
BRANCH  57  71
ATOM     71  C   UNL A   1      45.072  39.321  34.024  1.00  0.00     0.064 A 
ATOM     72  C   UNL A   1      46.407  39.374  34.455  1.00  0.00     0.173 A 
ATOM     73  C   UNL A   1      44.407  40.536  33.804  1.00  0.00     0.173 A 
ATOM     74  F   UNL A   1      47.085  38.243  34.699  1.00  0.00    -0.203 F 
ATOM     75  C   UNL A   1      47.037  40.595  34.689  1.00  0.00     0.198 A 
ATOM     76  C   UNL A   1      45.052  41.754  34.001  1.00  0.00     0.198 A 
ATOM     77  F   UNL A   1      43.129  40.544  33.393  1.00  0.00    -0.203 F 
ATOM     78  F   UNL A   1      48.292  40.620  35.158  1.00  0.00    -0.200 F 
ATOM     79  C   UNL A   1      46.362  41.783  34.453  1.00  0.00     0.200 A 
ATOM     80  F   UNL A   1      44.402  42.900  33.758  1.00  0.00    -0.200 F 
ATOM     81  F   UNL A   1      46.972  42.957  34.669  1.00  0.00    -0.200 F 
ENDBRANCH  57  71
BRANCH  58  82
ATOM     82  C   UNL A   1      40.147  30.658  32.930  1.00  0.00     0.064 A 
ATOM     83  C   UNL A   1      40.736  29.430  33.265  1.00  0.00     0.173 A 
ATOM     84  C   UNL A   1      38.854  30.630  32.386  1.00  0.00     0.173 A 
ATOM     85  F   UNL A   1      41.981  29.399  33.764  1.00  0.00    -0.203 F 
ATOM     86  C   UNL A   1      40.072  28.226  33.040  1.00  0.00     0.198 A 
ATOM     87  C   UNL A   1      38.177  29.427  32.195  1.00  0.00     0.198 A 
ATOM     88  F   UNL A   1      38.244  31.774  32.041  1.00  0.00    -0.203 F 
ATOM     89  F   UNL A   1      40.686  27.065  33.311  1.00  0.00    -0.200 F 
ATOM     90  C   UNL A   1      38.792  28.225  32.510  1.00  0.00     0.200 A 
ATOM     91  F   UNL A   1      36.934  29.432  31.693  1.00  0.00    -0.200 F 
ATOM     92  F   UNL A   1      38.155  27.067  32.291  1.00  0.00    -0.200 F 
ENDBRANCH  58  82
BRANCH  70  93
ATOM     93  C   UNL A   1      43.930  34.659  28.637  1.00  0.00     0.064 A 
ATOM     94  C   UNL A   1      45.118  34.017  28.256  1.00  0.00     0.173 A 
ATOM     95  C   UNL A   1      43.081  35.123  27.618  1.00  0.00     0.173 A 
ATOM     96  F   UNL A   1      45.969  33.561  29.187  1.00  0.00    -0.203 F 
ATOM     97  C   UNL A   1      45.457  33.877  26.913  1.00  0.00     0.198 A 
ATOM     98  C   UNL A   1      43.403  34.943  26.277  1.00  0.00     0.198 A 
ATOM     99  F   UNL A   1      41.926  35.733  27.925  1.00  0.00    -0.203 F 
ATOM    100  F   UNL A   1      46.625  33.314  26.573  1.00  0.00    -0.200 F 
ATOM    101  C   UNL A   1      44.595  34.331  25.924  1.00  0.00     0.200 A 
ATOM    102  F   UNL A   1      42.557  35.361  25.325  1.00  0.00    -0.200 F 
ATOM    103  F   UNL A   1      44.917  34.184  24.632  1.00  0.00    -0.200 F 
ENDBRANCH  70  93
ENDBRANCH  44  45
ENDBRANCH  37  39
ENDBRANCH  36  37
ENDBRANCH  35  36
ENDBRANCH  34  35
ENDBRANCH  33  34
ENDBRANCH  32  33
ENDBRANCH   1  32
TORSDOF 21
ENDMDL
MODEL 2
REMARK VINA RESULT:     -10.4      6.188     10.255
REMARK SMILES O=C(OCCOCCOCCOC(=O)c1ccc(-c2c3nc(c(-c4c(F)c(F)c(F)c(F)c4F)c4ccc([nH]4)c(-c4c(F)c(F)c(F)c(F)c4F)c4nc(c(-c5c(F)c(F)c(F)c(F)c5F)c5ccc2[nH]5)C=C4)C=C3)cc1)C1=Cc2cc(Cl)cc(-c3ccc(CO)cc3)c2O[C@@H]1C(F)(F)F
REMARK SMILES IDX 7 1 6 2 5 3 4 4 3 5 2 6 1 7 78 8 79 9 96 10 80 11 95 12
REMARK SMILES IDX 81 13 94 14 82 15 85 16 83 17 84 18 97 19 98 20 99 21 100 22
REMARK SMILES IDX 86 23 87 24 93 25 88 26 92 27 89 28 90 29 91 30 8 32 9 33
REMARK SMILES IDX 10 34 11 35 12 36 13 37 14 38 15 39 16 40 77 41 17 42 76 43
REMARK SMILES IDX 18 44 19 45 20 46 70 47 21 48 75 49 69 50 71 51 22 52 74 53
REMARK SMILES IDX 68 54 67 55 23 57 55 58 35 59 54 60 36 61 39 62 53 63 72 64
REMARK SMILES IDX 37 65 38 66 52 68 73 69 40 70 24 71 25 72 33 73 26 74 27 75
REMARK SMILES IDX 31 76 34 77 28 78 29 79 32 80 30 81 56 82 57 83 65 84 58 85
REMARK SMILES IDX 59 86 63 87 66 88 60 89 61 90 64 91 62 92 41 93 42 94 50 95
REMARK SMILES IDX 43 96 44 97 48 98 51 99 45 100 46 101 49 102 47 103
REMARK H PARENT 91 31 71 56 39 67
REMARK Flexibility Score: inf
ROOT
ATOM      1  C   UNL A   1      46.307  37.165  26.434  1.00  0.00     0.188 C 
ENDROOT
BRANCH   1   2
ATOM      2  O   UNL A   1      46.664  35.690  26.601  1.00  0.00    -0.376 OA
BRANCH   2   3
ATOM      3  C   UNL A   1      45.713  34.295  26.039  1.00  0.00     0.202 C 
BRANCH   3   4
ATOM      4  C   UNL A   1      46.071  32.289  26.807  1.00  0.00     0.261 C 
BRANCH   4   5
ATOM      5  O   UNL A   1      45.209  31.558  27.853  1.00  0.00    -0.460 OA
BRANCH   5   6
ATOM      6  C   UNL A   1      44.586  30.484  27.343  1.00  0.00     0.338 C 
ATOM      7  O   UNL A   1      44.060  30.353  26.266  1.00  0.00    -0.246 OA
BRANCH   6   8
ATOM      8  C   UNL A   1      44.317  29.852  28.619  1.00  0.00     0.087 C 
ATOM      9  C   UNL A   1      42.981  30.018  29.144  1.00  0.00     0.027 C 
ATOM     10  C   UNL A   1      45.107  28.184  28.117  1.00  0.00     0.316 C 
ATOM     11  C   UNL A   1      41.741  28.738  29.119  1.00  0.00     0.019 A 
ATOM     12  O   UNL A   1      43.717  26.796  27.928  1.00  0.00    -0.475 OA
ATOM     13  C   UNL A   1      40.469  29.125  29.458  1.00  0.00     0.032 A 
ATOM     14  C   UNL A   1      42.008  27.151  28.482  1.00  0.00     0.135 A 
ATOM     15  C   UNL A   1      39.486  28.149  29.305  1.00  0.00     0.042 A 
ATOM     16  C   UNL A   1      40.975  26.221  28.438  1.00  0.00     0.026 A 
ATOM     17  Cl  UNL A   1      37.855  28.591  29.685  1.00  0.00    -0.084 Cl
ATOM     18  C   UNL A   1      39.729  26.802  28.854  1.00  0.00     0.033 A 
BRANCH  10  19
ATOM     19  C   UNL A   1      46.373  28.429  29.276  1.00  0.00     0.430 C 
ATOM     20  F   UNL A   1      46.930  29.633  29.476  1.00  0.00    -0.167 F 
ATOM     21  F   UNL A   1      45.938  27.993  30.487  1.00  0.00    -0.167 F 
ATOM     22  F   UNL A   1      47.464  27.642  29.004  1.00  0.00    -0.167 F 
ENDBRANCH  10  19
BRANCH  16  23
ATOM     23  C   UNL A   1      40.913  24.784  28.177  1.00  0.00    -0.015 A 
ATOM     24  C   UNL A   1      41.988  23.932  28.453  1.00  0.00     0.009 A 
ATOM     25  C   UNL A   1      39.890  24.271  27.352  1.00  0.00     0.009 A 
ATOM     26  C   UNL A   1      41.976  22.591  28.038  1.00  0.00     0.007 A 
ATOM     27  C   UNL A   1      39.857  22.924  26.961  1.00  0.00     0.007 A 
ATOM     28  C   UNL A   1      40.880  22.057  27.348  1.00  0.00    -0.023 A 
BRANCH  28  29
ATOM     29  C   UNL A   1      40.805  20.586  27.030  1.00  0.00     0.191 C 
BRANCH  29  30
ATOM     30  O   UNL A   1      41.021  19.792  28.185  1.00  0.00    -0.392 OA
ATOM     31  H   UNL A   1      41.342  20.355  28.908  1.00  0.00     0.211 HD
ENDBRANCH  29  30
ENDBRANCH  28  29
ENDBRANCH  16  23
ENDBRANCH   6   8
ENDBRANCH   5   6
ENDBRANCH   4   5
ENDBRANCH   3   4
ENDBRANCH   2   3
ENDBRANCH   1   2
BRANCH   1  32
ATOM     32  C   UNL A   1      47.082  38.314  27.098  1.00  0.00     0.188 C 
BRANCH  32  33
ATOM     33  O   UNL A   1      46.746  39.633  26.773  1.00  0.00    -0.376 OA
BRANCH  33  34
ATOM     34  C   UNL A   1      45.777  39.751  25.755  1.00  0.00     0.202 C 
BRANCH  34  35
ATOM     35  C   UNL A   1      44.605  40.722  25.933  1.00  0.00     0.261 C 
BRANCH  35  36
ATOM     36  O   UNL A   1      43.315  40.151  25.675  1.00  0.00    -0.460 OA
BRANCH  36  37
ATOM     37  C   UNL A   1      42.503  40.002  26.747  1.00  0.00     0.338 C 
ATOM     38  O   UNL A   1      41.519  40.658  27.038  1.00  0.00    -0.246 OA
BRANCH  37  39
ATOM     39  C   UNL A   1      42.885  38.767  27.450  1.00  0.00     0.060 A 
ATOM     40  C   UNL A   1      42.654  37.521  26.846  1.00  0.00     0.016 A 
ATOM     41  C   UNL A   1      43.412  38.851  28.737  1.00  0.00     0.016 A 
ATOM     42  C   UNL A   1      42.958  36.347  27.528  1.00  0.00     0.010 A 
ATOM     43  C   UNL A   1      43.669  37.676  29.440  1.00  0.00     0.010 A 
ATOM     44  C   UNL A   1      43.415  36.426  28.847  1.00  0.00    -0.014 A 
BRANCH  44  45
ATOM     45  C   UNL A   1      43.359  35.220  29.696  1.00  0.00     0.031 A 
ATOM     46  C   UNL A   1      44.664  34.588  30.084  1.00  0.00     0.074 A 
ATOM     47  C   UNL A   1      42.190  34.710  30.114  1.00  0.00     0.049 A 
ATOM     48  N   UNL A   1      44.893  33.495  30.763  1.00  0.00    -0.248 NA
ATOM     49  C   UNL A   1      45.882  35.285  29.637  1.00  0.00     0.031 C 
ATOM     50  C   UNL A   1      40.874  35.280  29.838  1.00  0.00     0.029 A 
ATOM     51  N   UNL A   1      41.929  33.586  30.853  1.00  0.00    -0.354 N 
ATOM     52  C   UNL A   1      46.275  33.376  30.821  1.00  0.00     0.074 A 
ATOM     53  C   UNL A   1      46.835  34.482  30.079  1.00  0.00     0.031 C 
ATOM     54  C   UNL A   1      39.937  34.489  30.391  1.00  0.00     0.029 A 
ATOM     55  C   UNL A   1      40.589  33.344  31.026  1.00  0.00     0.049 A 
ATOM     56  H   UNL A   1      42.635  33.008  31.224  1.00  0.00     0.167 HD
ATOM     57  C   UNL A   1      47.009  32.427  31.447  1.00  0.00     0.037 A 
ATOM     58  C   UNL A   1      39.973  32.299  31.612  1.00  0.00     0.037 A 
ATOM     59  C   UNL A   1      46.437  31.316  32.156  1.00  0.00     0.049 A 
ATOM     60  C   UNL A   1      40.816  31.197  32.212  1.00  0.00     0.074 A 
ATOM     61  C   UNL A   1      47.084  30.292  32.822  1.00  0.00     0.029 A 
ATOM     62  N   UNL A   1      45.074  31.076  32.277  1.00  0.00    -0.354 N 
ATOM     63  N   UNL A   1      42.122  31.096  32.287  1.00  0.00    -0.248 NA
ATOM     64  C   UNL A   1      40.096  30.067  32.813  1.00  0.00     0.031 C 
ATOM     65  C   UNL A   1      46.116  29.394  33.281  1.00  0.00     0.029 A 
ATOM     66  C   UNL A   1      44.863  29.902  32.978  1.00  0.00     0.049 A 
ATOM     67  H   UNL A   1      44.365  31.656  31.916  1.00  0.00     0.167 HD
ATOM     68  C   UNL A   1      42.378  29.916  32.975  1.00  0.00     0.074 A 
ATOM     69  C   UNL A   1      41.090  29.344  33.308  1.00  0.00     0.031 C 
ATOM     70  C   UNL A   1      43.569  29.356  33.307  1.00  0.00     0.037 A 
BRANCH  57  71
ATOM     71  C   UNL A   1      48.503  32.535  31.350  1.00  0.00     0.064 A 
ATOM     72  C   UNL A   1      49.278  33.058  32.397  1.00  0.00     0.173 A 
ATOM     73  C   UNL A   1      49.172  32.097  30.197  1.00  0.00     0.173 A 
ATOM     74  F   UNL A   1      48.689  33.509  33.514  1.00  0.00    -0.203 F 
ATOM     75  C   UNL A   1      50.662  33.167  32.279  1.00  0.00     0.198 A 
ATOM     76  C   UNL A   1      50.558  32.172  30.098  1.00  0.00     0.198 A 
ATOM     77  F   UNL A   1      48.480  31.590  29.164  1.00  0.00    -0.203 F 
ATOM     78  F   UNL A   1      51.374  33.725  33.268  1.00  0.00    -0.200 F 
ATOM     79  C   UNL A   1      51.301  32.716  31.135  1.00  0.00     0.200 A 
ATOM     80  F   UNL A   1      51.175  31.722  28.997  1.00  0.00    -0.200 F 
ATOM     81  F   UNL A   1      52.633  32.814  31.026  1.00  0.00    -0.200 F 
ENDBRANCH  57  71
BRANCH  58  82
ATOM     82  C   UNL A   1      38.488  32.231  31.655  1.00  0.00     0.064 A 
ATOM     83  C   UNL A   1      37.744  31.943  30.501  1.00  0.00     0.173 A 
ATOM     84  C   UNL A   1      37.777  32.485  32.837  1.00  0.00     0.173 A 
ATOM     85  F   UNL A   1      38.372  31.719  29.338  1.00  0.00    -0.203 F 
ATOM     86  C   UNL A   1      36.350  31.938  30.524  1.00  0.00     0.198 A 
ATOM     87  C   UNL A   1      36.385  32.443  32.867  1.00  0.00     0.198 A 
ATOM     88  F   UNL A   1      38.436  32.772  33.970  1.00  0.00    -0.203 F 
ATOM     89  F   UNL A   1      35.665  31.723  29.391  1.00  0.00    -0.200 F 
ATOM     90  C   UNL A   1      35.671  32.182  31.707  1.00  0.00     0.200 A 
ATOM     91  F   UNL A   1      35.733  32.669  34.017  1.00  0.00    -0.200 F 
ATOM     92  F   UNL A   1      34.332  32.179  31.727  1.00  0.00    -0.200 F 
ENDBRANCH  58  82
BRANCH  70  93
ATOM     93  C   UNL A   1      43.540  28.088  34.115  1.00  0.00     0.064 A 
ATOM     94  C   UNL A   1      43.415  28.098  35.513  1.00  0.00     0.173 A 
ATOM     95  C   UNL A   1      43.588  26.840  33.471  1.00  0.00     0.173 A 
ATOM     96  F   UNL A   1      43.373  29.261  36.179  1.00  0.00    -0.203 F 
ATOM     97  C   UNL A   1      43.376  26.909  36.236  1.00  0.00     0.198 A 
ATOM     98  C   UNL A   1      43.505  25.655  34.195  1.00  0.00     0.198 A 
ATOM     99  F   UNL A   1      43.693  26.771  32.136  1.00  0.00    -0.203 F 
ATOM    100  F   UNL A   1      43.318  26.943  37.575  1.00  0.00    -0.200 F 
ATOM    101  C   UNL A   1      43.412  25.689  35.577  1.00  0.00     0.200 A 
ATOM    102  F   UNL A   1      43.515  24.478  33.552  1.00  0.00    -0.200 F 
ATOM    103  F   UNL A   1      43.360  24.546  36.274  1.00  0.00    -0.200 F 
ENDBRANCH  70  93
ENDBRANCH  44  45
ENDBRANCH  37  39
ENDBRANCH  36  37
ENDBRANCH  35  36
ENDBRANCH  34  35
ENDBRANCH  33  34
ENDBRANCH  32  33
ENDBRANCH   1  32
TORSDOF 21
ENDMDL
MODEL 3
REMARK VINA RESULT:     -10.2      6.459      9.383
REMARK SMILES O=C(OCCOCCOCCOC(=O)c1ccc(-c2c3nc(c(-c4c(F)c(F)c(F)c(F)c4F)c4ccc([nH]4)c(-c4c(F)c(F)c(F)c(F)c4F)c4nc(c(-c5c(F)c(F)c(F)c(F)c5F)c5ccc2[nH]5)C=C4)C=C3)cc1)C1=Cc2cc(Cl)cc(-c3ccc(CO)cc3)c2O[C@@H]1C(F)(F)F
REMARK SMILES IDX 7 1 6 2 5 3 4 4 3 5 2 6 1 7 78 8 79 9 96 10 80 11 95 12
REMARK SMILES IDX 81 13 94 14 82 15 85 16 83 17 84 18 97 19 98 20 99 21 100 22
REMARK SMILES IDX 86 23 87 24 93 25 88 26 92 27 89 28 90 29 91 30 8 32 9 33
REMARK SMILES IDX 10 34 11 35 12 36 13 37 14 38 15 39 16 40 77 41 17 42 76 43
REMARK SMILES IDX 18 44 19 45 20 46 70 47 21 48 75 49 69 50 71 51 22 52 74 53
REMARK SMILES IDX 68 54 67 55 23 57 55 58 35 59 54 60 36 61 39 62 53 63 72 64
REMARK SMILES IDX 37 65 38 66 52 68 73 69 40 70 24 71 25 72 33 73 26 74 27 75
REMARK SMILES IDX 31 76 34 77 28 78 29 79 32 80 30 81 56 82 57 83 65 84 58 85
REMARK SMILES IDX 59 86 63 87 66 88 60 89 61 90 64 91 62 92 41 93 42 94 50 95
REMARK SMILES IDX 43 96 44 97 48 98 51 99 45 100 46 101 49 102 47 103
REMARK H PARENT 91 31 71 56 39 67
REMARK Flexibility Score: inf
ROOT
ATOM      1  C   UNL A   1      37.389  31.776  31.497  1.00  0.00     0.188 C 
ENDROOT
BRANCH   1   2
ATOM      2  O   UNL A   1      37.335  31.069  30.145  1.00  0.00    -0.376 OA
BRANCH   2   3
ATOM      3  C   UNL A   1      38.718  30.463  29.205  1.00  0.00     0.202 C 
BRANCH   3   4
ATOM      4  C   UNL A   1      40.511  29.701  30.179  1.00  0.00     0.261 C 
BRANCH   4   5
ATOM      5  O   UNL A   1      40.760  28.238  30.588  1.00  0.00    -0.460 OA
BRANCH   5   6
ATOM      6  C   UNL A   1      41.944  27.779  30.154  1.00  0.00     0.338 C 
ATOM      7  O   UNL A   1      43.010  27.780  30.716  1.00  0.00    -0.246 OA
BRANCH   6   8
ATOM      8  C   UNL A   1      41.609  27.821  28.744  1.00  0.00     0.087 C 
ATOM      9  C   UNL A   1      42.569  28.470  27.880  1.00  0.00     0.027 C 
ATOM     10  C   UNL A   1      41.120  25.974  28.662  1.00  0.00     0.316 C 
ATOM     11  C   UNL A   1      43.682  27.591  26.800  1.00  0.00     0.019 A 
ATOM     12  O   UNL A   1      42.440  24.961  27.601  1.00  0.00    -0.475 OA
ATOM     13  C   UNL A   1      44.669  28.341  26.213  1.00  0.00     0.032 A 
ATOM     14  C   UNL A   1      43.720  25.866  26.655  1.00  0.00     0.135 A 
ATOM     15  C   UNL A   1      45.611  27.621  25.480  1.00  0.00     0.042 A 
ATOM     16  C   UNL A   1      44.658  25.244  25.839  1.00  0.00     0.026 A 
ATOM     17  Cl  UNL A   1      46.901  28.512  24.744  1.00  0.00    -0.084 Cl
ATOM     18  C   UNL A   1      45.589  26.193  25.293  1.00  0.00     0.033 A 
BRANCH  10  19
ATOM     19  C   UNL A   1      39.470  26.420  28.370  1.00  0.00     0.430 C 
ATOM     20  F   UNL A   1      39.140  27.583  27.787  1.00  0.00    -0.167 F 
ATOM     21  F   UNL A   1      38.880  25.436  27.642  1.00  0.00    -0.167 F 
ATOM     22  F   UNL A   1      38.746  26.460  29.535  1.00  0.00    -0.167 F 
ENDBRANCH  10  19
BRANCH  16  23
ATOM     23  C   UNL A   1      44.823  23.880  25.338  1.00  0.00    -0.015 A 
ATOM     24  C   UNL A   1      43.761  22.971  25.297  1.00  0.00     0.009 A 
ATOM     25  C   UNL A   1      46.122  23.351  25.179  1.00  0.00     0.009 A 
ATOM     26  C   UNL A   1      43.975  21.620  24.978  1.00  0.00     0.007 A 
ATOM     27  C   UNL A   1      46.339  22.010  24.829  1.00  0.00     0.007 A 
ATOM     28  C   UNL A   1      45.257  21.143  24.674  1.00  0.00    -0.023 A 
BRANCH  28  29
ATOM     29  C   UNL A   1      45.463  19.730  24.193  1.00  0.00     0.191 C 
BRANCH  29  30
ATOM     30  O   UNL A   1      46.709  19.209  24.629  1.00  0.00    -0.392 OA
ATOM     31  H   UNL A   1      46.664  18.240  24.649  1.00  0.00     0.211 HD
ENDBRANCH  29  30
ENDBRANCH  28  29
ENDBRANCH  16  23
ENDBRANCH   6   8
ENDBRANCH   5   6
ENDBRANCH   4   5
ENDBRANCH   3   4
ENDBRANCH   2   3
ENDBRANCH   1   2
BRANCH   1  32
ATOM     32  C   UNL A   1      36.312  31.628  32.585  1.00  0.00     0.188 C 
BRANCH  32  33
ATOM     33  O   UNL A   1      35.839  32.776  33.228  1.00  0.00    -0.376 OA
BRANCH  33  34
ATOM     34  C   UNL A   1      36.841  33.549  33.849  1.00  0.00     0.202 C 
BRANCH  34  35
ATOM     35  C   UNL A   1      36.951  33.562  35.377  1.00  0.00     0.261 C 
BRANCH  35  36
ATOM     36  O   UNL A   1      37.025  32.262  35.979  1.00  0.00    -0.460 OA
BRANCH  36  37
ATOM     37  C   UNL A   1      38.154  31.990  36.674  1.00  0.00     0.338 C 
ATOM     38  O   UNL A   1      38.275  31.840  37.877  1.00  0.00    -0.246 OA
BRANCH  37  39
ATOM     39  C   UNL A   1      39.233  31.709  35.714  1.00  0.00     0.060 A 
ATOM     40  C   UNL A   1      39.046  30.733  34.722  1.00  0.00     0.016 A 
ATOM     41  C   UNL A   1      40.452  32.371  35.845  1.00  0.00     0.016 A 
ATOM     42  C   UNL A   1      40.083  30.419  33.847  1.00  0.00     0.010 A 
ATOM     43  C   UNL A   1      41.505  32.021  35.003  1.00  0.00     0.010 A 
ATOM     44  C   UNL A   1      41.329  31.026  34.025  1.00  0.00    -0.014 A 
BRANCH  44  45
ATOM     45  C   UNL A   1      42.515  30.425  33.383  1.00  0.00     0.031 A 
ATOM     46  C   UNL A   1      43.053  31.103  32.156  1.00  0.00     0.074 A 
ATOM     47  C   UNL A   1      43.096  29.321  33.877  1.00  0.00     0.049 A 
ATOM     48  N   UNL A   1      44.035  30.750  31.370  1.00  0.00    -0.248 NA
ATOM     49  C   UNL A   1      42.384  32.354  31.759  1.00  0.00     0.031 C 
ATOM     50  C   UNL A   1      42.685  28.621  35.090  1.00  0.00     0.029 A 
ATOM     51  N   UNL A   1      44.156  28.592  33.403  1.00  0.00    -0.354 N 
ATOM     52  C   UNL A   1      44.098  31.730  30.389  1.00  0.00     0.074 A 
ATOM     53  C   UNL A   1      43.035  32.673  30.653  1.00  0.00     0.031 C 
ATOM     54  C   UNL A   1      43.478  27.548  35.259  1.00  0.00     0.029 A 
ATOM     55  C   UNL A   1      44.425  27.471  34.148  1.00  0.00     0.049 A 
ATOM     56  H   UNL A   1      44.674  28.849  32.606  1.00  0.00     0.167 HD
ATOM     57  C   UNL A   1      44.974  31.834  29.363  1.00  0.00     0.037 A 
ATOM     58  C   UNL A   1      45.322  26.489  33.930  1.00  0.00     0.037 A 
ATOM     59  C   UNL A   1      46.008  30.872  29.097  1.00  0.00     0.049 A 
ATOM     60  C   UNL A   1      46.218  26.575  32.717  1.00  0.00     0.074 A 
ATOM     61  C   UNL A   1      46.947  30.873  28.082  1.00  0.00     0.029 A 
ATOM     62  N   UNL A   1      46.226  29.724  29.847  1.00  0.00    -0.354 N 
ATOM     63  N   UNL A   1      46.293  27.514  31.803  1.00  0.00    -0.248 NA
ATOM     64  C   UNL A   1      47.159  25.467  32.511  1.00  0.00     0.031 C 
ATOM     65  C   UNL A   1      47.685  29.690  28.174  1.00  0.00     0.029 A 
ATOM     66  C   UNL A   1      47.265  28.993  29.296  1.00  0.00     0.049 A 
ATOM     67  H   UNL A   1      45.717  29.468  30.650  1.00  0.00     0.167 HD
ATOM     68  C   UNL A   1      47.311  27.129  30.938  1.00  0.00     0.074 A 
ATOM     69  C   UNL A   1      47.834  25.877  31.446  1.00  0.00     0.031 C 
ATOM     70  C   UNL A   1      47.776  27.752  29.826  1.00  0.00     0.037 A 
BRANCH  57  71
ATOM     71  C   UNL A   1      44.816  33.005  28.438  1.00  0.00     0.064 A 
ATOM     72  C   UNL A   1      45.272  34.288  28.780  1.00  0.00     0.173 A 
ATOM     73  C   UNL A   1      44.211  32.840  27.182  1.00  0.00     0.173 A 
ATOM     74  F   UNL A   1      45.840  34.507  29.976  1.00  0.00    -0.203 F 
ATOM     75  C   UNL A   1      45.097  35.366  27.915  1.00  0.00     0.198 A 
ATOM     76  C   UNL A   1      44.073  33.911  26.305  1.00  0.00     0.198 A 
ATOM     77  F   UNL A   1      43.755  31.636  26.804  1.00  0.00    -0.203 F 
ATOM     78  F   UNL A   1      45.486  36.592  28.289  1.00  0.00    -0.200 F 
ATOM     79  C   UNL A   1      44.507  35.175  26.675  1.00  0.00     0.200 A 
ATOM     80  F   UNL A   1      43.517  33.721  25.101  1.00  0.00    -0.200 F 
ATOM     81  F   UNL A   1      44.349  36.211  25.840  1.00  0.00    -0.200 F 
ENDBRANCH  57  71
BRANCH  58  82
ATOM     82  C   UNL A   1      45.415  25.338  34.867  1.00  0.00     0.064 A 
ATOM     83  C   UNL A   1      44.753  24.131  34.598  1.00  0.00     0.173 A 
ATOM     84  C   UNL A   1      46.138  25.426  36.067  1.00  0.00     0.173 A 
ATOM     85  F   UNL A   1      44.026  24.002  33.478  1.00  0.00    -0.203 F 
ATOM     86  C   UNL A   1      44.790  23.070  35.501  1.00  0.00     0.198 A 
ATOM     87  C   UNL A   1      46.204  24.353  36.952  1.00  0.00     0.198 A 
ATOM     88  F   UNL A   1      46.786  26.559  36.380  1.00  0.00    -0.203 F 
ATOM     89  F   UNL A   1      44.094  21.953  35.246  1.00  0.00    -0.200 F 
ATOM     90  C   UNL A   1      45.519  23.179  36.675  1.00  0.00     0.200 A 
ATOM     91  F   UNL A   1      46.920  24.459  38.080  1.00  0.00    -0.200 F 
ATOM     92  F   UNL A   1      45.551  22.161  37.544  1.00  0.00    -0.200 F 
ENDBRANCH  58  82
BRANCH  70  93
ATOM     93  C   UNL A   1      48.941  27.125  29.113  1.00  0.00     0.064 A 
ATOM     94  C   UNL A   1      50.270  27.448  29.427  1.00  0.00     0.173 A 
ATOM     95  C   UNL A   1      48.721  26.145  28.130  1.00  0.00     0.173 A 
ATOM     96  F   UNL A   1      50.537  28.383  30.351  1.00  0.00    -0.203 F 
ATOM     97  C   UNL A   1      51.331  26.842  28.761  1.00  0.00     0.198 A 
ATOM     98  C   UNL A   1      49.786  25.510  27.498  1.00  0.00     0.198 A 
ATOM     99  F   UNL A   1      47.472  25.787  27.799  1.00  0.00    -0.203 F 
ATOM    100  F   UNL A   1      52.591  27.210  29.035  1.00  0.00    -0.200 F 
ATOM    101  C   UNL A   1      51.089  25.867  27.804  1.00  0.00     0.200 A 
ATOM    102  F   UNL A   1      49.548  24.551  26.592  1.00  0.00    -0.200 F 
ATOM    103  F   UNL A   1      52.112  25.274  27.174  1.00  0.00    -0.200 F 
ENDBRANCH  70  93
ENDBRANCH  44  45
ENDBRANCH  37  39
ENDBRANCH  36  37
ENDBRANCH  35  36
ENDBRANCH  34  35
ENDBRANCH  33  34
ENDBRANCH  32  33
ENDBRANCH   1  32
TORSDOF 21
ENDMDL
