MODEL 1
REMARK VINA RESULT:     -11.0      0.000      0.000
REMARK SMILES CSCc1ccc(C(=O)N[C@H]2C=C[C@@H](C(=O)OCCOCCOCCOC(=O)c3ccc(-c4c5nc(c(-c6c(F)c(F)c(F)c(F)c6F)c6ccc([nH]6)c(-c6c(F)c(F)c(F)c(F)c6F)c6nc(c(-c7c(F)c(F)c(F)c(F)c7F)c7ccc4[nH]7)C=C6)C=C5)cc3)C2)o1
REMARK SMILES IDX 21 1 20 2 19 3 18 4 17 5 15 6 16 7 14 8 11 9 12 10 92 11
REMARK SMILES IDX 13 12 10 13 8 14 9 15 7 17 4 18 5 19 93 20 6 21 3 22 2 23
REMARK SMILES IDX 1 24 22 25 23 26 24 27 25 28 26 29 27 30 28 31 29 32 30 33
REMARK SMILES IDX 91 34 31 35 90 36 32 37 33 38 34 39 84 40 35 41 89 42 83 43
REMARK SMILES IDX 85 44 36 45 88 46 82 47 81 48 37 50 69 51 49 52 68 53 50 54
REMARK SMILES IDX 53 55 67 56 86 57 51 58 52 59 66 61 87 62 54 63 38 64 39 65
REMARK SMILES IDX 47 66 40 67 41 68 45 69 48 70 42 71 43 72 46 73 44 74 70 75
REMARK SMILES IDX 71 76 79 77 72 78 73 79 77 80 80 81 74 82 75 83 78 84 76 85
REMARK SMILES IDX 55 86 56 87 64 88 57 89 58 90 62 91 65 92 59 93 60 94 63 95
REMARK SMILES IDX 61 96
REMARK H PARENT 10 16 85 49 53 60
REMARK Flexibility Score: inf
ROOT
ATOM      1  C   UNL A   1      40.552  20.270  26.724  1.00  0.00     0.188 C 
ENDROOT
BRANCH   1   2
ATOM      2  O   UNL A   1      40.342  21.443  25.952  1.00  0.00    -0.376 OA
BRANCH   2   3
ATOM      3  C   UNL A   1      39.104  22.140  26.124  1.00  0.00     0.202 C 
BRANCH   3   4
ATOM      4  C   UNL A   1      37.857  21.612  25.380  1.00  0.00     0.261 C 
BRANCH   4   5
ATOM      5  O   UNL A   1      36.629  22.181  25.888  1.00  0.00    -0.463 OA
BRANCH   5   6
ATOM      6  C   UNL A   1      35.846  22.899  25.030  1.00  0.00     0.312 C 
ATOM      7  O   UNL A   1      36.061  24.059  24.705  1.00  0.00    -0.252 OA
BRANCH   6   8
ATOM      8  C   UNL A   1      34.815  21.973  24.354  1.00  0.00     0.124 C 
ATOM      9  C   UNL A   1      32.372  21.916  24.719  1.00  0.00     0.106 C 
ATOM     10  C   UNL A   1      32.717  22.531  23.424  1.00  0.00    -0.006 C 
ATOM     11  C   UNL A   1      33.711  21.440  25.280  1.00  0.00     0.048 C 
ATOM     12  C   UNL A   1      34.041  22.571  23.222  1.00  0.00    -0.014 C 
BRANCH   9  13
ATOM     13  N   UNL A   1      31.624  22.715  25.666  1.00  0.00    -0.343 N 
ATOM     14  C   UNL A   1      31.674  23.942  26.270  1.00  0.00     0.287 C 
ATOM     15  O   UNL A   1      31.007  23.993  27.311  1.00  0.00    -0.266 OA
ATOM     16  H   UNL A   1      30.830  22.220  25.972  1.00  0.00     0.164 HD
BRANCH  14  17
ATOM     17  C   UNL A   1      32.341  25.114  25.737  1.00  0.00     0.191 A 
ATOM     18  C   UNL A   1      32.518  26.728  24.211  1.00  0.00     0.114 A 
ATOM     19  C   UNL A   1      33.647  26.805  24.986  1.00  0.00     0.047 A 
ATOM     20  O   UNL A   1      31.742  25.691  24.629  1.00  0.00    -0.455 OA
ATOM     21  C   UNL A   1      33.472  25.854  26.010  1.00  0.00     0.056 A 
BRANCH  18  22
ATOM     22  C   UNL A   1      31.992  27.563  23.106  1.00  0.00     0.144 C 
BRANCH  22  23
ATOM     23  S   UNL A   1      30.159  27.582  23.072  1.00  0.00    -0.157 SA
ATOM     24  C   UNL A   1      29.861  29.372  22.976  1.00  0.00     0.085 C 
ENDBRANCH  22  23
ENDBRANCH  18  22
ENDBRANCH  14  17
ENDBRANCH   9  13
ENDBRANCH   6   8
ENDBRANCH   5   6
ENDBRANCH   4   5
ENDBRANCH   3   4
ENDBRANCH   2   3
ENDBRANCH   1   2
BRANCH   1  25
ATOM     25  C   UNL A   1      41.493  19.200  26.165  1.00  0.00     0.188 C 
BRANCH  25  26
ATOM     26  O   UNL A   1      42.372  19.626  25.160  1.00  0.00    -0.376 OA
BRANCH  26  27
ATOM     27  C   UNL A   1      43.691  20.033  25.472  1.00  0.00     0.202 C 
BRANCH  27  28
ATOM     28  C   UNL A   1      44.242  21.454  25.217  1.00  0.00     0.261 C 
BRANCH  28  29
ATOM     29  O   UNL A   1      43.437  22.586  25.583  1.00  0.00    -0.460 OA
BRANCH  29  30
ATOM     30  C   UNL A   1      43.919  23.818  25.289  1.00  0.00     0.338 C 
ATOM     31  O   UNL A   1      44.575  24.132  24.304  1.00  0.00    -0.246 OA
BRANCH  30  32
ATOM     32  C   UNL A   1      43.266  24.789  26.204  1.00  0.00     0.060 A 
ATOM     33  C   UNL A   1      43.715  26.121  26.210  1.00  0.00     0.016 A 
ATOM     34  C   UNL A   1      42.188  24.414  27.006  1.00  0.00     0.016 A 
ATOM     35  C   UNL A   1      43.111  27.070  27.040  1.00  0.00     0.010 A 
ATOM     36  C   UNL A   1      41.602  25.358  27.858  1.00  0.00     0.010 A 
ATOM     37  C   UNL A   1      42.079  26.682  27.903  1.00  0.00    -0.014 A 
BRANCH  37  38
ATOM     38  C   UNL A   1      41.642  27.584  29.001  1.00  0.00     0.031 A 
ATOM     39  C   UNL A   1      42.391  27.525  30.305  1.00  0.00     0.074 A 
ATOM     40  C   UNL A   1      40.607  28.432  28.862  1.00  0.00     0.049 A 
ATOM     41  N   UNL A   1      42.145  28.129  31.439  1.00  0.00    -0.248 NA
ATOM     42  C   UNL A   1      43.581  26.659  30.331  1.00  0.00     0.031 C 
ATOM     43  C   UNL A   1      39.829  28.631  27.643  1.00  0.00     0.029 A 
ATOM     44  N   UNL A   1      40.024  29.279  29.775  1.00  0.00    -0.354 N 
ATOM     45  C   UNL A   1      43.133  27.699  32.317  1.00  0.00     0.074 A 
ATOM     46  C   UNL A   1      43.970  26.768  31.592  1.00  0.00     0.031 C 
ATOM     47  C   UNL A   1      38.858  29.530  27.886  1.00  0.00     0.029 A 
ATOM     48  C   UNL A   1      38.920  29.939  29.290  1.00  0.00     0.049 A 
ATOM     49  H   UNL A   1      40.364  29.401  30.691  1.00  0.00     0.167 HD
ATOM     50  C   UNL A   1      43.327  28.049  33.610  1.00  0.00     0.037 A 
ATOM     51  C   UNL A   1      38.047  30.753  29.917  1.00  0.00     0.037 A 
ATOM     52  C   UNL A   1      42.499  28.979  34.331  1.00  0.00     0.049 A 
ATOM     53  C   UNL A   1      38.237  31.062  31.384  1.00  0.00     0.074 A 
ATOM     54  C   UNL A   1      42.636  29.423  35.635  1.00  0.00     0.029 A 
ATOM     55  N   UNL A   1      41.373  29.600  33.814  1.00  0.00    -0.354 N 
ATOM     56  N   UNL A   1      39.189  30.676  32.199  1.00  0.00    -0.248 NA
ATOM     57  C   UNL A   1      37.224  31.920  32.018  1.00  0.00     0.031 C 
ATOM     58  C   UNL A   1      41.554  30.257  35.928  1.00  0.00     0.029 A 
ATOM     59  C   UNL A   1      40.785  30.395  34.785  1.00  0.00     0.049 A 
ATOM     60  H   UNL A   1      41.041  29.494  32.894  1.00  0.00     0.167 HD
ATOM     61  C   UNL A   1      38.914  31.276  33.423  1.00  0.00     0.074 A 
ATOM     62  C   UNL A   1      37.712  32.060  33.242  1.00  0.00     0.031 C 
ATOM     63  C   UNL A   1      39.598  31.187  34.591  1.00  0.00     0.037 A 
BRANCH  50  64
ATOM     64  C   UNL A   1      44.459  27.392  34.347  1.00  0.00     0.064 A 
ATOM     65  C   UNL A   1      45.746  27.947  34.378  1.00  0.00     0.173 A 
ATOM     66  C   UNL A   1      44.236  26.210  35.069  1.00  0.00     0.173 A 
ATOM     67  F   UNL A   1      46.017  29.067  33.691  1.00  0.00    -0.203 F 
ATOM     68  C   UNL A   1      46.776  27.328  35.084  1.00  0.00     0.198 A 
ATOM     69  C   UNL A   1      45.258  25.613  35.801  1.00  0.00     0.198 A 
ATOM     70  F   UNL A   1      43.021  25.639  35.076  1.00  0.00    -0.203 F 
ATOM     71  F   UNL A   1      48.010  27.848  35.058  1.00  0.00    -0.200 F 
ATOM     72  C   UNL A   1      46.528  26.167  35.802  1.00  0.00     0.200 A 
ATOM     73  F   UNL A   1      45.012  24.500  36.507  1.00  0.00    -0.200 F 
ATOM     74  F   UNL A   1      47.517  25.580  36.491  1.00  0.00    -0.200 F 
ENDBRANCH  50  64
BRANCH  51  75
ATOM     75  C   UNL A   1      36.891  31.331  29.177  1.00  0.00     0.064 A 
ATOM     76  C   UNL A   1      36.852  32.694  28.849  1.00  0.00     0.173 A 
ATOM     77  C   UNL A   1      35.780  30.548  28.829  1.00  0.00     0.173 A 
ATOM     78  F   UNL A   1      37.875  33.492  29.188  1.00  0.00    -0.203 F 
ATOM     79  C   UNL A   1      35.738  33.257  28.228  1.00  0.00     0.198 A 
ATOM     80  C   UNL A   1      34.680  31.104  28.177  1.00  0.00     0.198 A 
ATOM     81  F   UNL A   1      35.759  29.241  29.126  1.00  0.00    -0.203 F 
ATOM     82  F   UNL A   1      35.704  34.573  27.984  1.00  0.00    -0.200 F 
ATOM     83  C   UNL A   1      34.655  32.460  27.887  1.00  0.00     0.200 A 
ATOM     84  F   UNL A   1      33.641  30.329  27.841  1.00  0.00    -0.200 F 
ATOM     85  F   UNL A   1      33.583  33.001  27.293  1.00  0.00    -0.200 F 
ENDBRANCH  51  75
BRANCH  63  86
ATOM     86  C   UNL A   1      39.102  32.001  35.756  1.00  0.00     0.064 A 
ATOM     87  C   UNL A   1      38.268  31.456  36.743  1.00  0.00     0.173 A 
ATOM     88  C   UNL A   1      39.510  33.336  35.908  1.00  0.00     0.173 A 
ATOM     89  F   UNL A   1      37.840  30.189  36.641  1.00  0.00    -0.203 F 
ATOM     90  C   UNL A   1      37.836  32.226  37.822  1.00  0.00     0.198 A 
ATOM     91  C   UNL A   1      39.105  34.091  37.006  1.00  0.00     0.198 A 
ATOM     92  F   UNL A   1      40.315  33.906  34.999  1.00  0.00    -0.203 F 
ATOM     93  F   UNL A   1      36.996  31.699  38.723  1.00  0.00    -0.200 F 
ATOM     94  C   UNL A   1      38.262  33.539  37.957  1.00  0.00     0.200 A 
ATOM     95  F   UNL A   1      39.534  35.353  37.144  1.00  0.00    -0.200 F 
ATOM     96  F   UNL A   1      37.853  34.273  39.000  1.00  0.00    -0.200 F 
ENDBRANCH  63  86
ENDBRANCH  37  38
ENDBRANCH  30  32
ENDBRANCH  29  30
ENDBRANCH  28  29
ENDBRANCH  27  28
ENDBRANCH  26  27
ENDBRANCH  25  26
ENDBRANCH   1  25
TORSDOF 21
ENDMDL
MODEL 2
REMARK VINA RESULT:     -10.4      4.753      9.608
REMARK SMILES CSCc1ccc(C(=O)N[C@H]2C=C[C@@H](C(=O)OCCOCCOCCOC(=O)c3ccc(-c4c5nc(c(-c6c(F)c(F)c(F)c(F)c6F)c6ccc([nH]6)c(-c6c(F)c(F)c(F)c(F)c6F)c6nc(c(-c7c(F)c(F)c(F)c(F)c7F)c7ccc4[nH]7)C=C6)C=C5)cc3)C2)o1
REMARK SMILES IDX 21 1 20 2 19 3 18 4 17 5 15 6 16 7 14 8 11 9 12 10 92 11
REMARK SMILES IDX 13 12 10 13 8 14 9 15 7 17 4 18 5 19 93 20 6 21 3 22 2 23
REMARK SMILES IDX 1 24 22 25 23 26 24 27 25 28 26 29 27 30 28 31 29 32 30 33
REMARK SMILES IDX 91 34 31 35 90 36 32 37 33 38 34 39 84 40 35 41 89 42 83 43
REMARK SMILES IDX 85 44 36 45 88 46 82 47 81 48 37 50 69 51 49 52 68 53 50 54
REMARK SMILES IDX 53 55 67 56 86 57 51 58 52 59 66 61 87 62 54 63 38 64 39 65
REMARK SMILES IDX 47 66 40 67 41 68 45 69 48 70 42 71 43 72 46 73 44 74 70 75
REMARK SMILES IDX 71 76 79 77 72 78 73 79 77 80 80 81 74 82 75 83 78 84 76 85
REMARK SMILES IDX 55 86 56 87 64 88 57 89 58 90 62 91 65 92 59 93 60 94 63 95
REMARK SMILES IDX 61 96
REMARK H PARENT 10 16 85 49 53 60
REMARK Flexibility Score: inf
ROOT
ATOM      1  C   UNL A   1      36.068  24.069  25.522  1.00  0.00     0.188 C 
ENDROOT
BRANCH   1   2
ATOM      2  O   UNL A   1      34.677  24.254  25.742  1.00  0.00    -0.376 OA
BRANCH   2   3
ATOM      3  C   UNL A   1      34.114  25.526  25.404  1.00  0.00     0.202 C 
BRANCH   3   4
ATOM      4  C   UNL A   1      33.878  25.847  23.911  1.00  0.00     0.261 C 
BRANCH   4   5
ATOM      5  O   UNL A   1      32.544  25.502  23.477  1.00  0.00    -0.463 OA
BRANCH   5   6
ATOM      6  C   UNL A   1      31.486  25.990  24.189  1.00  0.00     0.312 C 
ATOM      7  O   UNL A   1      31.212  27.178  24.293  1.00  0.00    -0.252 OA
BRANCH   6   8
ATOM      8  C   UNL A   1      30.564  24.834  24.628  1.00  0.00     0.124 C 
ATOM      9  C   UNL A   1      31.233  22.620  25.497  1.00  0.00     0.106 C 
ATOM     10  C   UNL A   1      30.703  23.490  26.564  1.00  0.00    -0.006 C 
ATOM     11  C   UNL A   1      31.038  23.431  24.218  1.00  0.00     0.048 C 
ATOM     12  C   UNL A   1      30.344  24.695  26.100  1.00  0.00    -0.014 C 
BRANCH   9  13
ATOM     13  N   UNL A   1      32.584  22.124  25.642  1.00  0.00    -0.343 N 
ATOM     14  C   UNL A   1      33.310  20.985  25.420  1.00  0.00     0.287 C 
ATOM     15  O   UNL A   1      34.352  20.941  26.088  1.00  0.00    -0.266 OA
ATOM     16  H   UNL A   1      33.163  22.826  26.016  1.00  0.00     0.164 HD
BRANCH  14  17
ATOM     17  C   UNL A   1      32.985  19.957  24.450  1.00  0.00     0.191 A 
ATOM     18  C   UNL A   1      33.315  17.937  23.570  1.00  0.00     0.114 A 
ATOM     19  C   UNL A   1      32.441  18.583  22.734  1.00  0.00     0.047 A 
ATOM     20  O   UNL A   1      33.679  18.766  24.587  1.00  0.00    -0.455 OA
ATOM     21  C   UNL A   1      32.157  19.814  23.356  1.00  0.00     0.056 A 
BRANCH  18  22
ATOM     22  C   UNL A   1      33.852  16.556  23.600  1.00  0.00     0.144 C 
BRANCH  22  23
ATOM     23  S   UNL A   1      34.095  15.950  25.313  1.00  0.00    -0.157 SA
ATOM     24  C   UNL A   1      32.641  14.872  25.479  1.00  0.00     0.085 C 
ENDBRANCH  22  23
ENDBRANCH  18  22
ENDBRANCH  14  17
ENDBRANCH   9  13
ENDBRANCH   6   8
ENDBRANCH   5   6
ENDBRANCH   4   5
ENDBRANCH   3   4
ENDBRANCH   2   3
ENDBRANCH   1   2
BRANCH   1  25
ATOM     25  C   UNL A   1      36.500  22.974  24.543  1.00  0.00     0.188 C 
BRANCH  25  26
ATOM     26  O   UNL A   1      37.826  22.539  24.662  1.00  0.00    -0.376 OA
BRANCH  26  27
ATOM     27  C   UNL A   1      38.201  21.613  25.665  1.00  0.00     0.202 C 
BRANCH  27  28
ATOM     28  C   UNL A   1      39.664  21.265  26.019  1.00  0.00     0.261 C 
BRANCH  28  29
ATOM     29  O   UNL A   1      40.041  19.884  26.129  1.00  0.00    -0.460 OA
BRANCH  29  30
ATOM     30  C   UNL A   1      41.366  19.597  26.153  1.00  0.00     0.338 C 
ATOM     31  O   UNL A   1      41.905  18.592  25.710  1.00  0.00    -0.246 OA
BRANCH  30  32
ATOM     32  C   UNL A   1      42.090  20.837  26.533  1.00  0.00     0.060 A 
ATOM     33  C   UNL A   1      42.185  21.176  27.893  1.00  0.00     0.016 A 
ATOM     34  C   UNL A   1      42.719  21.630  25.572  1.00  0.00     0.016 A 
ATOM     35  C   UNL A   1      42.879  22.323  28.292  1.00  0.00     0.010 A 
ATOM     36  C   UNL A   1      43.388  22.793  25.969  1.00  0.00     0.010 A 
ATOM     37  C   UNL A   1      43.445  23.163  27.327  1.00  0.00    -0.014 A 
BRANCH  37  38
ATOM     38  C   UNL A   1      43.907  24.527  27.698  1.00  0.00     0.031 A 
ATOM     39  C   UNL A   1      42.865  25.549  28.065  1.00  0.00     0.074 A 
ATOM     40  C   UNL A   1      45.209  24.865  27.708  1.00  0.00     0.049 A 
ATOM     41  N   UNL A   1      42.999  26.825  28.325  1.00  0.00    -0.248 NA
ATOM     42  C   UNL A   1      41.478  25.063  28.145  1.00  0.00     0.031 C 
ATOM     43  C   UNL A   1      46.322  23.964  27.427  1.00  0.00     0.029 A 
ATOM     44  N   UNL A   1      45.809  26.077  27.953  1.00  0.00    -0.354 N 
ATOM     45  C   UNL A   1      41.716  27.295  28.575  1.00  0.00     0.074 A 
ATOM     46  C   UNL A   1      40.814  26.176  28.416  1.00  0.00     0.031 C 
ATOM     47  C   UNL A   1      47.473  24.658  27.499  1.00  0.00     0.029 A 
ATOM     48  C   UNL A   1      47.174  26.061  27.790  1.00  0.00     0.049 A 
ATOM     49  H   UNL A   1      45.309  26.883  28.221  1.00  0.00     0.167 HD
ATOM     50  C   UNL A   1      41.324  28.548  28.909  1.00  0.00     0.037 A 
ATOM     51  C   UNL A   1      48.070  27.068  27.840  1.00  0.00     0.037 A 
ATOM     52  C   UNL A   1      42.221  29.661  29.074  1.00  0.00     0.049 A 
ATOM     53  C   UNL A   1      47.596  28.472  28.131  1.00  0.00     0.074 A 
ATOM     54  C   UNL A   1      41.921  30.961  29.443  1.00  0.00     0.029 A 
ATOM     55  N   UNL A   1      43.591  29.610  28.867  1.00  0.00    -0.354 N 
ATOM     56  N   UNL A   1      46.387  28.905  28.396  1.00  0.00    -0.248 NA
ATOM     57  C   UNL A   1      48.617  29.531  28.128  1.00  0.00     0.031 C 
ATOM     58  C   UNL A   1      43.099  31.712  29.393  1.00  0.00     0.029 A 
ATOM     59  C   UNL A   1      44.145  30.865  29.067  1.00  0.00     0.049 A 
ATOM     60  H   UNL A   1      44.095  28.803  28.617  1.00  0.00     0.167 HD
ATOM     61  C   UNL A   1      46.509  30.270  28.631  1.00  0.00     0.074 A 
ATOM     62  C   UNL A   1      47.912  30.594  28.487  1.00  0.00     0.031 C 
ATOM     63  C   UNL A   1      45.546  31.174  28.939  1.00  0.00     0.037 A 
BRANCH  50  64
ATOM     64  C   UNL A   1      39.853  28.794  29.081  1.00  0.00     0.064 A 
ATOM     65  C   UNL A   1      39.213  28.637  30.319  1.00  0.00     0.173 A 
ATOM     66  C   UNL A   1      39.082  29.237  27.995  1.00  0.00     0.173 A 
ATOM     67  F   UNL A   1      39.900  28.201  31.385  1.00  0.00    -0.203 F 
ATOM     68  C   UNL A   1      37.850  28.889  30.457  1.00  0.00     0.198 A 
ATOM     69  C   UNL A   1      37.728  29.520  28.145  1.00  0.00     0.198 A 
ATOM     70  F   UNL A   1      39.646  29.406  26.789  1.00  0.00    -0.203 F 
ATOM     71  F   UNL A   1      37.248  28.684  31.637  1.00  0.00    -0.200 F 
ATOM     72  C   UNL A   1      37.111  29.339  29.373  1.00  0.00     0.200 A 
ATOM     73  F   UNL A   1      37.020  29.970  27.099  1.00  0.00    -0.200 F 
ATOM     74  F   UNL A   1      35.802  29.593  29.510  1.00  0.00    -0.200 F 
ENDBRANCH  50  64
BRANCH  51  75
ATOM     75  C   UNL A   1      49.514  26.804  27.592  1.00  0.00     0.064 A 
ATOM     76  C   UNL A   1      50.398  26.569  28.655  1.00  0.00     0.173 A 
ATOM     77  C   UNL A   1      50.051  26.834  26.297  1.00  0.00     0.173 A 
ATOM     78  F   UNL A   1      49.941  26.562  29.916  1.00  0.00    -0.203 F 
ATOM     79  C   UNL A   1      51.765  26.401  28.436  1.00  0.00     0.198 A 
ATOM     80  C   UNL A   1      51.413  26.632  26.074  1.00  0.00     0.198 A 
ATOM     81  F   UNL A   1      49.254  27.063  25.243  1.00  0.00    -0.203 F 
ATOM     82  F   UNL A   1      52.593  26.242  29.477  1.00  0.00    -0.200 F 
ATOM     83  C   UNL A   1      52.270  26.428  27.145  1.00  0.00     0.200 A 
ATOM     84  F   UNL A   1      51.895  26.648  24.825  1.00  0.00    -0.200 F 
ATOM     85  F   UNL A   1      53.584  26.269  26.934  1.00  0.00    -0.200 F 
ENDBRANCH  51  75
BRANCH  63  86
ATOM     86  C   UNL A   1      45.975  32.592  29.203  1.00  0.00     0.064 A 
ATOM     87  C   UNL A   1      45.996  33.563  28.191  1.00  0.00     0.173 A 
ATOM     88  C   UNL A   1      46.327  32.993  30.502  1.00  0.00     0.173 A 
ATOM     89  F   UNL A   1      45.680  33.232  26.930  1.00  0.00    -0.203 F 
ATOM     90  C   UNL A   1      46.381  34.875  28.464  1.00  0.00     0.198 A 
ATOM     91  C   UNL A   1      46.676  34.313  30.777  1.00  0.00     0.198 A 
ATOM     92  F   UNL A   1      46.315  32.108  31.510  1.00  0.00    -0.203 F 
ATOM     93  F   UNL A   1      46.445  35.771  27.471  1.00  0.00    -0.200 F 
ATOM     94  C   UNL A   1      46.712  35.250  29.757  1.00  0.00     0.200 A 
ATOM     95  F   UNL A   1      46.976  34.676  32.031  1.00  0.00    -0.200 F 
ATOM     96  F   UNL A   1      47.073  36.513  30.019  1.00  0.00    -0.200 F 
ENDBRANCH  63  86
ENDBRANCH  37  38
ENDBRANCH  30  32
ENDBRANCH  29  30
ENDBRANCH  28  29
ENDBRANCH  27  28
ENDBRANCH  26  27
ENDBRANCH  25  26
ENDBRANCH   1  25
TORSDOF 21
ENDMDL
MODEL 3
REMARK VINA RESULT:     -10.0      4.620      7.409
REMARK SMILES CSCc1ccc(C(=O)N[C@H]2C=C[C@@H](C(=O)OCCOCCOCCOC(=O)c3ccc(-c4c5nc(c(-c6c(F)c(F)c(F)c(F)c6F)c6ccc([nH]6)c(-c6c(F)c(F)c(F)c(F)c6F)c6nc(c(-c7c(F)c(F)c(F)c(F)c7F)c7ccc4[nH]7)C=C6)C=C5)cc3)C2)o1
REMARK SMILES IDX 21 1 20 2 19 3 18 4 17 5 15 6 16 7 14 8 11 9 12 10 92 11
REMARK SMILES IDX 13 12 10 13 8 14 9 15 7 17 4 18 5 19 93 20 6 21 3 22 2 23
REMARK SMILES IDX 1 24 22 25 23 26 24 27 25 28 26 29 27 30 28 31 29 32 30 33
REMARK SMILES IDX 91 34 31 35 90 36 32 37 33 38 34 39 84 40 35 41 89 42 83 43
REMARK SMILES IDX 85 44 36 45 88 46 82 47 81 48 37 50 69 51 49 52 68 53 50 54
REMARK SMILES IDX 53 55 67 56 86 57 51 58 52 59 66 61 87 62 54 63 38 64 39 65
REMARK SMILES IDX 47 66 40 67 41 68 45 69 48 70 42 71 43 72 46 73 44 74 70 75
REMARK SMILES IDX 71 76 79 77 72 78 73 79 77 80 80 81 74 82 75 83 78 84 76 85
REMARK SMILES IDX 55 86 56 87 64 88 57 89 58 90 62 91 65 92 59 93 60 94 63 95
REMARK SMILES IDX 61 96
REMARK H PARENT 10 16 85 49 53 60
REMARK Flexibility Score: inf
ROOT
ATOM      1  C   UNL A   1      36.774  23.079  24.697  1.00  0.00     0.188 C 
ENDROOT
BRANCH   1   2
ATOM      2  O   UNL A   1      36.257  24.057  25.586  1.00  0.00    -0.376 OA
BRANCH   2   3
ATOM      3  C   UNL A   1      34.939  24.556  25.333  1.00  0.00     0.202 C 
BRANCH   3   4
ATOM      4  C   UNL A   1      34.491  24.727  23.865  1.00  0.00     0.261 C 
BRANCH   4   5
ATOM      5  O   UNL A   1      33.533  25.797  23.701  1.00  0.00    -0.463 OA
BRANCH   5   6
ATOM      6  C   UNL A   1      33.007  26.008  22.459  1.00  0.00     0.312 C 
ATOM      7  O   UNL A   1      33.652  25.975  21.420  1.00  0.00    -0.252 OA
BRANCH   6   8
ATOM      8  C   UNL A   1      31.467  26.048  22.536  1.00  0.00     0.124 C 
ATOM      9  C   UNL A   1      30.028  25.224  24.369  1.00  0.00     0.106 C 
ATOM     10  C   UNL A   1      30.097  26.696  24.347  1.00  0.00    -0.006 C 
ATOM     11  C   UNL A   1      30.811  24.791  23.131  1.00  0.00     0.048 C 
ATOM     12  C   UNL A   1      30.881  27.150  23.360  1.00  0.00    -0.014 C 
BRANCH   9  13
ATOM     13  N   UNL A   1      30.467  24.546  25.569  1.00  0.00    -0.343 N 
ATOM     14  C   UNL A   1      30.877  23.307  25.982  1.00  0.00     0.287 C 
ATOM     15  O   UNL A   1      30.757  23.143  27.203  1.00  0.00    -0.266 OA
ATOM     16  H   UNL A   1      30.472  25.173  26.328  1.00  0.00     0.164 HD
BRANCH  14  17
ATOM     17  C   UNL A   1      31.481  22.297  25.134  1.00  0.00     0.191 A 
ATOM     18  C   UNL A   1      32.378  20.278  24.850  1.00  0.00     0.114 A 
ATOM     19  C   UNL A   1      32.569  20.953  23.672  1.00  0.00     0.047 A 
ATOM     20  O   UNL A   1      31.757  21.088  25.751  1.00  0.00    -0.455 OA
ATOM     21  C   UNL A   1      31.904  22.184  23.827  1.00  0.00     0.056 A 
BRANCH  18  22
ATOM     22  C   UNL A   1      32.652  18.884  25.272  1.00  0.00     0.144 C 
BRANCH  22  23
ATOM     23  S   UNL A   1      33.961  18.102  24.253  1.00  0.00    -0.157 SA
ATOM     24  C   UNL A   1      33.771  16.369  24.766  1.00  0.00     0.085 C 
ENDBRANCH  22  23
ENDBRANCH  18  22
ENDBRANCH  14  17
ENDBRANCH   9  13
ENDBRANCH   6   8
ENDBRANCH   5   6
ENDBRANCH   4   5
ENDBRANCH   3   4
ENDBRANCH   2   3
ENDBRANCH   1   2
BRANCH   1  25
ATOM     25  C   UNL A   1      37.621  21.948  25.287  1.00  0.00     0.188 C 
BRANCH  25  26
ATOM     26  O   UNL A   1      37.308  20.657  24.842  1.00  0.00    -0.376 OA
BRANCH  26  27
ATOM     27  C   UNL A   1      38.212  19.584  25.030  1.00  0.00     0.202 C 
BRANCH  27  28
ATOM     28  C   UNL A   1      39.477  19.663  25.914  1.00  0.00     0.261 C 
BRANCH  28  29
ATOM     29  O   UNL A   1      40.728  19.207  25.376  1.00  0.00    -0.460 OA
BRANCH  29  30
ATOM     30  C   UNL A   1      41.787  19.145  26.220  1.00  0.00     0.338 C 
ATOM     31  O   UNL A   1      42.391  18.138  26.564  1.00  0.00    -0.246 OA
BRANCH  30  32
ATOM     32  C   UNL A   1      42.285  20.530  26.423  1.00  0.00     0.060 A 
ATOM     33  C   UNL A   1      42.400  21.023  27.734  1.00  0.00     0.016 A 
ATOM     34  C   UNL A   1      42.688  21.318  25.344  1.00  0.00     0.016 A 
ATOM     35  C   UNL A   1      42.887  22.313  27.967  1.00  0.00     0.010 A 
ATOM     36  C   UNL A   1      43.148  22.620  25.576  1.00  0.00     0.010 A 
ATOM     37  C   UNL A   1      43.221  23.135  26.885  1.00  0.00    -0.014 A 
BRANCH  37  38
ATOM     38  C   UNL A   1      43.437  24.592  27.089  1.00  0.00     0.031 A 
ATOM     39  C   UNL A   1      44.801  25.153  26.789  1.00  0.00     0.074 A 
ATOM     40  C   UNL A   1      42.462  25.406  27.534  1.00  0.00     0.049 A 
ATOM     41  N   UNL A   1      45.271  26.359  26.980  1.00  0.00    -0.248 NA
ATOM     42  C   UNL A   1      45.770  24.218  26.194  1.00  0.00     0.031 C 
ATOM     43  C   UNL A   1      41.086  25.008  27.813  1.00  0.00     0.029 A 
ATOM     44  N   UNL A   1      42.496  26.745  27.845  1.00  0.00    -0.354 N 
ATOM     45  C   UNL A   1      46.592  26.322  26.552  1.00  0.00     0.074 A 
ATOM     46  C   UNL A   1      46.857  24.970  26.110  1.00  0.00     0.031 C 
ATOM     47  C   UNL A   1      40.407  26.077  28.271  1.00  0.00     0.029 A 
ATOM     48  C   UNL A   1      41.314  27.223  28.356  1.00  0.00     0.049 A 
ATOM     49  H   UNL A   1      43.293  27.308  27.715  1.00  0.00     0.167 HD
ATOM     50  C   UNL A   1      47.503  27.323  26.528  1.00  0.00     0.037 A 
ATOM     51  C   UNL A   1      41.010  28.436  28.861  1.00  0.00     0.037 A 
ATOM     52  C   UNL A   1      47.239  28.670  26.961  1.00  0.00     0.049 A 
ATOM     53  C   UNL A   1      42.069  29.513  28.900  1.00  0.00     0.074 A 
ATOM     54  C   UNL A   1      48.088  29.762  26.943  1.00  0.00     0.029 A 
ATOM     55  N   UNL A   1      46.038  29.105  27.502  1.00  0.00    -0.354 N 
ATOM     56  N   UNL A   1      43.306  29.480  28.467  1.00  0.00    -0.248 NA
ATOM     57  C   UNL A   1      41.686  30.799  29.504  1.00  0.00     0.031 C 
ATOM     58  C   UNL A   1      47.425  30.840  27.537  1.00  0.00     0.029 A 
ATOM     59  C   UNL A   1      46.138  30.442  27.855  1.00  0.00     0.049 A 
ATOM     60  H   UNL A   1      45.235  28.548  27.617  1.00  0.00     0.167 HD
ATOM     61  C   UNL A   1      43.832  30.745  28.706  1.00  0.00     0.074 A 
ATOM     62  C   UNL A   1      42.777  31.527  29.314  1.00  0.00     0.031 C 
ATOM     63  C   UNL A   1      45.076  31.217  28.444  1.00  0.00     0.037 A 
BRANCH  50  64
ATOM     64  C   UNL A   1      48.888  26.993  26.051  1.00  0.00     0.064 A 
ATOM     65  C   UNL A   1      49.881  26.521  26.921  1.00  0.00     0.173 A 
ATOM     66  C   UNL A   1      49.210  27.112  24.690  1.00  0.00     0.173 A 
ATOM     67  F   UNL A   1      49.630  26.405  28.234  1.00  0.00    -0.203 F 
ATOM     68  C   UNL A   1      51.153  26.205  26.451  1.00  0.00     0.198 A 
ATOM     69  C   UNL A   1      50.472  26.762  24.218  1.00  0.00     0.198 A 
ATOM     70  F   UNL A   1      48.295  27.556  23.814  1.00  0.00    -0.203 F 
ATOM     71  F   UNL A   1      52.102  25.803  27.308  1.00  0.00    -0.200 F 
ATOM     72  C   UNL A   1      51.444  26.317  25.099  1.00  0.00     0.200 A 
ATOM     73  F   UNL A   1      50.745  26.857  22.910  1.00  0.00    -0.200 F 
ATOM     74  F   UNL A   1      52.665  26.000  24.646  1.00  0.00    -0.200 F 
ENDBRANCH  50  64
BRANCH  51  75
ATOM     75  C   UNL A   1      39.647  28.711  29.394  1.00  0.00     0.064 A 
ATOM     76  C   UNL A   1      38.667  29.317  28.595  1.00  0.00     0.173 A 
ATOM     77  C   UNL A   1      39.311  28.424  30.726  1.00  0.00     0.173 A 
ATOM     78  F   UNL A   1      38.948  29.642  27.324  1.00  0.00    -0.203 F 
ATOM     79  C   UNL A   1      37.416  29.650  29.112  1.00  0.00     0.198 A 
ATOM     80  C   UNL A   1      38.048  28.725  31.234  1.00  0.00     0.198 A 
ATOM     81  F   UNL A   1      40.212  27.852  31.538  1.00  0.00    -0.203 F 
ATOM     82  F   UNL A   1      36.524  30.286  28.342  1.00  0.00    -0.200 F 
ATOM     83  C   UNL A   1      37.106  29.349  30.430  1.00  0.00     0.200 A 
ATOM     84  F   UNL A   1      37.749  28.423  32.504  1.00  0.00    -0.200 F 
ATOM     85  F   UNL A   1      35.904  29.670  30.928  1.00  0.00    -0.200 F 
ENDBRANCH  51  75
BRANCH  63  86
ATOM     86  C   UNL A   1      45.357  32.662  28.755  1.00  0.00     0.064 A 
ATOM     87  C   UNL A   1      45.088  33.687  27.835  1.00  0.00     0.173 A 
ATOM     88  C   UNL A   1      45.860  33.029  30.013  1.00  0.00     0.173 A 
ATOM     89  F   UNL A   1      44.616  33.392  26.614  1.00  0.00    -0.203 F 
ATOM     90  C   UNL A   1      45.340  35.020  28.153  1.00  0.00     0.198 A 
ATOM     91  C   UNL A   1      46.077  34.365  30.340  1.00  0.00     0.198 A 
ATOM     92  F   UNL A   1      46.127  32.091  30.935  1.00  0.00    -0.203 F 
ATOM     93  F   UNL A   1      45.126  35.976  27.239  1.00  0.00    -0.200 F 
ATOM     94  C   UNL A   1      45.826  35.359  29.407  1.00  0.00     0.200 A 
ATOM     95  F   UNL A   1      46.528  34.690  31.559  1.00  0.00    -0.200 F 
ATOM     96  F   UNL A   1      46.059  36.642  29.714  1.00  0.00    -0.200 F 
ENDBRANCH  63  86
ENDBRANCH  37  38
ENDBRANCH  30  32
ENDBRANCH  29  30
ENDBRANCH  28  29
ENDBRANCH  27  28
ENDBRANCH  26  27
ENDBRANCH  25  26
ENDBRANCH   1  25
TORSDOF 21
ENDMDL
