MODEL 1
REMARK VINA RESULT:     -10.0      0.000      0.000
REMARK SMILES O=C(Cc1cccn(C(F)F)c1=O)OCCOCCOCCOC(=O)c1ccc(-c2c3nc(c(-c4c(F)c(F)c(F)c(F)c4F)c4ccc([nH]4)c(-c4c(F)c(F)c(F)c(F)c4F)c4nc(c(-c5c(F)c(F)c(F)c(F)c5F)c5ccc2[nH]5)C=C4)C=C3)cc1
REMARK SMILES IDX 18 1 17 2 16 3 15 4 14 5 2 6 1 7 3 8 4 9 5 10 12 11 6 12
REMARK SMILES IDX 8 13 13 14 7 15 9 16 10 17 11 18 19 19 20 20 21 21 22 22
REMARK SMILES IDX 23 23 24 24 25 25 26 26 27 27 88 28 28 29 87 30 29 31 30 32
REMARK SMILES IDX 31 33 81 34 32 35 86 36 80 37 82 38 33 39 85 40 79 41 78 42
REMARK SMILES IDX 34 44 66 45 46 46 65 47 47 48 50 49 64 50 83 51 48 52 49 53
REMARK SMILES IDX 63 55 84 56 51 57 35 58 36 59 44 60 37 61 38 62 42 63 45 64
REMARK SMILES IDX 39 65 40 66 43 67 41 68 67 69 68 70 76 71 69 72 70 73 74 74
REMARK SMILES IDX 77 75 71 76 72 77 75 78 73 79 52 80 53 81 61 82 54 83 55 84
REMARK SMILES IDX 59 85 62 86 56 87 57 88 60 89 58 90
REMARK H PARENT 82 43 50 54
REMARK Flexibility Score: inf
ROOT
ATOM      1  C   UNL A   1      34.126  25.380  25.853  1.00  0.00     0.188 C 
ENDROOT
BRANCH   1   2
ATOM      2  O   UNL A   1      34.875  24.843  24.784  1.00  0.00    -0.376 OA
BRANCH   2   3
ATOM      3  C   UNL A   1      35.923  23.958  25.102  1.00  0.00     0.202 C 
BRANCH   3   4
ATOM      4  C   UNL A   1      36.039  22.801  24.113  1.00  0.00     0.261 C 
BRANCH   4   5
ATOM      5  O   UNL A   1      35.279  21.597  24.397  1.00  0.00    -0.463 OA
BRANCH   5   6
ATOM      6  C   UNL A   1      33.979  21.423  24.717  1.00  0.00     0.310 C 
ATOM      7  O   UNL A   1      33.674  21.148  25.877  1.00  0.00    -0.252 OA
BRANCH   6   8
ATOM      8  C   UNL A   1      32.910  21.466  23.644  1.00  0.00     0.164 C 
BRANCH   8   9
ATOM      9  C   UNL A   1      32.216  22.779  23.521  1.00  0.00     0.029 A 
ATOM     10  C   UNL A   1      31.207  23.173  24.315  1.00  0.00     0.011 A 
ATOM     11  C   UNL A   1      32.741  23.721  22.476  1.00  0.00     0.258 A 
ATOM     12  C   UNL A   1      30.689  24.510  24.238  1.00  0.00     0.019 A 
ATOM     13  N   UNL A   1      32.229  25.002  22.508  1.00  0.00    -0.258 N 
ATOM     14  O   UNL A   1      33.605  23.344  21.687  1.00  0.00    -0.269 OA
ATOM     15  C   UNL A   1      31.214  25.379  23.367  1.00  0.00     0.095 A 
BRANCH  13  16
ATOM     16  C   UNL A   1      32.716  25.938  21.525  1.00  0.00     0.451 C 
ATOM     17  F   UNL A   1      33.916  26.423  21.932  1.00  0.00    -0.185 F 
ATOM     18  F   UNL A   1      32.938  25.297  20.346  1.00  0.00    -0.185 F 
ENDBRANCH  13  16
ENDBRANCH   8   9
ENDBRANCH   6   8
ENDBRANCH   5   6
ENDBRANCH   4   5
ENDBRANCH   3   4
ENDBRANCH   2   3
ENDBRANCH   1   2
BRANCH   1  19
ATOM     19  C   UNL A   1      33.598  26.793  25.576  1.00  0.00     0.188 C 
BRANCH  19  20
ATOM     20  O   UNL A   1      32.620  27.358  26.438  1.00  0.00    -0.376 OA
BRANCH  20  21
ATOM     21  C   UNL A   1      31.865  28.478  25.999  1.00  0.00     0.202 C 
BRANCH  21  22
ATOM     22  C   UNL A   1      32.015  29.806  26.760  1.00  0.00     0.261 C 
BRANCH  22  23
ATOM     23  O   UNL A   1      33.118  30.646  26.358  1.00  0.00    -0.460 OA
BRANCH  23  24
ATOM     24  C   UNL A   1      33.521  31.588  27.254  1.00  0.00     0.338 C 
ATOM     25  O   UNL A   1      32.899  32.559  27.633  1.00  0.00    -0.246 OA
BRANCH  24  26
ATOM     26  C   UNL A   1      34.823  31.187  27.841  1.00  0.00     0.060 A 
ATOM     27  C   UNL A   1      35.824  32.135  28.052  1.00  0.00     0.016 A 
ATOM     28  C   UNL A   1      35.029  29.851  28.218  1.00  0.00     0.016 A 
ATOM     29  C   UNL A   1      37.031  31.743  28.647  1.00  0.00     0.010 A 
ATOM     30  C   UNL A   1      36.245  29.459  28.794  1.00  0.00     0.010 A 
ATOM     31  C   UNL A   1      37.252  30.406  29.029  1.00  0.00    -0.014 A 
BRANCH  31  32
ATOM     32  C   UNL A   1      38.476  30.048  29.795  1.00  0.00     0.031 A 
ATOM     33  C   UNL A   1      38.738  30.574  31.175  1.00  0.00     0.074 A 
ATOM     34  C   UNL A   1      39.357  29.198  29.234  1.00  0.00     0.049 A 
ATOM     35  N   UNL A   1      39.700  30.257  32.010  1.00  0.00    -0.248 NA
ATOM     36  C   UNL A   1      37.807  31.586  31.685  1.00  0.00     0.031 C 
ATOM     37  C   UNL A   1      39.227  28.629  27.894  1.00  0.00     0.029 A 
ATOM     38  N   UNL A   1      40.517  28.649  29.722  1.00  0.00    -0.354 N 
ATOM     39  C   UNL A   1      39.471  31.002  33.158  1.00  0.00     0.074 A 
ATOM     40  C   UNL A   1      38.316  31.837  32.886  1.00  0.00     0.031 C 
ATOM     41  C   UNL A   1      40.238  27.774  27.683  1.00  0.00     0.029 A 
ATOM     42  C   UNL A   1      41.103  27.755  28.861  1.00  0.00     0.049 A 
ATOM     43  H   UNL A   1      40.892  28.874  30.605  1.00  0.00     0.167 HD
ATOM     44  C   UNL A   1      40.144  30.971  34.336  1.00  0.00     0.037 A 
ATOM     45  C   UNL A   1      42.204  26.991  29.004  1.00  0.00     0.037 A 
ATOM     46  C   UNL A   1      41.316  30.165  34.594  1.00  0.00     0.049 A 
ATOM     47  C   UNL A   1      42.981  27.035  30.290  1.00  0.00     0.074 A 
ATOM     48  C   UNL A   1      42.058  30.068  35.759  1.00  0.00     0.029 A 
ATOM     49  N   UNL A   1      41.928  29.329  33.670  1.00  0.00    -0.354 N 
ATOM     50  N   UNL A   1      42.723  27.700  31.390  1.00  0.00    -0.248 NA
ATOM     51  C   UNL A   1      44.198  26.214  30.354  1.00  0.00     0.031 C 
ATOM     52  C   UNL A   1      43.147  29.221  35.524  1.00  0.00     0.029 A 
ATOM     53  C   UNL A   1      43.052  28.736  34.230  1.00  0.00     0.049 A 
ATOM     54  H   UNL A   1      41.610  29.178  32.750  1.00  0.00     0.167 HD
ATOM     55  C   UNL A   1      43.731  27.363  32.284  1.00  0.00     0.074 A 
ATOM     56  C   UNL A   1      44.592  26.416  31.604  1.00  0.00     0.031 C 
ATOM     57  C   UNL A   1      43.921  27.804  33.552  1.00  0.00     0.037 A 
BRANCH  44  58
ATOM     58  C   UNL A   1      39.622  31.834  35.453  1.00  0.00     0.064 A 
ATOM     59  C   UNL A   1      40.070  33.154  35.625  1.00  0.00     0.173 A 
ATOM     60  C   UNL A   1      38.629  31.365  36.327  1.00  0.00     0.173 A 
ATOM     61  F   UNL A   1      41.016  33.657  34.817  1.00  0.00    -0.203 F 
ATOM     62  C   UNL A   1      39.571  33.957  36.648  1.00  0.00     0.198 A 
ATOM     63  C   UNL A   1      38.107  32.183  37.328  1.00  0.00     0.198 A 
ATOM     64  F   UNL A   1      38.149  30.119  36.201  1.00  0.00    -0.203 F 
ATOM     65  F   UNL A   1      40.051  35.197  36.818  1.00  0.00    -0.200 F 
ATOM     66  C   UNL A   1      38.585  33.473  37.494  1.00  0.00     0.200 A 
ATOM     67  F   UNL A   1      37.138  31.721  38.131  1.00  0.00    -0.200 F 
ATOM     68  F   UNL A   1      38.098  34.250  38.472  1.00  0.00    -0.200 F 
ENDBRANCH  44  58
BRANCH  45  69
ATOM     69  C   UNL A   1      42.592  26.068  27.906  1.00  0.00     0.064 A 
ATOM     70  C   UNL A   1      41.990  24.808  27.786  1.00  0.00     0.173 A 
ATOM     71  C   UNL A   1      43.525  26.444  26.929  1.00  0.00     0.173 A 
ATOM     72  F   UNL A   1      41.109  24.397  28.709  1.00  0.00    -0.203 F 
ATOM     73  C   UNL A   1      42.306  23.959  26.728  1.00  0.00     0.198 A 
ATOM     74  C   UNL A   1      43.818  25.606  25.857  1.00  0.00     0.198 A 
ATOM     75  F   UNL A   1      44.127  27.641  27.000  1.00  0.00    -0.203 F 
ATOM     76  F   UNL A   1      41.734  22.749  26.649  1.00  0.00    -0.200 F 
ATOM     77  C   UNL A   1      43.211  24.364  25.757  1.00  0.00     0.200 A 
ATOM     78  F   UNL A   1      44.680  26.007  24.912  1.00  0.00    -0.200 F 
ATOM     79  F   UNL A   1      43.496  23.555  24.727  1.00  0.00    -0.200 F 
ENDBRANCH  45  69
BRANCH  57  80
ATOM     80  C   UNL A   1      45.107  27.260  34.305  1.00  0.00     0.064 A 
ATOM     81  C   UNL A   1      46.342  27.927  34.315  1.00  0.00     0.173 A 
ATOM     82  C   UNL A   1      44.998  26.079  35.056  1.00  0.00     0.173 A 
ATOM     83  F   UNL A   1      46.508  29.052  33.605  1.00  0.00    -0.203 F 
ATOM     84  C   UNL A   1      47.428  27.417  35.024  1.00  0.00     0.198 A 
ATOM     85  C   UNL A   1      46.076  25.591  35.791  1.00  0.00     0.198 A 
ATOM     86  F   UNL A   1      43.842  25.401  35.089  1.00  0.00    -0.203 F 
ATOM     87  F   UNL A   1      48.612  28.044  34.974  1.00  0.00    -0.200 F 
ATOM     88  C   UNL A   1      47.293  26.255  35.768  1.00  0.00     0.200 A 
ATOM     89  F   UNL A   1      45.938  24.476  36.523  1.00  0.00    -0.200 F 
ATOM     90  F   UNL A   1      48.336  25.772  36.456  1.00  0.00    -0.200 F 
ENDBRANCH  57  80
ENDBRANCH  31  32
ENDBRANCH  24  26
ENDBRANCH  23  24
ENDBRANCH  22  23
ENDBRANCH  21  22
ENDBRANCH  20  21
ENDBRANCH  19  20
ENDBRANCH   1  19
TORSDOF 19
ENDMDL
MODEL 2
REMARK VINA RESULT:     -10.0      4.961     10.145
REMARK SMILES O=C(Cc1cccn(C(F)F)c1=O)OCCOCCOCCOC(=O)c1ccc(-c2c3nc(c(-c4c(F)c(F)c(F)c(F)c4F)c4ccc([nH]4)c(-c4c(F)c(F)c(F)c(F)c4F)c4nc(c(-c5c(F)c(F)c(F)c(F)c5F)c5ccc2[nH]5)C=C4)C=C3)cc1
REMARK SMILES IDX 18 1 17 2 16 3 15 4 14 5 2 6 1 7 3 8 4 9 5 10 12 11 6 12
REMARK SMILES IDX 8 13 13 14 7 15 9 16 10 17 11 18 19 19 20 20 21 21 22 22
REMARK SMILES IDX 23 23 24 24 25 25 26 26 27 27 88 28 28 29 87 30 29 31 30 32
REMARK SMILES IDX 31 33 81 34 32 35 86 36 80 37 82 38 33 39 85 40 79 41 78 42
REMARK SMILES IDX 34 44 66 45 46 46 65 47 47 48 50 49 64 50 83 51 48 52 49 53
REMARK SMILES IDX 63 55 84 56 51 57 35 58 36 59 44 60 37 61 38 62 42 63 45 64
REMARK SMILES IDX 39 65 40 66 43 67 41 68 67 69 68 70 76 71 69 72 70 73 74 74
REMARK SMILES IDX 77 75 71 76 72 77 75 78 73 79 52 80 53 81 61 82 54 83 55 84
REMARK SMILES IDX 59 85 62 86 56 87 57 88 60 89 58 90
REMARK H PARENT 82 43 50 54
REMARK Flexibility Score: inf
ROOT
ATOM      1  C   UNL A   1      37.296  23.255  25.178  1.00  0.00     0.188 C 
ENDROOT
BRANCH   1   2
ATOM      2  O   UNL A   1      36.273  23.991  25.812  1.00  0.00    -0.376 OA
BRANCH   2   3
ATOM      3  C   UNL A   1      35.011  23.377  25.941  1.00  0.00     0.202 C 
BRANCH   3   4
ATOM      4  C   UNL A   1      34.118  23.602  24.725  1.00  0.00     0.261 C 
BRANCH   4   5
ATOM      5  O   UNL A   1      33.776  22.442  23.921  1.00  0.00    -0.463 OA
BRANCH   5   6
ATOM      6  C   UNL A   1      32.597  21.814  23.725  1.00  0.00     0.310 C 
ATOM      7  O   UNL A   1      31.846  22.203  22.831  1.00  0.00    -0.252 OA
BRANCH   6   8
ATOM      8  C   UNL A   1      32.153  20.703  24.655  1.00  0.00     0.164 C 
BRANCH   8   9
ATOM      9  C   UNL A   1      32.457  19.330  24.160  1.00  0.00     0.029 A 
ATOM     10  C   UNL A   1      32.527  18.998  22.860  1.00  0.00     0.011 A 
ATOM     11  C   UNL A   1      32.759  18.292  25.202  1.00  0.00     0.258 A 
ATOM     12  C   UNL A   1      32.974  17.694  22.458  1.00  0.00     0.019 A 
ATOM     13  N   UNL A   1      33.235  17.086  24.731  1.00  0.00    -0.258 N 
ATOM     14  O   UNL A   1      32.616  18.557  26.394  1.00  0.00    -0.269 OA
ATOM     15  C   UNL A   1      33.327  16.795  23.383  1.00  0.00     0.095 A 
BRANCH  13  16
ATOM     16  C   UNL A   1      33.545  16.066  25.702  1.00  0.00     0.451 C 
ATOM     17  F   UNL A   1      32.586  15.108  25.660  1.00  0.00    -0.185 F 
ATOM     18  F   UNL A   1      34.715  15.455  25.373  1.00  0.00    -0.185 F 
ENDBRANCH  13  16
ENDBRANCH   8   9
ENDBRANCH   6   8
ENDBRANCH   5   6
ENDBRANCH   4   5
ENDBRANCH   3   4
ENDBRANCH   2   3
ENDBRANCH   1   2
BRANCH   1  19
ATOM     19  C   UNL A   1      38.421  22.832  26.132  1.00  0.00     0.188 C 
BRANCH  19  20
ATOM     20  O   UNL A   1      39.311  21.793  25.750  1.00  0.00    -0.376 OA
BRANCH  20  21
ATOM     21  C   UNL A   1      38.814  20.473  25.586  1.00  0.00     0.202 C 
BRANCH  21  22
ATOM     22  C   UNL A   1      39.686  19.298  26.057  1.00  0.00     0.261 C 
BRANCH  22  23
ATOM     23  O   UNL A   1      40.948  19.133  25.376  1.00  0.00    -0.460 OA
BRANCH  23  24
ATOM     24  C   UNL A   1      42.069  19.236  26.141  1.00  0.00     0.338 C 
ATOM     25  O   UNL A   1      42.851  18.353  26.425  1.00  0.00    -0.246 OA
BRANCH  24  26
ATOM     26  C   UNL A   1      42.301  20.660  26.488  1.00  0.00     0.060 A 
ATOM     27  C   UNL A   1      42.276  21.076  27.818  1.00  0.00     0.016 A 
ATOM     28  C   UNL A   1      42.585  21.582  25.468  1.00  0.00     0.016 A 
ATOM     29  C   UNL A   1      42.540  22.417  28.127  1.00  0.00     0.010 A 
ATOM     30  C   UNL A   1      42.829  22.926  25.779  1.00  0.00     0.010 A 
ATOM     31  C   UNL A   1      42.825  23.353  27.115  1.00  0.00    -0.014 A 
BRANCH  31  32
ATOM     32  C   UNL A   1      43.252  24.731  27.480  1.00  0.00     0.031 A 
ATOM     33  C   UNL A   1      44.648  25.225  27.244  1.00  0.00     0.074 A 
ATOM     34  C   UNL A   1      42.337  25.565  28.011  1.00  0.00     0.049 A 
ATOM     35  N   UNL A   1      45.133  26.434  27.401  1.00  0.00    -0.248 NA
ATOM     36  C   UNL A   1      45.628  24.238  26.777  1.00  0.00     0.031 C 
ATOM     37  C   UNL A   1      40.952  25.203  28.304  1.00  0.00     0.029 A 
ATOM     38  N   UNL A   1      42.425  26.886  28.375  1.00  0.00    -0.354 N 
ATOM     39  C   UNL A   1      46.465  26.364  27.017  1.00  0.00     0.074 A 
ATOM     40  C   UNL A   1      46.728  24.977  26.683  1.00  0.00     0.031 C 
ATOM     41  C   UNL A   1      40.305  26.287  28.757  1.00  0.00     0.029 A 
ATOM     42  C   UNL A   1      41.236  27.412  28.814  1.00  0.00     0.049 A 
ATOM     43  H   UNL A   1      43.261  27.406  28.327  1.00  0.00     0.167 HD
ATOM     44  C   UNL A   1      47.374  27.369  26.925  1.00  0.00     0.037 A 
ATOM     45  C   UNL A   1      40.919  28.662  29.204  1.00  0.00     0.037 A 
ATOM     46  C   UNL A   1      47.121  28.744  27.292  1.00  0.00     0.049 A 
ATOM     47  C   UNL A   1      41.966  29.741  29.171  1.00  0.00     0.074 A 
ATOM     48  C   UNL A   1      47.981  29.827  27.228  1.00  0.00     0.029 A 
ATOM     49  N   UNL A   1      45.924  29.224  27.808  1.00  0.00    -0.354 N 
ATOM     50  N   UNL A   1      43.206  29.678  28.752  1.00  0.00    -0.248 NA
ATOM     51  C   UNL A   1      41.563  31.067  29.658  1.00  0.00     0.031 C 
ATOM     52  C   UNL A   1      47.327  30.947  27.754  1.00  0.00     0.029 A 
ATOM     53  C   UNL A   1      46.035  30.580  28.090  1.00  0.00     0.049 A 
ATOM     54  H   UNL A   1      45.115  28.683  27.952  1.00  0.00     0.167 HD
ATOM     55  C   UNL A   1      43.726  30.957  28.905  1.00  0.00     0.074 A 
ATOM     56  C   UNL A   1      42.657  31.780  29.434  1.00  0.00     0.031 C 
ATOM     57  C   UNL A   1      44.978  31.401  28.631  1.00  0.00     0.037 A 
BRANCH  44  58
ATOM     58  C   UNL A   1      48.738  27.020  26.395  1.00  0.00     0.064 A 
ATOM     59  C   UNL A   1      49.760  26.573  27.249  1.00  0.00     0.173 A 
ATOM     60  C   UNL A   1      49.017  27.078  25.021  1.00  0.00     0.173 A 
ATOM     61  F   UNL A   1      49.548  26.493  28.571  1.00  0.00    -0.203 F 
ATOM     62  C   UNL A   1      51.016  26.232  26.752  1.00  0.00     0.198 A 
ATOM     63  C   UNL A   1      50.265  26.704  24.524  1.00  0.00     0.198 A 
ATOM     64  F   UNL A   1      48.076  27.481  24.155  1.00  0.00    -0.203 F 
ATOM     65  F   UNL A   1      51.987  25.853  27.596  1.00  0.00    -0.200 F 
ATOM     66  C   UNL A   1      51.265  26.291  25.390  1.00  0.00     0.200 A 
ATOM     67  F   UNL A   1      50.497  26.740  23.205  1.00  0.00    -0.200 F 
ATOM     68  F   UNL A   1      52.471  25.954  24.912  1.00  0.00    -0.200 F 
ENDBRANCH  44  58
BRANCH  45  69
ATOM     69  C   UNL A   1      39.520  28.965  29.598  1.00  0.00     0.064 A 
ATOM     70  C   UNL A   1      39.093  28.776  30.919  1.00  0.00     0.173 A 
ATOM     71  C   UNL A   1      38.600  29.497  28.682  1.00  0.00     0.173 A 
ATOM     72  F   UNL A   1      39.930  28.249  31.824  1.00  0.00    -0.203 F 
ATOM     73  C   UNL A   1      37.799  29.111  31.311  1.00  0.00     0.198 A 
ATOM     74  C   UNL A   1      37.316  29.857  29.082  1.00  0.00     0.198 A 
ATOM     75  F   UNL A   1      38.962  29.698  27.406  1.00  0.00    -0.203 F 
ATOM     76  F   UNL A   1      37.408  28.898  32.575  1.00  0.00    -0.200 F 
ATOM     77  C   UNL A   1      36.915  29.663  30.395  1.00  0.00     0.200 A 
ATOM     78  F   UNL A   1      36.470  30.406  28.198  1.00  0.00    -0.200 F 
ATOM     79  F   UNL A   1      35.678  30.006  30.778  1.00  0.00    -0.200 F 
ENDBRANCH  45  69
BRANCH  57  80
ATOM     80  C   UNL A   1      45.269  32.856  28.888  1.00  0.00     0.064 A 
ATOM     81  C   UNL A   1      45.049  33.836  27.907  1.00  0.00     0.173 A 
ATOM     82  C   UNL A   1      45.738  33.282  30.141  1.00  0.00     0.173 A 
ATOM     83  F   UNL A   1      44.616  33.486  26.687  1.00  0.00    -0.203 F 
ATOM     84  C   UNL A   1      45.314  35.181  28.162  1.00  0.00     0.198 A 
ATOM     85  C   UNL A   1      45.968  34.631  30.403  1.00  0.00     0.198 A 
ATOM     86  F   UNL A   1      45.962  32.393  31.118  1.00  0.00    -0.203 F 
ATOM     87  F   UNL A   1      45.147  36.091  27.192  1.00  0.00    -0.200 F 
ATOM     88  C   UNL A   1      45.765  35.578  29.411  1.00  0.00     0.200 A 
ATOM     89  F   UNL A   1      46.389  35.015  31.617  1.00  0.00    -0.200 F 
ATOM     90  F   UNL A   1      46.010  36.872  29.657  1.00  0.00    -0.200 F 
ENDBRANCH  57  80
ENDBRANCH  31  32
ENDBRANCH  24  26
ENDBRANCH  23  24
ENDBRANCH  22  23
ENDBRANCH  21  22
ENDBRANCH  20  21
ENDBRANCH  19  20
ENDBRANCH   1  19
TORSDOF 19
ENDMDL
MODEL 3
REMARK VINA RESULT:      -9.9      5.156      8.633
REMARK SMILES O=C(Cc1cccn(C(F)F)c1=O)OCCOCCOCCOC(=O)c1ccc(-c2c3nc(c(-c4c(F)c(F)c(F)c(F)c4F)c4ccc([nH]4)c(-c4c(F)c(F)c(F)c(F)c4F)c4nc(c(-c5c(F)c(F)c(F)c(F)c5F)c5ccc2[nH]5)C=C4)C=C3)cc1
REMARK SMILES IDX 18 1 17 2 16 3 15 4 14 5 2 6 1 7 3 8 4 9 5 10 12 11 6 12
REMARK SMILES IDX 8 13 13 14 7 15 9 16 10 17 11 18 19 19 20 20 21 21 22 22
REMARK SMILES IDX 23 23 24 24 25 25 26 26 27 27 88 28 28 29 87 30 29 31 30 32
REMARK SMILES IDX 31 33 81 34 32 35 86 36 80 37 82 38 33 39 85 40 79 41 78 42
REMARK SMILES IDX 34 44 66 45 46 46 65 47 47 48 50 49 64 50 83 51 48 52 49 53
REMARK SMILES IDX 63 55 84 56 51 57 35 58 36 59 44 60 37 61 38 62 42 63 45 64
REMARK SMILES IDX 39 65 40 66 43 67 41 68 67 69 68 70 76 71 69 72 70 73 74 74
REMARK SMILES IDX 77 75 71 76 72 77 75 78 73 79 52 80 53 81 61 82 54 83 55 84
REMARK SMILES IDX 59 85 62 86 56 87 57 88 60 89 58 90
REMARK H PARENT 82 43 50 54
REMARK Flexibility Score: inf
ROOT
ATOM      1  C   UNL A   1      37.538  23.358  25.311  1.00  0.00     0.188 C 
ENDROOT
BRANCH   1   2
ATOM      2  O   UNL A   1      36.540  24.025  26.051  1.00  0.00    -0.376 OA
BRANCH   2   3
ATOM      3  C   UNL A   1      35.299  23.377  26.205  1.00  0.00     0.202 C 
BRANCH   3   4
ATOM      4  C   UNL A   1      34.305  23.736  25.104  1.00  0.00     0.261 C 
BRANCH   4   5
ATOM      5  O   UNL A   1      33.947  22.694  24.158  1.00  0.00    -0.463 OA
BRANCH   5   6
ATOM      6  C   UNL A   1      32.755  22.127  23.870  1.00  0.00     0.310 C 
ATOM      7  O   UNL A   1      32.079  22.578  22.947  1.00  0.00    -0.252 OA
BRANCH   6   8
ATOM      8  C   UNL A   1      32.207  21.010  24.735  1.00  0.00     0.164 C 
BRANCH   8   9
ATOM      9  C   UNL A   1      32.353  19.649  24.144  1.00  0.00     0.029 A 
ATOM     10  C   UNL A   1      32.261  19.386  22.830  1.00  0.00     0.011 A 
ATOM     11  C   UNL A   1      32.685  18.535  25.096  1.00  0.00     0.258 A 
ATOM     12  C   UNL A   1      32.563  18.079  22.319  1.00  0.00     0.019 A 
ATOM     13  N   UNL A   1      33.016  17.327  24.518  1.00  0.00    -0.258 N 
ATOM     14  O   UNL A   1      32.687  18.743  26.308  1.00  0.00    -0.269 OA
ATOM     15  C   UNL A   1      32.943  17.107  23.155  1.00  0.00     0.095 A 
BRANCH  13  16
ATOM     16  C   UNL A   1      33.349  16.236  25.400  1.00  0.00     0.451 C 
ATOM     17  F   UNL A   1      32.905  15.076  24.856  1.00  0.00    -0.185 F 
ATOM     18  F   UNL A   1      34.701  16.121  25.502  1.00  0.00    -0.185 F 
ENDBRANCH  13  16
ENDBRANCH   8   9
ENDBRANCH   6   8
ENDBRANCH   5   6
ENDBRANCH   4   5
ENDBRANCH   3   4
ENDBRANCH   2   3
ENDBRANCH   1   2
BRANCH   1  19
ATOM     19  C   UNL A   1      38.740  22.927  26.162  1.00  0.00     0.188 C 
BRANCH  19  20
ATOM     20  O   UNL A   1      39.529  21.820  25.751  1.00  0.00    -0.376 OA
BRANCH  20  21
ATOM     21  C   UNL A   1      38.924  20.542  25.616  1.00  0.00     0.202 C 
BRANCH  21  22
ATOM     22  C   UNL A   1      39.740  19.300  26.010  1.00  0.00     0.261 C 
BRANCH  22  23
ATOM     23  O   UNL A   1      41.034  19.167  25.385  1.00  0.00    -0.460 OA
BRANCH  23  24
ATOM     24  C   UNL A   1      42.110  19.139  26.218  1.00  0.00     0.338 C 
ATOM     25  O   UNL A   1      42.669  18.161  26.668  1.00  0.00    -0.246 OA
BRANCH  24  26
ATOM     26  C   UNL A   1      42.624  20.518  26.408  1.00  0.00     0.060 A 
ATOM     27  C   UNL A   1      43.199  21.211  25.344  1.00  0.00     0.016 A 
ATOM     28  C   UNL A   1      42.496  21.136  27.662  1.00  0.00     0.016 A 
ATOM     29  C   UNL A   1      43.640  22.527  25.535  1.00  0.00     0.010 A 
ATOM     30  C   UNL A   1      42.956  22.445  27.855  1.00  0.00     0.010 A 
ATOM     31  C   UNL A   1      43.518  23.160  26.787  1.00  0.00    -0.014 A 
BRANCH  31  32
ATOM     32  C   UNL A   1      43.852  24.604  26.922  1.00  0.00     0.031 A 
ATOM     33  C   UNL A   1      42.850  25.615  27.392  1.00  0.00     0.074 A 
ATOM     34  C   UNL A   1      45.107  25.000  26.639  1.00  0.00     0.049 A 
ATOM     35  N   UNL A   1      43.027  26.885  27.672  1.00  0.00    -0.248 NA
ATOM     36  C   UNL A   1      41.470  25.147  27.569  1.00  0.00     0.031 C 
ATOM     37  C   UNL A   1      46.169  24.119  26.158  1.00  0.00     0.029 A 
ATOM     38  N   UNL A   1      45.708  26.231  26.735  1.00  0.00    -0.354 N 
ATOM     39  C   UNL A   1      41.793  27.361  28.093  1.00  0.00     0.074 A 
ATOM     40  C   UNL A   1      40.860  26.257  27.968  1.00  0.00     0.031 C 
ATOM     41  C   UNL A   1      47.304  24.825  26.047  1.00  0.00     0.029 A 
ATOM     42  C   UNL A   1      47.043  26.214  26.421  1.00  0.00     0.049 A 
ATOM     43  H   UNL A   1      45.226  27.048  27.003  1.00  0.00     0.167 HD
ATOM     44  C   UNL A   1      41.478  28.594  28.565  1.00  0.00     0.037 A 
ATOM     45  C   UNL A   1      47.964  27.196  26.445  1.00  0.00     0.037 A 
ATOM     46  C   UNL A   1      42.401  29.702  28.656  1.00  0.00     0.049 A 
ATOM     47  C   UNL A   1      47.570  28.576  26.895  1.00  0.00     0.074 A 
ATOM     48  C   UNL A   1      42.168  30.984  29.126  1.00  0.00     0.029 A 
ATOM     49  N   UNL A   1      43.730  29.668  28.254  1.00  0.00    -0.354 N 
ATOM     50  N   UNL A   1      46.416  29.001  27.345  1.00  0.00    -0.248 NA
ATOM     51  C   UNL A   1      48.614  29.609  26.847  1.00  0.00     0.031 C 
ATOM     52  C   UNL A   1      43.334  31.738  28.957  1.00  0.00     0.029 A 
ATOM     53  C   UNL A   1      44.318  30.912  28.440  1.00  0.00     0.049 A 
ATOM     54  H   UNL A   1      44.188  28.876  27.891  1.00  0.00     0.167 HD
ATOM     55  C   UNL A   1      46.597  30.343  27.654  1.00  0.00     0.074 A 
ATOM     56  C   UNL A   1      47.981  30.655  27.360  1.00  0.00     0.031 C 
ATOM     57  C   UNL A   1      45.693  31.232  28.136  1.00  0.00     0.037 A 
BRANCH  44  58
ATOM     58  C   UNL A   1      40.065  28.812  29.035  1.00  0.00     0.064 A 
ATOM     59  C   UNL A   1      39.055  29.217  28.146  1.00  0.00     0.173 A 
ATOM     60  C   UNL A   1      39.698  28.565  30.366  1.00  0.00     0.173 A 
ATOM     61  F   UNL A   1      39.348  29.464  26.859  1.00  0.00    -0.203 F 
ATOM     62  C   UNL A   1      37.744  29.400  28.579  1.00  0.00     0.198 A 
ATOM     63  C   UNL A   1      38.378  28.716  30.789  1.00  0.00     0.198 A 
ATOM     64  F   UNL A   1      40.614  28.160  31.258  1.00  0.00    -0.203 F 
ATOM     65  F   UNL A   1      36.811  29.833  27.719  1.00  0.00    -0.200 F 
ATOM     66  C   UNL A   1      37.406  29.143  29.898  1.00  0.00     0.200 A 
ATOM     67  F   UNL A   1      38.048  28.447  32.059  1.00  0.00    -0.200 F 
ATOM     68  F   UNL A   1      36.141  29.310  30.312  1.00  0.00    -0.200 F 
ENDBRANCH  44  58
BRANCH  45  69
ATOM     69  C   UNL A   1      49.371  26.880  26.087  1.00  0.00     0.064 A 
ATOM     70  C   UNL A   1      50.260  26.388  27.052  1.00  0.00     0.173 A 
ATOM     71  C   UNL A   1      49.839  27.011  24.771  1.00  0.00     0.173 A 
ATOM     72  F   UNL A   1      49.865  26.267  28.327  1.00  0.00    -0.203 F 
ATOM     73  C   UNL A   1      51.564  26.035  26.714  1.00  0.00     0.198 A 
ATOM     74  C   UNL A   1      51.133  26.631  24.429  1.00  0.00     0.198 A 
ATOM     75  F   UNL A   1      49.025  27.477  23.812  1.00  0.00    -0.203 F 
ATOM     76  F   UNL A   1      52.402  25.588  27.660  1.00  0.00    -0.200 F 
ATOM     77  C   UNL A   1      51.996  26.145  25.400  1.00  0.00     0.200 A 
ATOM     78  F   UNL A   1      51.542  26.724  23.156  1.00  0.00    -0.200 F 
ATOM     79  F   UNL A   1      53.244  25.784  25.071  1.00  0.00    -0.200 F 
ENDBRANCH  45  69
BRANCH  57  80
ATOM     80  C   UNL A   1      46.169  32.638  28.390  1.00  0.00     0.064 A 
ATOM     81  C   UNL A   1      46.717  33.018  29.624  1.00  0.00     0.173 A 
ATOM     82  C   UNL A   1      46.112  33.607  27.376  1.00  0.00     0.173 A 
ATOM     83  F   UNL A   1      46.783  32.139  30.635  1.00  0.00    -0.203 F 
ATOM     84  C   UNL A   1      47.163  34.321  29.842  1.00  0.00     0.198 A 
ATOM     85  C   UNL A   1      46.592  34.898  27.586  1.00  0.00     0.198 A 
ATOM     86  F   UNL A   1      45.605  33.301  26.173  1.00  0.00    -0.203 F 
ATOM     87  F   UNL A   1      47.632  34.674  31.047  1.00  0.00    -0.200 F 
ATOM     88  C   UNL A   1      47.108  35.257  28.822  1.00  0.00     0.200 A 
ATOM     89  F   UNL A   1      46.552  35.798  26.592  1.00  0.00    -0.200 F 
ATOM     90  F   UNL A   1      47.546  36.506  29.030  1.00  0.00    -0.200 F 
ENDBRANCH  57  80
ENDBRANCH  31  32
ENDBRANCH  24  26
ENDBRANCH  23  24
ENDBRANCH  22  23
ENDBRANCH  21  22
ENDBRANCH  20  21
ENDBRANCH  19  20
ENDBRANCH   1  19
TORSDOF 19
ENDMDL
