MODEL 1
REMARK VINA RESULT:     -11.5      0.000      0.000
REMARK SMILES Cc1cc(Cl)c(C)c2c1O[C@H](C(F)(F)F)C(C(=O)OCCOCCOCCOC(=O)c1ccc(-c3c4nc(c(-c5c(F)c(F)c(F)c(F)c5F)c5ccc([nH]5)c(-c5c(F)c(F)c(F)c(F)c5F)c5nc(c(-c6c(F)c(F)c(F)c(F)c6F)c6ccc3[nH]6)C=C5)C=C4)cc1)=C2
REMARK SMILES IDX 24 1 23 2 22 3 21 4 20 5 19 6 17 7 18 8 16 9 1 10 2 11 3 12
REMARK SMILES IDX 9 13 4 14 8 15 10 16 5 17 6 18 94 19 11 20 7 21 12 22 13 23
REMARK SMILES IDX 14 24 15 25 25 26 26 27 27 28 28 29 29 30 30 31 31 32 32 33
REMARK SMILES IDX 93 34 33 35 92 36 34 37 35 38 36 39 86 40 37 41 91 42 85 43
REMARK SMILES IDX 87 44 38 45 90 46 84 47 83 48 39 50 71 51 51 52 70 53 52 54
REMARK SMILES IDX 55 55 69 56 88 57 53 58 54 59 68 61 89 62 56 63 40 64 41 65
REMARK SMILES IDX 49 66 42 67 43 68 47 69 50 70 44 71 45 72 48 73 46 74 72 75
REMARK SMILES IDX 73 76 81 77 74 78 75 79 79 80 82 81 76 82 77 83 80 84 78 85
REMARK SMILES IDX 57 86 58 87 66 88 59 89 60 90 64 91 67 92 61 93 62 94 65 95
REMARK SMILES IDX 63 96
REMARK H PARENT 87 49 55 60
REMARK Flexibility Score: inf
ROOT
ATOM      1  C   UNL A   1      41.478  21.031  27.730  1.00  0.00     0.188 C 
ENDROOT
BRANCH   1   2
ATOM      2  C   UNL A   1      40.430  20.900  26.606  1.00  0.00     0.188 C 
BRANCH   2   3
ATOM      3  O   UNL A   1      39.635  22.006  26.227  1.00  0.00    -0.376 OA
BRANCH   3   4
ATOM      4  C   UNL A   1      38.337  21.817  25.687  1.00  0.00     0.202 C 
BRANCH   4   5
ATOM      5  C   UNL A   1      37.241  22.890  25.765  1.00  0.00     0.261 C 
BRANCH   5   6
ATOM      6  O   UNL A   1      35.937  22.479  25.333  1.00  0.00    -0.460 OA
BRANCH   6   7
ATOM      7  C   UNL A   1      34.903  23.046  25.998  1.00  0.00     0.338 C 
ATOM      8  O   UNL A   1      34.604  22.876  27.168  1.00  0.00    -0.246 OA
BRANCH   7   9
ATOM      9  C   UNL A   1      34.254  24.055  25.137  1.00  0.00     0.087 C 
ATOM     10  C   UNL A   1      31.412  26.428  21.617  1.00  0.00     0.048 C 
ATOM     11  C   UNL A   1      32.057  26.819  22.918  1.00  0.00    -0.007 A 
ATOM     12  C   UNL A   1      31.751  28.065  23.476  1.00  0.00     0.028 A 
ATOM     13  C   UNL A   1      32.870  25.934  23.640  1.00  0.00     0.131 A 
ATOM     14  C   UNL A   1      32.286  28.451  24.708  1.00  0.00     0.045 A 
ATOM     15  C   UNL A   1      33.373  26.292  24.904  1.00  0.00     0.022 A 
ATOM     16  O   UNL A   1      33.130  24.736  23.035  1.00  0.00    -0.475 OA
ATOM     17  Cl  UNL A   1      31.839  30.019  25.285  1.00  0.00    -0.084 Cl
ATOM     18  C   UNL A   1      33.118  27.583  25.437  1.00  0.00    -0.021 A 
ATOM     19  C   UNL A   1      34.087  25.272  25.670  1.00  0.00     0.027 C 
ATOM     20  C   UNL A   1      33.824  23.685  23.750  1.00  0.00     0.316 C 
ATOM     21  C   UNL A   1      33.721  27.997  26.759  1.00  0.00     0.047 C 
BRANCH  20  22
ATOM     22  C   UNL A   1      32.943  22.429  23.717  1.00  0.00     0.430 C 
ATOM     23  F   UNL A   1      33.688  21.304  23.834  1.00  0.00    -0.167 F 
ATOM     24  F   UNL A   1      32.051  22.412  24.734  1.00  0.00    -0.167 F 
ATOM     25  F   UNL A   1      32.245  22.335  22.563  1.00  0.00    -0.167 F 
ENDBRANCH  20  22
ENDBRANCH   7   9
ENDBRANCH   6   7
ENDBRANCH   5   6
ENDBRANCH   4   5
ENDBRANCH   3   4
ENDBRANCH   2   3
ENDBRANCH   1   2
BRANCH   1  26
ATOM     26  O   UNL A   1      42.693  21.679  27.446  1.00  0.00    -0.376 OA
BRANCH  26  27
ATOM     27  C   UNL A   1      43.413  21.369  26.264  1.00  0.00     0.202 C 
BRANCH  27  28
ATOM     28  C   UNL A   1      43.422  22.197  24.961  1.00  0.00     0.261 C 
BRANCH  28  29
ATOM     29  O   UNL A   1      42.757  23.463  24.963  1.00  0.00    -0.460 OA
BRANCH  29  30
ATOM     30  C   UNL A   1      43.553  24.540  25.187  1.00  0.00     0.338 C 
ATOM     31  O   UNL A   1      44.586  24.832  24.616  1.00  0.00    -0.246 OA
BRANCH  30  32
ATOM     32  C   UNL A   1      42.864  25.449  26.122  1.00  0.00     0.060 A 
ATOM     33  C   UNL A   1      43.277  26.787  26.185  1.00  0.00     0.016 A 
ATOM     34  C   UNL A   1      41.840  24.982  26.947  1.00  0.00     0.016 A 
ATOM     35  C   UNL A   1      42.675  27.663  27.086  1.00  0.00     0.010 A 
ATOM     36  C   UNL A   1      41.259  25.853  27.873  1.00  0.00     0.010 A 
ATOM     37  C   UNL A   1      41.692  27.190  27.963  1.00  0.00    -0.014 A 
BRANCH  37  38
ATOM     38  C   UNL A   1      41.272  28.026  29.112  1.00  0.00     0.031 A 
ATOM     39  C   UNL A   1      42.053  27.915  30.391  1.00  0.00     0.074 A 
ATOM     40  C   UNL A   1      40.243  28.886  29.020  1.00  0.00     0.049 A 
ATOM     41  N   UNL A   1      41.838  28.483  31.550  1.00  0.00    -0.248 NA
ATOM     42  C   UNL A   1      43.242  27.048  30.357  1.00  0.00     0.031 C 
ATOM     43  C   UNL A   1      39.455  29.136  27.816  1.00  0.00     0.029 A 
ATOM     44  N   UNL A   1      39.683  29.706  29.969  1.00  0.00    -0.354 N 
ATOM     45  C   UNL A   1      42.862  28.042  32.378  1.00  0.00     0.074 A 
ATOM     46  C   UNL A   1      43.682  27.139  31.602  1.00  0.00     0.031 C 
ATOM     47  C   UNL A   1      38.502  30.042  28.102  1.00  0.00     0.029 A 
ATOM     48  C   UNL A   1      38.589  30.403  29.518  1.00  0.00     0.049 A 
ATOM     49  H   UNL A   1      40.032  29.786  30.885  1.00  0.00     0.167 HD
ATOM     50  C   UNL A   1      43.101  28.372  33.669  1.00  0.00     0.037 A 
ATOM     51  C   UNL A   1      37.742  31.215  30.182  1.00  0.00     0.037 A 
ATOM     52  C   UNL A   1      42.279  29.263  34.442  1.00  0.00     0.049 A 
ATOM     53  C   UNL A   1      37.965  31.475  31.653  1.00  0.00     0.074 A 
ATOM     54  C   UNL A   1      42.435  29.648  35.762  1.00  0.00     0.029 A 
ATOM     55  N   UNL A   1      41.145  29.903  33.967  1.00  0.00    -0.354 N 
ATOM     56  N   UNL A   1      38.931  31.054  32.433  1.00  0.00    -0.248 NA
ATOM     57  C   UNL A   1      36.975  32.322  32.335  1.00  0.00     0.031 C 
ATOM     58  C   UNL A   1      41.363  30.477  36.102  1.00  0.00     0.029 A 
ATOM     59  C   UNL A   1      40.574  30.660  34.978  1.00  0.00     0.049 A 
ATOM     60  H   UNL A   1      40.797  29.830  33.049  1.00  0.00     0.167 HD
ATOM     61  C   UNL A   1      38.682  31.604  33.686  1.00  0.00     0.074 A 
ATOM     62  C   UNL A   1      37.481  32.403  33.559  1.00  0.00     0.031 C 
ATOM     63  C   UNL A   1      39.383  31.459  34.837  1.00  0.00     0.037 A 
BRANCH  50  64
ATOM     64  C   UNL A   1      44.290  27.748  34.337  1.00  0.00     0.064 A 
ATOM     65  C   UNL A   1      45.552  28.358  34.309  1.00  0.00     0.173 A 
ATOM     66  C   UNL A   1      44.151  26.558  35.068  1.00  0.00     0.173 A 
ATOM     67  F   UNL A   1      45.742  29.487  33.610  1.00  0.00    -0.203 F 
ATOM     68  C   UNL A   1      46.635  27.795  34.981  1.00  0.00     0.198 A 
ATOM     69  C   UNL A   1      45.228  26.014  35.762  1.00  0.00     0.198 A 
ATOM     70  F   UNL A   1      42.965  25.935  35.125  1.00  0.00    -0.203 F 
ATOM     71  F   UNL A   1      47.840  28.378  34.912  1.00  0.00    -0.200 F 
ATOM     72  C   UNL A   1      46.468  26.631  35.715  1.00  0.00     0.200 A 
ATOM     73  F   UNL A   1      45.063  24.896  36.482  1.00  0.00    -0.200 F 
ATOM     74  F   UNL A   1      47.507  26.101  36.376  1.00  0.00    -0.200 F 
ENDBRANCH  50  64
BRANCH  51  75
ATOM     75  C   UNL A   1      36.594  31.836  29.470  1.00  0.00     0.064 A 
ATOM     76  C   UNL A   1      36.568  33.212  29.203  1.00  0.00     0.173 A 
ATOM     77  C   UNL A   1      35.491  31.074  29.056  1.00  0.00     0.173 A 
ATOM     78  F   UNL A   1      37.584  33.991  29.606  1.00  0.00    -0.203 F 
ATOM     79  C   UNL A   1      35.482  33.802  28.559  1.00  0.00     0.198 A 
ATOM     80  C   UNL A   1      34.419  31.659  28.386  1.00  0.00     0.198 A 
ATOM     81  F   UNL A   1      35.458  29.754  29.296  1.00  0.00    -0.203 F 
ATOM     82  F   UNL A   1      35.465  35.127  28.357  1.00  0.00    -0.200 F 
ATOM     83  C   UNL A   1      34.412  33.025  28.144  1.00  0.00     0.200 A 
ATOM     84  F   UNL A   1      33.391  30.902  27.979  1.00  0.00    -0.200 F 
ATOM     85  F   UNL A   1      33.371  33.592  27.519  1.00  0.00    -0.200 F 
ENDBRANCH  51  75
BRANCH  63  86
ATOM     86  C   UNL A   1      38.900  32.196  36.054  1.00  0.00     0.064 A 
ATOM     87  C   UNL A   1      38.100  31.571  37.022  1.00  0.00     0.173 A 
ATOM     88  C   UNL A   1      39.310  33.516  36.296  1.00  0.00     0.173 A 
ATOM     89  F   UNL A   1      37.672  30.313  36.836  1.00  0.00    -0.203 F 
ATOM     90  C   UNL A   1      37.716  32.247  38.177  1.00  0.00     0.198 A 
ATOM     91  C   UNL A   1      38.951  34.177  37.468  1.00  0.00     0.198 A 
ATOM     92  F   UNL A   1      40.086  34.157  35.409  1.00  0.00    -0.203 F 
ATOM     93  F   UNL A   1      36.920  31.642  39.072  1.00  0.00    -0.200 F 
ATOM     94  C   UNL A   1      38.150  33.544  38.405  1.00  0.00     0.200 A 
ATOM     95  F   UNL A   1      39.390  35.423  37.694  1.00  0.00    -0.200 F 
ATOM     96  F   UNL A   1      37.795  34.186  39.527  1.00  0.00    -0.200 F 
ENDBRANCH  63  86
ENDBRANCH  37  38
ENDBRANCH  30  32
ENDBRANCH  29  30
ENDBRANCH  28  29
ENDBRANCH  27  28
ENDBRANCH  26  27
ENDBRANCH   1  26
TORSDOF 18
ENDMDL
MODEL 2
REMARK VINA RESULT:     -11.3      1.374      2.261
REMARK SMILES Cc1cc(Cl)c(C)c2c1O[C@H](C(F)(F)F)C(C(=O)OCCOCCOCCOC(=O)c1ccc(-c3c4nc(c(-c5c(F)c(F)c(F)c(F)c5F)c5ccc([nH]5)c(-c5c(F)c(F)c(F)c(F)c5F)c5nc(c(-c6c(F)c(F)c(F)c(F)c6F)c6ccc3[nH]6)C=C5)C=C4)cc1)=C2
REMARK SMILES IDX 24 1 23 2 22 3 21 4 20 5 19 6 17 7 18 8 16 9 1 10 2 11 3 12
REMARK SMILES IDX 9 13 4 14 8 15 10 16 5 17 6 18 94 19 11 20 7 21 12 22 13 23
REMARK SMILES IDX 14 24 15 25 25 26 26 27 27 28 28 29 29 30 30 31 31 32 32 33
REMARK SMILES IDX 93 34 33 35 92 36 34 37 35 38 36 39 86 40 37 41 91 42 85 43
REMARK SMILES IDX 87 44 38 45 90 46 84 47 83 48 39 50 71 51 51 52 70 53 52 54
REMARK SMILES IDX 55 55 69 56 88 57 53 58 54 59 68 61 89 62 56 63 40 64 41 65
REMARK SMILES IDX 49 66 42 67 43 68 47 69 50 70 44 71 45 72 48 73 46 74 72 75
REMARK SMILES IDX 73 76 81 77 74 78 75 79 79 80 82 81 76 82 77 83 80 84 78 85
REMARK SMILES IDX 57 86 58 87 66 88 59 89 60 90 64 91 67 92 61 93 62 94 65 95
REMARK SMILES IDX 63 96
REMARK H PARENT 87 49 55 60
REMARK Flexibility Score: inf
ROOT
ATOM      1  C   UNL A   1      41.737  20.780  26.070  1.00  0.00     0.188 C 
ENDROOT
BRANCH   1   2
ATOM      2  C   UNL A   1      40.295  20.254  26.224  1.00  0.00     0.188 C 
BRANCH   2   3
ATOM      3  O   UNL A   1      39.191  21.060  25.865  1.00  0.00    -0.376 OA
BRANCH   3   4
ATOM      4  C   UNL A   1      39.142  22.430  26.228  1.00  0.00     0.202 C 
BRANCH   4   5
ATOM      5  C   UNL A   1      37.830  23.226  26.289  1.00  0.00     0.261 C 
BRANCH   5   6
ATOM      6  O   UNL A   1      37.455  23.901  25.082  1.00  0.00    -0.460 OA
BRANCH   6   7
ATOM      7  C   UNL A   1      36.655  23.195  24.249  1.00  0.00     0.338 C 
ATOM      8  O   UNL A   1      37.009  22.400  23.394  1.00  0.00    -0.246 OA
BRANCH   7   9
ATOM      9  C   UNL A   1      35.242  23.399  24.627  1.00  0.00     0.087 C 
ATOM     10  C   UNL A   1      30.460  22.785  26.314  1.00  0.00     0.048 C 
ATOM     11  C   UNL A   1      31.383  23.954  26.103  1.00  0.00    -0.007 A 
ATOM     12  C   UNL A   1      31.004  25.210  26.590  1.00  0.00     0.028 A 
ATOM     13  C   UNL A   1      32.653  23.805  25.529  1.00  0.00     0.131 A 
ATOM     14  C   UNL A   1      31.849  26.315  26.463  1.00  0.00     0.045 A 
ATOM     15  C   UNL A   1      33.533  24.899  25.442  1.00  0.00     0.022 A 
ATOM     16  O   UNL A   1      32.955  22.552  25.073  1.00  0.00    -0.475 OA
ATOM     17  Cl  UNL A   1      31.262  27.813  27.097  1.00  0.00    -0.084 Cl
ATOM     18  C   UNL A   1      33.121  26.187  25.874  1.00  0.00    -0.021 A 
ATOM     19  C   UNL A   1      34.894  24.645  24.973  1.00  0.00     0.027 C 
ATOM     20  C   UNL A   1      34.291  22.242  24.607  1.00  0.00     0.316 C 
ATOM     21  C   UNL A   1      34.035  27.378  25.709  1.00  0.00     0.047 C 
BRANCH  20  22
ATOM     22  C   UNL A   1      34.804  21.039  25.410  1.00  0.00     0.430 C 
ATOM     23  F   UNL A   1      35.412  21.435  26.553  1.00  0.00    -0.167 F 
ATOM     24  F   UNL A   1      33.799  20.209  25.772  1.00  0.00    -0.167 F 
ATOM     25  F   UNL A   1      35.699  20.309  24.706  1.00  0.00    -0.167 F 
ENDBRANCH  20  22
ENDBRANCH   7   9
ENDBRANCH   6   7
ENDBRANCH   5   6
ENDBRANCH   4   5
ENDBRANCH   3   4
ENDBRANCH   2   3
ENDBRANCH   1   2
BRANCH   1  26
ATOM     26  O   UNL A   1      42.665  20.003  25.354  1.00  0.00    -0.376 OA
BRANCH  26  27
ATOM     27  C   UNL A   1      44.057  20.169  25.567  1.00  0.00     0.202 C 
BRANCH  27  28
ATOM     28  C   UNL A   1      44.845  21.491  25.444  1.00  0.00     0.261 C 
BRANCH  28  29
ATOM     29  O   UNL A   1      44.383  22.622  26.186  1.00  0.00    -0.460 OA
BRANCH  29  30
ATOM     30  C   UNL A   1      44.054  23.711  25.445  1.00  0.00     0.338 C 
ATOM     31  O   UNL A   1      44.158  23.849  24.241  1.00  0.00    -0.246 OA
BRANCH  30  32
ATOM     32  C   UNL A   1      43.344  24.673  26.309  1.00  0.00     0.060 A 
ATOM     33  C   UNL A   1      43.723  26.022  26.264  1.00  0.00     0.016 A 
ATOM     34  C   UNL A   1      42.337  24.246  27.174  1.00  0.00     0.016 A 
ATOM     35  C   UNL A   1      43.100  26.950  27.097  1.00  0.00     0.010 A 
ATOM     36  C   UNL A   1      41.736  25.172  28.032  1.00  0.00     0.010 A 
ATOM     37  C   UNL A   1      42.134  26.522  28.014  1.00  0.00    -0.014 A 
BRANCH  37  38
ATOM     38  C   UNL A   1      41.695  27.435  29.095  1.00  0.00     0.031 A 
ATOM     39  C   UNL A   1      42.486  27.449  30.374  1.00  0.00     0.074 A 
ATOM     40  C   UNL A   1      40.641  28.255  28.943  1.00  0.00     0.049 A 
ATOM     41  N   UNL A   1      42.261  28.101  31.485  1.00  0.00    -0.248 NA
ATOM     42  C   UNL A   1      43.699  26.615  30.400  1.00  0.00     0.031 C 
ATOM     43  C   UNL A   1      39.840  28.386  27.729  1.00  0.00     0.029 A 
ATOM     44  N   UNL A   1      40.063  29.133  29.827  1.00  0.00    -0.354 N 
ATOM     45  C   UNL A   1      43.301  27.757  32.338  1.00  0.00     0.074 A 
ATOM     46  C   UNL A   1      44.143  26.818  31.631  1.00  0.00     0.031 C 
ATOM     47  C   UNL A   1      38.864  29.285  27.949  1.00  0.00     0.029 A 
ATOM     48  C   UNL A   1      38.947  29.760  29.331  1.00  0.00     0.049 A 
ATOM     49  H   UNL A   1      40.415  29.295  30.732  1.00  0.00     0.167 HD
ATOM     50  C   UNL A   1      43.537  28.195  33.596  1.00  0.00     0.037 A 
ATOM     51  C   UNL A   1      38.081  30.598  29.935  1.00  0.00     0.037 A 
ATOM     52  C   UNL A   1      42.694  29.121  34.303  1.00  0.00     0.049 A 
ATOM     53  C   UNL A   1      38.303  30.981  31.378  1.00  0.00     0.074 A 
ATOM     54  C   UNL A   1      42.845  29.615  35.587  1.00  0.00     0.029 A 
ATOM     55  N   UNL A   1      41.539  29.689  33.787  1.00  0.00    -0.354 N 
ATOM     56  N   UNL A   1      39.285  30.651  32.183  1.00  0.00    -0.248 NA
ATOM     57  C   UNL A   1      37.293  31.851  31.999  1.00  0.00     0.031 C 
ATOM     58  C   UNL A   1      41.752  30.438  35.867  1.00  0.00     0.029 A 
ATOM     59  C   UNL A   1      40.952  30.508  34.738  1.00  0.00     0.049 A 
ATOM     60  H   UNL A   1      41.189  29.534  32.880  1.00  0.00     0.167 HD
ATOM     61  C   UNL A   1      39.027  31.292  33.389  1.00  0.00     0.074 A 
ATOM     62  C   UNL A   1      37.803  32.044  33.208  1.00  0.00     0.031 C 
ATOM     63  C   UNL A   1      39.738  31.259  34.543  1.00  0.00     0.037 A 
BRANCH  50  64
ATOM     64  C   UNL A   1      44.747  27.661  34.304  1.00  0.00     0.064 A 
ATOM     65  C   UNL A   1      44.697  26.476  35.051  1.00  0.00     0.173 A 
ATOM     66  C   UNL A   1      45.985  28.310  34.181  1.00  0.00     0.173 A 
ATOM     67  F   UNL A   1      43.533  25.828  35.214  1.00  0.00    -0.203 F 
ATOM     68  C   UNL A   1      45.841  25.963  35.658  1.00  0.00     0.198 A 
ATOM     69  C   UNL A   1      47.132  27.778  34.765  1.00  0.00     0.198 A 
ATOM     70  F   UNL A   1      46.086  29.447  33.478  1.00  0.00    -0.203 F 
ATOM     71  F   UNL A   1      45.763  24.847  36.396  1.00  0.00    -0.200 F 
ATOM     72  C   UNL A   1      47.059  26.609  35.505  1.00  0.00     0.200 A 
ATOM     73  F   UNL A   1      48.311  28.397  34.605  1.00  0.00    -0.200 F 
ATOM     74  F   UNL A   1      48.162  26.104  36.073  1.00  0.00    -0.200 F 
ENDBRANCH  50  64
BRANCH  51  75
ATOM     75  C   UNL A   1      36.911  31.128  29.184  1.00  0.00     0.064 A 
ATOM     76  C   UNL A   1      35.824  30.302  28.864  1.00  0.00     0.173 A 
ATOM     77  C   UNL A   1      36.861  32.463  28.755  1.00  0.00     0.173 A 
ATOM     78  F   UNL A   1      35.838  29.010  29.223  1.00  0.00    -0.203 F 
ATOM     79  C   UNL A   1      34.739  30.788  28.138  1.00  0.00     0.198 A 
ATOM     80  C   UNL A   1      35.761  32.956  28.055  1.00  0.00     0.198 A 
ATOM     81  F   UNL A   1      37.879  33.294  29.024  1.00  0.00    -0.203 F 
ATOM     82  F   UNL A   1      33.735  29.964  27.807  1.00  0.00    -0.200 F 
ATOM     83  C   UNL A   1      34.704  32.116  27.740  1.00  0.00     0.200 A 
ATOM     84  F   UNL A   1      35.729  34.242  27.681  1.00  0.00    -0.200 F 
ATOM     85  F   UNL A   1      33.657  32.583  27.048  1.00  0.00    -0.200 F 
ENDBRANCH  51  75
BRANCH  63  86
ATOM     86  C   UNL A   1      39.240  32.077  35.701  1.00  0.00     0.064 A 
ATOM     87  C   UNL A   1      38.385  31.533  36.671  1.00  0.00     0.173 A 
ATOM     88  C   UNL A   1      39.688  33.394  35.887  1.00  0.00     0.173 A 
ATOM     89  F   UNL A   1      37.920  30.282  36.537  1.00  0.00    -0.203 F 
ATOM     90  C   UNL A   1      37.986  32.283  37.775  1.00  0.00     0.198 A 
ATOM     91  C   UNL A   1      39.314  34.129  37.009  1.00  0.00     0.198 A 
ATOM     92  F   UNL A   1      40.516  33.959  34.996  1.00  0.00    -0.203 F 
ATOM     93  F   UNL A   1      37.139  31.755  38.670  1.00  0.00    -0.200 F 
ATOM     94  C   UNL A   1      38.458  33.575  37.949  1.00  0.00     0.200 A 
ATOM     95  F   UNL A   1      39.788  35.370  37.185  1.00  0.00    -0.200 F 
ATOM     96  F   UNL A   1      38.088  34.288  39.022  1.00  0.00    -0.200 F 
ENDBRANCH  63  86
ENDBRANCH  37  38
ENDBRANCH  30  32
ENDBRANCH  29  30
ENDBRANCH  28  29
ENDBRANCH  27  28
ENDBRANCH  26  27
ENDBRANCH   1  26
TORSDOF 18
ENDMDL
MODEL 3
REMARK VINA RESULT:     -11.3      4.290      8.528
REMARK SMILES Cc1cc(Cl)c(C)c2c1O[C@H](C(F)(F)F)C(C(=O)OCCOCCOCCOC(=O)c1ccc(-c3c4nc(c(-c5c(F)c(F)c(F)c(F)c5F)c5ccc([nH]5)c(-c5c(F)c(F)c(F)c(F)c5F)c5nc(c(-c6c(F)c(F)c(F)c(F)c6F)c6ccc3[nH]6)C=C5)C=C4)cc1)=C2
REMARK SMILES IDX 24 1 23 2 22 3 21 4 20 5 19 6 17 7 18 8 16 9 1 10 2 11 3 12
REMARK SMILES IDX 9 13 4 14 8 15 10 16 5 17 6 18 94 19 11 20 7 21 12 22 13 23
REMARK SMILES IDX 14 24 15 25 25 26 26 27 27 28 28 29 29 30 30 31 31 32 32 33
REMARK SMILES IDX 93 34 33 35 92 36 34 37 35 38 36 39 86 40 37 41 91 42 85 43
REMARK SMILES IDX 87 44 38 45 90 46 84 47 83 48 39 50 71 51 51 52 70 53 52 54
REMARK SMILES IDX 55 55 69 56 88 57 53 58 54 59 68 61 89 62 56 63 40 64 41 65
REMARK SMILES IDX 49 66 42 67 43 68 47 69 50 70 44 71 45 72 48 73 46 74 72 75
REMARK SMILES IDX 73 76 81 77 74 78 75 79 79 80 82 81 76 82 77 83 80 84 78 85
REMARK SMILES IDX 57 86 58 87 66 88 59 89 60 90 64 91 67 92 61 93 62 94 65 95
REMARK SMILES IDX 63 96
REMARK H PARENT 87 49 55 60
REMARK Flexibility Score: inf
ROOT
ATOM      1  C   UNL A   1      33.804  19.362  25.242  1.00  0.00     0.188 C 
ENDROOT
BRANCH   1   2
ATOM      2  C   UNL A   1      32.826  20.534  25.021  1.00  0.00     0.188 C 
BRANCH   2   3
ATOM      3  O   UNL A   1      32.512  21.422  26.075  1.00  0.00    -0.376 OA
BRANCH   3   4
ATOM      4  C   UNL A   1      33.469  21.728  27.076  1.00  0.00     0.202 C 
BRANCH   4   5
ATOM      5  C   UNL A   1      34.597  22.748  26.862  1.00  0.00     0.261 C 
BRANCH   5   6
ATOM      6  O   UNL A   1      34.181  24.060  26.461  1.00  0.00    -0.460 OA
BRANCH   6   7
ATOM      7  C   UNL A   1      34.561  24.431  25.216  1.00  0.00     0.338 C 
ATOM      8  O   UNL A   1      35.364  23.862  24.496  1.00  0.00    -0.246 OA
BRANCH   7   9
ATOM      9  C   UNL A   1      33.732  25.567  24.762  1.00  0.00     0.087 C 
ATOM     10  C   UNL A   1      30.113  28.481  22.640  1.00  0.00     0.048 C 
ATOM     11  C   UNL A   1      31.098  28.641  23.765  1.00  0.00    -0.007 A 
ATOM     12  C   UNL A   1      30.992  29.758  24.601  1.00  0.00     0.028 A 
ATOM     13  C   UNL A   1      32.051  27.657  24.066  1.00  0.00     0.131 A 
ATOM     14  C   UNL A   1      31.853  29.925  25.690  1.00  0.00     0.045 A 
ATOM     15  C   UNL A   1      32.888  27.789  25.188  1.00  0.00     0.022 A 
ATOM     16  O   UNL A   1      32.100  26.596  23.205  1.00  0.00    -0.475 OA
ATOM     17  Cl  UNL A   1      31.627  31.351  26.641  1.00  0.00    -0.084 Cl
ATOM     18  C   UNL A   1      32.826  28.955  25.995  1.00  0.00    -0.021 A 
ATOM     19  C   UNL A   1      33.753  26.662  25.532  1.00  0.00     0.027 C 
ATOM     20  C   UNL A   1      32.931  25.447  23.502  1.00  0.00     0.316 C 
ATOM     21  C   UNL A   1      33.778  29.135  27.155  1.00  0.00     0.047 C 
BRANCH  20  22
ATOM     22  C   UNL A   1      32.038  24.199  23.483  1.00  0.00     0.430 C 
ATOM     23  F   UNL A   1      31.543  23.931  24.715  1.00  0.00    -0.167 F 
ATOM     24  F   UNL A   1      30.973  24.354  22.662  1.00  0.00    -0.167 F 
ATOM     25  F   UNL A   1      32.713  23.104  23.069  1.00  0.00    -0.167 F 
ENDBRANCH  20  22
ENDBRANCH   7   9
ENDBRANCH   6   7
ENDBRANCH   5   6
ENDBRANCH   4   5
ENDBRANCH   3   4
ENDBRANCH   2   3
ENDBRANCH   1   2
BRANCH   1  26
ATOM     26  O   UNL A   1      34.967  19.297  24.456  1.00  0.00    -0.376 OA
BRANCH  26  27
ATOM     27  C   UNL A   1      36.231  19.621  25.013  1.00  0.00     0.202 C 
BRANCH  27  28
ATOM     28  C   UNL A   1      37.092  20.851  24.658  1.00  0.00     0.261 C 
BRANCH  28  29
ATOM     29  O   UNL A   1      37.614  21.640  25.730  1.00  0.00    -0.460 OA
BRANCH  29  30
ATOM     30  C   UNL A   1      38.900  21.376  26.077  1.00  0.00     0.338 C 
ATOM     31  O   UNL A   1      39.544  20.373  25.833  1.00  0.00    -0.246 OA
BRANCH  30  32
ATOM     32  C   UNL A   1      39.497  22.600  26.644  1.00  0.00     0.060 A 
ATOM     33  C   UNL A   1      38.968  23.842  26.264  1.00  0.00     0.016 A 
ATOM     34  C   UNL A   1      40.582  22.526  27.517  1.00  0.00     0.016 A 
ATOM     35  C   UNL A   1      39.534  25.019  26.750  1.00  0.00     0.010 A 
ATOM     36  C   UNL A   1      41.169  23.708  27.976  1.00  0.00     0.010 A 
ATOM     37  C   UNL A   1      40.663  24.959  27.574  1.00  0.00    -0.014 A 
BRANCH  37  38
ATOM     38  C   UNL A   1      41.442  26.191  27.841  1.00  0.00     0.031 A 
ATOM     39  C   UNL A   1      40.781  27.291  28.623  1.00  0.00     0.074 A 
ATOM     40  C   UNL A   1      42.714  26.325  27.427  1.00  0.00     0.049 A 
ATOM     41  N   UNL A   1      41.224  28.485  28.919  1.00  0.00    -0.248 NA
ATOM     42  C   UNL A   1      39.435  27.001  29.147  1.00  0.00     0.031 C 
ATOM     43  C   UNL A   1      43.487  25.305  26.725  1.00  0.00     0.029 A 
ATOM     44  N   UNL A   1      43.576  27.388  27.540  1.00  0.00    -0.354 N 
ATOM     45  C   UNL A   1      40.215  29.085  29.661  1.00  0.00     0.074 A 
ATOM     46  C   UNL A   1      39.125  28.139  29.748  1.00  0.00     0.031 C 
ATOM     47  C   UNL A   1      44.710  25.797  26.456  1.00  0.00     0.029 A 
ATOM     48  C   UNL A   1      44.790  27.179  26.932  1.00  0.00     0.049 A 
ATOM     49  H   UNL A   1      43.346  28.222  28.010  1.00  0.00     0.167 HD
ATOM     50  C   UNL A   1      40.205  30.314  30.228  1.00  0.00     0.037 A 
ATOM     51  C   UNL A   1      45.831  28.019  26.759  1.00  0.00     0.037 A 
ATOM     52  C   UNL A   1      41.285  31.258  30.134  1.00  0.00     0.049 A 
ATOM     53  C   UNL A   1      45.748  29.425  27.302  1.00  0.00     0.074 A 
ATOM     54  C   UNL A   1      41.362  32.533  30.666  1.00  0.00     0.029 A 
ATOM     55  N   UNL A   1      42.475  31.031  29.459  1.00  0.00    -0.354 N 
ATOM     56  N   UNL A   1      44.791  29.990  27.999  1.00  0.00    -0.248 NA
ATOM     57  C   UNL A   1      46.889  30.311  27.030  1.00  0.00     0.031 C 
ATOM     58  C   UNL A   1      42.575  33.099  30.265  1.00  0.00     0.029 A 
ATOM     59  C   UNL A   1      43.282  32.155  29.538  1.00  0.00     0.049 A 
ATOM     60  H   UNL A   1      42.711  30.196  28.993  1.00  0.00     0.167 HD
ATOM     61  C   UNL A   1      45.226  31.283  28.271  1.00  0.00     0.074 A 
ATOM     62  C   UNL A   1      46.539  31.414  27.677  1.00  0.00     0.031 C 
ATOM     63  C   UNL A   1      44.593  32.271  28.950  1.00  0.00     0.037 A 
BRANCH  50  64
ATOM     64  C   UNL A   1      38.977  30.721  30.986  1.00  0.00     0.064 A 
ATOM     65  C   UNL A   1      38.879  30.547  32.374  1.00  0.00     0.173 A 
ATOM     66  C   UNL A   1      37.910  31.348  30.325  1.00  0.00     0.173 A 
ATOM     67  F   UNL A   1      39.864  29.936  33.050  1.00  0.00    -0.203 F 
ATOM     68  C   UNL A   1      37.754  30.979  33.073  1.00  0.00     0.198 A 
ATOM     69  C   UNL A   1      36.800  31.805  31.031  1.00  0.00     0.198 A 
ATOM     70  F   UNL A   1      37.953  31.537  28.998  1.00  0.00    -0.203 F 
ATOM     71  F   UNL A   1      37.668  30.773  34.394  1.00  0.00    -0.200 F 
ATOM     72  C   UNL A   1      36.722  31.618  32.402  1.00  0.00     0.200 A 
ATOM     73  F   UNL A   1      35.809  32.434  30.384  1.00  0.00    -0.200 F 
ATOM     74  F   UNL A   1      35.649  32.050  33.079  1.00  0.00    -0.200 F 
ENDBRANCH  50  64
BRANCH  51  75
ATOM     75  C   UNL A   1      47.042  27.561  26.026  1.00  0.00     0.064 A 
ATOM     76  C   UNL A   1      48.148  27.042  26.713  1.00  0.00     0.173 A 
ATOM     77  C   UNL A   1      47.128  27.648  24.628  1.00  0.00     0.173 A 
ATOM     78  F   UNL A   1      48.128  26.966  28.053  1.00  0.00    -0.203 F 
ATOM     79  C   UNL A   1      49.295  26.636  26.033  1.00  0.00     0.198 A 
ATOM     80  C   UNL A   1      48.264  27.215  23.947  1.00  0.00     0.198 A 
ATOM     81  F   UNL A   1      46.103  28.149  23.922  1.00  0.00    -0.203 F 
ATOM     82  F   UNL A   1      50.354  26.186  26.720  1.00  0.00    -0.200 F 
ATOM     83  C   UNL A   1      49.349  26.716  24.650  1.00  0.00     0.200 A 
ATOM     84  F   UNL A   1      48.307  27.286  22.609  1.00  0.00    -0.200 F 
ATOM     85  F   UNL A   1      50.449  26.320  23.996  1.00  0.00    -0.200 F 
ENDBRANCH  51  75
BRANCH  63  86
ATOM     86  C   UNL A   1      45.311  33.580  29.121  1.00  0.00     0.064 A 
ATOM     87  C   UNL A   1      45.137  34.638  28.217  1.00  0.00     0.173 A 
ATOM     88  C   UNL A   1      46.118  33.807  30.247  1.00  0.00     0.173 A 
ATOM     89  F   UNL A   1      44.384  34.472  27.119  1.00  0.00    -0.203 F 
ATOM     90  C   UNL A   1      45.757  35.867  28.426  1.00  0.00     0.198 A 
ATOM     91  C   UNL A   1      46.709  35.048  30.470  1.00  0.00     0.198 A 
ATOM     92  F   UNL A   1      46.308  32.833  31.150  1.00  0.00    -0.203 F 
ATOM     93  F   UNL A   1      45.606  36.852  27.529  1.00  0.00    -0.200 F 
ATOM     94  C   UNL A   1      46.532  36.075  29.556  1.00  0.00     0.200 A 
ATOM     95  F   UNL A   1      47.441  35.252  31.574  1.00  0.00    -0.200 F 
ATOM     96  F   UNL A   1      47.112  37.265  29.765  1.00  0.00    -0.200 F 
ENDBRANCH  63  86
ENDBRANCH  37  38
ENDBRANCH  30  32
ENDBRANCH  29  30
ENDBRANCH  28  29
ENDBRANCH  27  28
ENDBRANCH  26  27
ENDBRANCH   1  26
TORSDOF 18
ENDMDL
