MODEL 1
REMARK VINA RESULT:     -10.1      0.000      0.000
REMARK SMILES O=C(CSC(=S)N1CCCCC1)OCCOCCOCCOC(=O)c1ccc(-c2c3nc(c(-c4c(F)c(F)c(F)c(F)c4F)c4ccc([nH]4)c(-c4c(F)c(F)c(F)c(F)c4F)c4nc(c(-c5c(F)c(F)c(F)c(F)c5F)c5ccc2[nH]5)C=C4)C=C3)cc1
REMARK SMILES IDX 17 1 16 2 15 3 14 4 13 5 2 6 1 7 3 8 4 9 5 10 6 11 7 12 8 13
REMARK SMILES IDX 12 14 9 15 11 16 10 17 18 18 19 19 20 20 21 21 22 22 23 23
REMARK SMILES IDX 24 24 25 25 26 26 87 27 27 28 86 29 28 30 29 31 30 32 80 33
REMARK SMILES IDX 31 34 85 35 79 36 81 37 32 38 84 39 78 40 77 41 33 43 65 44
REMARK SMILES IDX 45 45 64 46 46 47 49 48 63 49 82 50 47 51 48 52 62 54 83 55
REMARK SMILES IDX 50 56 34 57 35 58 43 59 36 60 37 61 41 62 44 63 38 64 39 65
REMARK SMILES IDX 42 66 40 67 66 68 67 69 75 70 68 71 69 72 73 73 76 74 70 75
REMARK SMILES IDX 71 76 74 77 72 78 51 79 52 80 60 81 53 82 54 83 58 84 61 85
REMARK SMILES IDX 55 86 56 87 59 88 57 89
REMARK H PARENT 81 42 49 53
REMARK Flexibility Score: inf
ROOT
ATOM      1  C   UNL A   1      39.316  22.739  26.504  1.00  0.00     0.188 C 
ENDROOT
BRANCH   1   2
ATOM      2  O   UNL A   1      38.057  22.646  25.858  1.00  0.00    -0.376 OA
BRANCH   2   3
ATOM      3  C   UNL A   1      37.736  21.438  25.179  1.00  0.00     0.202 C 
BRANCH   3   4
ATOM      4  C   UNL A   1      36.258  21.048  25.106  1.00  0.00     0.261 C 
BRANCH   4   5
ATOM      5  O   UNL A   1      35.279  21.925  25.718  1.00  0.00    -0.463 OA
BRANCH   5   6
ATOM      6  C   UNL A   1      33.933  21.907  25.671  1.00  0.00     0.316 C 
ATOM      7  O   UNL A   1      33.331  21.067  26.341  1.00  0.00    -0.251 OA
BRANCH   6   8
ATOM      8  C   UNL A   1      33.175  22.841  24.767  1.00  0.00     0.199 C 
BRANCH   8   9
ATOM      9  S   UNL A   1      32.035  23.941  25.627  1.00  0.00    -0.085 SA
BRANCH   9  10
ATOM     10  C   UNL A   1      32.506  25.522  24.990  1.00  0.00     0.136 C 
ATOM     11  S   UNL A   1      33.654  26.502  25.729  1.00  0.00    -0.053 S 
BRANCH  10  12
ATOM     12  N   UNL A   1      31.791  25.876  23.844  1.00  0.00    -0.358 N 
ATOM     13  C   UNL A   1      31.987  27.161  23.168  1.00  0.00     0.118 C 
ATOM     14  C   UNL A   1      30.483  25.275  23.560  1.00  0.00     0.118 C 
ATOM     15  C   UNL A   1      30.932  28.175  23.608  1.00  0.00     0.021 C 
ATOM     16  C   UNL A   1      29.396  26.204  24.103  1.00  0.00     0.021 C 
ATOM     17  C   UNL A   1      29.514  27.606  23.496  1.00  0.00     0.004 C 
ENDBRANCH  10  12
ENDBRANCH   9  10
ENDBRANCH   8   9
ENDBRANCH   6   8
ENDBRANCH   5   6
ENDBRANCH   4   5
ENDBRANCH   3   4
ENDBRANCH   2   3
ENDBRANCH   1   2
BRANCH   1  18
ATOM     18  C   UNL A   1      40.251  21.566  26.183  1.00  0.00     0.188 C 
BRANCH  18  19
ATOM     19  O   UNL A   1      41.550  21.616  26.759  1.00  0.00    -0.376 OA
BRANCH  19  20
ATOM     20  C   UNL A   1      42.650  21.256  25.917  1.00  0.00     0.202 C 
BRANCH  20  21
ATOM     21  C   UNL A   1      43.645  22.372  25.559  1.00  0.00     0.261 C 
BRANCH  21  22
ATOM     22  O   UNL A   1      43.053  23.486  24.852  1.00  0.00    -0.460 OA
BRANCH  22  23
ATOM     23  C   UNL A   1      43.702  24.666  25.011  1.00  0.00     0.338 C 
ATOM     24  O   UNL A   1      44.822  24.952  24.626  1.00  0.00    -0.246 OA
BRANCH  23  25
ATOM     25  C   UNL A   1      42.847  25.682  25.654  1.00  0.00     0.060 A 
ATOM     26  C   UNL A   1      43.428  26.907  26.003  1.00  0.00     0.016 A 
ATOM     27  C   UNL A   1      41.591  25.327  26.152  1.00  0.00     0.016 A 
ATOM     28  C   UNL A   1      42.791  27.746  26.921  1.00  0.00     0.010 A 
ATOM     29  C   UNL A   1      40.956  26.167  27.076  1.00  0.00     0.010 A 
ATOM     30  C   UNL A   1      41.584  27.349  27.513  1.00  0.00    -0.014 A 
BRANCH  30  31
ATOM     31  C   UNL A   1      41.116  28.042  28.743  1.00  0.00     0.031 A 
ATOM     32  C   UNL A   1      41.880  27.834  30.027  1.00  0.00     0.074 A 
ATOM     33  C   UNL A   1      40.063  28.877  28.726  1.00  0.00     0.049 A 
ATOM     34  N   UNL A   1      41.676  28.350  31.213  1.00  0.00    -0.248 NA
ATOM     35  C   UNL A   1      43.032  26.919  29.962  1.00  0.00     0.031 C 
ATOM     36  C   UNL A   1      39.255  29.196  27.553  1.00  0.00     0.029 A 
ATOM     37  N   UNL A   1      39.497  29.614  29.740  1.00  0.00    -0.354 N 
ATOM     38  C   UNL A   1      42.668  27.824  32.032  1.00  0.00     0.074 A 
ATOM     39  C   UNL A   1      43.455  26.924  31.217  1.00  0.00     0.031 C 
ATOM     40  C   UNL A   1      38.291  30.064  27.913  1.00  0.00     0.029 A 
ATOM     41  C   UNL A   1      38.407  30.347  29.343  1.00  0.00     0.049 A 
ATOM     42  H   UNL A   1      39.842  29.615  30.661  1.00  0.00     0.167 HD
ATOM     43  C   UNL A   1      42.913  28.074  33.341  1.00  0.00     0.037 A 
ATOM     44  C   UNL A   1      37.594  31.153  30.056  1.00  0.00     0.037 A 
ATOM     45  C   UNL A   1      42.143  28.972  34.161  1.00  0.00     0.049 A 
ATOM     46  C   UNL A   1      37.860  31.379  31.523  1.00  0.00     0.074 A 
ATOM     47  C   UNL A   1      42.329  29.300  35.493  1.00  0.00     0.029 A 
ATOM     48  N   UNL A   1      41.035  29.681  33.726  1.00  0.00    -0.354 N 
ATOM     49  N   UNL A   1      38.822  30.907  32.276  1.00  0.00    -0.248 NA
ATOM     50  C   UNL A   1      36.923  32.262  32.236  1.00  0.00     0.031 C 
ATOM     51  C   UNL A   1      41.310  30.181  35.874  1.00  0.00     0.029 A 
ATOM     52  C   UNL A   1      40.516  30.432  34.768  1.00  0.00     0.049 A 
ATOM     53  H   UNL A   1      40.671  29.655  32.811  1.00  0.00     0.167 HD
ATOM     54  C   UNL A   1      38.633  31.465  33.535  1.00  0.00     0.074 A 
ATOM     55  C   UNL A   1      37.464  32.314  33.446  1.00  0.00     0.031 C 
ATOM     56  C   UNL A   1      39.366  31.292  34.663  1.00  0.00     0.037 A 
BRANCH  43  57
ATOM     57  C   UNL A   1      44.060  27.347  33.977  1.00  0.00     0.064 A 
ATOM     58  C   UNL A   1      45.352  27.894  34.002  1.00  0.00     0.173 A 
ATOM     59  C   UNL A   1      43.858  26.105  34.594  1.00  0.00     0.173 A 
ATOM     60  F   UNL A   1      45.597  29.075  33.413  1.00  0.00    -0.203 F 
ATOM     61  C   UNL A   1      46.406  27.209  34.601  1.00  0.00     0.198 A 
ATOM     62  C   UNL A   1      44.909  25.434  35.213  1.00  0.00     0.198 A 
ATOM     63  F   UNL A   1      42.640  25.543  34.601  1.00  0.00    -0.203 F 
ATOM     64  F   UNL A   1      47.641  27.729  34.577  1.00  0.00    -0.200 F 
ATOM     65  C   UNL A   1      46.183  25.983  35.210  1.00  0.00     0.200 A 
ATOM     66  F   UNL A   1      44.690  24.254  35.810  1.00  0.00    -0.200 F 
ATOM     67  F   UNL A   1      47.198  25.327  35.790  1.00  0.00    -0.200 F 
ENDBRANCH  43  57
BRANCH  44  68
ATOM     68  C   UNL A   1      36.450  31.826  29.392  1.00  0.00     0.064 A 
ATOM     69  C   UNL A   1      35.348  31.092  28.931  1.00  0.00     0.173 A 
ATOM     70  C   UNL A   1      36.451  33.211  29.173  1.00  0.00     0.173 A 
ATOM     71  F   UNL A   1      35.317  29.761  29.092  1.00  0.00    -0.203 F 
ATOM     72  C   UNL A   1      34.299  31.715  28.258  1.00  0.00     0.198 A 
ATOM     73  C   UNL A   1      35.391  33.836  28.521  1.00  0.00     0.198 A 
ATOM     74  F   UNL A   1      37.485  33.957  29.589  1.00  0.00    -0.203 F 
ATOM     75  F   UNL A   1      33.283  30.983  27.783  1.00  0.00    -0.200 F 
ATOM     76  C   UNL A   1      34.320  33.087  28.057  1.00  0.00     0.200 A 
ATOM     77  F   UNL A   1      35.411  35.162  28.333  1.00  0.00    -0.200 F 
ATOM     78  F   UNL A   1      33.314  33.684  27.405  1.00  0.00    -0.200 F 
ENDBRANCH  44  68
BRANCH  56  79
ATOM     79  C   UNL A   1      38.964  32.076  35.878  1.00  0.00     0.064 A 
ATOM     80  C   UNL A   1      39.334  33.418  36.047  1.00  0.00     0.173 A 
ATOM     81  C   UNL A   1      38.165  31.485  36.869  1.00  0.00     0.173 A 
ATOM     82  F   UNL A   1      40.107  34.025  35.134  1.00  0.00    -0.203 F 
ATOM     83  C   UNL A   1      38.941  34.132  37.176  1.00  0.00     0.198 A 
ATOM     84  C   UNL A   1      37.753  32.209  37.984  1.00  0.00     0.198 A 
ATOM     85  F   UNL A   1      37.778  30.206  36.752  1.00  0.00    -0.203 F 
ATOM     86  F   UNL A   1      39.344  35.401  37.339  1.00  0.00    -0.200 F 
ATOM     87  C   UNL A   1      38.147  33.529  38.141  1.00  0.00     0.200 A 
ATOM     88  F   UNL A   1      36.976  31.628  38.909  1.00  0.00    -0.200 F 
ATOM     89  F   UNL A   1      37.766  34.219  39.225  1.00  0.00    -0.200 F 
ENDBRANCH  56  79
ENDBRANCH  30  31
ENDBRANCH  23  25
ENDBRANCH  22  23
ENDBRANCH  21  22
ENDBRANCH  20  21
ENDBRANCH  19  20
ENDBRANCH  18  19
ENDBRANCH   1  18
TORSDOF 20
ENDMDL
MODEL 2
REMARK VINA RESULT:      -9.7      3.367      8.271
REMARK SMILES O=C(CSC(=S)N1CCCCC1)OCCOCCOCCOC(=O)c1ccc(-c2c3nc(c(-c4c(F)c(F)c(F)c(F)c4F)c4ccc([nH]4)c(-c4c(F)c(F)c(F)c(F)c4F)c4nc(c(-c5c(F)c(F)c(F)c(F)c5F)c5ccc2[nH]5)C=C4)C=C3)cc1
REMARK SMILES IDX 17 1 16 2 15 3 14 4 13 5 2 6 1 7 3 8 4 9 5 10 6 11 7 12 8 13
REMARK SMILES IDX 12 14 9 15 11 16 10 17 18 18 19 19 20 20 21 21 22 22 23 23
REMARK SMILES IDX 24 24 25 25 26 26 87 27 27 28 86 29 28 30 29 31 30 32 80 33
REMARK SMILES IDX 31 34 85 35 79 36 81 37 32 38 84 39 78 40 77 41 33 43 65 44
REMARK SMILES IDX 45 45 64 46 46 47 49 48 63 49 82 50 47 51 48 52 62 54 83 55
REMARK SMILES IDX 50 56 34 57 35 58 43 59 36 60 37 61 41 62 44 63 38 64 39 65
REMARK SMILES IDX 42 66 40 67 66 68 67 69 75 70 68 71 69 72 73 73 76 74 70 75
REMARK SMILES IDX 71 76 74 77 72 78 51 79 52 80 60 81 53 82 54 83 58 84 61 85
REMARK SMILES IDX 55 86 56 87 59 88 57 89
REMARK H PARENT 81 42 49 53
REMARK Flexibility Score: inf
ROOT
ATOM      1  C   UNL A   1      31.001  28.477  22.487  1.00  0.00     0.188 C 
ENDROOT
BRANCH   1   2
ATOM      2  O   UNL A   1      30.729  27.107  22.232  1.00  0.00    -0.376 OA
BRANCH   2   3
ATOM      3  C   UNL A   1      31.741  26.324  21.612  1.00  0.00     0.202 C 
BRANCH   3   4
ATOM      4  C   UNL A   1      32.887  25.832  22.499  1.00  0.00     0.261 C 
BRANCH   4   5
ATOM      5  O   UNL A   1      32.576  24.954  23.610  1.00  0.00    -0.463 OA
BRANCH   5   6
ATOM      6  C   UNL A   1      32.367  25.226  24.911  1.00  0.00     0.316 C 
ATOM      7  O   UNL A   1      32.860  26.249  25.388  1.00  0.00    -0.251 OA
BRANCH   6   8
ATOM      8  C   UNL A   1      31.608  24.269  25.792  1.00  0.00     0.199 C 
BRANCH   8   9
ATOM      9  S   UNL A   1      31.747  22.541  25.300  1.00  0.00    -0.085 SA
BRANCH   9  10
ATOM     10  C   UNL A   1      33.384  22.141  25.837  1.00  0.00     0.136 C 
ATOM     11  S   UNL A   1      33.928  22.422  27.402  1.00  0.00    -0.053 S 
BRANCH  10  12
ATOM     12  N   UNL A   1      34.174  21.617  24.813  1.00  0.00    -0.358 N 
ATOM     13  C   UNL A   1      35.252  20.659  25.072  1.00  0.00     0.118 C 
ATOM     14  C   UNL A   1      34.348  22.344  23.551  1.00  0.00     0.118 C 
ATOM     15  C   UNL A   1      36.603  21.369  25.155  1.00  0.00     0.021 C 
ATOM     16  C   UNL A   1      35.630  23.172  23.643  1.00  0.00     0.021 C 
ATOM     17  C   UNL A   1      36.840  22.284  23.950  1.00  0.00     0.004 C 
ENDBRANCH  10  12
ENDBRANCH   9  10
ENDBRANCH   8   9
ENDBRANCH   6   8
ENDBRANCH   5   6
ENDBRANCH   4   5
ENDBRANCH   3   4
ENDBRANCH   2   3
ENDBRANCH   1   2
BRANCH   1  18
ATOM     18  C   UNL A   1      31.020  28.823  23.981  1.00  0.00     0.188 C 
BRANCH  18  19
ATOM     19  O   UNL A   1      30.352  30.019  24.361  1.00  0.00    -0.376 OA
BRANCH  19  20
ATOM     20  C   UNL A   1      30.989  30.835  25.349  1.00  0.00     0.202 C 
BRANCH  20  21
ATOM     21  C   UNL A   1      32.349  30.350  25.878  1.00  0.00     0.261 C 
BRANCH  21  22
ATOM     22  O   UNL A   1      32.585  30.659  27.271  1.00  0.00    -0.460 OA
BRANCH  22  23
ATOM     23  C   UNL A   1      33.404  31.718  27.485  1.00  0.00     0.338 C 
ATOM     24  O   UNL A   1      33.087  32.891  27.581  1.00  0.00    -0.246 OA
BRANCH  23  25
ATOM     25  C   UNL A   1      34.802  31.297  27.699  1.00  0.00     0.060 A 
ATOM     26  C   UNL A   1      35.060  29.931  27.872  1.00  0.00     0.016 A 
ATOM     27  C   UNL A   1      35.780  32.247  28.003  1.00  0.00     0.016 A 
ATOM     28  C   UNL A   1      36.271  29.516  28.432  1.00  0.00     0.010 A 
ATOM     29  C   UNL A   1      36.991  31.828  28.569  1.00  0.00     0.010 A 
ATOM     30  C   UNL A   1      37.215  30.466  28.845  1.00  0.00    -0.014 A 
BRANCH  30  31
ATOM     31  C   UNL A   1      38.305  30.052  29.769  1.00  0.00     0.031 A 
ATOM     32  C   UNL A   1      39.341  29.072  29.274  1.00  0.00     0.074 A 
ATOM     33  C   UNL A   1      38.412  30.560  31.008  1.00  0.00     0.049 A 
ATOM     34  N   UNL A   1      40.392  28.587  29.888  1.00  0.00    -0.248 NA
ATOM     35  C   UNL A   1      39.167  28.574  27.900  1.00  0.00     0.031 C 
ATOM     36  C   UNL A   1      37.504  31.536  31.603  1.00  0.00     0.029 A 
ATOM     37  N   UNL A   1      39.345  30.320  31.989  1.00  0.00    -0.354 N 
ATOM     38  C   UNL A   1      41.000  27.730  28.979  1.00  0.00     0.074 A 
ATOM     39  C   UNL A   1      40.185  27.735  27.783  1.00  0.00     0.031 C 
ATOM     40  C   UNL A   1      37.921  31.811  32.852  1.00  0.00     0.029 A 
ATOM     41  C   UNL A   1      39.115  31.019  33.148  1.00  0.00     0.049 A 
ATOM     42  H   UNL A   1      40.103  29.705  31.872  1.00  0.00     0.167 HD
ATOM     43  C   UNL A   1      42.139  27.011  29.118  1.00  0.00     0.037 A 
ATOM     44  C   UNL A   1      39.791  31.016  34.314  1.00  0.00     0.037 A 
ATOM     45  C   UNL A   1      42.963  27.002  30.299  1.00  0.00     0.049 A 
ATOM     46  C   UNL A   1      41.032  30.171  34.461  1.00  0.00     0.074 A 
ATOM     47  C   UNL A   1      44.145  26.316  30.523  1.00  0.00     0.029 A 
ATOM     48  N   UNL A   1      42.685  27.710  31.457  1.00  0.00    -0.354 N 
ATOM     49  N   UNL A   1      41.618  29.395  33.582  1.00  0.00    -0.248 NA
ATOM     50  C   UNL A   1      41.709  30.212  35.766  1.00  0.00     0.031 C 
ATOM     51  C   UNL A   1      44.563  26.581  31.832  1.00  0.00     0.029 A 
ATOM     52  C   UNL A   1      43.664  27.464  32.406  1.00  0.00     0.049 A 
ATOM     53  H   UNL A   1      41.908  28.300  31.586  1.00  0.00     0.167 HD
ATOM     54  C   UNL A   1      42.749  28.891  34.212  1.00  0.00     0.074 A 
ATOM     55  C   UNL A   1      42.771  29.449  35.547  1.00  0.00     0.031 C 
ATOM     56  C   UNL A   1      43.689  28.043  33.724  1.00  0.00     0.037 A 
BRANCH  43  57
ATOM     57  C   UNL A   1      42.558  26.153  27.961  1.00  0.00     0.064 A 
ATOM     58  C   UNL A   1      42.054  24.855  27.790  1.00  0.00     0.173 A 
ATOM     59  C   UNL A   1      43.448  26.647  26.998  1.00  0.00     0.173 A 
ATOM     60  F   UNL A   1      41.209  24.334  28.693  1.00  0.00    -0.203 F 
ATOM     61  C   UNL A   1      42.448  24.073  26.707  1.00  0.00     0.198 A 
ATOM     62  C   UNL A   1      43.821  25.871  25.903  1.00  0.00     0.198 A 
ATOM     63  F   UNL A   1      43.954  27.885  27.114  1.00  0.00    -0.203 F 
ATOM     64  F   UNL A   1      41.988  22.820  26.585  1.00  0.00    -0.200 F 
ATOM     65  C   UNL A   1      43.326  24.584  25.763  1.00  0.00     0.200 A 
ATOM     66  F   UNL A   1      44.662  26.369  24.987  1.00  0.00    -0.200 F 
ATOM     67  F   UNL A   1      43.702  23.830  24.719  1.00  0.00    -0.200 F 
ENDBRANCH  43  57
BRANCH  44  68
ATOM     68  C   UNL A   1      39.323  31.856  35.445  1.00  0.00     0.064 A 
ATOM     69  C   UNL A   1      39.769  33.177  35.597  1.00  0.00     0.173 A 
ATOM     70  C   UNL A   1      38.450  31.345  36.416  1.00  0.00     0.173 A 
ATOM     71  F   UNL A   1      40.628  33.699  34.709  1.00  0.00    -0.203 F 
ATOM     72  C   UNL A   1      39.374  33.948  36.689  1.00  0.00     0.198 A 
ATOM     73  C   UNL A   1      38.038  32.124  37.493  1.00  0.00     0.198 A 
ATOM     74  F   UNL A   1      38.001  30.084  36.318  1.00  0.00    -0.203 F 
ATOM     75  F   UNL A   1      39.855  35.189  36.837  1.00  0.00    -0.200 F 
ATOM     76  C   UNL A   1      38.507  33.422  37.634  1.00  0.00     0.200 A 
ATOM     77  F   UNL A   1      37.195  31.615  38.402  1.00  0.00    -0.200 F 
ATOM     78  F   UNL A   1      38.132  34.162  38.686  1.00  0.00    -0.200 F 
ENDBRANCH  44  68
BRANCH  56  79
ATOM     79  C   UNL A   1      44.851  27.709  34.614  1.00  0.00     0.064 A 
ATOM     80  C   UNL A   1      46.007  28.502  34.647  1.00  0.00     0.173 A 
ATOM     81  C   UNL A   1      44.789  26.601  35.473  1.00  0.00     0.173 A 
ATOM     82  F   UNL A   1      46.120  29.565  33.838  1.00  0.00    -0.203 F 
ATOM     83  C   UNL A   1      47.070  28.183  35.490  1.00  0.00     0.198 A 
ATOM     84  C   UNL A   1      45.843  26.298  36.331  1.00  0.00     0.198 A 
ATOM     85  F   UNL A   1      43.703  25.814  35.484  1.00  0.00    -0.203 F 
ATOM     86  F   UNL A   1      48.184  28.929  35.473  1.00  0.00    -0.200 F 
ATOM     87  C   UNL A   1      46.985  27.085  36.333  1.00  0.00     0.200 A 
ATOM     88  F   UNL A   1      45.754  25.244  37.154  1.00  0.00    -0.200 F 
ATOM     89  F   UNL A   1      48.007  26.781  37.145  1.00  0.00    -0.200 F 
ENDBRANCH  56  79
ENDBRANCH  30  31
ENDBRANCH  23  25
ENDBRANCH  22  23
ENDBRANCH  21  22
ENDBRANCH  20  21
ENDBRANCH  19  20
ENDBRANCH  18  19
ENDBRANCH   1  18
TORSDOF 20
ENDMDL
MODEL 3
REMARK VINA RESULT:      -9.6      2.062      3.173
REMARK SMILES O=C(CSC(=S)N1CCCCC1)OCCOCCOCCOC(=O)c1ccc(-c2c3nc(c(-c4c(F)c(F)c(F)c(F)c4F)c4ccc([nH]4)c(-c4c(F)c(F)c(F)c(F)c4F)c4nc(c(-c5c(F)c(F)c(F)c(F)c5F)c5ccc2[nH]5)C=C4)C=C3)cc1
REMARK SMILES IDX 17 1 16 2 15 3 14 4 13 5 2 6 1 7 3 8 4 9 5 10 6 11 7 12 8 13
REMARK SMILES IDX 12 14 9 15 11 16 10 17 18 18 19 19 20 20 21 21 22 22 23 23
REMARK SMILES IDX 24 24 25 25 26 26 87 27 27 28 86 29 28 30 29 31 30 32 80 33
REMARK SMILES IDX 31 34 85 35 79 36 81 37 32 38 84 39 78 40 77 41 33 43 65 44
REMARK SMILES IDX 45 45 64 46 46 47 49 48 63 49 82 50 47 51 48 52 62 54 83 55
REMARK SMILES IDX 50 56 34 57 35 58 43 59 36 60 37 61 41 62 44 63 38 64 39 65
REMARK SMILES IDX 42 66 40 67 66 68 67 69 75 70 68 71 69 72 73 73 76 74 70 75
REMARK SMILES IDX 71 76 74 77 72 78 51 79 52 80 60 81 53 82 54 83 58 84 61 85
REMARK SMILES IDX 55 86 56 87 59 88 57 89
REMARK H PARENT 81 42 49 53
REMARK Flexibility Score: inf
ROOT
ATOM      1  C   UNL A   1      40.451  21.583  26.981  1.00  0.00     0.188 C 
ENDROOT
BRANCH   1   2
ATOM      2  O   UNL A   1      39.680  22.323  26.048  1.00  0.00    -0.376 OA
BRANCH   2   3
ATOM      3  C   UNL A   1      38.874  23.388  26.535  1.00  0.00     0.202 C 
BRANCH   3   4
ATOM      4  C   UNL A   1      37.356  23.225  26.421  1.00  0.00     0.261 C 
BRANCH   4   5
ATOM      5  O   UNL A   1      36.680  23.808  25.278  1.00  0.00    -0.463 OA
BRANCH   5   6
ATOM      6  C   UNL A   1      35.531  23.463  24.668  1.00  0.00     0.316 C 
ATOM      7  O   UNL A   1      34.558  24.209  24.775  1.00  0.00    -0.251 OA
BRANCH   6   8
ATOM      8  C   UNL A   1      35.408  22.158  23.928  1.00  0.00     0.199 C 
BRANCH   8   9
ATOM      9  S   UNL A   1      35.453  20.699  24.985  1.00  0.00    -0.085 SA
BRANCH   9  10
ATOM     10  C   UNL A   1      33.822  20.049  24.775  1.00  0.00     0.136 C 
ATOM     11  S   UNL A   1      32.446  20.824  25.349  1.00  0.00    -0.053 S 
BRANCH  10  12
ATOM     12  N   UNL A   1      33.814  18.811  24.128  1.00  0.00    -0.358 N 
ATOM     13  C   UNL A   1      32.574  18.079  23.858  1.00  0.00     0.118 C 
ATOM     14  C   UNL A   1      34.996  17.942  24.156  1.00  0.00     0.118 C 
ATOM     15  C   UNL A   1      32.320  17.025  24.935  1.00  0.00     0.021 C 
ATOM     16  C   UNL A   1      34.838  16.949  25.308  1.00  0.00     0.021 C 
ATOM     17  C   UNL A   1      33.546  16.137  25.164  1.00  0.00     0.004 C 
ENDBRANCH  10  12
ENDBRANCH   9  10
ENDBRANCH   8   9
ENDBRANCH   6   8
ENDBRANCH   5   6
ENDBRANCH   4   5
ENDBRANCH   3   4
ENDBRANCH   2   3
ENDBRANCH   1   2
BRANCH   1  18
ATOM     18  C   UNL A   1      41.237  20.432  26.340  1.00  0.00     0.188 C 
BRANCH  18  19
ATOM     19  O   UNL A   1      42.149  20.788  25.308  1.00  0.00    -0.376 OA
BRANCH  19  20
ATOM     20  C   UNL A   1      43.490  21.097  25.702  1.00  0.00     0.202 C 
BRANCH  20  21
ATOM     21  C   UNL A   1      44.205  22.208  24.917  1.00  0.00     0.261 C 
BRANCH  21  22
ATOM     22  O   UNL A   1      43.390  23.375  24.669  1.00  0.00    -0.460 OA
BRANCH  22  23
ATOM     23  C   UNL A   1      43.973  24.554  24.999  1.00  0.00     0.338 C 
ATOM     24  O   UNL A   1      45.108  24.915  24.742  1.00  0.00    -0.246 OA
BRANCH  23  25
ATOM     25  C   UNL A   1      43.025  25.470  25.662  1.00  0.00     0.060 A 
ATOM     26  C   UNL A   1      43.398  26.813  25.803  1.00  0.00     0.016 A 
ATOM     27  C   UNL A   1      41.937  24.959  26.371  1.00  0.00     0.016 A 
ATOM     28  C   UNL A   1      42.732  27.629  26.721  1.00  0.00     0.010 A 
ATOM     29  C   UNL A   1      41.274  25.778  27.295  1.00  0.00     0.010 A 
ATOM     30  C   UNL A   1      41.710  27.097  27.520  1.00  0.00    -0.014 A 
BRANCH  30  31
ATOM     31  C   UNL A   1      41.277  27.839  28.735  1.00  0.00     0.031 A 
ATOM     32  C   UNL A   1      42.080  27.685  30.003  1.00  0.00     0.074 A 
ATOM     33  C   UNL A   1      40.221  28.670  28.715  1.00  0.00     0.049 A 
ATOM     34  N   UNL A   1      41.910  28.249  31.172  1.00  0.00    -0.248 NA
ATOM     35  C   UNL A   1      43.232  26.771  29.940  1.00  0.00     0.031 C 
ATOM     36  C   UNL A   1      39.377  28.939  27.556  1.00  0.00     0.029 A 
ATOM     37  N   UNL A   1      39.683  29.446  29.715  1.00  0.00    -0.354 N 
ATOM     38  C   UNL A   1      42.928  27.759  31.982  1.00  0.00     0.074 A 
ATOM     39  C   UNL A   1      43.693  26.828  31.181  1.00  0.00     0.031 C 
ATOM     40  C   UNL A   1      38.421  29.818  27.908  1.00  0.00     0.029 A 
ATOM     41  C   UNL A   1      38.579  30.160  29.322  1.00  0.00     0.049 A 
ATOM     42  H   UNL A   1      40.055  29.485  30.625  1.00  0.00     0.167 HD
ATOM     43  C   UNL A   1      43.211  28.063  33.271  1.00  0.00     0.037 A 
ATOM     44  C   UNL A   1      37.785  30.992  30.025  1.00  0.00     0.037 A 
ATOM     45  C   UNL A   1      42.462  28.991  34.077  1.00  0.00     0.049 A 
ATOM     46  C   UNL A   1      38.093  31.278  31.474  1.00  0.00     0.074 A 
ATOM     47  C   UNL A   1      42.688  29.374  35.388  1.00  0.00     0.029 A 
ATOM     48  N   UNL A   1      41.340  29.680  33.646  1.00  0.00    -0.354 N 
ATOM     49  N   UNL A   1      39.080  30.840  32.216  1.00  0.00    -0.248 NA
ATOM     50  C   UNL A   1      37.176  32.187  32.178  1.00  0.00     0.031 C 
ATOM     51  C   UNL A   1      41.677  30.267  35.764  1.00  0.00     0.029 A 
ATOM     52  C   UNL A   1      40.850  30.472  34.672  1.00  0.00     0.049 A 
ATOM     53  H   UNL A   1      40.948  29.615  32.745  1.00  0.00     0.167 HD
ATOM     54  C   UNL A   1      38.927  31.448  33.456  1.00  0.00     0.074 A 
ATOM     55  C   UNL A   1      37.753  32.290  33.368  1.00  0.00     0.031 C 
ATOM     56  C   UNL A   1      39.694  31.324  34.567  1.00  0.00     0.037 A 
BRANCH  43  57
ATOM     57  C   UNL A   1      44.380  27.365  33.901  1.00  0.00     0.064 A 
ATOM     58  C   UNL A   1      44.237  26.124  34.539  1.00  0.00     0.173 A 
ATOM     59  C   UNL A   1      45.661  27.931  33.840  1.00  0.00     0.173 A 
ATOM     60  F   UNL A   1      43.028  25.549  34.634  1.00  0.00    -0.203 F 
ATOM     61  C   UNL A   1      45.333  25.487  35.115  1.00  0.00     0.198 A 
ATOM     62  C   UNL A   1      46.758  27.280  34.396  1.00  0.00     0.198 A 
ATOM     63  F   UNL A   1      45.850  29.115  33.237  1.00  0.00    -0.203 F 
ATOM     64  F   UNL A   1      45.168  24.322  35.756  1.00  0.00    -0.200 F 
ATOM     65  C   UNL A   1      46.593  26.062  35.038  1.00  0.00     0.200 A 
ATOM     66  F   UNL A   1      47.976  27.832  34.313  1.00  0.00    -0.200 F 
ATOM     67  F   UNL A   1      47.647  25.445  35.591  1.00  0.00    -0.200 F 
ENDBRANCH  43  57
BRANCH  44  68
ATOM     68  C   UNL A   1      36.619  31.635  29.370  1.00  0.00     0.064 A 
ATOM     69  C   UNL A   1      35.552  30.868  28.878  1.00  0.00     0.173 A 
ATOM     70  C   UNL A   1      36.563  33.024  29.189  1.00  0.00     0.173 A 
ATOM     71  F   UNL A   1      35.577  29.533  29.002  1.00  0.00    -0.203 F 
ATOM     72  C   UNL A   1      34.484  31.465  28.212  1.00  0.00     0.198 A 
ATOM     73  C   UNL A   1      35.483  33.621  28.544  1.00  0.00     0.198 A 
ATOM     74  F   UNL A   1      37.561  33.800  29.635  1.00  0.00    -0.203 F 
ATOM     75  F   UNL A   1      33.504  30.704  27.708  1.00  0.00    -0.200 F 
ATOM     76  C   UNL A   1      34.448  32.841  28.049  1.00  0.00     0.200 A 
ATOM     77  F   UNL A   1      35.449  34.953  28.393  1.00  0.00    -0.200 F 
ATOM     78  F   UNL A   1      33.423  33.414  27.405  1.00  0.00    -0.200 F 
ENDBRANCH  44  68
BRANCH  56  79
ATOM     79  C   UNL A   1      39.326  32.155  35.761  1.00  0.00     0.064 A 
ATOM     80  C   UNL A   1      39.849  33.442  35.955  1.00  0.00     0.173 A 
ATOM     81  C   UNL A   1      38.406  31.672  36.704  1.00  0.00     0.173 A 
ATOM     82  F   UNL A   1      40.741  33.945  35.088  1.00  0.00    -0.203 F 
ATOM     83  C   UNL A   1      39.486  34.203  37.063  1.00  0.00     0.198 A 
ATOM     84  C   UNL A   1      38.026  32.445  37.798  1.00  0.00     0.198 A 
ATOM     85  F   UNL A   1      37.871  30.450  36.562  1.00  0.00    -0.203 F 
ATOM     86  F   UNL A   1      40.033  35.413  37.252  1.00  0.00    -0.200 F 
ATOM     87  C   UNL A   1      38.571  33.706  37.980  1.00  0.00     0.200 A 
ATOM     88  F   UNL A   1      37.134  31.968  38.677  1.00  0.00    -0.200 F 
ATOM     89  F   UNL A   1      38.220  34.442  39.045  1.00  0.00    -0.200 F 
ENDBRANCH  56  79
ENDBRANCH  30  31
ENDBRANCH  23  25
ENDBRANCH  22  23
ENDBRANCH  21  22
ENDBRANCH  20  21
ENDBRANCH  19  20
ENDBRANCH  18  19
ENDBRANCH   1  18
TORSDOF 20
ENDMDL
