MODEL 1
REMARK VINA RESULT:     -12.7      0.000      0.000
REMARK SMILES O=C(OCCOCCOCCOC(=O)c1cc(-c2ccccc2)nc(Nc2nc3ccccc3s2)n1)c1ccc(-c2c3nc(c(-c4c(F)c(F)c(F)c(F)c4F)c4ccc([nH]4)c(-c4c(F)c(F)c(F)c(F)c4F)c4nc(c(-c5c(F)c(F)c(F)c(F)c5F)c5ccc2[nH]5)C=C4)C=C3)cc1
REMARK SMILES IDX 7 1 6 2 5 3 4 4 3 5 2 6 1 7 37 8 38 9 99 10 39 11 98 12
REMARK SMILES IDX 40 13 41 14 42 15 92 16 43 17 97 18 91 19 93 20 44 21 96 22
REMARK SMILES IDX 90 23 89 24 45 26 77 27 57 28 76 29 58 30 61 31 75 32 94 33
REMARK SMILES IDX 59 34 60 35 74 37 95 38 62 39 46 40 47 41 55 42 48 43 49 44
REMARK SMILES IDX 53 45 56 46 50 47 51 48 54 49 52 50 78 51 79 52 87 53 80 54
REMARK SMILES IDX 81 55 85 56 88 57 82 58 83 59 86 60 84 61 63 62 64 63 72 64
REMARK SMILES IDX 65 65 66 66 70 67 73 68 67 69 68 70 71 71 69 72 8 73 9 74
REMARK SMILES IDX 10 75 11 76 12 77 13 78 14 79 15 80 16 81 36 82 17 83 25 84
REMARK SMILES IDX 24 85 18 86 19 87 23 88 20 89 22 90 21 91 26 92 27 94 28 95
REMARK SMILES IDX 35 96 29 97 34 98 30 99 33 100 31 101 32 102
REMARK H PARENT 93 25 61 36 26 93
REMARK Flexibility Score: inf
ROOT
ATOM      1  C   UNL A   1      32.418  27.992  26.095  1.00  0.00     0.188 C 
ENDROOT
BRANCH   1   2
ATOM      2  O   UNL A   1      31.413  28.996  26.259  1.00  0.00    -0.376 OA
BRANCH   2   3
ATOM      3  C   UNL A   1      31.768  30.294  25.767  1.00  0.00     0.202 C 
BRANCH   3   4
ATOM      4  C   UNL A   1      31.848  31.405  26.823  1.00  0.00     0.261 C 
BRANCH   4   5
ATOM      5  O   UNL A   1      33.013  31.238  27.631  1.00  0.00    -0.460 OA
BRANCH   5   6
ATOM      6  C   UNL A   1      33.682  32.379  27.943  1.00  0.00     0.338 C 
ATOM      7  O   UNL A   1      33.193  33.482  28.097  1.00  0.00    -0.246 OA
BRANCH   6   8
ATOM      8  C   UNL A   1      35.110  32.007  28.066  1.00  0.00     0.060 A 
ATOM      9  C   UNL A   1      35.416  30.652  28.238  1.00  0.00     0.016 A 
ATOM     10  C   UNL A   1      36.129  32.963  28.085  1.00  0.00     0.016 A 
ATOM     11  C   UNL A   1      36.680  30.264  28.599  1.00  0.00     0.010 A 
ATOM     12  C   UNL A   1      37.430  32.568  28.419  1.00  0.00     0.010 A 
ATOM     13  C   UNL A   1      37.678  31.228  28.750  1.00  0.00    -0.014 A 
BRANCH  13  14
ATOM     14  C   UNL A   1      38.860  30.767  29.501  1.00  0.00     0.031 A 
ATOM     15  C   UNL A   1      38.932  31.100  30.965  1.00  0.00     0.074 A 
ATOM     16  C   UNL A   1      39.632  29.812  28.954  1.00  0.00     0.049 A 
ATOM     17  N   UNL A   1      39.746  30.646  31.882  1.00  0.00    -0.248 NA
ATOM     18  C   UNL A   1      37.925  32.047  31.478  1.00  0.00     0.031 C 
ATOM     19  C   UNL A   1      39.511  29.310  27.581  1.00  0.00     0.029 A 
ATOM     20  N   UNL A   1      40.600  29.028  29.513  1.00  0.00    -0.354 N 
ATOM     21  C   UNL A   1      39.362  31.264  33.066  1.00  0.00     0.074 A 
ATOM     22  C   UNL A   1      38.246  32.128  32.759  1.00  0.00     0.031 C 
ATOM     23  C   UNL A   1      40.337  28.261  27.424  1.00  0.00     0.029 A 
ATOM     24  C   UNL A   1      41.072  28.059  28.664  1.00  0.00     0.049 A 
ATOM     25  H   UNL A   1      40.928  29.146  30.434  1.00  0.00     0.167 HD
ATOM     26  C   UNL A   1      39.901  31.119  34.298  1.00  0.00     0.037 A 
ATOM     27  C   UNL A   1      42.010  27.124  28.880  1.00  0.00     0.037 A 
ATOM     28  C   UNL A   1      41.009  30.248  34.579  1.00  0.00     0.049 A 
ATOM     29  C   UNL A   1      42.678  27.081  30.221  1.00  0.00     0.074 A 
ATOM     30  C   UNL A   1      41.693  30.064  35.766  1.00  0.00     0.029 A 
ATOM     31  N   UNL A   1      41.593  29.406  33.641  1.00  0.00    -0.354 N 
ATOM     32  N   UNL A   1      42.397  27.753  31.310  1.00  0.00    -0.248 NA
ATOM     33  C   UNL A   1      43.814  26.162  30.348  1.00  0.00     0.031 C 
ATOM     34  C   UNL A   1      42.727  29.148  35.532  1.00  0.00     0.029 A 
ATOM     35  C   UNL A   1      42.649  28.720  34.215  1.00  0.00     0.049 A 
ATOM     36  H   UNL A   1      41.301  29.313  32.706  1.00  0.00     0.167 HD
ATOM     37  C   UNL A   1      43.322  27.344  32.254  1.00  0.00     0.074 A 
ATOM     38  C   UNL A   1      44.160  26.348  31.613  1.00  0.00     0.031 C 
ATOM     39  C   UNL A   1      43.473  27.754  33.537  1.00  0.00     0.037 A 
BRANCH  26  40
ATOM     40  C   UNL A   1      39.353  31.987  35.392  1.00  0.00     0.064 A 
ATOM     41  C   UNL A   1      39.704  33.339  35.524  1.00  0.00     0.173 A 
ATOM     42  C   UNL A   1      38.483  31.441  36.348  1.00  0.00     0.173 A 
ATOM     43  F   UNL A   1      40.553  33.906  34.653  1.00  0.00    -0.203 F 
ATOM     44  C   UNL A   1      39.232  34.101  36.592  1.00  0.00     0.198 A 
ATOM     45  C   UNL A   1      37.991  32.211  37.397  1.00  0.00     0.198 A 
ATOM     46  F   UNL A   1      38.118  30.152  36.270  1.00  0.00    -0.203 F 
ATOM     47  F   UNL A   1      39.628  35.374  36.734  1.00  0.00    -0.200 F 
ATOM     48  C   UNL A   1      38.374  33.538  37.525  1.00  0.00     0.200 A 
ATOM     49  F   UNL A   1      37.158  31.665  38.294  1.00  0.00    -0.200 F 
ATOM     50  F   UNL A   1      37.927  34.268  38.556  1.00  0.00    -0.200 F 
ENDBRANCH  26  40
BRANCH  27  51
ATOM     51  C   UNL A   1      42.454  26.221  27.796  1.00  0.00     0.064 A 
ATOM     52  C   UNL A   1      43.462  26.592  26.899  1.00  0.00     0.173 A 
ATOM     53  C   UNL A   1      41.784  25.011  27.576  1.00  0.00     0.173 A 
ATOM     54  F   UNL A   1      44.101  27.760  27.052  1.00  0.00    -0.203 F 
ATOM     55  C   UNL A   1      43.773  25.786  25.804  1.00  0.00     0.198 A 
ATOM     56  C   UNL A   1      42.088  24.214  26.477  1.00  0.00     0.198 A 
ATOM     57  F   UNL A   1      40.802  24.628  28.407  1.00  0.00    -0.203 F 
ATOM     58  F   UNL A   1      44.709  26.179  24.930  1.00  0.00    -0.200 F 
ATOM     59  C   UNL A   1      43.084  24.601  25.593  1.00  0.00     0.200 A 
ATOM     60  F   UNL A   1      41.396  23.089  26.255  1.00  0.00    -0.200 F 
ATOM     61  F   UNL A   1      43.359  23.843  24.523  1.00  0.00    -0.200 F 
ENDBRANCH  27  51
BRANCH  39  62
ATOM     62  C   UNL A   1      44.572  27.103  34.317  1.00  0.00     0.064 A 
ATOM     63  C   UNL A   1      45.858  27.658  34.374  1.00  0.00     0.173 A 
ATOM     64  C   UNL A   1      44.328  25.914  35.017  1.00  0.00     0.173 A 
ATOM     65  F   UNL A   1      46.141  28.781  33.696  1.00  0.00    -0.203 F 
ATOM     66  C   UNL A   1      46.873  27.024  35.083  1.00  0.00     0.198 A 
ATOM     67  C   UNL A   1      45.338  25.301  35.750  1.00  0.00     0.198 A 
ATOM     68  F   UNL A   1      43.113  25.348  34.987  1.00  0.00    -0.203 F 
ATOM     69  F   UNL A   1      48.112  27.537  35.078  1.00  0.00    -0.200 F 
ATOM     70  C   UNL A   1      46.611  25.852  35.775  1.00  0.00     0.200 A 
ATOM     71  F   UNL A   1      45.081  24.171  36.424  1.00  0.00    -0.200 F 
ATOM     72  F   UNL A   1      47.590  25.242  36.457  1.00  0.00    -0.200 F 
ENDBRANCH  39  62
ENDBRANCH  13  14
ENDBRANCH   6   8
ENDBRANCH   5   6
ENDBRANCH   4   5
ENDBRANCH   3   4
ENDBRANCH   2   3
ENDBRANCH   1   2
BRANCH   1  73
ATOM     73  C   UNL A   1      31.879  26.571  26.288  1.00  0.00     0.188 C 
BRANCH  73  74
ATOM     74  O   UNL A   1      30.496  26.449  26.625  1.00  0.00    -0.376 OA
BRANCH  74  75
ATOM     75  C   UNL A   1      29.831  25.239  26.286  1.00  0.00     0.202 C 
BRANCH  75  76
ATOM     76  C   UNL A   1      30.588  23.923  26.484  1.00  0.00     0.261 C 
BRANCH  76  77
ATOM     77  O   UNL A   1      31.751  24.018  27.319  1.00  0.00    -0.459 OA
BRANCH  77  78
ATOM     78  C   UNL A   1      32.474  22.874  27.382  1.00  0.00     0.357 C 
ATOM     79  O   UNL A   1      32.699  22.196  28.374  1.00  0.00    -0.244 OA
BRANCH  78  80
ATOM     80  C   UNL A   1      33.148  22.598  26.099  1.00  0.00     0.154 A 
ATOM     81  C   UNL A   1      33.481  21.281  25.923  1.00  0.00     0.065 A 
ATOM     82  N   UNL A   1      33.018  23.503  25.107  1.00  0.00    -0.206 NA
ATOM     83  C   UNL A   1      33.563  20.873  24.618  1.00  0.00     0.077 A 
ATOM     84  C   UNL A   1      33.205  23.043  23.865  1.00  0.00     0.230 A 
ATOM     85  N   UNL A   1      33.455  21.747  23.594  1.00  0.00    -0.213 NA
BRANCH  83  86
ATOM     86  C   UNL A   1      33.611  19.443  24.262  1.00  0.00     0.000 A 
ATOM     87  C   UNL A   1      34.689  18.628  24.639  1.00  0.00     0.010 A 
ATOM     88  C   UNL A   1      32.592  18.859  23.480  1.00  0.00     0.010 A 
ATOM     89  C   UNL A   1      34.742  17.287  24.250  1.00  0.00     0.001 A 
ATOM     90  C   UNL A   1      32.637  17.518  23.104  1.00  0.00     0.001 A 
ATOM     91  C   UNL A   1      33.716  16.732  23.489  1.00  0.00     0.000 A 
ENDBRANCH  83  86
BRANCH  84  92
ATOM     92  N   UNL A   1      32.954  23.825  22.744  1.00  0.00    -0.300 N 
ATOM     93  H   UNL A   1      33.251  23.469  21.875  1.00  0.00     0.172 HD
BRANCH  92  94
ATOM     94  C   UNL A   1      32.340  25.021  22.735  1.00  0.00     0.190 A 
ATOM     95  N   UNL A   1      31.071  25.233  22.997  1.00  0.00    -0.220 NA
ATOM     96  S   UNL A   1      33.269  26.451  22.472  1.00  0.00    -0.097 S 
ATOM     97  C   UNL A   1      30.781  26.586  22.943  1.00  0.00     0.084 A 
ATOM     98  C   UNL A   1      31.850  27.412  22.599  1.00  0.00     0.056 A 
ATOM     99  C   UNL A   1      29.528  27.181  23.192  1.00  0.00     0.030 A 
ATOM    100  C   UNL A   1      31.693  28.799  22.425  1.00  0.00     0.021 A 
ATOM    101  C   UNL A   1      29.359  28.559  23.032  1.00  0.00     0.002 A 
ATOM    102  C   UNL A   1      30.426  29.354  22.635  1.00  0.00     0.002 A 
ENDBRANCH  92  94
ENDBRANCH  84  92
ENDBRANCH  78  80
ENDBRANCH  77  78
ENDBRANCH  76  77
ENDBRANCH  75  76
ENDBRANCH  74  75
ENDBRANCH  73  74
ENDBRANCH   1  73
TORSDOF 20
ENDMDL
MODEL 2
REMARK VINA RESULT:     -12.2      0.788      7.018
REMARK SMILES O=C(OCCOCCOCCOC(=O)c1cc(-c2ccccc2)nc(Nc2nc3ccccc3s2)n1)c1ccc(-c2c3nc(c(-c4c(F)c(F)c(F)c(F)c4F)c4ccc([nH]4)c(-c4c(F)c(F)c(F)c(F)c4F)c4nc(c(-c5c(F)c(F)c(F)c(F)c5F)c5ccc2[nH]5)C=C4)C=C3)cc1
REMARK SMILES IDX 7 1 6 2 5 3 4 4 3 5 2 6 1 7 37 8 38 9 99 10 39 11 98 12
REMARK SMILES IDX 40 13 41 14 42 15 92 16 43 17 97 18 91 19 93 20 44 21 96 22
REMARK SMILES IDX 90 23 89 24 45 26 77 27 57 28 76 29 58 30 61 31 75 32 94 33
REMARK SMILES IDX 59 34 60 35 74 37 95 38 62 39 46 40 47 41 55 42 48 43 49 44
REMARK SMILES IDX 53 45 56 46 50 47 51 48 54 49 52 50 78 51 79 52 87 53 80 54
REMARK SMILES IDX 81 55 85 56 88 57 82 58 83 59 86 60 84 61 63 62 64 63 72 64
REMARK SMILES IDX 65 65 66 66 70 67 73 68 67 69 68 70 71 71 69 72 8 73 9 74
REMARK SMILES IDX 10 75 11 76 12 77 13 78 14 79 15 80 16 81 36 82 17 83 25 84
REMARK SMILES IDX 24 85 18 86 19 87 23 88 20 89 22 90 21 91 26 92 27 94 28 95
REMARK SMILES IDX 35 96 29 97 34 98 30 99 33 100 31 101 32 102
REMARK H PARENT 93 25 61 36 26 93
REMARK Flexibility Score: inf
ROOT
ATOM      1  C   UNL A   1      32.647  27.912  26.135  1.00  0.00     0.188 C 
ENDROOT
BRANCH   1   2
ATOM      2  O   UNL A   1      31.845  28.934  26.734  1.00  0.00    -0.376 OA
BRANCH   2   3
ATOM      3  C   UNL A   1      31.536  30.040  25.878  1.00  0.00     0.202 C 
BRANCH   3   4
ATOM      4  C   UNL A   1      31.725  31.432  26.497  1.00  0.00     0.261 C 
BRANCH   4   5
ATOM      5  O   UNL A   1      32.667  31.373  27.569  1.00  0.00    -0.460 OA
BRANCH   5   6
ATOM      6  C   UNL A   1      33.536  32.414  27.646  1.00  0.00     0.338 C 
ATOM      7  O   UNL A   1      33.275  33.588  27.461  1.00  0.00    -0.246 OA
BRANCH   6   8
ATOM      8  C   UNL A   1      34.852  31.836  28.007  1.00  0.00     0.060 A 
ATOM      9  C   UNL A   1      34.913  30.456  28.235  1.00  0.00     0.016 A 
ATOM     10  C   UNL A   1      35.987  32.628  28.190  1.00  0.00     0.016 A 
ATOM     11  C   UNL A   1      36.027  29.894  28.802  1.00  0.00     0.010 A 
ATOM     12  C   UNL A   1      37.140  32.053  28.738  1.00  0.00     0.010 A 
ATOM     13  C   UNL A   1      37.123  30.701  29.113  1.00  0.00    -0.014 A 
BRANCH  13  14
ATOM     14  C   UNL A   1      38.081  30.090  30.052  1.00  0.00     0.031 A 
ATOM     15  C   UNL A   1      39.191  29.258  29.475  1.00  0.00     0.074 A 
ATOM     16  C   UNL A   1      38.128  30.559  31.311  1.00  0.00     0.049 A 
ATOM     17  N   UNL A   1      40.265  28.789  30.054  1.00  0.00    -0.248 NA
ATOM     18  C   UNL A   1      39.102  28.941  28.038  1.00  0.00     0.031 C 
ATOM     19  C   UNL A   1      37.177  31.509  31.896  1.00  0.00     0.029 A 
ATOM     20  N   UNL A   1      39.065  30.378  32.288  1.00  0.00    -0.354 N 
ATOM     21  C   UNL A   1      40.962  28.110  29.062  1.00  0.00     0.074 A 
ATOM     22  C   UNL A   1      40.195  28.221  27.843  1.00  0.00     0.031 C 
ATOM     23  C   UNL A   1      37.613  31.871  33.115  1.00  0.00     0.029 A 
ATOM     24  C   UNL A   1      38.838  31.140  33.406  1.00  0.00     0.049 A 
ATOM     25  H   UNL A   1      39.828  29.762  32.200  1.00  0.00     0.167 HD
ATOM     26  C   UNL A   1      42.139  27.451  29.167  1.00  0.00     0.037 A 
ATOM     27  C   UNL A   1      39.549  31.216  34.541  1.00  0.00     0.037 A 
ATOM     28  C   UNL A   1      42.887  27.359  30.391  1.00  0.00     0.049 A 
ATOM     29  C   UNL A   1      40.779  30.369  34.670  1.00  0.00     0.074 A 
ATOM     30  C   UNL A   1      44.053  26.663  30.649  1.00  0.00     0.029 A 
ATOM     31  N   UNL A   1      42.527  27.996  31.571  1.00  0.00    -0.354 N 
ATOM     32  N   UNL A   1      41.373  29.627  33.768  1.00  0.00    -0.248 NA
ATOM     33  C   UNL A   1      41.418  30.353  35.990  1.00  0.00     0.031 C 
ATOM     34  C   UNL A   1      44.371  26.838  32.002  1.00  0.00     0.029 A 
ATOM     35  C   UNL A   1      43.434  27.689  32.570  1.00  0.00     0.049 A 
ATOM     36  H   UNL A   1      41.742  28.579  31.682  1.00  0.00     0.167 HD
ATOM     37  C   UNL A   1      42.456  29.050  34.408  1.00  0.00     0.074 A 
ATOM     38  C   UNL A   1      42.448  29.548  35.771  1.00  0.00     0.031 C 
ATOM     39  C   UNL A   1      43.377  28.185  33.920  1.00  0.00     0.037 A 
BRANCH  26  40
ATOM     40  C   UNL A   1      42.623  26.714  27.953  1.00  0.00     0.064 A 
ATOM     41  C   UNL A   1      43.499  27.293  27.023  1.00  0.00     0.173 A 
ATOM     42  C   UNL A   1      42.169  25.411  27.700  1.00  0.00     0.173 A 
ATOM     43  F   UNL A   1      43.943  28.547  27.202  1.00  0.00    -0.203 F 
ATOM     44  C   UNL A   1      43.875  26.607  25.869  1.00  0.00     0.198 A 
ATOM     45  C   UNL A   1      42.568  24.718  26.561  1.00  0.00     0.198 A 
ATOM     46  F   UNL A   1      41.326  24.812  28.555  1.00  0.00    -0.203 F 
ATOM     47  F   UNL A   1      44.665  27.202  24.963  1.00  0.00    -0.200 F 
ATOM     48  C   UNL A   1      43.412  25.320  25.640  1.00  0.00     0.200 A 
ATOM     49  F   UNL A   1      42.122  23.472  26.346  1.00  0.00    -0.200 F 
ATOM     50  F   UNL A   1      43.766  24.665  24.527  1.00  0.00    -0.200 F 
ENDBRANCH  26  40
BRANCH  27  51
ATOM     51  C   UNL A   1      39.084  32.033  35.683  1.00  0.00     0.064 A 
ATOM     52  C   UNL A   1      39.529  33.345  35.876  1.00  0.00     0.173 A 
ATOM     53  C   UNL A   1      38.269  31.458  36.667  1.00  0.00     0.173 A 
ATOM     54  F   UNL A   1      40.342  33.917  34.977  1.00  0.00    -0.203 F 
ATOM     55  C   UNL A   1      39.187  34.051  37.028  1.00  0.00     0.198 A 
ATOM     56  C   UNL A   1      37.938  32.161  37.821  1.00  0.00     0.198 A 
ATOM     57  F   UNL A   1      37.834  30.197  36.525  1.00  0.00    -0.203 F 
ATOM     58  F   UNL A   1      39.661  35.290  37.218  1.00  0.00    -0.200 F 
ATOM     59  C   UNL A   1      38.395  33.458  38.000  1.00  0.00     0.200 A 
ATOM     60  F   UNL A   1      37.204  31.572  38.774  1.00  0.00    -0.200 F 
ATOM     61  F   UNL A   1      38.094  34.124  39.123  1.00  0.00    -0.200 F 
ENDBRANCH  27  51
BRANCH  39  62
ATOM     62  C   UNL A   1      44.449  27.750  34.870  1.00  0.00     0.064 A 
ATOM     63  C   UNL A   1      44.348  26.550  35.589  1.00  0.00     0.173 A 
ATOM     64  C   UNL A   1      45.589  28.543  35.055  1.00  0.00     0.173 A 
ATOM     65  F   UNL A   1      43.261  25.775  35.460  1.00  0.00    -0.203 F 
ATOM     66  C   UNL A   1      45.342  26.175  36.486  1.00  0.00     0.198 A 
ATOM     67  C   UNL A   1      46.595  28.149  35.931  1.00  0.00     0.198 A 
ATOM     68  F   UNL A   1      45.724  29.699  34.390  1.00  0.00    -0.203 F 
ATOM     69  F   UNL A   1      45.201  25.055  37.209  1.00  0.00    -0.200 F 
ATOM     70  C   UNL A   1      46.466  26.971  36.651  1.00  0.00     0.200 A 
ATOM     71  F   UNL A   1      47.683  28.915  36.084  1.00  0.00    -0.200 F 
ATOM     72  F   UNL A   1      47.422  26.608  37.517  1.00  0.00    -0.200 F 
ENDBRANCH  39  62
ENDBRANCH  13  14
ENDBRANCH   6   8
ENDBRANCH   5   6
ENDBRANCH   4   5
ENDBRANCH   3   4
ENDBRANCH   2   3
ENDBRANCH   1   2
BRANCH   1  73
ATOM     73  C   UNL A   1      32.020  26.519  26.249  1.00  0.00     0.188 C 
BRANCH  73  74
ATOM     74  O   UNL A   1      30.609  26.465  26.462  1.00  0.00    -0.376 OA
BRANCH  74  75
ATOM     75  C   UNL A   1      29.949  25.223  26.246  1.00  0.00     0.202 C 
BRANCH  75  76
ATOM     76  C   UNL A   1      30.772  23.939  26.385  1.00  0.00     0.261 C 
BRANCH  76  77
ATOM     77  O   UNL A   1      31.857  24.019  27.320  1.00  0.00    -0.459 OA
BRANCH  77  78
ATOM     78  C   UNL A   1      32.530  22.853  27.478  1.00  0.00     0.357 C 
ATOM     79  O   UNL A   1      32.595  22.168  28.489  1.00  0.00    -0.244 OA
BRANCH  78  80
ATOM     80  C   UNL A   1      33.366  22.557  26.299  1.00  0.00     0.154 A 
ATOM     81  C   UNL A   1      33.537  21.218  26.066  1.00  0.00     0.065 A 
ATOM     82  N   UNL A   1      33.534  23.530  25.380  1.00  0.00    -0.206 NA
ATOM     83  C   UNL A   1      33.782  20.883  24.761  1.00  0.00     0.077 A 
ATOM     84  C   UNL A   1      33.863  23.124  24.149  1.00  0.00     0.230 A 
ATOM     85  N   UNL A   1      33.972  21.825  23.811  1.00  0.00    -0.213 NA
BRANCH  83  86
ATOM     86  C   UNL A   1      33.688  19.488  24.296  1.00  0.00     0.000 A 
ATOM     87  C   UNL A   1      32.575  19.025  23.578  1.00  0.00     0.010 A 
ATOM     88  C   UNL A   1      34.700  18.554  24.605  1.00  0.00     0.010 A 
ATOM     89  C   UNL A   1      32.480  17.687  23.188  1.00  0.00     0.001 A 
ATOM     90  C   UNL A   1      34.613  17.222  24.204  1.00  0.00     0.001 A 
ATOM     91  C   UNL A   1      33.499  16.788  23.496  1.00  0.00     0.000 A 
ENDBRANCH  83  86
BRANCH  84  92
ATOM     92  N   UNL A   1      33.918  24.003  23.073  1.00  0.00    -0.300 N 
ATOM     93  H   UNL A   1      34.541  23.779  22.345  1.00  0.00     0.172 HD
BRANCH  92  94
ATOM     94  C   UNL A   1      33.197  25.129  22.935  1.00  0.00     0.190 A 
ATOM     95  N   UNL A   1      33.683  26.347  22.864  1.00  0.00    -0.220 NA
ATOM     96  S   UNL A   1      31.488  25.022  22.715  1.00  0.00    -0.097 S 
ATOM     97  C   UNL A   1      32.666  27.268  22.677  1.00  0.00     0.084 A 
ATOM     98  C   UNL A   1      31.378  26.735  22.639  1.00  0.00     0.056 A 
ATOM     99  C   UNL A   1      32.819  28.661  22.534  1.00  0.00     0.030 A 
ATOM    100  C   UNL A   1      30.238  27.553  22.536  1.00  0.00     0.021 A 
ATOM    101  C   UNL A   1      31.696  29.486  22.422  1.00  0.00     0.002 A 
ATOM    102  C   UNL A   1      30.420  28.937  22.442  1.00  0.00     0.002 A 
ENDBRANCH  92  94
ENDBRANCH  84  92
ENDBRANCH  78  80
ENDBRANCH  77  78
ENDBRANCH  76  77
ENDBRANCH  75  76
ENDBRANCH  74  75
ENDBRANCH  73  74
ENDBRANCH   1  73
TORSDOF 20
ENDMDL
MODEL 3
REMARK VINA RESULT:     -12.2      0.957      7.121
REMARK SMILES O=C(OCCOCCOCCOC(=O)c1cc(-c2ccccc2)nc(Nc2nc3ccccc3s2)n1)c1ccc(-c2c3nc(c(-c4c(F)c(F)c(F)c(F)c4F)c4ccc([nH]4)c(-c4c(F)c(F)c(F)c(F)c4F)c4nc(c(-c5c(F)c(F)c(F)c(F)c5F)c5ccc2[nH]5)C=C4)C=C3)cc1
REMARK SMILES IDX 7 1 6 2 5 3 4 4 3 5 2 6 1 7 37 8 38 9 99 10 39 11 98 12
REMARK SMILES IDX 40 13 41 14 42 15 92 16 43 17 97 18 91 19 93 20 44 21 96 22
REMARK SMILES IDX 90 23 89 24 45 26 77 27 57 28 76 29 58 30 61 31 75 32 94 33
REMARK SMILES IDX 59 34 60 35 74 37 95 38 62 39 46 40 47 41 55 42 48 43 49 44
REMARK SMILES IDX 53 45 56 46 50 47 51 48 54 49 52 50 78 51 79 52 87 53 80 54
REMARK SMILES IDX 81 55 85 56 88 57 82 58 83 59 86 60 84 61 63 62 64 63 72 64
REMARK SMILES IDX 65 65 66 66 70 67 73 68 67 69 68 70 71 71 69 72 8 73 9 74
REMARK SMILES IDX 10 75 11 76 12 77 13 78 14 79 15 80 16 81 36 82 17 83 25 84
REMARK SMILES IDX 24 85 18 86 19 87 23 88 20 89 22 90 21 91 26 92 27 94 28 95
REMARK SMILES IDX 35 96 29 97 34 98 30 99 33 100 31 101 32 102
REMARK H PARENT 93 25 61 36 26 93
REMARK Flexibility Score: inf
ROOT
ATOM      1  C   UNL A   1      32.570  27.362  26.760  1.00  0.00     0.188 C 
ENDROOT
BRANCH   1   2
ATOM      2  O   UNL A   1      31.738  28.515  26.907  1.00  0.00    -0.376 OA
BRANCH   2   3
ATOM      3  C   UNL A   1      31.870  29.492  25.867  1.00  0.00     0.202 C 
BRANCH   3   4
ATOM      4  C   UNL A   1      32.068  30.940  26.338  1.00  0.00     0.261 C 
BRANCH   4   5
ATOM      5  O   UNL A   1      32.853  30.969  27.531  1.00  0.00    -0.460 OA
BRANCH   5   6
ATOM      6  C   UNL A   1      33.698  32.026  27.653  1.00  0.00     0.338 C 
ATOM      7  O   UNL A   1      33.411  33.200  27.511  1.00  0.00    -0.246 OA
BRANCH   6   8
ATOM      8  C   UNL A   1      35.024  31.465  28.000  1.00  0.00     0.060 A 
ATOM      9  C   UNL A   1      35.119  30.078  28.166  1.00  0.00     0.016 A 
ATOM     10  C   UNL A   1      36.139  32.275  28.228  1.00  0.00     0.016 A 
ATOM     11  C   UNL A   1      36.241  29.518  28.719  1.00  0.00     0.010 A 
ATOM     12  C   UNL A   1      37.301  31.704  28.760  1.00  0.00     0.010 A 
ATOM     13  C   UNL A   1      37.314  30.337  29.075  1.00  0.00    -0.014 A 
BRANCH  13  14
ATOM     14  C   UNL A   1      38.279  29.709  29.994  1.00  0.00     0.031 A 
ATOM     15  C   UNL A   1      39.340  28.826  29.398  1.00  0.00     0.074 A 
ATOM     16  C   UNL A   1      38.384  30.198  31.242  1.00  0.00     0.049 A 
ATOM     17  N   UNL A   1      40.415  28.329  29.952  1.00  0.00    -0.248 NA
ATOM     18  C   UNL A   1      39.194  28.488  27.971  1.00  0.00     0.031 C 
ATOM     19  C   UNL A   1      37.486  31.192  31.840  1.00  0.00     0.029 A 
ATOM     20  N   UNL A   1      39.345  30.000  32.193  1.00  0.00    -0.354 N 
ATOM     21  C   UNL A   1      41.055  27.608  28.951  1.00  0.00     0.074 A 
ATOM     22  C   UNL A   1      40.254  27.725  27.755  1.00  0.00     0.031 C 
ATOM     23  C   UNL A   1      37.974  31.558  33.037  1.00  0.00     0.029 A 
ATOM     24  C   UNL A   1      39.181  30.789  33.303  1.00  0.00     0.049 A 
ATOM     25  H   UNL A   1      40.082  29.355  32.092  1.00  0.00     0.167 HD
ATOM     26  C   UNL A   1      42.210  26.908  29.032  1.00  0.00     0.037 A 
ATOM     27  C   UNL A   1      39.931  30.858  34.414  1.00  0.00     0.037 A 
ATOM     28  C   UNL A   1      42.993  26.811  30.232  1.00  0.00     0.049 A 
ATOM     29  C   UNL A   1      41.133  29.970  34.519  1.00  0.00     0.074 A 
ATOM     30  C   UNL A   1      44.141  26.078  30.467  1.00  0.00     0.029 A 
ATOM     31  N   UNL A   1      42.694  27.481  31.411  1.00  0.00    -0.354 N 
ATOM     32  N   UNL A   1      41.671  29.191  33.613  1.00  0.00    -0.248 NA
ATOM     33  C   UNL A   1      41.814  29.954  35.818  1.00  0.00     0.031 C 
ATOM     34  C   UNL A   1      44.508  26.265  31.805  1.00  0.00     0.029 A 
ATOM     35  C   UNL A   1      43.621  27.159  32.387  1.00  0.00     0.049 A 
ATOM     36  H   UNL A   1      41.935  28.095  31.536  1.00  0.00     0.167 HD
ATOM     37  C   UNL A   1      42.753  28.587  34.229  1.00  0.00     0.074 A 
ATOM     38  C   UNL A   1      42.806  29.108  35.582  1.00  0.00     0.031 C 
ATOM     39  C   UNL A   1      43.626  27.680  33.729  1.00  0.00     0.037 A 
BRANCH  26  40
ATOM     40  C   UNL A   1      42.628  26.134  27.817  1.00  0.00     0.064 A 
ATOM     41  C   UNL A   1      42.130  24.853  27.535  1.00  0.00     0.173 A 
ATOM     42  C   UNL A   1      43.575  26.676  26.935  1.00  0.00     0.173 A 
ATOM     43  F   UNL A   1      41.242  24.276  28.359  1.00  0.00    -0.203 F 
ATOM     44  C   UNL A   1      42.591  24.131  26.435  1.00  0.00     0.198 A 
ATOM     45  C   UNL A   1      44.013  25.964  25.821  1.00  0.00     0.198 A 
ATOM     46  F   UNL A   1      44.087  27.895  27.160  1.00  0.00    -0.203 F 
ATOM     47  F   UNL A   1      42.147  22.884  26.218  1.00  0.00    -0.200 F 
ATOM     48  C   UNL A   1      43.529  24.687  25.578  1.00  0.00     0.200 A 
ATOM     49  F   UNL A   1      44.916  26.507  24.993  1.00  0.00    -0.200 F 
ATOM     50  F   UNL A   1      43.978  23.990  24.526  1.00  0.00    -0.200 F 
ENDBRANCH  26  40
BRANCH  27  51
ATOM     51  C   UNL A   1      39.532  31.712  35.554  1.00  0.00     0.064 A 
ATOM     52  C   UNL A   1      38.570  31.295  36.481  1.00  0.00     0.173 A 
ATOM     53  C   UNL A   1      40.033  33.015  35.660  1.00  0.00     0.173 A 
ATOM     54  F   UNL A   1      38.037  30.068  36.390  1.00  0.00    -0.203 F 
ATOM     55  C   UNL A   1      38.109  32.164  37.469  1.00  0.00     0.198 A 
ATOM     56  C   UNL A   1      39.564  33.884  36.640  1.00  0.00     0.198 A 
ATOM     57  F   UNL A   1      40.946  33.456  34.782  1.00  0.00    -0.203 F 
ATOM     58  F   UNL A   1      37.154  31.763  38.319  1.00  0.00    -0.200 F 
ATOM     59  C   UNL A   1      38.604  33.458  37.545  1.00  0.00     0.200 A 
ATOM     60  F   UNL A   1      40.016  35.144  36.687  1.00  0.00    -0.200 F 
ATOM     61  F   UNL A   1      38.136  34.304  38.473  1.00  0.00    -0.200 F 
ENDBRANCH  27  51
BRANCH  39  62
ATOM     62  C   UNL A   1      44.711  27.223  34.652  1.00  0.00     0.064 A 
ATOM     63  C   UNL A   1      45.925  27.918  34.757  1.00  0.00     0.173 A 
ATOM     64  C   UNL A   1      44.529  26.080  35.441  1.00  0.00     0.173 A 
ATOM     65  F   UNL A   1      46.151  29.002  33.999  1.00  0.00    -0.203 F 
ATOM     66  C   UNL A   1      46.932  27.463  35.601  1.00  0.00     0.198 A 
ATOM     67  C   UNL A   1      45.527  25.646  36.307  1.00  0.00     0.198 A 
ATOM     68  F   UNL A   1      43.385  25.384  35.370  1.00  0.00    -0.203 F 
ATOM     69  F   UNL A   1      48.108  28.105  35.644  1.00  0.00    -0.200 F 
ATOM     70  C   UNL A   1      46.730  26.333  36.378  1.00  0.00     0.200 A 
ATOM     71  F   UNL A   1      45.328  24.558  37.063  1.00  0.00    -0.200 F 
ATOM     72  F   UNL A   1      47.702  25.896  37.190  1.00  0.00    -0.200 F 
ENDBRANCH  39  62
ENDBRANCH  13  14
ENDBRANCH   6   8
ENDBRANCH   5   6
ENDBRANCH   4   5
ENDBRANCH   3   4
ENDBRANCH   2   3
ENDBRANCH   1   2
BRANCH   1  73
ATOM     73  C   UNL A   1      31.772  26.076  26.522  1.00  0.00     0.188 C 
BRANCH  73  74
ATOM     74  O   UNL A   1      32.518  24.860  26.455  1.00  0.00    -0.376 OA
BRANCH  74  75
ATOM     75  C   UNL A   1      31.925  23.684  26.992  1.00  0.00     0.202 C 
BRANCH  75  76
ATOM     76  C   UNL A   1      32.750  22.394  26.981  1.00  0.00     0.261 C 
BRANCH  76  77
ATOM     77  O   UNL A   1      34.095  22.537  27.459  1.00  0.00    -0.459 OA
BRANCH  77  78
ATOM     78  C   UNL A   1      35.003  22.765  26.479  1.00  0.00     0.357 C 
ATOM     79  O   UNL A   1      35.948  23.540  26.512  1.00  0.00    -0.244 OA
BRANCH  78  80
ATOM     80  C   UNL A   1      34.624  22.077  25.231  1.00  0.00     0.154 A 
ATOM     81  C   UNL A   1      34.672  20.711  25.316  1.00  0.00     0.065 A 
ATOM     82  N   UNL A   1      33.916  22.770  24.314  1.00  0.00    -0.206 NA
ATOM     83  C   UNL A   1      33.833  20.045  24.463  1.00  0.00     0.077 A 
ATOM     84  C   UNL A   1      33.194  22.041  23.457  1.00  0.00     0.230 A 
ATOM     85  N   UNL A   1      33.119  20.698  23.519  1.00  0.00    -0.213 NA
BRANCH  83  86
ATOM     86  C   UNL A   1      33.544  18.611  24.633  1.00  0.00     0.000 A 
ATOM     87  C   UNL A   1      32.802  18.135  25.725  1.00  0.00     0.010 A 
ATOM     88  C   UNL A   1      34.052  17.658  23.725  1.00  0.00     0.010 A 
ATOM     89  C   UNL A   1      32.578  16.767  25.899  1.00  0.00     0.001 A 
ATOM     90  C   UNL A   1      33.817  16.293  23.889  1.00  0.00     0.001 A 
ATOM     91  C   UNL A   1      33.081  15.849  24.979  1.00  0.00     0.000 A 
ENDBRANCH  83  86
BRANCH  84  92
ATOM     92  N   UNL A   1      32.303  22.624  22.563  1.00  0.00    -0.300 N 
ATOM     93  H   UNL A   1      32.070  22.103  21.761  1.00  0.00     0.172 HD
BRANCH  92  94
ATOM     94  C   UNL A   1      31.729  23.833  22.693  1.00  0.00     0.190 A 
ATOM     95  N   UNL A   1      30.630  24.091  23.364  1.00  0.00    -0.220 NA
ATOM     96  S   UNL A   1      32.515  25.222  22.037  1.00  0.00    -0.097 S 
ATOM     97  C   UNL A   1      30.345  25.446  23.330  1.00  0.00     0.084 A 
ATOM     98  C   UNL A   1      31.232  26.224  22.588  1.00  0.00     0.056 A 
ATOM     99  C   UNL A   1      29.258  26.085  23.959  1.00  0.00     0.030 A 
ATOM    100  C   UNL A   1      31.030  27.603  22.394  1.00  0.00     0.021 A 
ATOM    101  C   UNL A   1      29.049  27.456  23.784  1.00  0.00     0.002 A 
ATOM    102  C   UNL A   1      29.916  28.200  22.993  1.00  0.00     0.002 A 
ENDBRANCH  92  94
ENDBRANCH  84  92
ENDBRANCH  78  80
ENDBRANCH  77  78
ENDBRANCH  76  77
ENDBRANCH  75  76
ENDBRANCH  74  75
ENDBRANCH  73  74
ENDBRANCH   1  73
TORSDOF 20
ENDMDL
