MODEL 1
REMARK VINA RESULT:      -9.1      0.000      0.000
REMARK SMILES C[C@@H](Cc1ccco1)C(=O)OCCOCCOCCOC(=O)c1ccc(-c2c3nc(c(-c4c(F)c(F)c(F)c(F)c4F)c4ccc([nH]4)c(-c4c(F)c(F)c(F)c(F)c4F)c4nc(c(-c5c(F)c(F)c(F)c(F)c5F)c5ccc2[nH]5)C=C4)C=C3)cc1
REMARK SMILES IDX 15 1 14 2 13 3 12 4 11 5 9 6 10 7 2 8 1 9 3 10 4 11 5 12
REMARK SMILES IDX 8 13 6 14 7 15 16 16 17 17 18 18 19 19 20 20 21 21 22 22
REMARK SMILES IDX 23 23 24 24 85 25 25 26 84 27 26 28 27 29 28 30 78 31 29 32
REMARK SMILES IDX 83 33 77 34 79 35 30 36 82 37 76 38 75 39 31 41 63 42 43 43
REMARK SMILES IDX 62 44 44 45 47 46 61 47 80 48 45 49 46 50 60 52 81 53 48 54
REMARK SMILES IDX 32 55 33 56 41 57 34 58 35 59 39 60 42 61 36 62 37 63 40 64
REMARK SMILES IDX 38 65 64 66 65 67 73 68 66 69 67 70 71 71 74 72 68 73 69 74
REMARK SMILES IDX 72 75 70 76 49 77 50 78 58 79 51 80 52 81 56 82 59 83 53 84
REMARK SMILES IDX 54 85 57 86 55 87
REMARK H PARENT 79 40 47 51
REMARK Flexibility Score: inf
ROOT
ATOM      1  C   UNL A   1      32.869  36.024  30.053  1.00  0.00     0.188 C 
ENDROOT
BRANCH   1   2
ATOM      2  O   UNL A   1      33.643  35.725  31.207  1.00  0.00    -0.376 OA
BRANCH   2   3
ATOM      3  C   UNL A   1      33.506  36.545  32.362  1.00  0.00     0.202 C 
BRANCH   3   4
ATOM      4  C   UNL A   1      34.303  36.186  33.627  1.00  0.00     0.261 C 
BRANCH   4   5
ATOM      5  O   UNL A   1      35.523  35.433  33.433  1.00  0.00    -0.463 OA
BRANCH   5   6
ATOM      6  C   UNL A   1      35.432  34.079  33.507  1.00  0.00     0.309 C 
ATOM      7  O   UNL A   1      34.705  33.484  34.298  1.00  0.00    -0.252 OA
BRANCH   6   8
ATOM      8  C   UNL A   1      36.383  33.317  32.582  1.00  0.00     0.103 C 
ATOM      9  C   UNL A   1      37.658  34.009  32.093  1.00  0.00     0.020 C 
BRANCH   8  10
ATOM     10  C   UNL A   1      36.692  31.962  33.230  1.00  0.00     0.090 C 
BRANCH  10  11
ATOM     11  C   UNL A   1      37.745  32.082  34.272  1.00  0.00     0.104 A 
ATOM     12  C   UNL A   1      39.121  32.131  34.227  1.00  0.00     0.045 A 
ATOM     13  O   UNL A   1      37.319  32.059  35.566  1.00  0.00    -0.469 OA
ATOM     14  C   UNL A   1      39.565  32.079  35.568  1.00  0.00     0.042 A 
ATOM     15  C   UNL A   1      38.430  32.055  36.345  1.00  0.00     0.195 A 
ENDBRANCH  10  11
ENDBRANCH   8  10
ENDBRANCH   6   8
ENDBRANCH   5   6
ENDBRANCH   4   5
ENDBRANCH   3   4
ENDBRANCH   2   3
ENDBRANCH   1   2
BRANCH   1  16
ATOM     16  C   UNL A   1      33.565  36.638  28.827  1.00  0.00     0.188 C 
BRANCH  16  17
ATOM     17  O   UNL A   1      34.439  35.766  28.149  1.00  0.00    -0.376 OA
BRANCH  17  18
ATOM     18  C   UNL A   1      34.075  34.402  28.057  1.00  0.00     0.202 C 
BRANCH  18  19
ATOM     19  C   UNL A   1      35.147  33.336  28.339  1.00  0.00     0.261 C 
BRANCH  19  20
ATOM     20  O   UNL A   1      34.711  32.138  29.005  1.00  0.00    -0.460 OA
BRANCH  20  21
ATOM     21  C   UNL A   1      34.702  30.989  28.291  1.00  0.00     0.338 C 
ATOM     22  O   UNL A   1      33.879  30.647  27.458  1.00  0.00    -0.246 OA
BRANCH  21  23
ATOM     23  C   UNL A   1      36.005  30.318  28.516  1.00  0.00     0.060 A 
ATOM     24  C   UNL A   1      36.237  29.662  29.734  1.00  0.00     0.016 A 
ATOM     25  C   UNL A   1      36.978  30.300  27.515  1.00  0.00     0.016 A 
ATOM     26  C   UNL A   1      37.450  29.006  29.962  1.00  0.00     0.010 A 
ATOM     27  C   UNL A   1      38.201  29.667  27.753  1.00  0.00     0.010 A 
ATOM     28  C   UNL A   1      38.456  29.041  28.987  1.00  0.00    -0.014 A 
BRANCH  28  29
ATOM     29  C   UNL A   1      39.839  28.615  29.322  1.00  0.00     0.031 A 
ATOM     30  C   UNL A   1      40.680  29.540  30.160  1.00  0.00     0.074 A 
ATOM     31  C   UNL A   1      40.348  27.446  28.897  1.00  0.00     0.049 A 
ATOM     32  N   UNL A   1      41.939  29.445  30.502  1.00  0.00    -0.248 NA
ATOM     33  C   UNL A   1      40.003  30.740  30.677  1.00  0.00     0.031 C 
ATOM     34  C   UNL A   1      39.627  26.440  28.122  1.00  0.00     0.029 A 
ATOM     35  N   UNL A   1      41.608  26.918  29.047  1.00  0.00    -0.354 N 
ATOM     36  C   UNL A   1      42.207  30.577  31.261  1.00  0.00     0.074 A 
ATOM     37  C   UNL A   1      40.990  31.358  31.304  1.00  0.00     0.031 C 
ATOM     38  C   UNL A   1      40.464  25.422  27.846  1.00  0.00     0.029 A 
ATOM     39  C   UNL A   1      41.787  25.724  28.392  1.00  0.00     0.049 A 
ATOM     40  H   UNL A   1      42.316  27.355  29.574  1.00  0.00     0.167 HD
ATOM     41  C   UNL A   1      43.363  30.932  31.871  1.00  0.00     0.037 A 
ATOM     42  C   UNL A   1      42.900  24.980  28.228  1.00  0.00     0.037 A 
ATOM     43  C   UNL A   1      44.574  30.156  31.824  1.00  0.00     0.049 A 
ATOM     44  C   UNL A   1      44.199  25.439  28.846  1.00  0.00     0.074 A 
ATOM     45  C   UNL A   1      45.792  30.424  32.421  1.00  0.00     0.029 A 
ATOM     46  N   UNL A   1      44.722  28.966  31.127  1.00  0.00    -0.354 N 
ATOM     47  N   UNL A   1      44.442  26.498  29.579  1.00  0.00    -0.248 NA
ATOM     48  C   UNL A   1      45.380  24.594  28.612  1.00  0.00     0.031 C 
ATOM     49  C   UNL A   1      46.696  29.429  32.036  1.00  0.00     0.029 A 
ATOM     50  C   UNL A   1      46.022  28.502  31.258  1.00  0.00     0.049 A 
ATOM     51  H   UNL A   1      44.010  28.517  30.617  1.00  0.00     0.167 HD
ATOM     52  C   UNL A   1      45.788  26.426  29.925  1.00  0.00     0.074 A 
ATOM     53  C   UNL A   1      46.307  25.214  29.329  1.00  0.00     0.031 C 
ATOM     54  C   UNL A   1      46.525  27.285  30.673  1.00  0.00     0.037 A 
BRANCH  41  55
ATOM     55  C   UNL A   1      43.381  32.236  32.615  1.00  0.00     0.064 A 
ATOM     56  C   UNL A   1      43.050  32.317  33.976  1.00  0.00     0.173 A 
ATOM     57  C   UNL A   1      43.765  33.417  31.962  1.00  0.00     0.173 A 
ATOM     58  F   UNL A   1      42.661  31.220  34.644  1.00  0.00    -0.203 F 
ATOM     59  C   UNL A   1      43.075  33.537  34.648  1.00  0.00     0.198 A 
ATOM     60  C   UNL A   1      43.822  34.629  32.646  1.00  0.00     0.198 A 
ATOM     61  F   UNL A   1      44.094  33.396  30.662  1.00  0.00    -0.203 F 
ATOM     62  F   UNL A   1      42.702  33.599  35.934  1.00  0.00    -0.200 F 
ATOM     63  C   UNL A   1      43.469  34.690  33.985  1.00  0.00     0.200 A 
ATOM     64  F   UNL A   1      44.217  35.738  32.006  1.00  0.00    -0.200 F 
ATOM     65  F   UNL A   1      43.500  35.861  34.635  1.00  0.00    -0.200 F 
ENDBRANCH  41  55
BRANCH  42  66
ATOM     66  C   UNL A   1      42.849  23.726  27.427  1.00  0.00     0.064 A 
ATOM     67  C   UNL A   1      42.401  22.523  27.992  1.00  0.00     0.173 A 
ATOM     68  C   UNL A   1      43.283  23.695  26.093  1.00  0.00     0.173 A 
ATOM     69  F   UNL A   1      42.005  22.493  29.274  1.00  0.00    -0.203 F 
ATOM     70  C   UNL A   1      42.409  21.335  27.262  1.00  0.00     0.198 A 
ATOM     71  C   UNL A   1      43.260  22.513  25.354  1.00  0.00     0.198 A 
ATOM     72  F   UNL A   1      43.731  24.814  25.505  1.00  0.00    -0.203 F 
ATOM     73  F   UNL A   1      42.030  20.191  27.847  1.00  0.00    -0.200 F 
ATOM     74  C   UNL A   1      42.832  21.333  25.942  1.00  0.00     0.200 A 
ATOM     75  F   UNL A   1      43.663  22.517  24.076  1.00  0.00    -0.200 F 
ATOM     76  F   UNL A   1      42.841  20.190  25.241  1.00  0.00    -0.200 F 
ENDBRANCH  42  66
BRANCH  54  77
ATOM     77  C   UNL A   1      47.959  26.924  30.943  1.00  0.00     0.064 A 
ATOM     78  C   UNL A   1      48.324  26.058  31.984  1.00  0.00     0.173 A 
ATOM     79  C   UNL A   1      48.980  27.414  30.112  1.00  0.00     0.173 A 
ATOM     80  F   UNL A   1      47.391  25.569  32.814  1.00  0.00    -0.203 F 
ATOM     81  C   UNL A   1      49.657  25.716  32.198  1.00  0.00     0.198 A 
ATOM     82  C   UNL A   1      50.307  27.042  30.308  1.00  0.00     0.198 A 
ATOM     83  F   UNL A   1      48.687  28.237  29.095  1.00  0.00    -0.203 F 
ATOM     84  F   UNL A   1      49.988  24.926  33.229  1.00  0.00    -0.200 F 
ATOM     85  C   UNL A   1      50.647  26.201  31.356  1.00  0.00     0.200 A 
ATOM     86  F   UNL A   1      51.257  27.497  29.479  1.00  0.00    -0.200 F 
ATOM     87  F   UNL A   1      51.927  25.862  31.556  1.00  0.00    -0.200 F 
ENDBRANCH  54  77
ENDBRANCH  28  29
ENDBRANCH  21  23
ENDBRANCH  20  21
ENDBRANCH  19  20
ENDBRANCH  18  19
ENDBRANCH  17  18
ENDBRANCH  16  17
ENDBRANCH   1  16
TORSDOF 19
ENDMDL
MODEL 2
REMARK VINA RESULT:      -9.0      1.013      7.648
REMARK SMILES C[C@@H](Cc1ccco1)C(=O)OCCOCCOCCOC(=O)c1ccc(-c2c3nc(c(-c4c(F)c(F)c(F)c(F)c4F)c4ccc([nH]4)c(-c4c(F)c(F)c(F)c(F)c4F)c4nc(c(-c5c(F)c(F)c(F)c(F)c5F)c5ccc2[nH]5)C=C4)C=C3)cc1
REMARK SMILES IDX 15 1 14 2 13 3 12 4 11 5 9 6 10 7 2 8 1 9 3 10 4 11 5 12
REMARK SMILES IDX 8 13 6 14 7 15 16 16 17 17 18 18 19 19 20 20 21 21 22 22
REMARK SMILES IDX 23 23 24 24 85 25 25 26 84 27 26 28 27 29 28 30 78 31 29 32
REMARK SMILES IDX 83 33 77 34 79 35 30 36 82 37 76 38 75 39 31 41 63 42 43 43
REMARK SMILES IDX 62 44 44 45 47 46 61 47 80 48 45 49 46 50 60 52 81 53 48 54
REMARK SMILES IDX 32 55 33 56 41 57 34 58 35 59 39 60 42 61 36 62 37 63 40 64
REMARK SMILES IDX 38 65 64 66 65 67 73 68 66 69 67 70 71 71 74 72 68 73 69 74
REMARK SMILES IDX 72 75 70 76 49 77 50 78 58 79 51 80 52 81 56 82 59 83 53 84
REMARK SMILES IDX 54 85 57 86 55 87
REMARK H PARENT 79 40 47 51
REMARK Flexibility Score: inf
ROOT
ATOM      1  C   UNL A   1      33.202  35.474  30.239  1.00  0.00     0.188 C 
ENDROOT
BRANCH   1   2
ATOM      2  O   UNL A   1      34.154  35.299  31.281  1.00  0.00    -0.376 OA
BRANCH   2   3
ATOM      3  C   UNL A   1      33.709  35.309  32.632  1.00  0.00     0.202 C 
BRANCH   3   4
ATOM      4  C   UNL A   1      34.753  35.397  33.758  1.00  0.00     0.261 C 
BRANCH   4   5
ATOM      5  O   UNL A   1      36.072  34.883  33.460  1.00  0.00    -0.463 OA
BRANCH   5   6
ATOM      6  C   UNL A   1      36.342  33.610  33.853  1.00  0.00     0.309 C 
ATOM      7  O   UNL A   1      36.061  33.161  34.961  1.00  0.00    -0.252 OA
BRANCH   6   8
ATOM      8  C   UNL A   1      37.119  32.772  32.836  1.00  0.00     0.103 C 
ATOM      9  C   UNL A   1      37.272  31.268  33.074  1.00  0.00     0.020 C 
BRANCH   8  10
ATOM     10  C   UNL A   1      36.547  33.064  31.443  1.00  0.00     0.090 C 
BRANCH  10  11
ATOM     11  C   UNL A   1      37.552  33.721  30.566  1.00  0.00     0.104 A 
ATOM     12  C   UNL A   1      37.895  33.569  29.241  1.00  0.00     0.045 A 
ATOM     13  O   UNL A   1      38.392  34.608  31.170  1.00  0.00    -0.469 OA
ATOM     14  C   UNL A   1      39.044  34.367  29.035  1.00  0.00     0.042 A 
ATOM     15  C   UNL A   1      39.295  34.993  30.233  1.00  0.00     0.195 A 
ENDBRANCH  10  11
ENDBRANCH   8  10
ENDBRANCH   6   8
ENDBRANCH   5   6
ENDBRANCH   4   5
ENDBRANCH   3   4
ENDBRANCH   2   3
ENDBRANCH   1   2
BRANCH   1  16
ATOM     16  C   UNL A   1      33.630  36.193  28.950  1.00  0.00     0.188 C 
BRANCH  16  17
ATOM     17  O   UNL A   1      33.951  35.337  27.878  1.00  0.00    -0.376 OA
BRANCH  17  18
ATOM     18  C   UNL A   1      33.590  33.974  27.988  1.00  0.00     0.202 C 
BRANCH  18  19
ATOM     19  C   UNL A   1      34.710  32.920  28.013  1.00  0.00     0.261 C 
BRANCH  19  20
ATOM     20  O   UNL A   1      34.466  31.735  28.792  1.00  0.00    -0.460 OA
BRANCH  20  21
ATOM     21  C   UNL A   1      34.635  30.538  28.185  1.00  0.00     0.338 C 
ATOM     22  O   UNL A   1      33.878  30.002  27.391  1.00  0.00    -0.246 OA
BRANCH  21  23
ATOM     23  C   UNL A   1      36.021  30.090  28.463  1.00  0.00     0.060 A 
ATOM     24  C   UNL A   1      36.336  29.585  29.733  1.00  0.00     0.016 A 
ATOM     25  C   UNL A   1      36.995  30.131  27.464  1.00  0.00     0.016 A 
ATOM     26  C   UNL A   1      37.632  29.140  30.014  1.00  0.00     0.010 A 
ATOM     27  C   UNL A   1      38.297  29.711  27.752  1.00  0.00     0.010 A 
ATOM     28  C   UNL A   1      38.630  29.240  29.036  1.00  0.00    -0.014 A 
BRANCH  28  29
ATOM     29  C   UNL A   1      40.058  29.056  29.402  1.00  0.00     0.031 A 
ATOM     30  C   UNL A   1      40.753  27.807  28.931  1.00  0.00     0.074 A 
ATOM     31  C   UNL A   1      40.729  29.962  30.135  1.00  0.00     0.049 A 
ATOM     32  N   UNL A   1      41.955  27.368  29.198  1.00  0.00    -0.248 NA
ATOM     33  C   UNL A   1      39.976  26.932  28.038  1.00  0.00     0.031 C 
ATOM     34  C   UNL A   1      40.190  31.232  30.612  1.00  0.00     0.029 A 
ATOM     35  N   UNL A   1      42.014  29.935  30.621  1.00  0.00    -0.354 N 
ATOM     36  C   UNL A   1      42.074  26.162  28.521  1.00  0.00     0.074 A 
ATOM     37  C   UNL A   1      40.812  25.923  27.854  1.00  0.00     0.031 C 
ATOM     38  C   UNL A   1      41.133  31.857  31.341  1.00  0.00     0.029 A 
ATOM     39  C   UNL A   1      42.326  31.013  31.414  1.00  0.00     0.049 A 
ATOM     40  H   UNL A   1      42.651  29.211  30.420  1.00  0.00     0.167 HD
ATOM     41  C   UNL A   1      43.140  25.330  28.454  1.00  0.00     0.037 A 
ATOM     42  C   UNL A   1      43.435  31.268  32.137  1.00  0.00     0.037 A 
ATOM     43  C   UNL A   1      44.393  25.566  29.121  1.00  0.00     0.049 A 
ATOM     44  C   UNL A   1      44.579  30.284  32.117  1.00  0.00     0.074 A 
ATOM     45  C   UNL A   1      45.538  24.790  29.104  1.00  0.00     0.029 A 
ATOM     46  N   UNL A   1      44.660  26.656  29.937  1.00  0.00    -0.354 N 
ATOM     47  N   UNL A   1      44.695  29.157  31.458  1.00  0.00    -0.248 NA
ATOM     48  C   UNL A   1      45.752  30.611  32.944  1.00  0.00     0.031 C 
ATOM     49  C   UNL A   1      46.476  25.377  29.958  1.00  0.00     0.029 A 
ATOM     50  C   UNL A   1      45.944  26.556  30.451  1.00  0.00     0.049 A 
ATOM     51  H   UNL A   1      44.032  27.390  30.122  1.00  0.00     0.167 HD
ATOM     52  C   UNL A   1      45.960  28.662  31.758  1.00  0.00     0.074 A 
ATOM     53  C   UNL A   1      46.578  29.617  32.652  1.00  0.00     0.031 C 
ATOM     54  C   UNL A   1      46.556  27.522  31.329  1.00  0.00     0.037 A 
BRANCH  41  55
ATOM     55  C   UNL A   1      42.984  24.066  27.659  1.00  0.00     0.064 A 
ATOM     56  C   UNL A   1      42.594  22.858  28.256  1.00  0.00     0.173 A 
ATOM     57  C   UNL A   1      43.201  24.072  26.272  1.00  0.00     0.173 A 
ATOM     58  F   UNL A   1      42.391  22.794  29.582  1.00  0.00    -0.203 F 
ATOM     59  C   UNL A   1      42.454  21.696  27.501  1.00  0.00     0.198 A 
ATOM     60  C   UNL A   1      43.026  22.917  25.515  1.00  0.00     0.198 A 
ATOM     61  F   UNL A   1      43.573  25.199  25.650  1.00  0.00    -0.203 F 
ATOM     62  F   UNL A   1      42.133  20.542  28.102  1.00  0.00    -0.200 F 
ATOM     63  C   UNL A   1      42.662  21.729  26.130  1.00  0.00     0.200 A 
ATOM     64  F   UNL A   1      43.213  22.954  24.188  1.00  0.00    -0.200 F 
ATOM     65  F   UNL A   1      42.518  20.613  25.403  1.00  0.00    -0.200 F 
ENDBRANCH  41  55
BRANCH  42  66
ATOM     66  C   UNL A   1      43.519  32.504  32.963  1.00  0.00     0.064 A 
ATOM     67  C   UNL A   1      43.082  32.516  34.296  1.00  0.00     0.173 A 
ATOM     68  C   UNL A   1      44.001  33.707  32.427  1.00  0.00     0.173 A 
ATOM     69  F   UNL A   1      42.583  31.399  34.847  1.00  0.00    -0.203 F 
ATOM     70  C   UNL A   1      43.105  33.687  35.052  1.00  0.00     0.198 A 
ATOM     71  C   UNL A   1      44.054  34.870  33.194  1.00  0.00     0.198 A 
ATOM     72  F   UNL A   1      44.423  33.755  31.154  1.00  0.00    -0.203 F 
ATOM     73  F   UNL A   1      42.627  33.682  36.304  1.00  0.00    -0.200 F 
ATOM     74  C   UNL A   1      43.597  34.861  34.503  1.00  0.00     0.200 A 
ATOM     75  F   UNL A   1      44.537  36.001  32.662  1.00  0.00    -0.200 F 
ATOM     76  F   UNL A   1      43.617  35.986  35.230  1.00  0.00    -0.200 F 
ENDBRANCH  42  66
BRANCH  54  77
ATOM     77  C   UNL A   1      47.971  27.264  31.767  1.00  0.00     0.064 A 
ATOM     78  C   UNL A   1      49.073  27.758  31.054  1.00  0.00     0.173 A 
ATOM     79  C   UNL A   1      48.224  26.553  32.952  1.00  0.00     0.173 A 
ATOM     80  F   UNL A   1      48.888  28.434  29.910  1.00  0.00    -0.203 F 
ATOM     81  C   UNL A   1      50.374  27.528  31.495  1.00  0.00     0.198 A 
ATOM     82  C   UNL A   1      49.525  26.356  33.408  1.00  0.00     0.198 A 
ATOM     83  F   UNL A   1      47.208  26.067  33.680  1.00  0.00    -0.203 F 
ATOM     84  F   UNL A   1      51.412  27.968  30.771  1.00  0.00    -0.200 F 
ATOM     85  C   UNL A   1      50.599  26.836  32.675  1.00  0.00     0.200 A 
ATOM     86  F   UNL A   1      49.738  25.704  34.560  1.00  0.00    -0.200 F 
ATOM     87  F   UNL A   1      51.851  26.627  33.104  1.00  0.00    -0.200 F 
ENDBRANCH  54  77
ENDBRANCH  28  29
ENDBRANCH  21  23
ENDBRANCH  20  21
ENDBRANCH  19  20
ENDBRANCH  18  19
ENDBRANCH  17  18
ENDBRANCH  16  17
ENDBRANCH   1  16
TORSDOF 19
ENDMDL
MODEL 3
REMARK VINA RESULT:      -9.0      0.878      2.237
REMARK SMILES C[C@@H](Cc1ccco1)C(=O)OCCOCCOCCOC(=O)c1ccc(-c2c3nc(c(-c4c(F)c(F)c(F)c(F)c4F)c4ccc([nH]4)c(-c4c(F)c(F)c(F)c(F)c4F)c4nc(c(-c5c(F)c(F)c(F)c(F)c5F)c5ccc2[nH]5)C=C4)C=C3)cc1
REMARK SMILES IDX 15 1 14 2 13 3 12 4 11 5 9 6 10 7 2 8 1 9 3 10 4 11 5 12
REMARK SMILES IDX 8 13 6 14 7 15 16 16 17 17 18 18 19 19 20 20 21 21 22 22
REMARK SMILES IDX 23 23 24 24 85 25 25 26 84 27 26 28 27 29 28 30 78 31 29 32
REMARK SMILES IDX 83 33 77 34 79 35 30 36 82 37 76 38 75 39 31 41 63 42 43 43
REMARK SMILES IDX 62 44 44 45 47 46 61 47 80 48 45 49 46 50 60 52 81 53 48 54
REMARK SMILES IDX 32 55 33 56 41 57 34 58 35 59 39 60 42 61 36 62 37 63 40 64
REMARK SMILES IDX 38 65 64 66 65 67 73 68 66 69 67 70 71 71 74 72 68 73 69 74
REMARK SMILES IDX 72 75 70 76 49 77 50 78 58 79 51 80 52 81 56 82 59 83 53 84
REMARK SMILES IDX 54 85 57 86 55 87
REMARK H PARENT 79 40 47 51
REMARK Flexibility Score: inf
ROOT
ATOM      1  C   UNL A   1      32.903  35.632  30.250  1.00  0.00     0.188 C 
ENDROOT
BRANCH   1   2
ATOM      2  O   UNL A   1      33.725  35.409  31.388  1.00  0.00    -0.376 OA
BRANCH   2   3
ATOM      3  C   UNL A   1      33.453  36.124  32.588  1.00  0.00     0.202 C 
BRANCH   3   4
ATOM      4  C   UNL A   1      34.403  35.957  33.785  1.00  0.00     0.261 C 
BRANCH   4   5
ATOM      5  O   UNL A   1      35.678  35.327  33.517  1.00  0.00    -0.463 OA
BRANCH   5   6
ATOM      6  C   UNL A   1      35.751  33.981  33.689  1.00  0.00     0.309 C 
ATOM      7  O   UNL A   1      34.780  33.269  33.934  1.00  0.00    -0.252 OA
BRANCH   6   8
ATOM      8  C   UNL A   1      37.165  33.400  33.647  1.00  0.00     0.103 C 
ATOM      9  C   UNL A   1      37.378  32.002  33.062  1.00  0.00     0.020 C 
BRANCH   8  10
ATOM     10  C   UNL A   1      38.084  34.433  32.981  1.00  0.00     0.090 C 
BRANCH  10  11
ATOM     11  C   UNL A   1      38.065  34.306  31.501  1.00  0.00     0.104 A 
ATOM     12  C   UNL A   1      37.230  33.659  30.616  1.00  0.00     0.045 A 
ATOM     13  O   UNL A   1      39.119  34.855  30.835  1.00  0.00    -0.469 OA
ATOM     14  C   UNL A   1      37.836  33.772  29.344  1.00  0.00     0.042 A 
ATOM     15  C   UNL A   1      38.973  34.524  29.527  1.00  0.00     0.195 A 
ENDBRANCH  10  11
ENDBRANCH   8  10
ENDBRANCH   6   8
ENDBRANCH   5   6
ENDBRANCH   4   5
ENDBRANCH   3   4
ENDBRANCH   2   3
ENDBRANCH   1   2
BRANCH   1  16
ATOM     16  C   UNL A   1      33.475  36.416  29.059  1.00  0.00     0.188 C 
BRANCH  16  17
ATOM     17  O   UNL A   1      34.025  35.617  28.038  1.00  0.00    -0.376 OA
BRANCH  17  18
ATOM     18  C   UNL A   1      33.643  34.256  27.983  1.00  0.00     0.202 C 
BRANCH  18  19
ATOM     19  C   UNL A   1      34.745  33.184  28.001  1.00  0.00     0.261 C 
BRANCH  19  20
ATOM     20  O   UNL A   1      34.482  31.997  28.771  1.00  0.00    -0.460 OA
BRANCH  20  21
ATOM     21  C   UNL A   1      34.510  30.809  28.126  1.00  0.00     0.338 C 
ATOM     22  O   UNL A   1      33.686  30.384  27.333  1.00  0.00    -0.246 OA
BRANCH  21  23
ATOM     23  C   UNL A   1      35.845  30.208  28.360  1.00  0.00     0.060 A 
ATOM     24  C   UNL A   1      36.167  29.731  29.640  1.00  0.00     0.016 A 
ATOM     25  C   UNL A   1      36.759  30.078  27.314  1.00  0.00     0.016 A 
ATOM     26  C   UNL A   1      37.412  29.144  29.881  1.00  0.00     0.010 A 
ATOM     27  C   UNL A   1      38.015  29.514  27.561  1.00  0.00     0.010 A 
ATOM     28  C   UNL A   1      38.360  29.070  28.852  1.00  0.00    -0.014 A 
BRANCH  28  29
ATOM     29  C   UNL A   1      39.772  28.729  29.157  1.00  0.00     0.031 A 
ATOM     30  C   UNL A   1      40.597  29.739  29.908  1.00  0.00     0.074 A 
ATOM     31  C   UNL A   1      40.322  27.562  28.779  1.00  0.00     0.049 A 
ATOM     32  N   UNL A   1      41.870  29.724  30.207  1.00  0.00    -0.248 NA
ATOM     33  C   UNL A   1      39.881  30.935  30.382  1.00  0.00     0.031 C 
ATOM     34  C   UNL A   1      39.624  26.480  28.090  1.00  0.00     0.029 A 
ATOM     35  N   UNL A   1      41.611  27.103  28.910  1.00  0.00    -0.354 N 
ATOM     36  C   UNL A   1      42.110  30.909  30.889  1.00  0.00     0.074 A 
ATOM     37  C   UNL A   1      40.859  31.634  30.935  1.00  0.00     0.031 C 
ATOM     38  C   UNL A   1      40.499  25.488  27.841  1.00  0.00     0.029 A 
ATOM     39  C   UNL A   1      41.824  25.882  28.317  1.00  0.00     0.049 A 
ATOM     40  H   UNL A   1      42.315  27.602  29.384  1.00  0.00     0.167 HD
ATOM     41  C   UNL A   1      43.268  31.352  31.434  1.00  0.00     0.037 A 
ATOM     42  C   UNL A   1      42.965  25.183  28.153  1.00  0.00     0.037 A 
ATOM     43  C   UNL A   1      44.513  30.632  31.384  1.00  0.00     0.049 A 
ATOM     44  C   UNL A   1      44.262  25.737  28.694  1.00  0.00     0.074 A 
ATOM     45  C   UNL A   1      45.738  30.990  31.919  1.00  0.00     0.029 A 
ATOM     46  N   UNL A   1      44.694  29.411  30.751  1.00  0.00    -0.354 N 
ATOM     47  N   UNL A   1      44.479  26.846  29.356  1.00  0.00    -0.248 NA
ATOM     48  C   UNL A   1      45.474  24.935  28.464  1.00  0.00     0.031 C 
ATOM     49  C   UNL A   1      46.674  30.018  31.556  1.00  0.00     0.029 A 
ATOM     50  C   UNL A   1      46.019  29.017  30.858  1.00  0.00     0.049 A 
ATOM     51  H   UNL A   1      43.987  28.901  30.294  1.00  0.00     0.167 HD
ATOM     52  C   UNL A   1      45.839  26.858  29.654  1.00  0.00     0.074 A 
ATOM     53  C   UNL A   1      46.394  25.639  29.108  1.00  0.00     0.031 C 
ATOM     54  C   UNL A   1      46.559  27.792  30.323  1.00  0.00     0.037 A 
BRANCH  41  55
ATOM     55  C   UNL A   1      43.250  32.697  32.102  1.00  0.00     0.064 A 
ATOM     56  C   UNL A   1      43.474  33.882  31.386  1.00  0.00     0.173 A 
ATOM     57  C   UNL A   1      42.974  32.802  33.473  1.00  0.00     0.173 A 
ATOM     58  F   UNL A   1      43.759  33.836  30.075  1.00  0.00    -0.203 F 
ATOM     59  C   UNL A   1      43.452  35.120  32.023  1.00  0.00     0.198 A 
ATOM     60  C   UNL A   1      42.918  34.043  34.101  1.00  0.00     0.198 A 
ATOM     61  F   UNL A   1      42.749  31.700  34.205  1.00  0.00    -0.203 F 
ATOM     62  F   UNL A   1      43.723  36.235  31.330  1.00  0.00    -0.200 F 
ATOM     63  C   UNL A   1      43.165  35.200  33.378  1.00  0.00     0.200 A 
ATOM     64  F   UNL A   1      42.626  34.119  35.407  1.00  0.00    -0.200 F 
ATOM     65  F   UNL A   1      43.136  36.392  33.988  1.00  0.00    -0.200 F 
ENDBRANCH  41  55
BRANCH  42  66
ATOM     66  C   UNL A   1      42.947  23.883  27.427  1.00  0.00     0.064 A 
ATOM     67  C   UNL A   1      43.275  23.809  26.066  1.00  0.00     0.173 A 
ATOM     68  C   UNL A   1      42.563  22.696  28.068  1.00  0.00     0.173 A 
ATOM     69  F   UNL A   1      43.618  24.921  25.398  1.00  0.00    -0.203 F 
ATOM     70  C   UNL A   1      43.200  22.603  25.370  1.00  0.00     0.198 A 
ATOM     71  C   UNL A   1      42.520  21.485  27.379  1.00  0.00     0.198 A 
ATOM     72  F   UNL A   1      42.229  22.711  29.367  1.00  0.00    -0.203 F 
ATOM     73  F   UNL A   1      43.464  22.574  24.056  1.00  0.00    -0.200 F 
ATOM     74  C   UNL A   1      42.829  21.441  26.029  1.00  0.00     0.200 A 
ATOM     75  F   UNL A   1      42.168  20.362  28.022  1.00  0.00    -0.200 F 
ATOM     76  F   UNL A   1      42.756  20.283  25.359  1.00  0.00    -0.200 F 
ENDBRANCH  42  66
BRANCH  54  77
ATOM     77  C   UNL A   1      48.018  27.515  30.559  1.00  0.00     0.064 A 
ATOM     78  C   UNL A   1      48.467  26.794  31.675  1.00  0.00     0.173 A 
ATOM     79  C   UNL A   1      48.977  27.933  29.622  1.00  0.00     0.173 A 
ATOM     80  F   UNL A   1      47.595  26.379  32.606  1.00  0.00    -0.203 F 
ATOM     81  C   UNL A   1      49.821  26.526  31.858  1.00  0.00     0.198 A 
ATOM     82  C   UNL A   1      50.326  27.633  29.790  1.00  0.00     0.198 A 
ATOM     83  F   UNL A   1      48.602  28.617  28.531  1.00  0.00    -0.203 F 
ATOM     84  F   UNL A   1      50.232  25.878  32.956  1.00  0.00    -0.200 F 
ATOM     85  C   UNL A   1      50.749  26.937  30.912  1.00  0.00     0.200 A 
ATOM     86  F   UNL A   1      51.216  28.015  28.864  1.00  0.00    -0.200 F 
ATOM     87  F   UNL A   1      52.050  26.667  31.083  1.00  0.00    -0.200 F 
ENDBRANCH  54  77
ENDBRANCH  28  29
ENDBRANCH  21  23
ENDBRANCH  20  21
ENDBRANCH  19  20
ENDBRANCH  18  19
ENDBRANCH  17  18
ENDBRANCH  16  17
ENDBRANCH   1  16
TORSDOF 19
ENDMDL
