MODEL 1
REMARK VINA RESULT:      -7.5      0.000      0.000
REMARK SMILES O=C(N[C@@H](Cc1ccccc1)C(=O)N[C@@H](CS)C(=O)N[C@@H](CO)C(=O)OCCOCCOCCOC(=O)c1ccc(-c2c3nc(c(-c4c(F)c(F)c(F)c(F)c4F)c4ccc([nH]4)c(-c4c(F)c(F)c(F)c(F)c4F)c4nc(c(-c5c(F)c(F)c(F)c(F)c5F)c5ccc2[nH]5)C=C4)C=C3)cc1)c1ccc(F)cc1
REMARK SMILES IDX 28 1 27 2 26 3 24 4 25 5 21 6 20 7 18 8 19 9 15 11 14 12
REMARK SMILES IDX 12 13 13 14 4 16 3 17 1 18 2 19 101 21 102 22 107 23 103 24
REMARK SMILES IDX 106 25 104 26 105 27 5 28 6 29 7 30 11 31 8 32 10 33 9 34
REMARK SMILES IDX 16 35 17 36 22 38 23 39 29 41 30 42 31 43 32 44 33 45 34 46
REMARK SMILES IDX 35 47 36 48 37 49 38 50 39 51 100 52 40 53 99 54 41 55 42 56
REMARK SMILES IDX 43 57 93 58 44 59 98 60 92 61 94 62 45 63 97 64 91 65 90 66
REMARK SMILES IDX 46 68 78 69 58 70 77 71 59 72 62 73 76 74 95 75 60 76 61 77
REMARK SMILES IDX 75 79 96 80 63 81 47 82 48 83 56 84 49 85 50 86 54 87 57 88
REMARK SMILES IDX 51 89 52 90 55 91 53 92 79 93 80 94 88 95 81 96 82 97 86 98
REMARK SMILES IDX 89 99 83 100 84 101 87 102 85 103 64 104 65 105 73 106
REMARK SMILES IDX 66 107 67 108 71 109 74 110 68 111 69 112 72 113 70 114
REMARK H PARENT 20 10 14 15 3 20 17 37 23 40 94 67 62 78
REMARK Flexibility Score: inf
ROOT
ATOM      1  C   UNL A   1      50.471  32.087  26.119  1.00  0.00     0.202 C 
ENDROOT
BRANCH   1   2
ATOM      2  C   UNL A   1      49.340  32.574  27.032  1.00  0.00     0.261 C 
BRANCH   2   3
ATOM      3  O   UNL A   1      48.027  32.320  26.506  1.00  0.00    -0.462 OA
BRANCH   3   4
ATOM      4  C   UNL A   1      47.308  33.435  26.197  1.00  0.00     0.331 C 
ATOM      5  O   UNL A   1      47.624  34.249  25.336  1.00  0.00    -0.250 OA
BRANCH   4   6
ATOM      6  C   UNL A   1      46.059  33.608  27.073  1.00  0.00     0.218 C 
BRANCH   6   7
ATOM      7  N   UNL A   1      45.313  34.881  26.909  1.00  0.00    -0.339 N 
ATOM      8  C   UNL A   1      44.052  34.859  26.377  1.00  0.00     0.244 C 
ATOM      9  O   UNL A   1      43.951  34.729  25.154  1.00  0.00    -0.273 OA
ATOM     10  H   UNL A   1      45.722  35.734  27.182  1.00  0.00     0.164 HD
BRANCH   8  11
ATOM     11  C   UNL A   1      42.803  35.119  27.281  1.00  0.00     0.181 C 
BRANCH  11  12
ATOM     12  N   UNL A   1      43.277  34.996  28.669  1.00  0.00    -0.342 N 
ATOM     13  C   UNL A   1      42.910  34.103  29.634  1.00  0.00     0.243 C 
ATOM     14  O   UNL A   1      43.820  33.680  30.356  1.00  0.00    -0.273 OA
ATOM     15  H   UNL A   1      43.957  35.654  28.941  1.00  0.00     0.164 HD
BRANCH  13  16
ATOM     16  C   UNL A   1      41.458  33.622  29.876  1.00  0.00     0.176 C 
BRANCH  16  17
ATOM     17  N   UNL A   1      41.298  32.806  31.077  1.00  0.00    -0.340 N 
ATOM     18  O   UNL A   1      40.816  30.958  32.269  1.00  0.00    -0.269 OA
ATOM     19  C   UNL A   1      40.947  31.476  31.164  1.00  0.00     0.251 C 
ATOM     20  H   UNL A   1      41.464  33.263  31.934  1.00  0.00     0.164 HD
BRANCH  19  21
ATOM     21  C   UNL A   1      40.640  30.698  29.935  1.00  0.00     0.040 A 
ATOM     22  C   UNL A   1      39.325  30.520  29.483  1.00  0.00     0.017 A 
ATOM     23  C   UNL A   1      41.704  30.105  29.241  1.00  0.00     0.017 A 
ATOM     24  C   UNL A   1      39.072  29.682  28.392  1.00  0.00     0.040 A 
ATOM     25  C   UNL A   1      41.446  29.280  28.143  1.00  0.00     0.040 A 
ATOM     26  C   UNL A   1      40.133  29.062  27.740  1.00  0.00     0.123 A 
ATOM     27  F   UNL A   1      39.885  28.242  26.711  1.00  0.00    -0.207 F 
ENDBRANCH  19  21
ENDBRANCH  16  17
BRANCH  16  28
ATOM     28  C   UNL A   1      40.326  34.637  29.616  1.00  0.00     0.070 C 
BRANCH  28  29
ATOM     29  C   UNL A   1      38.935  34.310  30.101  1.00  0.00    -0.045 A 
ATOM     30  C   UNL A   1      37.957  33.836  29.215  1.00  0.00     0.004 A 
ATOM     31  C   UNL A   1      38.573  34.545  31.429  1.00  0.00     0.004 A 
ATOM     32  C   UNL A   1      36.666  33.552  29.668  1.00  0.00     0.000 A 
ATOM     33  C   UNL A   1      37.300  34.210  31.896  1.00  0.00     0.000 A 
ATOM     34  C   UNL A   1      36.347  33.711  31.014  1.00  0.00     0.000 A 
ENDBRANCH  28  29
ENDBRANCH  16  28
ENDBRANCH  13  16
ENDBRANCH  11  12
BRANCH  11  35
ATOM     35  C   UNL A   1      41.968  36.374  27.018  1.00  0.00     0.101 C 
BRANCH  35  36
ATOM     36  S   UNL A   1      42.314  37.836  28.040  1.00  0.00    -0.177 SA
ATOM     37  H   UNL A   1      41.143  38.378  28.468  1.00  0.00     0.102 HD
ENDBRANCH  35  36
ENDBRANCH  11  35
ENDBRANCH   8  11
ENDBRANCH   6   7
BRANCH   6  38
ATOM     38  C   UNL A   1      45.156  32.389  26.809  1.00  0.00     0.193 C 
BRANCH  38  39
ATOM     39  O   UNL A   1      45.234  32.003  25.435  1.00  0.00    -0.394 OA
ATOM     40  H   UNL A   1      45.589  32.738  24.913  1.00  0.00     0.210 HD
ENDBRANCH  38  39
ENDBRANCH   6  38
ENDBRANCH   4   6
ENDBRANCH   3   4
ENDBRANCH   2   3
ENDBRANCH   1   2
BRANCH   1  41
ATOM     41  O   UNL A   1      50.971  32.997  25.147  1.00  0.00    -0.376 OA
BRANCH  41  42
ATOM     42  C   UNL A   1      52.133  33.759  25.455  1.00  0.00     0.188 C 
BRANCH  42  43
ATOM     43  C   UNL A   1      52.491  34.052  26.927  1.00  0.00     0.188 C 
BRANCH  43  44
ATOM     44  O   UNL A   1      53.870  34.232  27.190  1.00  0.00    -0.376 OA
BRANCH  44  45
ATOM     45  C   UNL A   1      54.228  34.356  28.560  1.00  0.00     0.202 C 
BRANCH  45  46
ATOM     46  C   UNL A   1      53.041  34.260  29.526  1.00  0.00     0.261 C 
BRANCH  46  47
ATOM     47  O   UNL A   1      52.917  32.993  30.203  1.00  0.00    -0.460 OA
BRANCH  47  48
ATOM     48  C   UNL A   1      52.079  32.949  31.263  1.00  0.00     0.338 C 
ATOM     49  O   UNL A   1      51.989  33.758  32.167  1.00  0.00    -0.246 OA
BRANCH  48  50
ATOM     50  C   UNL A   1      51.138  31.829  31.050  1.00  0.00     0.060 A 
ATOM     51  C   UNL A   1      51.624  30.518  31.099  1.00  0.00     0.016 A 
ATOM     52  C   UNL A   1      49.788  32.074  30.786  1.00  0.00     0.016 A 
ATOM     53  C   UNL A   1      50.760  29.444  30.874  1.00  0.00     0.010 A 
ATOM     54  C   UNL A   1      48.928  30.996  30.543  1.00  0.00     0.010 A 
ATOM     55  C   UNL A   1      49.412  29.676  30.571  1.00  0.00    -0.014 A 
BRANCH  55  56
ATOM     56  C   UNL A   1      48.549  28.553  30.124  1.00  0.00     0.031 A 
ATOM     57  C   UNL A   1      48.506  28.215  28.659  1.00  0.00     0.074 A 
ATOM     58  C   UNL A   1      47.836  27.821  30.998  1.00  0.00     0.049 A 
ATOM     59  N   UNL A   1      47.752  27.356  28.021  1.00  0.00    -0.248 NA
ATOM     60  C   UNL A   1      49.440  28.955  27.797  1.00  0.00     0.031 C 
ATOM     61  C   UNL A   1      47.841  27.990  32.448  1.00  0.00     0.029 A 
ATOM     62  N   UNL A   1      46.960  26.784  30.781  1.00  0.00    -0.354 N 
ATOM     63  C   UNL A   1      48.116  27.456  26.685  1.00  0.00     0.074 A 
ATOM     64  C   UNL A   1      49.139  28.476  26.599  1.00  0.00     0.031 C 
ATOM     65  C   UNL A   1      47.003  27.089  32.994  1.00  0.00     0.029 A 
ATOM     66  C   UNL A   1      46.370  26.312  31.927  1.00  0.00     0.049 A 
ATOM     67  H   UNL A   1      46.774  26.414  29.888  1.00  0.00     0.167 HD
ATOM     68  C   UNL A   1      47.641  26.761  25.625  1.00  0.00     0.037 A 
ATOM     69  C   UNL A   1      45.407  25.383  32.091  1.00  0.00     0.037 A 
ATOM     70  C   UNL A   1      46.631  25.740  25.706  1.00  0.00     0.049 A 
ATOM     71  C   UNL A   1      44.829  24.684  30.884  1.00  0.00     0.074 A 
ATOM     72  C   UNL A   1      46.075  24.993  24.682  1.00  0.00     0.029 A 
ATOM     73  N   UNL A   1      46.027  25.320  26.881  1.00  0.00    -0.354 N 
ATOM     74  N   UNL A   1      45.154  24.803  29.620  1.00  0.00    -0.248 NA
ATOM     75  C   UNL A   1      43.739  23.727  31.130  1.00  0.00     0.031 C 
ATOM     76  C   UNL A   1      45.101  24.153  25.232  1.00  0.00     0.029 A 
ATOM     77  C   UNL A   1      45.086  24.341  26.605  1.00  0.00     0.049 A 
ATOM     78  H   UNL A   1      46.236  25.666  27.778  1.00  0.00     0.167 HD
ATOM     79  C   UNL A   1      44.331  23.923  28.927  1.00  0.00     0.074 A 
ATOM     80  C   UNL A   1      43.499  23.266  29.910  1.00  0.00     0.031 C 
ATOM     81  C   UNL A   1      44.271  23.684  27.593  1.00  0.00     0.037 A 
BRANCH  68  82
ATOM     82  C   UNL A   1      48.183  27.116  24.273  1.00  0.00     0.064 A 
ATOM     83  C   UNL A   1      49.447  26.685  23.846  1.00  0.00     0.173 A 
ATOM     84  C   UNL A   1      47.414  27.883  23.386  1.00  0.00     0.173 A 
ATOM     85  F   UNL A   1      50.229  25.966  24.665  1.00  0.00    -0.203 F 
ATOM     86  C   UNL A   1      49.932  27.032  22.588  1.00  0.00     0.198 A 
ATOM     87  C   UNL A   1      47.890  28.204  22.119  1.00  0.00     0.198 A 
ATOM     88  F   UNL A   1      46.197  28.317  23.746  1.00  0.00    -0.203 F 
ATOM     89  F   UNL A   1      51.163  26.651  22.217  1.00  0.00    -0.200 F 
ATOM     90  C   UNL A   1      49.151  27.784  21.723  1.00  0.00     0.200 A 
ATOM     91  F   UNL A   1      47.130  28.923  21.280  1.00  0.00    -0.200 F 
ATOM     92  F   UNL A   1      49.618  28.114  20.511  1.00  0.00    -0.200 F 
ENDBRANCH  68  82
BRANCH  69  93
ATOM     93  C   UNL A   1      44.888  25.077  33.451  1.00  0.00     0.064 A 
ATOM     94  C   UNL A   1      45.491  24.100  34.255  1.00  0.00     0.173 A 
ATOM     95  C   UNL A   1      43.749  25.724  33.954  1.00  0.00     0.173 A 
ATOM     96  F   UNL A   1      46.560  23.427  33.805  1.00  0.00    -0.203 F 
ATOM     97  C   UNL A   1      44.964  23.768  35.502  1.00  0.00     0.198 A 
ATOM     98  C   UNL A   1      43.241  25.412  35.213  1.00  0.00     0.198 A 
ATOM     99  F   UNL A   1      43.127  26.658  33.219  1.00  0.00    -0.203 F 
ATOM    100  F   UNL A   1      45.527  22.792  36.228  1.00  0.00    -0.200 F 
ATOM    101  C   UNL A   1      43.842  24.429  35.983  1.00  0.00     0.200 A 
ATOM    102  F   UNL A   1      42.160  26.057  35.675  1.00  0.00    -0.200 F 
ATOM    103  F   UNL A   1      43.334  24.107  37.181  1.00  0.00    -0.200 F 
ENDBRANCH  69  93
BRANCH  81 104
ATOM    104  C   UNL A   1      43.300  22.643  27.116  1.00  0.00     0.064 A 
ATOM    105  C   UNL A   1      41.913  22.854  27.156  1.00  0.00     0.173 A 
ATOM    106  C   UNL A   1      43.763  21.440  26.561  1.00  0.00     0.173 A 
ATOM    107  F   UNL A   1      41.419  23.982  27.688  1.00  0.00    -0.203 F 
ATOM    108  C   UNL A   1      41.028  21.892  26.677  1.00  0.00     0.198 A 
ATOM    109  C   UNL A   1      42.876  20.492  26.057  1.00  0.00     0.198 A 
ATOM    110  F   UNL A   1      45.080  21.192  26.489  1.00  0.00    -0.203 F 
ATOM    111  F   UNL A   1      39.707  22.099  26.762  1.00  0.00    -0.200 F 
ATOM    112  C   UNL A   1      41.510  20.716  26.122  1.00  0.00     0.200 A 
ATOM    113  F   UNL A   1      43.345  19.362  25.508  1.00  0.00    -0.200 F 
ATOM    114  F   UNL A   1      40.656  19.795  25.652  1.00  0.00    -0.200 F 
ENDBRANCH  81 104
ENDBRANCH  55  56
ENDBRANCH  48  50
ENDBRANCH  47  48
ENDBRANCH  46  47
ENDBRANCH  45  46
ENDBRANCH  44  45
ENDBRANCH  43  44
ENDBRANCH  42  43
ENDBRANCH  41  42
ENDBRANCH   1  41
TORSDOF 29
ENDMDL
MODEL 2
REMARK VINA RESULT:      -7.4      4.208      9.409
REMARK SMILES O=C(N[C@@H](Cc1ccccc1)C(=O)N[C@@H](CS)C(=O)N[C@@H](CO)C(=O)OCCOCCOCCOC(=O)c1ccc(-c2c3nc(c(-c4c(F)c(F)c(F)c(F)c4F)c4ccc([nH]4)c(-c4c(F)c(F)c(F)c(F)c4F)c4nc(c(-c5c(F)c(F)c(F)c(F)c5F)c5ccc2[nH]5)C=C4)C=C3)cc1)c1ccc(F)cc1
REMARK SMILES IDX 28 1 27 2 26 3 24 4 25 5 21 6 20 7 18 8 19 9 15 11 14 12
REMARK SMILES IDX 12 13 13 14 4 16 3 17 1 18 2 19 101 21 102 22 107 23 103 24
REMARK SMILES IDX 106 25 104 26 105 27 5 28 6 29 7 30 11 31 8 32 10 33 9 34
REMARK SMILES IDX 16 35 17 36 22 38 23 39 29 41 30 42 31 43 32 44 33 45 34 46
REMARK SMILES IDX 35 47 36 48 37 49 38 50 39 51 100 52 40 53 99 54 41 55 42 56
REMARK SMILES IDX 43 57 93 58 44 59 98 60 92 61 94 62 45 63 97 64 91 65 90 66
REMARK SMILES IDX 46 68 78 69 58 70 77 71 59 72 62 73 76 74 95 75 60 76 61 77
REMARK SMILES IDX 75 79 96 80 63 81 47 82 48 83 56 84 49 85 50 86 54 87 57 88
REMARK SMILES IDX 51 89 52 90 55 91 53 92 79 93 80 94 88 95 81 96 82 97 86 98
REMARK SMILES IDX 89 99 83 100 84 101 87 102 85 103 64 104 65 105 73 106
REMARK SMILES IDX 66 107 67 108 71 109 74 110 68 111 69 112 72 113 70 114
REMARK H PARENT 20 10 14 15 3 20 17 37 23 40 94 67 62 78
REMARK Flexibility Score: inf
ROOT
ATOM      1  C   UNL A   1      48.893  35.954  26.462  1.00  0.00     0.202 C 
ENDROOT
BRANCH   1   2
ATOM      2  C   UNL A   1      48.239  34.900  25.562  1.00  0.00     0.261 C 
BRANCH   2   3
ATOM      3  O   UNL A   1      47.885  33.692  26.257  1.00  0.00    -0.462 OA
BRANCH   3   4
ATOM      4  C   UNL A   1      46.625  33.677  26.775  1.00  0.00     0.331 C 
ATOM      5  O   UNL A   1      46.365  33.732  27.972  1.00  0.00    -0.250 OA
BRANCH   4   6
ATOM      6  C   UNL A   1      45.535  33.540  25.702  1.00  0.00     0.218 C 
BRANCH   6   7
ATOM      7  N   UNL A   1      44.927  32.194  25.551  1.00  0.00    -0.339 N 
ATOM      8  C   UNL A   1      45.592  31.098  26.031  1.00  0.00     0.244 C 
ATOM      9  O   UNL A   1      46.535  30.666  25.364  1.00  0.00    -0.273 OA
ATOM     10  H   UNL A   1      44.053  32.090  25.111  1.00  0.00     0.164 HD
BRANCH   8  11
ATOM     11  C   UNL A   1      45.083  30.357  27.310  1.00  0.00     0.181 C 
BRANCH  11  12
ATOM     12  N   UNL A   1      46.197  29.504  27.753  1.00  0.00    -0.342 N 
ATOM     13  C   UNL A   1      46.189  28.189  28.120  1.00  0.00     0.243 C 
ATOM     14  O   UNL A   1      47.155  27.514  27.743  1.00  0.00    -0.273 OA
ATOM     15  H   UNL A   1      47.077  29.946  27.790  1.00  0.00     0.164 HD
BRANCH  13  16
ATOM     16  C   UNL A   1      45.079  27.523  28.970  1.00  0.00     0.176 C 
BRANCH  16  17
ATOM     17  N   UNL A   1      44.803  26.137  28.599  1.00  0.00    -0.340 N 
ATOM     18  O   UNL A   1      43.646  24.435  27.687  1.00  0.00    -0.269 OA
ATOM     19  C   UNL A   1      43.743  25.645  27.867  1.00  0.00     0.251 C 
ATOM     20  H   UNL A   1      45.457  25.469  28.910  1.00  0.00     0.164 HD
BRANCH  19  21
ATOM     21  C   UNL A   1      42.679  26.561  27.378  1.00  0.00     0.040 A 
ATOM     22  C   UNL A   1      42.746  27.162  26.114  1.00  0.00     0.017 A 
ATOM     23  C   UNL A   1      41.604  26.845  28.233  1.00  0.00     0.017 A 
ATOM     24  C   UNL A   1      41.785  28.109  25.743  1.00  0.00     0.040 A 
ATOM     25  C   UNL A   1      40.640  27.783  27.851  1.00  0.00     0.040 A 
ATOM     26  C   UNL A   1      40.750  28.418  26.618  1.00  0.00     0.123 A 
ATOM     27  F   UNL A   1      39.846  29.343  26.269  1.00  0.00    -0.207 F 
ENDBRANCH  19  21
ENDBRANCH  16  17
BRANCH  16  28
ATOM     28  C   UNL A   1      45.084  27.809  30.485  1.00  0.00     0.070 C 
BRANCH  28  29
ATOM     29  C   UNL A   1      46.327  27.488  31.278  1.00  0.00    -0.045 A 
ATOM     30  C   UNL A   1      47.171  28.509  31.740  1.00  0.00     0.004 A 
ATOM     31  C   UNL A   1      46.702  26.161  31.504  1.00  0.00     0.004 A 
ATOM     32  C   UNL A   1      48.329  28.203  32.459  1.00  0.00     0.000 A 
ATOM     33  C   UNL A   1      47.829  25.854  32.269  1.00  0.00     0.000 A 
ATOM     34  C   UNL A   1      48.642  26.877  32.748  1.00  0.00     0.000 A 
ENDBRANCH  28  29
ENDBRANCH  16  28
ENDBRANCH  13  16
ENDBRANCH  11  12
BRANCH  11  35
ATOM     35  C   UNL A   1      44.457  31.192  28.430  1.00  0.00     0.101 C 
BRANCH  35  36
ATOM     36  S   UNL A   1      42.824  30.680  29.039  1.00  0.00    -0.177 SA
ATOM     37  H   UNL A   1      42.977  29.776  30.043  1.00  0.00     0.102 HD
ENDBRANCH  35  36
ENDBRANCH  11  35
ENDBRANCH   8  11
ENDBRANCH   6   7
BRANCH   6  38
ATOM     38  C   UNL A   1      44.469  34.608  26.008  1.00  0.00     0.193 C 
BRANCH  38  39
ATOM     39  O   UNL A   1      43.220  34.244  25.416  1.00  0.00    -0.394 OA
ATOM     40  H   UNL A   1      42.549  34.907  25.641  1.00  0.00     0.210 HD
ENDBRANCH  38  39
ENDBRANCH   6  38
ENDBRANCH   4   6
ENDBRANCH   3   4
ENDBRANCH   2   3
ENDBRANCH   1   2
BRANCH   1  41
ATOM     41  O   UNL A   1      48.282  37.238  26.523  1.00  0.00    -0.376 OA
BRANCH  41  42
ATOM     42  C   UNL A   1      48.402  38.108  25.404  1.00  0.00     0.188 C 
BRANCH  42  43
ATOM     43  C   UNL A   1      47.159  38.850  24.871  1.00  0.00     0.188 C 
BRANCH  43  44
ATOM     44  O   UNL A   1      46.118  39.039  25.812  1.00  0.00    -0.376 OA
BRANCH  44  45
ATOM     45  C   UNL A   1      46.221  40.203  26.622  1.00  0.00     0.202 C 
BRANCH  45  46
ATOM     46  C   UNL A   1      44.909  40.984  26.763  1.00  0.00     0.261 C 
BRANCH  46  47
ATOM     47  O   UNL A   1      43.979  40.433  27.716  1.00  0.00    -0.460 OA
BRANCH  47  48
ATOM     48  C   UNL A   1      44.388  40.381  29.004  1.00  0.00     0.338 C 
ATOM     49  O   UNL A   1      44.788  41.303  29.689  1.00  0.00    -0.246 OA
BRANCH  48  50
ATOM     50  C   UNL A   1      44.090  39.028  29.519  1.00  0.00     0.060 A 
ATOM     51  C   UNL A   1      43.900  38.854  30.896  1.00  0.00     0.016 A 
ATOM     52  C   UNL A   1      44.015  37.936  28.652  1.00  0.00     0.016 A 
ATOM     53  C   UNL A   1      43.645  37.581  31.410  1.00  0.00     0.010 A 
ATOM     54  C   UNL A   1      43.776  36.658  29.172  1.00  0.00     0.010 A 
ATOM     55  C   UNL A   1      43.604  36.471  30.555  1.00  0.00    -0.014 A 
BRANCH  55  56
ATOM     56  C   UNL A   1      43.547  35.100  31.124  1.00  0.00     0.031 A 
ATOM     57  C   UNL A   1      42.280  34.306  30.966  1.00  0.00     0.074 A 
ATOM     58  C   UNL A   1      44.605  34.551  31.747  1.00  0.00     0.049 A 
ATOM     59  N   UNL A   1      41.955  33.141  31.467  1.00  0.00    -0.248 NA
ATOM     60  C   UNL A   1      41.234  34.917  30.132  1.00  0.00     0.031 C 
ATOM     61  C   UNL A   1      45.914  35.177  31.906  1.00  0.00     0.029 A 
ATOM     62  N   UNL A   1      44.735  33.331  32.367  1.00  0.00    -0.354 N 
ATOM     63  C   UNL A   1      40.669  32.882  31.013  1.00  0.00     0.074 A 
ATOM     64  C   UNL A   1      40.262  34.021  30.218  1.00  0.00     0.031 C 
ATOM     65  C   UNL A   1      46.717  34.337  32.586  1.00  0.00     0.029 A 
ATOM     66  C   UNL A   1      45.964  33.136  32.947  1.00  0.00     0.049 A 
ATOM     67  H   UNL A   1      44.015  32.660  32.392  1.00  0.00     0.167 HD
ATOM     68  C   UNL A   1      39.896  31.793  31.237  1.00  0.00     0.037 A 
ATOM     69  C   UNL A   1      46.415  32.118  33.708  1.00  0.00     0.037 A 
ATOM     70  C   UNL A   1      40.300  30.654  32.018  1.00  0.00     0.049 A 
ATOM     71  C   UNL A   1      45.503  30.956  34.019  1.00  0.00     0.074 A 
ATOM     72  C   UNL A   1      39.577  29.512  32.314  1.00  0.00     0.029 A 
ATOM     73  N   UNL A   1      41.538  30.514  32.625  1.00  0.00    -0.354 N 
ATOM     74  N   UNL A   1      44.278  30.729  33.614  1.00  0.00    -0.248 NA
ATOM     75  C   UNL A   1      46.039  29.911  34.906  1.00  0.00     0.031 C 
ATOM     76  C   UNL A   1      40.362  28.699  33.139  1.00  0.00     0.029 A 
ATOM     77  C   UNL A   1      41.592  29.313  33.316  1.00  0.00     0.049 A 
ATOM     78  H   UNL A   1      42.270  31.169  32.573  1.00  0.00     0.167 HD
ATOM     79  C   UNL A   1      43.907  29.511  34.172  1.00  0.00     0.074 A 
ATOM     80  C   UNL A   1      45.041  29.039  34.935  1.00  0.00     0.031 C 
ATOM     81  C   UNL A   1      42.731  28.846  34.062  1.00  0.00     0.037 A 
BRANCH  68  82
ATOM     82  C   UNL A   1      38.513  31.803  30.662  1.00  0.00     0.064 A 
ATOM     83  C   UNL A   1      37.439  32.413  31.327  1.00  0.00     0.173 A 
ATOM     84  C   UNL A   1      38.263  31.210  29.415  1.00  0.00     0.173 A 
ATOM     85  F   UNL A   1      37.621  32.977  32.531  1.00  0.00    -0.203 F 
ATOM     86  C   UNL A   1      36.160  32.406  30.776  1.00  0.00     0.198 A 
ATOM     87  C   UNL A   1      36.990  31.229  28.855  1.00  0.00     0.198 A 
ATOM     88  F   UNL A   1      39.257  30.615  28.738  1.00  0.00    -0.203 F 
ATOM     89  F   UNL A   1      35.138  32.951  31.450  1.00  0.00    -0.200 F 
ATOM     90  C   UNL A   1      35.939  31.820  29.539  1.00  0.00     0.200 A 
ATOM     91  F   UNL A   1      36.779  30.671  27.654  1.00  0.00    -0.200 F 
ATOM     92  F   UNL A   1      34.708  31.817  29.008  1.00  0.00    -0.200 F 
ENDBRANCH  68  82
BRANCH  69  93
ATOM     93  C   UNL A   1      47.791  32.161  34.273  1.00  0.00     0.064 A 
ATOM     94  C   UNL A   1      48.029  32.645  35.567  1.00  0.00     0.173 A 
ATOM     95  C   UNL A   1      48.900  31.763  33.511  1.00  0.00     0.173 A 
ATOM     96  F   UNL A   1      47.006  33.071  36.322  1.00  0.00    -0.203 F 
ATOM     97  C   UNL A   1      49.325  32.746  36.070  1.00  0.00     0.198 A 
ATOM     98  C   UNL A   1      50.191  31.837  34.026  1.00  0.00     0.198 A 
ATOM     99  F   UNL A   1      48.727  31.306  32.261  1.00  0.00    -0.203 F 
ATOM    100  F   UNL A   1      49.530  33.262  37.290  1.00  0.00    -0.200 F 
ATOM    101  C   UNL A   1      50.405  32.336  35.301  1.00  0.00     0.200 A 
ATOM    102  F   UNL A   1      51.231  31.436  33.281  1.00  0.00    -0.200 F 
ATOM    103  F   UNL A   1      51.651  32.437  35.785  1.00  0.00    -0.200 F 
ENDBRANCH  69  93
BRANCH  81 104
ATOM    104  C   UNL A   1      42.615  27.517  34.751  1.00  0.00     0.064 A 
ATOM    105  C   UNL A   1      41.976  27.383  35.993  1.00  0.00     0.173 A 
ATOM    106  C   UNL A   1      43.102  26.353  34.137  1.00  0.00     0.173 A 
ATOM    107  F   UNL A   1      41.505  28.466  36.629  1.00  0.00    -0.203 F 
ATOM    108  C   UNL A   1      41.848  26.137  36.602  1.00  0.00     0.198 A 
ATOM    109  C   UNL A   1      42.947  25.105  34.735  1.00  0.00     0.198 A 
ATOM    110  F   UNL A   1      43.713  26.424  32.944  1.00  0.00    -0.203 F 
ATOM    111  F   UNL A   1      41.269  26.040  37.807  1.00  0.00    -0.200 F 
ATOM    112  C   UNL A   1      42.326  25.000  35.969  1.00  0.00     0.200 A 
ATOM    113  F   UNL A   1      43.398  24.005  34.115  1.00  0.00    -0.200 F 
ATOM    114  F   UNL A   1      42.193  23.800  36.553  1.00  0.00    -0.200 F 
ENDBRANCH  81 104
ENDBRANCH  55  56
ENDBRANCH  48  50
ENDBRANCH  47  48
ENDBRANCH  46  47
ENDBRANCH  45  46
ENDBRANCH  44  45
ENDBRANCH  43  44
ENDBRANCH  42  43
ENDBRANCH  41  42
ENDBRANCH   1  41
TORSDOF 29
ENDMDL
MODEL 3
REMARK VINA RESULT:      -7.2      6.751     11.636
REMARK SMILES O=C(N[C@@H](Cc1ccccc1)C(=O)N[C@@H](CS)C(=O)N[C@@H](CO)C(=O)OCCOCCOCCOC(=O)c1ccc(-c2c3nc(c(-c4c(F)c(F)c(F)c(F)c4F)c4ccc([nH]4)c(-c4c(F)c(F)c(F)c(F)c4F)c4nc(c(-c5c(F)c(F)c(F)c(F)c5F)c5ccc2[nH]5)C=C4)C=C3)cc1)c1ccc(F)cc1
REMARK SMILES IDX 28 1 27 2 26 3 24 4 25 5 21 6 20 7 18 8 19 9 15 11 14 12
REMARK SMILES IDX 12 13 13 14 4 16 3 17 1 18 2 19 101 21 102 22 107 23 103 24
REMARK SMILES IDX 106 25 104 26 105 27 5 28 6 29 7 30 11 31 8 32 10 33 9 34
REMARK SMILES IDX 16 35 17 36 22 38 23 39 29 41 30 42 31 43 32 44 33 45 34 46
REMARK SMILES IDX 35 47 36 48 37 49 38 50 39 51 100 52 40 53 99 54 41 55 42 56
REMARK SMILES IDX 43 57 93 58 44 59 98 60 92 61 94 62 45 63 97 64 91 65 90 66
REMARK SMILES IDX 46 68 78 69 58 70 77 71 59 72 62 73 76 74 95 75 60 76 61 77
REMARK SMILES IDX 75 79 96 80 63 81 47 82 48 83 56 84 49 85 50 86 54 87 57 88
REMARK SMILES IDX 51 89 52 90 55 91 53 92 79 93 80 94 88 95 81 96 82 97 86 98
REMARK SMILES IDX 89 99 83 100 84 101 87 102 85 103 64 104 65 105 73 106
REMARK SMILES IDX 66 107 67 108 71 109 74 110 68 111 69 112 72 113 70 114
REMARK H PARENT 20 10 14 15 3 20 17 37 23 40 94 67 62 78
REMARK Flexibility Score: inf
ROOT
ATOM      1  C   UNL A   1      47.124  45.158  23.636  1.00  0.00     0.202 C 
ENDROOT
BRANCH   1   2
ATOM      2  C   UNL A   1      48.076  44.594  24.697  1.00  0.00     0.261 C 
BRANCH   2   3
ATOM      3  O   UNL A   1      48.205  45.432  25.858  1.00  0.00    -0.462 OA
BRANCH   3   4
ATOM      4  C   UNL A   1      47.449  45.052  26.926  1.00  0.00     0.331 C 
ATOM      5  O   UNL A   1      46.247  44.812  26.876  1.00  0.00    -0.250 OA
BRANCH   4   6
ATOM      6  C   UNL A   1      48.247  44.990  28.237  1.00  0.00     0.218 C 
BRANCH   6   7
ATOM      7  N   UNL A   1      48.665  43.639  28.688  1.00  0.00    -0.339 N 
ATOM      8  C   UNL A   1      48.179  43.143  29.868  1.00  0.00     0.244 C 
ATOM      9  O   UNL A   1      48.678  43.567  30.913  1.00  0.00    -0.273 OA
ATOM     10  H   UNL A   1      49.287  43.105  28.143  1.00  0.00     0.164 HD
BRANCH   8  11
ATOM     11  C   UNL A   1      47.122  41.992  29.870  1.00  0.00     0.181 C 
BRANCH  11  12
ATOM     12  N   UNL A   1      45.942  42.526  29.172  1.00  0.00    -0.342 N 
ATOM     13  C   UNL A   1      44.818  43.103  29.689  1.00  0.00     0.243 C 
ATOM     14  O   UNL A   1      44.367  44.070  29.062  1.00  0.00    -0.273 OA
ATOM     15  H   UNL A   1      45.966  42.456  28.190  1.00  0.00     0.164 HD
BRANCH  13  16
ATOM     16  C   UNL A   1      44.091  42.617  30.967  1.00  0.00     0.176 C 
BRANCH  16  17
ATOM     17  N   UNL A   1      43.098  43.560  31.477  1.00  0.00    -0.340 N 
ATOM     18  O   UNL A   1      42.071  44.849  33.009  1.00  0.00    -0.269 OA
ATOM     19  C   UNL A   1      43.005  44.100  32.742  1.00  0.00     0.251 C 
ATOM     20  H   UNL A   1      42.407  43.846  30.835  1.00  0.00     0.164 HD
BRANCH  19  21
ATOM     21  C   UNL A   1      43.974  43.709  33.798  1.00  0.00     0.040 A 
ATOM     22  C   UNL A   1      45.289  44.195  33.811  1.00  0.00     0.017 A 
ATOM     23  C   UNL A   1      43.555  42.800  34.781  1.00  0.00     0.017 A 
ATOM     24  C   UNL A   1      46.202  43.708  34.752  1.00  0.00     0.040 A 
ATOM     25  C   UNL A   1      44.468  42.327  35.727  1.00  0.00     0.040 A 
ATOM     26  C   UNL A   1      45.786  42.772  35.693  1.00  0.00     0.123 A 
ATOM     27  F   UNL A   1      46.669  42.291  36.578  1.00  0.00    -0.207 F 
ENDBRANCH  19  21
ENDBRANCH  16  17
BRANCH  16  28
ATOM     28  C   UNL A   1      43.677  41.133  31.021  1.00  0.00     0.070 C 
BRANCH  28  29
ATOM     29  C   UNL A   1      44.654  40.128  31.579  1.00  0.00    -0.045 A 
ATOM     30  C   UNL A   1      45.408  40.417  32.726  1.00  0.00     0.004 A 
ATOM     31  C   UNL A   1      44.882  38.917  30.920  1.00  0.00     0.004 A 
ATOM     32  C   UNL A   1      46.323  39.488  33.227  1.00  0.00     0.000 A 
ATOM     33  C   UNL A   1      45.755  37.965  31.449  1.00  0.00     0.000 A 
ATOM     34  C   UNL A   1      46.475  38.251  32.606  1.00  0.00     0.000 A 
ENDBRANCH  28  29
ENDBRANCH  16  28
ENDBRANCH  13  16
ENDBRANCH  11  12
BRANCH  11  35
ATOM     35  C   UNL A   1      47.559  40.608  29.382  1.00  0.00     0.101 C 
BRANCH  35  36
ATOM     36  S   UNL A   1      49.008  39.860  30.184  1.00  0.00    -0.177 SA
ATOM     37  H   UNL A   1      49.009  40.177  31.507  1.00  0.00     0.102 HD
ENDBRANCH  35  36
ENDBRANCH  11  35
ENDBRANCH   8  11
ENDBRANCH   6   7
BRANCH   6  38
ATOM     38  C   UNL A   1      49.456  45.928  28.068  1.00  0.00     0.193 C 
BRANCH  38  39
ATOM     39  O   UNL A   1      49.552  46.817  29.183  1.00  0.00    -0.394 OA
ATOM     40  H   UNL A   1      50.309  46.567  29.732  1.00  0.00     0.210 HD
ENDBRANCH  38  39
ENDBRANCH   6  38
ENDBRANCH   4   6
ENDBRANCH   3   4
ENDBRANCH   2   3
ENDBRANCH   1   2
BRANCH   1  41
ATOM     41  O   UNL A   1      45.727  45.003  23.857  1.00  0.00    -0.376 OA
BRANCH  41  42
ATOM     42  C   UNL A   1      45.129  43.737  23.603  1.00  0.00     0.188 C 
BRANCH  42  43
ATOM     43  C   UNL A   1      43.892  43.296  24.413  1.00  0.00     0.188 C 
BRANCH  43  44
ATOM     44  O   UNL A   1      43.420  41.991  24.133  1.00  0.00    -0.376 OA
BRANCH  44  45
ATOM     45  C   UNL A   1      42.726  41.345  25.192  1.00  0.00     0.202 C 
BRANCH  45  46
ATOM     46  C   UNL A   1      43.440  41.424  26.547  1.00  0.00     0.261 C 
BRANCH  46  47
ATOM     47  O   UNL A   1      43.636  40.154  27.199  1.00  0.00    -0.460 OA
BRANCH  47  48
ATOM     48  C   UNL A   1      44.611  39.359  26.702  1.00  0.00     0.338 C 
ATOM     49  O   UNL A   1      45.557  39.693  26.016  1.00  0.00    -0.246 OA
BRANCH  48  50
ATOM     50  C   UNL A   1      44.443  38.014  27.294  1.00  0.00     0.060 A 
ATOM     51  C   UNL A   1      43.151  37.493  27.433  1.00  0.00     0.016 A 
ATOM     52  C   UNL A   1      45.552  37.281  27.723  1.00  0.00     0.016 A 
ATOM     53  C   UNL A   1      42.965  36.237  28.014  1.00  0.00     0.010 A 
ATOM     54  C   UNL A   1      45.361  36.029  28.320  1.00  0.00     0.010 A 
ATOM     55  C   UNL A   1      44.065  35.506  28.483  1.00  0.00    -0.014 A 
BRANCH  55  56
ATOM     56  C   UNL A   1      43.850  34.277  29.287  1.00  0.00     0.031 A 
ATOM     57  C   UNL A   1      43.471  34.418  30.735  1.00  0.00     0.074 A 
ATOM     58  C   UNL A   1      43.958  33.051  28.743  1.00  0.00     0.049 A 
ATOM     59  N   UNL A   1      43.338  33.500  31.659  1.00  0.00    -0.248 NA
ATOM     60  C   UNL A   1      43.214  35.788  31.204  1.00  0.00     0.031 C 
ATOM     61  C   UNL A   1      44.246  32.769  27.340  1.00  0.00     0.029 A 
ATOM     62  N   UNL A   1      43.839  31.810  29.321  1.00  0.00    -0.354 N 
ATOM     63  C   UNL A   1      42.987  34.180  32.817  1.00  0.00     0.074 A 
ATOM     64  C   UNL A   1      42.952  35.589  32.488  1.00  0.00     0.031 C 
ATOM     65  C   UNL A   1      44.286  31.434  27.165  1.00  0.00     0.029 A 
ATOM     66  C   UNL A   1      44.071  30.773  28.452  1.00  0.00     0.049 A 
ATOM     67  H   UNL A   1      43.609  31.676  30.268  1.00  0.00     0.167 HD
ATOM     68  C   UNL A   1      42.717  33.676  34.044  1.00  0.00     0.037 A 
ATOM     69  C   UNL A   1      44.135  29.445  28.679  1.00  0.00     0.037 A 
ATOM     70  C   UNL A   1      42.741  32.276  34.374  1.00  0.00     0.049 A 
ATOM     71  C   UNL A   1      43.918  28.914  30.075  1.00  0.00     0.074 A 
ATOM     72  C   UNL A   1      42.498  31.674  35.596  1.00  0.00     0.029 A 
ATOM     73  N   UNL A   1      43.023  31.260  33.475  1.00  0.00    -0.354 N 
ATOM     74  N   UNL A   1      43.617  29.562  31.174  1.00  0.00    -0.248 NA
ATOM     75  C   UNL A   1      44.064  27.461  30.263  1.00  0.00     0.031 C 
ATOM     76  C   UNL A   1      42.678  30.294  35.447  1.00  0.00     0.029 A 
ATOM     77  C   UNL A   1      42.984  30.034  34.120  1.00  0.00     0.049 A 
ATOM     78  H   UNL A   1      43.221  31.389  32.520  1.00  0.00     0.167 HD
ATOM     79  C   UNL A   1      43.512  28.600  32.171  1.00  0.00     0.074 A 
ATOM     80  C   UNL A   1      43.769  27.321  31.548  1.00  0.00     0.031 C 
ATOM     81  C   UNL A   1      43.229  28.764  33.487  1.00  0.00     0.037 A 
BRANCH  68  82
ATOM     82  C   UNL A   1      42.414  34.656  35.137  1.00  0.00     0.064 A 
ATOM     83  C   UNL A   1      41.103  35.062  35.425  1.00  0.00     0.173 A 
ATOM     84  C   UNL A   1      43.453  35.182  35.919  1.00  0.00     0.173 A 
ATOM     85  F   UNL A   1      40.077  34.602  34.693  1.00  0.00    -0.203 F 
ATOM     86  C   UNL A   1      40.846  35.978  36.442  1.00  0.00     0.198 A 
ATOM     87  C   UNL A   1      43.189  36.076  36.952  1.00  0.00     0.198 A 
ATOM     88  F   UNL A   1      44.724  34.825  35.685  1.00  0.00    -0.203 F 
ATOM     89  F   UNL A   1      39.590  36.389  36.669  1.00  0.00    -0.200 F 
ATOM     90  C   UNL A   1      41.887  36.478  37.208  1.00  0.00     0.200 A 
ATOM     91  F   UNL A   1      44.197  36.552  37.699  1.00  0.00    -0.200 F 
ATOM     92  F   UNL A   1      41.637  37.358  38.188  1.00  0.00    -0.200 F 
ENDBRANCH  68  82
BRANCH  69  93
ATOM     93  C   UNL A   1      44.457  28.512  27.566  1.00  0.00     0.064 A 
ATOM     94  C   UNL A   1      43.457  28.033  26.708  1.00  0.00     0.173 A 
ATOM     95  C   UNL A   1      45.765  28.045  27.367  1.00  0.00     0.173 A 
ATOM     96  F   UNL A   1      42.185  28.421  26.878  1.00  0.00    -0.203 F 
ATOM     97  C   UNL A   1      43.750  27.108  25.707  1.00  0.00     0.198 A 
ATOM     98  C   UNL A   1      46.061  27.143  26.348  1.00  0.00     0.198 A 
ATOM     99  F   UNL A   1      46.757  28.462  28.169  1.00  0.00    -0.203 F 
ATOM    100  F   UNL A   1      42.767  26.624  24.936  1.00  0.00    -0.200 F 
ATOM    101  C   UNL A   1      45.053  26.668  25.524  1.00  0.00     0.200 A 
ATOM    102  F   UNL A   1      47.323  26.725  26.172  1.00  0.00    -0.200 F 
ATOM    103  F   UNL A   1      45.333  25.776  24.564  1.00  0.00    -0.200 F 
ENDBRANCH  69  93
BRANCH  81 104
ATOM    104  C   UNL A   1      43.145  27.532  34.341  1.00  0.00     0.064 A 
ATOM    105  C   UNL A   1      44.272  27.005  34.988  1.00  0.00     0.173 A 
ATOM    106  C   UNL A   1      41.910  26.900  34.557  1.00  0.00     0.173 A 
ATOM    107  F   UNL A   1      45.478  27.563  34.805  1.00  0.00    -0.203 F 
ATOM    108  C   UNL A   1      44.169  25.880  35.804  1.00  0.00     0.198 A 
ATOM    109  C   UNL A   1      41.805  25.793  35.395  1.00  0.00     0.198 A 
ATOM    110  F   UNL A   1      40.799  27.370  33.968  1.00  0.00    -0.203 F 
ATOM    111  F   UNL A   1      45.266  25.371  36.381  1.00  0.00    -0.200 F 
ATOM    112  C   UNL A   1      42.936  25.281  36.012  1.00  0.00     0.200 A 
ATOM    113  F   UNL A   1      40.610  25.224  35.606  1.00  0.00    -0.200 F 
ATOM    114  F   UNL A   1      42.837  24.204  36.806  1.00  0.00    -0.200 F 
ENDBRANCH  81 104
ENDBRANCH  55  56
ENDBRANCH  48  50
ENDBRANCH  47  48
ENDBRANCH  46  47
ENDBRANCH  45  46
ENDBRANCH  44  45
ENDBRANCH  43  44
ENDBRANCH  42  43
ENDBRANCH  41  42
ENDBRANCH   1  41
TORSDOF 29
ENDMDL
