MODEL 1
REMARK VINA RESULT:     -10.5      0.000      0.000
REMARK SMILES Cc1ccsc1[C@@H]1[NH2+][C@@H](C(=O)OCCOCCOCCOC(=O)c2ccc(-c3c4nc(c(-c5c(F)c(F)c(F)c(F)c5F)c5ccc([nH]5)c(-c5c(F)c(F)c(F)c(F)c5F)c5nc(c(-c6c(F)c(F)c(F)c(F)c6F)c6ccc3[nH]6)C=C5)C=C4)cc2)CS1
REMARK SMILES IDX 17 1 16 2 15 3 14 4 13 5 12 6 10 7 11 8 9 9 7 10 8 11 88 12
REMARK SMILES IDX 87 15 6 16 1 17 2 18 3 19 4 20 5 21 18 22 19 23 20 24 21 25
REMARK SMILES IDX 22 26 23 27 24 28 25 29 86 30 26 31 85 32 27 33 28 34 29 35
REMARK SMILES IDX 79 36 30 37 84 38 78 39 80 40 31 41 83 42 77 43 76 44 32 46
REMARK SMILES IDX 64 47 44 48 63 49 45 50 48 51 62 52 81 53 46 54 47 55 61 57
REMARK SMILES IDX 82 58 49 59 33 60 34 61 42 62 35 63 36 64 40 65 43 66 37 67
REMARK SMILES IDX 38 68 41 69 39 70 65 71 66 72 74 73 67 74 68 75 72 76 75 77
REMARK SMILES IDX 69 78 70 79 73 80 71 81 50 82 51 83 59 84 52 85 53 86 57 87
REMARK SMILES IDX 60 88 54 89 55 90 58 91 56 92
REMARK H PARENT 8 13 8 14 80 45 48 56
REMARK Flexibility Score: inf
ROOT
ATOM      1  C   UNL A   1      40.659  20.785  26.130  1.00  0.00     0.188 C 
ENDROOT
BRANCH   1   2
ATOM      2  C   UNL A   1      39.516  21.768  26.456  1.00  0.00     0.188 C 
BRANCH   2   3
ATOM      3  O   UNL A   1      38.529  22.021  25.467  1.00  0.00    -0.376 OA
BRANCH   3   4
ATOM      4  C   UNL A   1      37.754  20.923  25.003  1.00  0.00     0.202 C 
BRANCH   4   5
ATOM      5  C   UNL A   1      36.210  21.017  24.964  1.00  0.00     0.261 C 
BRANCH   5   6
ATOM      6  O   UNL A   1      35.542  21.565  26.134  1.00  0.00    -0.459 OA
BRANCH   6   7
ATOM      7  C   UNL A   1      34.183  21.531  26.104  1.00  0.00     0.365 C 
ATOM      8  O   UNL A   1      33.522  20.690  26.713  1.00  0.00    -0.245 OA
BRANCH   7   9
ATOM      9  C   UNL A   1      33.467  22.669  25.342  1.00  0.00     0.304 C 
ATOM     10  C   UNL A   1      32.713  24.842  26.180  1.00  0.00     0.284 C 
ATOM     11  N   UNL A   1      33.845  24.094  25.608  1.00  0.00    -0.318 N 
ATOM     12  S   UNL A   1      31.485  23.640  26.758  1.00  0.00    -0.087 SA
ATOM     13  H   UNL A   1      34.625  24.114  26.266  1.00  0.00     0.348 HD
ATOM     14  H   UNL A   1      34.112  24.530  24.726  1.00  0.00     0.348 HD
ATOM     15  C   UNL A   1      31.966  22.450  25.496  1.00  0.00     0.153 C 
BRANCH  10  16
ATOM     16  C   UNL A   1      32.086  25.913  25.280  1.00  0.00     0.075 A 
ATOM     17  C   UNL A   1      33.654  27.946  25.657  1.00  0.00     0.046 C 
ATOM     18  C   UNL A   1      32.425  27.264  25.148  1.00  0.00    -0.030 A 
ATOM     19  C   UNL A   1      31.378  28.011  24.500  1.00  0.00     0.015 A 
ATOM     20  C   UNL A   1      30.348  27.219  24.063  1.00  0.00     0.065 A 
ATOM     21  S   UNL A   1      30.686  25.574  24.312  1.00  0.00    -0.141 S 
ENDBRANCH  10  16
ENDBRANCH   7   9
ENDBRANCH   6   7
ENDBRANCH   5   6
ENDBRANCH   4   5
ENDBRANCH   3   4
ENDBRANCH   2   3
ENDBRANCH   1   2
BRANCH   1  22
ATOM     22  O   UNL A   1      41.851  21.028  26.836  1.00  0.00    -0.376 OA
BRANCH  22  23
ATOM     23  C   UNL A   1      43.091  20.863  26.180  1.00  0.00     0.202 C 
BRANCH  23  24
ATOM     24  C   UNL A   1      43.545  21.747  25.002  1.00  0.00     0.261 C 
BRANCH  24  25
ATOM     25  O   UNL A   1      42.926  23.032  24.839  1.00  0.00    -0.460 OA
BRANCH  25  26
ATOM     26  C   UNL A   1      43.706  24.121  25.000  1.00  0.00     0.338 C 
ATOM     27  O   UNL A   1      44.705  24.415  24.352  1.00  0.00    -0.246 OA
BRANCH  26  28
ATOM     28  C   UNL A   1      43.039  25.031  25.953  1.00  0.00     0.060 A 
ATOM     29  C   UNL A   1      43.454  26.369  26.015  1.00  0.00     0.016 A 
ATOM     30  C   UNL A   1      42.016  24.572  26.784  1.00  0.00     0.016 A 
ATOM     31  C   UNL A   1      42.855  27.250  26.915  1.00  0.00     0.010 A 
ATOM     32  C   UNL A   1      41.436  25.450  27.708  1.00  0.00     0.010 A 
ATOM     33  C   UNL A   1      41.867  26.788  27.794  1.00  0.00    -0.014 A 
BRANCH  33  34
ATOM     34  C   UNL A   1      41.433  27.642  28.927  1.00  0.00     0.031 A 
ATOM     35  C   UNL A   1      42.204  27.560  30.216  1.00  0.00     0.074 A 
ATOM     36  C   UNL A   1      40.402  28.497  28.818  1.00  0.00     0.049 A 
ATOM     37  N   UNL A   1      41.977  28.141  31.367  1.00  0.00    -0.248 NA
ATOM     38  C   UNL A   1      43.401  26.704  30.200  1.00  0.00     0.031 C 
ATOM     39  C   UNL A   1      39.623  28.733  27.606  1.00  0.00     0.029 A 
ATOM     40  N   UNL A   1      39.831  29.324  29.755  1.00  0.00    -0.354 N 
ATOM     41  C   UNL A   1      42.994  27.716  32.210  1.00  0.00     0.074 A 
ATOM     42  C   UNL A   1      43.823  26.806  31.450  1.00  0.00     0.031 C 
ATOM     43  C   UNL A   1      38.663  29.636  27.875  1.00  0.00     0.029 A 
ATOM     44  C   UNL A   1      38.735  30.009  29.288  1.00  0.00     0.049 A 
ATOM     45  H   UNL A   1      40.174  29.417  30.673  1.00  0.00     0.167 HD
ATOM     46  C   UNL A   1      43.221  28.058  33.501  1.00  0.00     0.037 A 
ATOM     47  C   UNL A   1      37.876  30.821  29.939  1.00  0.00     0.037 A 
ATOM     48  C   UNL A   1      42.392  28.958  34.258  1.00  0.00     0.049 A 
ATOM     49  C   UNL A   1      38.084  31.096  31.408  1.00  0.00     0.074 A 
ATOM     50  C   UNL A   1      42.534  29.361  35.574  1.00  0.00     0.029 A 
ATOM     51  N   UNL A   1      41.257  29.587  33.768  1.00  0.00    -0.354 N 
ATOM     52  N   UNL A   1      39.045  30.692  32.204  1.00  0.00    -0.248 NA
ATOM     53  C   UNL A   1      37.082  31.944  32.072  1.00  0.00     0.031 C 
ATOM     54  C   UNL A   1      41.452  30.186  35.899  1.00  0.00     0.029 A 
ATOM     55  C   UNL A   1      40.673  30.353  34.766  1.00  0.00     0.049 A 
ATOM     56  H   UNL A   1      40.916  29.502  32.848  1.00  0.00     0.167 HD
ATOM     57  C   UNL A   1      38.784  31.263  33.445  1.00  0.00     0.074 A 
ATOM     58  C   UNL A   1      37.580  32.052  33.294  1.00  0.00     0.031 C 
ATOM     59  C   UNL A   1      39.481  31.148  34.602  1.00  0.00     0.037 A 
BRANCH  46  60
ATOM     60  C   UNL A   1      44.394  27.419  34.186  1.00  0.00     0.064 A 
ATOM     61  C   UNL A   1      44.278  26.198  34.868  1.00  0.00     0.173 A 
ATOM     62  C   UNL A   1      45.655  28.033  34.151  1.00  0.00     0.173 A 
ATOM     63  F   UNL A   1      43.091  25.578  34.947  1.00  0.00    -0.203 F 
ATOM     64  C   UNL A   1      45.374  25.634  35.516  1.00  0.00     0.198 A 
ATOM     65  C   UNL A   1      46.756  27.449  34.770  1.00  0.00     0.198 A 
ATOM     66  F   UNL A   1      45.821  29.201  33.511  1.00  0.00    -0.203 F 
ATOM     67  F   UNL A   1      45.228  24.497  36.210  1.00  0.00    -0.200 F 
ATOM     68  C   UNL A   1      46.612  26.256  35.461  1.00  0.00     0.200 A 
ATOM     69  F   UNL A   1      47.955  28.045  34.704  1.00  0.00    -0.200 F 
ATOM     70  F   UNL A   1      47.667  25.709  36.082  1.00  0.00    -0.200 F 
ENDBRANCH  46  60
BRANCH  47  71
ATOM     71  C   UNL A   1      36.720  31.418  29.218  1.00  0.00     0.064 A 
ATOM     72  C   UNL A   1      36.679  32.789  28.926  1.00  0.00     0.173 A 
ATOM     73  C   UNL A   1      35.611  30.642  28.850  1.00  0.00     0.173 A 
ATOM     74  F   UNL A   1      37.699  33.582  29.289  1.00  0.00    -0.203 F 
ATOM     75  C   UNL A   1      35.567  33.364  28.314  1.00  0.00     0.198 A 
ATOM     76  C   UNL A   1      34.512  31.212  28.208  1.00  0.00     0.198 A 
ATOM     77  F   UNL A   1      35.591  29.328  29.116  1.00  0.00    -0.203 F 
ATOM     78  F   UNL A   1      35.530  34.687  28.101  1.00  0.00    -0.200 F 
ATOM     79  C   UNL A   1      34.487  32.574  27.949  1.00  0.00     0.200 A 
ATOM     80  F   UNL A   1      33.475  30.443  27.853  1.00  0.00    -0.200 F 
ATOM     81  F   UNL A   1      33.416  33.127  27.364  1.00  0.00    -0.200 F 
ENDBRANCH  47  71
BRANCH  59  82
ATOM     82  C   UNL A   1      38.996  31.930  35.791  1.00  0.00     0.064 A 
ATOM     83  C   UNL A   1      38.189  31.351  36.782  1.00  0.00     0.173 A 
ATOM     84  C   UNL A   1      39.384  33.268  35.964  1.00  0.00     0.173 A 
ATOM     85  F   UNL A   1      37.779  30.079  36.662  1.00  0.00    -0.203 F 
ATOM     86  C   UNL A   1      37.768  32.090  37.886  1.00  0.00     0.198 A 
ATOM     87  C   UNL A   1      38.991  33.993  37.085  1.00  0.00     0.198 A 
ATOM     88  F   UNL A   1      40.164  33.870  35.052  1.00  0.00    -0.203 F 
ATOM     89  F   UNL A   1      36.955  31.531  38.794  1.00  0.00    -0.200 F 
ATOM     90  C   UNL A   1      38.176  33.407  38.041  1.00  0.00     0.200 A 
ATOM     91  F   UNL A   1      39.403  35.259  37.242  1.00  0.00    -0.200 F 
ATOM     92  F   UNL A   1      37.778  34.112  39.109  1.00  0.00    -0.200 F 
ENDBRANCH  59  82
ENDBRANCH  33  34
ENDBRANCH  26  28
ENDBRANCH  25  26
ENDBRANCH  24  25
ENDBRANCH  23  24
ENDBRANCH  22  23
ENDBRANCH   1  22
TORSDOF 18
ENDMDL
MODEL 2
REMARK VINA RESULT:     -10.3      4.577      9.272
REMARK SMILES Cc1ccsc1[C@@H]1[NH2+][C@@H](C(=O)OCCOCCOCCOC(=O)c2ccc(-c3c4nc(c(-c5c(F)c(F)c(F)c(F)c5F)c5ccc([nH]5)c(-c5c(F)c(F)c(F)c(F)c5F)c5nc(c(-c6c(F)c(F)c(F)c(F)c6F)c6ccc3[nH]6)C=C5)C=C4)cc2)CS1
REMARK SMILES IDX 17 1 16 2 15 3 14 4 13 5 12 6 10 7 11 8 9 9 7 10 8 11 88 12
REMARK SMILES IDX 87 15 6 16 1 17 2 18 3 19 4 20 5 21 18 22 19 23 20 24 21 25
REMARK SMILES IDX 22 26 23 27 24 28 25 29 86 30 26 31 85 32 27 33 28 34 29 35
REMARK SMILES IDX 79 36 30 37 84 38 78 39 80 40 31 41 83 42 77 43 76 44 32 46
REMARK SMILES IDX 64 47 44 48 63 49 45 50 48 51 62 52 81 53 46 54 47 55 61 57
REMARK SMILES IDX 82 58 49 59 33 60 34 61 42 62 35 63 36 64 40 65 43 66 37 67
REMARK SMILES IDX 38 68 41 69 39 70 65 71 66 72 74 73 67 74 68 75 72 76 75 77
REMARK SMILES IDX 69 78 70 79 73 80 71 81 50 82 51 83 59 84 52 85 53 86 57 87
REMARK SMILES IDX 60 88 54 89 55 90 58 91 56 92
REMARK H PARENT 8 13 8 14 80 45 48 56
REMARK Flexibility Score: inf
ROOT
ATOM      1  C   UNL A   1      38.007  23.618  26.343  1.00  0.00     0.188 C 
ENDROOT
BRANCH   1   2
ATOM      2  C   UNL A   1      36.665  23.462  25.599  1.00  0.00     0.188 C 
BRANCH   2   3
ATOM      3  O   UNL A   1      35.498  23.159  26.351  1.00  0.00    -0.376 OA
BRANCH   3   4
ATOM      4  C   UNL A   1      35.105  21.797  26.451  1.00  0.00     0.202 C 
BRANCH   4   5
ATOM      5  C   UNL A   1      33.607  21.421  26.537  1.00  0.00     0.261 C 
BRANCH   5   6
ATOM      6  O   UNL A   1      32.844  21.417  25.298  1.00  0.00    -0.459 OA
BRANCH   6   7
ATOM      7  C   UNL A   1      31.770  22.251  25.268  1.00  0.00     0.365 C 
ATOM      8  O   UNL A   1      30.710  21.996  25.839  1.00  0.00    -0.245 OA
BRANCH   7   9
ATOM      9  C   UNL A   1      31.955  23.613  24.560  1.00  0.00     0.304 C 
ATOM     10  C   UNL A   1      33.270  25.550  25.276  1.00  0.00     0.284 C 
ATOM     11  N   UNL A   1      33.303  24.268  24.553  1.00  0.00    -0.318 N 
ATOM     12  S   UNL A   1      31.754  25.591  26.269  1.00  0.00    -0.087 SA
ATOM     13  H   UNL A   1      33.977  23.648  25.002  1.00  0.00     0.348 HD
ATOM     14  H   UNL A   1      33.572  24.447  23.585  1.00  0.00     0.348 HD
ATOM     15  C   UNL A   1      30.878  24.554  25.087  1.00  0.00     0.153 C 
BRANCH  10  16
ATOM     16  C   UNL A   1      33.429  26.813  24.423  1.00  0.00     0.075 A 
ATOM     17  C   UNL A   1      34.040  28.609  26.193  1.00  0.00     0.046 C 
ATOM     18  C   UNL A   1      33.646  28.133  24.832  1.00  0.00    -0.030 A 
ATOM     19  C   UNL A   1      33.365  29.068  23.773  1.00  0.00     0.015 A 
ATOM     20  C   UNL A   1      33.060  28.455  22.585  1.00  0.00     0.065 A 
ATOM     21  S   UNL A   1      33.234  26.770  22.698  1.00  0.00    -0.141 S 
ENDBRANCH  10  16
ENDBRANCH   7   9
ENDBRANCH   6   7
ENDBRANCH   5   6
ENDBRANCH   4   5
ENDBRANCH   3   4
ENDBRANCH   2   3
ENDBRANCH   1   2
BRANCH   1  22
ATOM     22  O   UNL A   1      38.890  22.536  26.178  1.00  0.00    -0.376 OA
BRANCH  22  23
ATOM     23  C   UNL A   1      38.471  21.404  25.443  1.00  0.00     0.202 C 
BRANCH  23  24
ATOM     24  C   UNL A   1      39.241  20.069  25.439  1.00  0.00     0.261 C 
BRANCH  24  25
ATOM     25  O   UNL A   1      40.148  19.807  26.520  1.00  0.00    -0.460 OA
BRANCH  25  26
ATOM     26  C   UNL A   1      41.450  19.638  26.209  1.00  0.00     0.338 C 
ATOM     27  O   UNL A   1      41.945  18.708  25.580  1.00  0.00    -0.246 OA
BRANCH  26  28
ATOM     28  C   UNL A   1      42.174  20.876  26.562  1.00  0.00     0.060 A 
ATOM     29  C   UNL A   1      42.282  21.234  27.914  1.00  0.00     0.016 A 
ATOM     30  C   UNL A   1      42.738  21.684  25.573  1.00  0.00     0.016 A 
ATOM     31  C   UNL A   1      42.946  22.405  28.280  1.00  0.00     0.010 A 
ATOM     32  C   UNL A   1      43.377  22.874  25.940  1.00  0.00     0.010 A 
ATOM     33  C   UNL A   1      43.466  23.252  27.294  1.00  0.00    -0.014 A 
BRANCH  33  34
ATOM     34  C   UNL A   1      43.917  24.617  27.660  1.00  0.00     0.031 A 
ATOM     35  C   UNL A   1      42.874  25.643  28.008  1.00  0.00     0.074 A 
ATOM     36  C   UNL A   1      45.220  24.942  27.719  1.00  0.00     0.049 A 
ATOM     37  N   UNL A   1      43.009  26.916  28.282  1.00  0.00    -0.248 NA
ATOM     38  C   UNL A   1      41.484  25.161  28.055  1.00  0.00     0.031 C 
ATOM     39  C   UNL A   1      46.332  24.026  27.485  1.00  0.00     0.029 A 
ATOM     40  N   UNL A   1      45.825  26.147  27.989  1.00  0.00    -0.354 N 
ATOM     41  C   UNL A   1      41.726  27.386  28.526  1.00  0.00     0.074 A 
ATOM     42  C   UNL A   1      40.822  26.272  28.339  1.00  0.00     0.031 C 
ATOM     43  C   UNL A   1      47.487  24.704  27.608  1.00  0.00     0.029 A 
ATOM     44  C   UNL A   1      47.194  26.110  27.888  1.00  0.00     0.049 A 
ATOM     45  H   UNL A   1      45.323  26.959  28.231  1.00  0.00     0.167 HD
ATOM     46  C   UNL A   1      41.335  28.634  28.880  1.00  0.00     0.037 A 
ATOM     47  C   UNL A   1      48.099  27.105  27.984  1.00  0.00     0.037 A 
ATOM     48  C   UNL A   1      42.234  29.744  29.059  1.00  0.00     0.049 A 
ATOM     49  C   UNL A   1      47.629  28.512  28.265  1.00  0.00     0.074 A 
ATOM     50  C   UNL A   1      41.934  31.048  29.410  1.00  0.00     0.029 A 
ATOM     51  N   UNL A   1      43.609  29.681  28.891  1.00  0.00    -0.354 N 
ATOM     52  N   UNL A   1      46.415  28.954  28.494  1.00  0.00    -0.248 NA
ATOM     53  C   UNL A   1      48.660  29.560  28.303  1.00  0.00     0.031 C 
ATOM     54  C   UNL A   1      43.121  31.789  29.395  1.00  0.00     0.029 A 
ATOM     55  C   UNL A   1      44.169  30.932  29.103  1.00  0.00     0.049 A 
ATOM     56  H   UNL A   1      44.114  28.868  28.657  1.00  0.00     0.167 HD
ATOM     57  C   UNL A   1      46.542  30.318  28.736  1.00  0.00     0.074 A 
ATOM     58  C   UNL A   1      47.952  30.628  28.639  1.00  0.00     0.031 C 
ATOM     59  C   UNL A   1      45.577  31.228  29.018  1.00  0.00     0.037 A 
BRANCH  46  60
ATOM     60  C   UNL A   1      39.864  28.870  29.055  1.00  0.00     0.064 A 
ATOM     61  C   UNL A   1      39.225  28.684  30.291  1.00  0.00     0.173 A 
ATOM     62  C   UNL A   1      39.082  29.301  27.972  1.00  0.00     0.173 A 
ATOM     63  F   UNL A   1      39.922  28.257  31.354  1.00  0.00    -0.203 F 
ATOM     64  C   UNL A   1      37.853  28.888  30.426  1.00  0.00     0.198 A 
ATOM     65  C   UNL A   1      37.719  29.538  28.119  1.00  0.00     0.198 A 
ATOM     66  F   UNL A   1      39.643  29.497  26.769  1.00  0.00    -0.203 F 
ATOM     67  F   UNL A   1      37.254  28.648  31.600  1.00  0.00    -0.200 F 
ATOM     68  C   UNL A   1      37.104  29.321  29.342  1.00  0.00     0.200 A 
ATOM     69  F   UNL A   1      36.999  29.969  27.074  1.00  0.00    -0.200 F 
ATOM     70  F   UNL A   1      35.785  29.520  29.475  1.00  0.00    -0.200 F 
ENDBRANCH  46  60
BRANCH  47  71
ATOM     71  C   UNL A   1      49.546  26.822  27.787  1.00  0.00     0.064 A 
ATOM     72  C   UNL A   1      50.392  26.583  28.881  1.00  0.00     0.173 A 
ATOM     73  C   UNL A   1      50.124  26.832  26.509  1.00  0.00     0.173 A 
ATOM     74  F   UNL A   1      49.895  26.597  30.127  1.00  0.00    -0.203 F 
ATOM     75  C   UNL A   1      51.760  26.386  28.705  1.00  0.00     0.198 A 
ATOM     76  C   UNL A   1      51.488  26.604  26.331  1.00  0.00     0.198 A 
ATOM     77  F   UNL A   1      49.364  27.069  25.430  1.00  0.00    -0.203 F 
ATOM     78  F   UNL A   1      52.554  26.220  29.772  1.00  0.00    -0.200 F 
ATOM     79  C   UNL A   1      52.306  26.391  27.430  1.00  0.00     0.200 A 
ATOM     80  F   UNL A   1      52.009  26.603  25.098  1.00  0.00    -0.200 F 
ATOM     81  F   UNL A   1      53.622  26.206  27.261  1.00  0.00    -0.200 F 
ENDBRANCH  47  71
BRANCH  59  82
ATOM     82  C   UNL A   1      46.010  32.642  29.294  1.00  0.00     0.064 A 
ATOM     83  C   UNL A   1      46.083  33.608  28.279  1.00  0.00     0.173 A 
ATOM     84  C   UNL A   1      46.311  33.047  30.604  1.00  0.00     0.173 A 
ATOM     85  F   UNL A   1      45.818  33.273  27.007  1.00  0.00    -0.203 F 
ATOM     86  C   UNL A   1      46.467  34.917  28.562  1.00  0.00     0.198 A 
ATOM     87  C   UNL A   1      46.660  34.364  30.889  1.00  0.00     0.198 A 
ATOM     88  F   UNL A   1      46.247  32.167  31.615  1.00  0.00    -0.203 F 
ATOM     89  F   UNL A   1      46.580  35.810  27.568  1.00  0.00    -0.200 F 
ATOM     90  C   UNL A   1      46.746  35.296  29.867  1.00  0.00     0.200 A 
ATOM     91  F   UNL A   1      46.910  34.731  32.153  1.00  0.00    -0.200 F 
ATOM     92  F   UNL A   1      47.106  36.558  30.138  1.00  0.00    -0.200 F 
ENDBRANCH  59  82
ENDBRANCH  33  34
ENDBRANCH  26  28
ENDBRANCH  25  26
ENDBRANCH  24  25
ENDBRANCH  23  24
ENDBRANCH  22  23
ENDBRANCH   1  22
TORSDOF 18
ENDMDL
MODEL 3
REMARK VINA RESULT:     -10.3      4.501      9.254
REMARK SMILES Cc1ccsc1[C@@H]1[NH2+][C@@H](C(=O)OCCOCCOCCOC(=O)c2ccc(-c3c4nc(c(-c5c(F)c(F)c(F)c(F)c5F)c5ccc([nH]5)c(-c5c(F)c(F)c(F)c(F)c5F)c5nc(c(-c6c(F)c(F)c(F)c(F)c6F)c6ccc3[nH]6)C=C5)C=C4)cc2)CS1
REMARK SMILES IDX 17 1 16 2 15 3 14 4 13 5 12 6 10 7 11 8 9 9 7 10 8 11 88 12
REMARK SMILES IDX 87 15 6 16 1 17 2 18 3 19 4 20 5 21 18 22 19 23 20 24 21 25
REMARK SMILES IDX 22 26 23 27 24 28 25 29 86 30 26 31 85 32 27 33 28 34 29 35
REMARK SMILES IDX 79 36 30 37 84 38 78 39 80 40 31 41 83 42 77 43 76 44 32 46
REMARK SMILES IDX 64 47 44 48 63 49 45 50 48 51 62 52 81 53 46 54 47 55 61 57
REMARK SMILES IDX 82 58 49 59 33 60 34 61 42 62 35 63 36 64 40 65 43 66 37 67
REMARK SMILES IDX 38 68 41 69 39 70 65 71 66 72 74 73 67 74 68 75 72 76 75 77
REMARK SMILES IDX 69 78 70 79 73 80 71 81 50 82 51 83 59 84 52 85 53 86 57 87
REMARK SMILES IDX 60 88 54 89 55 90 58 91 56 92
REMARK H PARENT 8 13 8 14 80 45 48 56
REMARK Flexibility Score: inf
ROOT
ATOM      1  C   UNL A   1      37.126  22.202  25.473  1.00  0.00     0.188 C 
ENDROOT
BRANCH   1   2
ATOM      2  C   UNL A   1      35.673  21.994  25.946  1.00  0.00     0.188 C 
BRANCH   2   3
ATOM      3  O   UNL A   1      34.697  21.586  24.998  1.00  0.00    -0.376 OA
BRANCH   3   4
ATOM      4  C   UNL A   1      33.629  20.765  25.453  1.00  0.00     0.202 C 
BRANCH   4   5
ATOM      5  C   UNL A   1      32.218  20.908  24.836  1.00  0.00     0.261 C 
BRANCH   5   6
ATOM      6  O   UNL A   1      31.165  21.443  25.685  1.00  0.00    -0.459 OA
BRANCH   6   7
ATOM      7  C   UNL A   1      31.397  22.682  26.196  1.00  0.00     0.365 C 
ATOM      8  O   UNL A   1      31.355  22.926  27.401  1.00  0.00    -0.245 OA
BRANCH   7   9
ATOM      9  C   UNL A   1      31.825  23.785  25.201  1.00  0.00     0.304 C 
ATOM     10  C   UNL A   1      33.002  25.884  25.650  1.00  0.00     0.284 C 
ATOM     11  N   UNL A   1      33.158  24.449  25.359  1.00  0.00    -0.318 N 
ATOM     12  S   UNL A   1      31.284  26.167  26.158  1.00  0.00    -0.087 SA
ATOM     13  H   UNL A   1      33.663  24.006  26.127  1.00  0.00     0.348 HD
ATOM     14  H   UNL A   1      33.677  24.349  24.486  1.00  0.00     0.348 HD
ATOM     15  C   UNL A   1      30.695  24.807  25.137  1.00  0.00     0.153 C 
BRANCH  10  16
ATOM     16  C   UNL A   1      33.437  26.852  24.543  1.00  0.00     0.075 A 
ATOM     17  C   UNL A   1      33.946  29.023  25.869  1.00  0.00     0.046 C 
ATOM     18  C   UNL A   1      33.730  28.217  24.629  1.00  0.00    -0.030 A 
ATOM     19  C   UNL A   1      33.730  28.840  23.330  1.00  0.00     0.015 A 
ATOM     20  C   UNL A   1      33.558  27.943  22.307  1.00  0.00     0.065 A 
ATOM     21  S   UNL A   1      33.522  26.348  22.884  1.00  0.00    -0.141 S 
ENDBRANCH  10  16
ENDBRANCH   7   9
ENDBRANCH   6   7
ENDBRANCH   5   6
ENDBRANCH   4   5
ENDBRANCH   3   4
ENDBRANCH   2   3
ENDBRANCH   1   2
BRANCH   1  22
ATOM     22  O   UNL A   1      37.580  21.237  24.556  1.00  0.00    -0.376 OA
BRANCH  22  23
ATOM     23  C   UNL A   1      37.763  19.904  24.986  1.00  0.00     0.202 C 
BRANCH  23  24
ATOM     24  C   UNL A   1      39.147  19.304  25.302  1.00  0.00     0.261 C 
BRANCH  24  25
ATOM     25  O   UNL A   1      39.981  19.985  26.251  1.00  0.00    -0.460 OA
BRANCH  25  26
ATOM     26  C   UNL A   1      41.305  19.725  26.211  1.00  0.00     0.338 C 
ATOM     27  O   UNL A   1      41.846  18.714  25.776  1.00  0.00    -0.246 OA
BRANCH  26  28
ATOM     28  C   UNL A   1      42.029  20.958  26.582  1.00  0.00     0.060 A 
ATOM     29  C   UNL A   1      42.161  21.283  27.939  1.00  0.00     0.016 A 
ATOM     30  C   UNL A   1      42.571  21.792  25.602  1.00  0.00     0.016 A 
ATOM     31  C   UNL A   1      42.827  22.448  28.322  1.00  0.00     0.010 A 
ATOM     32  C   UNL A   1      43.212  22.976  25.986  1.00  0.00     0.010 A 
ATOM     33  C   UNL A   1      43.324  23.322  27.347  1.00  0.00    -0.014 A 
BRANCH  33  34
ATOM     34  C   UNL A   1      43.776  24.680  27.738  1.00  0.00     0.031 A 
ATOM     35  C   UNL A   1      42.731  25.712  28.065  1.00  0.00     0.074 A 
ATOM     36  C   UNL A   1      45.079  24.993  27.837  1.00  0.00     0.049 A 
ATOM     37  N   UNL A   1      42.869  26.981  28.354  1.00  0.00    -0.248 NA
ATOM     38  C   UNL A   1      41.336  25.241  28.067  1.00  0.00     0.031 C 
ATOM     39  C   UNL A   1      46.190  24.069  27.628  1.00  0.00     0.029 A 
ATOM     40  N   UNL A   1      45.685  26.190  28.135  1.00  0.00    -0.354 N 
ATOM     41  C   UNL A   1      41.583  27.460  28.564  1.00  0.00     0.074 A 
ATOM     42  C   UNL A   1      40.676  26.355  28.341  1.00  0.00     0.031 C 
ATOM     43  C   UNL A   1      47.347  24.737  27.790  1.00  0.00     0.029 A 
ATOM     44  C   UNL A   1      47.057  26.142  28.074  1.00  0.00     0.049 A 
ATOM     45  H   UNL A   1      45.184  27.004  28.370  1.00  0.00     0.167 HD
ATOM     46  C   UNL A   1      41.193  28.708  28.918  1.00  0.00     0.037 A 
ATOM     47  C   UNL A   1      47.967  27.129  28.205  1.00  0.00     0.037 A 
ATOM     48  C   UNL A   1      42.095  29.809  29.132  1.00  0.00     0.049 A 
ATOM     49  C   UNL A   1      47.500  28.537  28.485  1.00  0.00     0.074 A 
ATOM     50  C   UNL A   1      41.796  31.112  29.486  1.00  0.00     0.029 A 
ATOM     51  N   UNL A   1      43.474  29.735  29.004  1.00  0.00    -0.354 N 
ATOM     52  N   UNL A   1      46.284  28.988  28.682  1.00  0.00    -0.248 NA
ATOM     53  C   UNL A   1      48.538  29.577  28.561  1.00  0.00     0.031 C 
ATOM     54  C   UNL A   1      42.989  31.843  29.512  1.00  0.00     0.029 A 
ATOM     55  C   UNL A   1      44.037  30.979  29.243  1.00  0.00     0.049 A 
ATOM     56  H   UNL A   1      43.979  28.921  28.777  1.00  0.00     0.167 HD
ATOM     57  C   UNL A   1      46.415  30.348  28.940  1.00  0.00     0.074 A 
ATOM     58  C   UNL A   1      47.830  30.648  28.886  1.00  0.00     0.031 C 
ATOM     59  C   UNL A   1      45.450  31.265  29.201  1.00  0.00     0.037 A 
BRANCH  46  60
ATOM     60  C   UNL A   1      39.719  28.956  29.052  1.00  0.00     0.064 A 
ATOM     61  C   UNL A   1      38.930  29.345  27.958  1.00  0.00     0.173 A 
ATOM     62  C   UNL A   1      39.083  28.791  30.292  1.00  0.00     0.173 A 
ATOM     63  F   UNL A   1      39.491  29.533  26.754  1.00  0.00    -0.203 F 
ATOM     64  C   UNL A   1      37.568  29.591  28.109  1.00  0.00     0.198 A 
ATOM     65  C   UNL A   1      37.715  29.004  30.431  1.00  0.00     0.198 A 
ATOM     66  F   UNL A   1      39.789  28.418  31.370  1.00  0.00    -0.203 F 
ATOM     67  F   UNL A   1      36.846  30.018  27.064  1.00  0.00    -0.200 F 
ATOM     68  C   UNL A   1      36.961  29.414  29.343  1.00  0.00     0.200 A 
ATOM     69  F   UNL A   1      37.128  28.819  31.622  1.00  0.00    -0.200 F 
ATOM     70  F   UNL A   1      35.649  29.648  29.486  1.00  0.00    -0.200 F 
ENDBRANCH  46  60
BRANCH  47  71
ATOM     71  C   UNL A   1      49.417  26.835  28.048  1.00  0.00     0.064 A 
ATOM     72  C   UNL A   1      50.020  26.821  26.782  1.00  0.00     0.173 A 
ATOM     73  C   UNL A   1      50.219  26.515  29.154  1.00  0.00     0.173 A 
ATOM     74  F   UNL A   1      49.288  27.085  25.689  1.00  0.00    -0.203 F 
ATOM     75  C   UNL A   1      51.362  26.477  26.626  1.00  0.00     0.198 A 
ATOM     76  C   UNL A   1      51.569  26.203  29.000  1.00  0.00     0.198 A 
ATOM     77  F   UNL A   1      49.691  26.501  30.386  1.00  0.00    -0.203 F 
ATOM     78  F   UNL A   1      51.896  26.413  25.399  1.00  0.00    -0.200 F 
ATOM     79  C   UNL A   1      52.136  26.175  27.736  1.00  0.00     0.200 A 
ATOM     80  F   UNL A   1      52.314  25.918  30.075  1.00  0.00    -0.200 F 
ATOM     81  F   UNL A   1      53.425  25.841  27.585  1.00  0.00    -0.200 F 
ENDBRANCH  47  71
BRANCH  59  82
ATOM     82  C   UNL A   1      45.887  32.672  29.502  1.00  0.00     0.064 A 
ATOM     83  C   UNL A   1      46.217  33.086  30.801  1.00  0.00     0.173 A 
ATOM     84  C   UNL A   1      46.022  33.608  28.465  1.00  0.00     0.173 A 
ATOM     85  F   UNL A   1      46.094  32.236  31.833  1.00  0.00    -0.203 F 
ATOM     86  C   UNL A   1      46.638  34.389  31.053  1.00  0.00     0.198 A 
ATOM     87  C   UNL A   1      46.477  34.899  28.714  1.00  0.00     0.198 A 
ATOM     88  F   UNL A   1      45.730  33.264  27.201  1.00  0.00    -0.203 F 
ATOM     89  F   UNL A   1      46.898  34.777  32.310  1.00  0.00    -0.200 F 
ATOM     90  C   UNL A   1      46.777  35.292  30.009  1.00  0.00     0.200 A 
ATOM     91  F   UNL A   1      46.629  35.763  27.701  1.00  0.00    -0.200 F 
ATOM     92  F   UNL A   1      47.192  36.543  30.253  1.00  0.00    -0.200 F 
ENDBRANCH  59  82
ENDBRANCH  33  34
ENDBRANCH  26  28
ENDBRANCH  25  26
ENDBRANCH  24  25
ENDBRANCH  23  24
ENDBRANCH  22  23
ENDBRANCH   1  22
TORSDOF 18
ENDMDL
