MODEL 1
REMARK VINA RESULT:     -11.2      0.000      0.000
REMARK SMILES C[NH+]1CCC(NC(=O)N[C@@H]2C=C[C@H](C(=O)OCCOCCOCCOC(=O)c3ccc(-c4c5nc(c(-c6c(F)c(F)c(F)c(F)c6F)c6ccc([nH]6)c(-c6c(F)c(F)c(F)c(F)c6F)c6nc(c(-c7c(F)c(F)c(F)c(F)c7F)c7ccc4[nH]7)C=C6)C=C5)cc3)C2)CC1
REMARK SMILES IDX 20 1 19 2 18 3 17 4 16 5 14 6 15 7 13 8 10 9 11 10 91 11
REMARK SMILES IDX 12 12 9 13 6 14 7 15 8 17 5 19 1 20 2 21 3 22 93 23 4 25
REMARK SMILES IDX 92 26 21 27 22 28 23 29 24 30 25 31 26 32 27 33 28 34 29 35
REMARK SMILES IDX 90 36 30 37 89 38 31 39 32 40 33 41 83 42 34 43 88 44 82 45
REMARK SMILES IDX 84 46 35 47 87 48 81 49 80 50 36 52 68 53 48 54 67 55 49 56
REMARK SMILES IDX 52 57 66 58 85 59 50 60 51 61 65 63 86 64 53 65 37 66 38 67
REMARK SMILES IDX 46 68 39 69 40 70 44 71 47 72 41 73 42 74 45 75 43 76 69 77
REMARK SMILES IDX 70 78 78 79 71 80 72 81 76 82 79 83 73 84 74 85 77 86 75 87
REMARK SMILES IDX 54 88 55 89 63 90 56 91 57 92 61 93 64 94 58 95 59 96 62 97
REMARK SMILES IDX 60 98
REMARK H PARENT 6 16 9 18 2 24 84 51 52 62
REMARK Flexibility Score: inf
ROOT
ATOM      1  C   UNL A   1      40.981  21.807  27.572  1.00  0.00     0.188 C 
ENDROOT
BRANCH   1   2
ATOM      2  O   UNL A   1      39.784  22.367  27.080  1.00  0.00    -0.376 OA
BRANCH   2   3
ATOM      3  C   UNL A   1      39.038  21.695  26.082  1.00  0.00     0.202 C 
BRANCH   3   4
ATOM      4  C   UNL A   1      37.681  22.205  25.576  1.00  0.00     0.261 C 
BRANCH   4   5
ATOM      5  O   UNL A   1      36.603  21.262  25.628  1.00  0.00    -0.463 OA
BRANCH   5   6
ATOM      6  C   UNL A   1      35.373  21.761  25.960  1.00  0.00     0.312 C 
ATOM      7  O   UNL A   1      34.768  21.512  26.993  1.00  0.00    -0.252 OA
BRANCH   6   8
ATOM      8  C   UNL A   1      34.910  22.743  24.889  1.00  0.00     0.124 C 
ATOM      9  C   UNL A   1      32.634  23.700  25.023  1.00  0.00     0.107 C 
ATOM     10  C   UNL A   1      32.747  22.647  23.973  1.00  0.00    -0.006 C 
ATOM     11  C   UNL A   1      34.076  23.884  25.485  1.00  0.00     0.048 C 
ATOM     12  C   UNL A   1      33.972  22.117  23.907  1.00  0.00    -0.014 C 
BRANCH   9  13
ATOM     13  N   UNL A   1      31.737  23.206  26.046  1.00  0.00    -0.332 N 
ATOM     14  N   UNL A   1      30.268  25.010  26.526  1.00  0.00    -0.335 N 
ATOM     15  C   UNL A   1      30.695  23.746  26.706  1.00  0.00     0.315 C 
ATOM     16  H   UNL A   1      29.586  25.305  27.172  1.00  0.00     0.165 HD
ATOM     17  O   UNL A   1      30.094  23.034  27.514  1.00  0.00    -0.249 OA
ATOM     18  H   UNL A   1      31.931  22.281  26.319  1.00  0.00     0.165 HD
BRANCH  14  19
ATOM     19  C   UNL A   1      30.635  26.011  25.549  1.00  0.00     0.095 C 
ATOM     20  C   UNL A   1      31.710  28.953  22.811  1.00  0.00     0.332 C 
ATOM     21  N   UNL A   1      30.917  28.328  23.877  1.00  0.00    -0.337 N 
ATOM     22  C   UNL A   1      31.761  28.156  25.071  1.00  0.00     0.264 C 
ATOM     23  C   UNL A   1      30.308  27.083  23.376  1.00  0.00     0.264 C 
ATOM     24  H   UNL A   1      30.139  28.924  24.159  1.00  0.00     0.347 HD
ATOM     25  C   UNL A   1      31.093  27.324  26.168  1.00  0.00     0.086 C 
ATOM     26  C   UNL A   1      29.594  26.287  24.479  1.00  0.00     0.086 C 
ENDBRANCH  14  19
ENDBRANCH   9  13
ENDBRANCH   6   8
ENDBRANCH   5   6
ENDBRANCH   4   5
ENDBRANCH   3   4
ENDBRANCH   2   3
ENDBRANCH   1   2
BRANCH   1  27
ATOM     27  C   UNL A   1      41.824  20.844  26.702  1.00  0.00     0.188 C 
BRANCH  27  28
ATOM     28  O   UNL A   1      42.389  21.256  25.475  1.00  0.00    -0.376 OA
BRANCH  28  29
ATOM     29  C   UNL A   1      43.781  21.495  25.395  1.00  0.00     0.202 C 
BRANCH  29  30
ATOM     30  C   UNL A   1      44.307  22.629  24.510  1.00  0.00     0.261 C 
BRANCH  30  31
ATOM     31  O   UNL A   1      43.584  23.867  24.612  1.00  0.00    -0.460 OA
BRANCH  31  32
ATOM     32  C   UNL A   1      44.288  24.922  25.073  1.00  0.00     0.338 C 
ATOM     33  O   UNL A   1      45.382  25.322  24.666  1.00  0.00    -0.246 OA
BRANCH  32  34
ATOM     34  C   UNL A   1      43.511  25.667  26.076  1.00  0.00     0.060 A 
ATOM     35  C   UNL A   1      43.814  27.017  26.297  1.00  0.00     0.016 A 
ATOM     36  C   UNL A   1      42.550  25.022  26.858  1.00  0.00     0.016 A 
ATOM     37  C   UNL A   1      43.178  27.721  27.323  1.00  0.00     0.010 A 
ATOM     38  C   UNL A   1      41.929  25.723  27.897  1.00  0.00     0.010 A 
ATOM     39  C   UNL A   1      42.262  27.066  28.157  1.00  0.00    -0.014 A 
BRANCH  39  40
ATOM     40  C   UNL A   1      41.749  27.735  29.380  1.00  0.00     0.031 A 
ATOM     41  C   UNL A   1      40.461  28.507  29.308  1.00  0.00     0.074 A 
ATOM     42  C   UNL A   1      42.424  27.674  30.541  1.00  0.00     0.049 A 
ATOM     43  N   UNL A   1      39.869  29.225  30.229  1.00  0.00    -0.248 NA
ATOM     44  C   UNL A   1      39.748  28.470  28.022  1.00  0.00     0.031 C 
ATOM     45  C   UNL A   1      43.667  26.940  30.748  1.00  0.00     0.029 A 
ATOM     46  N   UNL A   1      42.159  28.245  31.763  1.00  0.00    -0.354 N 
ATOM     47  C   UNL A   1      38.735  29.750  29.626  1.00  0.00     0.074 A 
ATOM     48  C   UNL A   1      38.720  29.271  28.260  1.00  0.00     0.031 C 
ATOM     49  C   UNL A   1      44.061  27.105  32.022  1.00  0.00     0.029 A 
ATOM     50  C   UNL A   1      43.119  27.983  32.710  1.00  0.00     0.049 A 
ATOM     51  H   UNL A   1      41.358  28.790  31.941  1.00  0.00     0.167 HD
ATOM     52  C   UNL A   1      37.798  30.567  30.164  1.00  0.00     0.037 A 
ATOM     53  C   UNL A   1      43.235  28.415  33.981  1.00  0.00     0.037 A 
ATOM     54  C   UNL A   1      37.806  31.036  31.524  1.00  0.00     0.049 A 
ATOM     55  C   UNL A   1      42.186  29.339  34.547  1.00  0.00     0.074 A 
ATOM     56  C   UNL A   1      36.878  31.837  32.165  1.00  0.00     0.029 A 
ATOM     57  N   UNL A   1      38.799  30.755  32.453  1.00  0.00    -0.354 N 
ATOM     58  N   UNL A   1      41.098  29.803  33.982  1.00  0.00    -0.248 NA
ATOM     59  C   UNL A   1      42.386  29.806  35.927  1.00  0.00     0.031 C 
ATOM     60  C   UNL A   1      37.337  32.093  33.461  1.00  0.00     0.029 A 
ATOM     61  C   UNL A   1      38.519  31.396  33.650  1.00  0.00     0.049 A 
ATOM     62  H   UNL A   1      39.584  30.186  32.287  1.00  0.00     0.167 HD
ATOM     63  C   UNL A   1      40.479  30.598  34.938  1.00  0.00     0.074 A 
ATOM     64  C   UNL A   1      41.296  30.533  36.130  1.00  0.00     0.031 C 
ATOM     65  C   UNL A   1      39.338  31.323  34.834  1.00  0.00     0.037 A 
BRANCH  52  66
ATOM     66  C   UNL A   1      36.697  31.049  29.265  1.00  0.00     0.064 A 
ATOM     67  C   UNL A   1      35.638  30.218  28.873  1.00  0.00     0.173 A 
ATOM     68  C   UNL A   1      36.680  32.385  28.830  1.00  0.00     0.173 A 
ATOM     69  F   UNL A   1      35.616  28.930  29.250  1.00  0.00    -0.203 F 
ATOM     70  C   UNL A   1      34.612  30.700  28.065  1.00  0.00     0.198 A 
ATOM     71  C   UNL A   1      35.637  32.870  28.048  1.00  0.00     0.198 A 
ATOM     72  F   UNL A   1      37.668  33.222  29.180  1.00  0.00    -0.203 F 
ATOM     73  F   UNL A   1      33.630  29.878  27.670  1.00  0.00    -0.200 F 
ATOM     74  C   UNL A   1      34.607  32.027  27.661  1.00  0.00     0.200 A 
ATOM     75  F   UNL A   1      35.628  34.157  27.670  1.00  0.00    -0.200 F 
ATOM     76  F   UNL A   1      33.611  32.493  26.895  1.00  0.00    -0.200 F 
ENDBRANCH  52  66
BRANCH  53  77
ATOM     77  C   UNL A   1      44.403  28.002  34.806  1.00  0.00     0.064 A 
ATOM     78  C   UNL A   1      44.379  26.812  35.551  1.00  0.00     0.173 A 
ATOM     79  C   UNL A   1      45.550  28.804  34.901  1.00  0.00     0.173 A 
ATOM     80  F   UNL A   1      43.292  26.028  35.527  1.00  0.00    -0.203 F 
ATOM     81  C   UNL A   1      45.446  26.457  36.376  1.00  0.00     0.198 A 
ATOM     82  C   UNL A   1      46.630  28.430  35.697  1.00  0.00     0.198 A 
ATOM     83  F   UNL A   1      45.619  29.959  34.223  1.00  0.00    -0.203 F 
ATOM     84  F   UNL A   1      45.367  25.353  37.130  1.00  0.00    -0.200 F 
ATOM     85  C   UNL A   1      46.572  27.263  36.443  1.00  0.00     0.200 A 
ATOM     86  F   UNL A   1      47.718  29.210  35.758  1.00  0.00    -0.200 F 
ATOM     87  F   UNL A   1      47.592  26.925  37.244  1.00  0.00    -0.200 F 
ENDBRANCH  53  77
BRANCH  65  88
ATOM     88  C   UNL A   1      38.887  32.089  36.046  1.00  0.00     0.064 A 
ATOM     89  C   UNL A   1      38.141  31.483  37.066  1.00  0.00     0.173 A 
ATOM     90  C   UNL A   1      39.250  33.435  36.211  1.00  0.00     0.173 A 
ATOM     91  F   UNL A   1      37.758  30.202  36.953  1.00  0.00    -0.203 F 
ATOM     92  C   UNL A   1      37.754  32.201  38.195  1.00  0.00     0.198 A 
ATOM     93  C   UNL A   1      38.889  34.141  37.355  1.00  0.00     0.198 A 
ATOM     94  F   UNL A   1      39.972  34.062  35.269  1.00  0.00    -0.203 F 
ATOM     95  F   UNL A   1      37.003  31.613  39.137  1.00  0.00    -0.200 F 
ATOM     96  C   UNL A   1      38.135  33.526  38.342  1.00  0.00     0.200 A 
ATOM     97  F   UNL A   1      39.274  35.416  37.504  1.00  0.00    -0.200 F 
ATOM     98  F   UNL A   1      37.772  34.212  39.435  1.00  0.00    -0.200 F 
ENDBRANCH  65  88
ENDBRANCH  39  40
ENDBRANCH  32  34
ENDBRANCH  31  32
ENDBRANCH  30  31
ENDBRANCH  29  30
ENDBRANCH  28  29
ENDBRANCH  27  28
ENDBRANCH   1  27
TORSDOF 19
ENDMDL
MODEL 2
REMARK VINA RESULT:     -11.2      0.974      7.294
REMARK SMILES C[NH+]1CCC(NC(=O)N[C@@H]2C=C[C@H](C(=O)OCCOCCOCCOC(=O)c3ccc(-c4c5nc(c(-c6c(F)c(F)c(F)c(F)c6F)c6ccc([nH]6)c(-c6c(F)c(F)c(F)c(F)c6F)c6nc(c(-c7c(F)c(F)c(F)c(F)c7F)c7ccc4[nH]7)C=C6)C=C5)cc3)C2)CC1
REMARK SMILES IDX 20 1 19 2 18 3 17 4 16 5 14 6 15 7 13 8 10 9 11 10 91 11
REMARK SMILES IDX 12 12 9 13 6 14 7 15 8 17 5 19 1 20 2 21 3 22 93 23 4 25
REMARK SMILES IDX 92 26 21 27 22 28 23 29 24 30 25 31 26 32 27 33 28 34 29 35
REMARK SMILES IDX 90 36 30 37 89 38 31 39 32 40 33 41 83 42 34 43 88 44 82 45
REMARK SMILES IDX 84 46 35 47 87 48 81 49 80 50 36 52 68 53 48 54 67 55 49 56
REMARK SMILES IDX 52 57 66 58 85 59 50 60 51 61 65 63 86 64 53 65 37 66 38 67
REMARK SMILES IDX 46 68 39 69 40 70 44 71 47 72 41 73 42 74 45 75 43 76 69 77
REMARK SMILES IDX 70 78 78 79 71 80 72 81 76 82 79 83 73 84 74 85 77 86 75 87
REMARK SMILES IDX 54 88 55 89 63 90 56 91 57 92 61 93 64 94 58 95 59 96 62 97
REMARK SMILES IDX 60 98
REMARK H PARENT 6 16 9 18 2 24 84 51 52 62
REMARK Flexibility Score: inf
ROOT
ATOM      1  C   UNL A   1      39.808  21.100  26.369  1.00  0.00     0.188 C 
ENDROOT
BRANCH   1   2
ATOM      2  O   UNL A   1      38.887  21.684  25.477  1.00  0.00    -0.376 OA
BRANCH   2   3
ATOM      3  C   UNL A   1      37.772  20.944  25.014  1.00  0.00     0.202 C 
BRANCH   3   4
ATOM      4  C   UNL A   1      36.328  21.284  25.410  1.00  0.00     0.261 C 
BRANCH   4   5
ATOM      5  O   UNL A   1      35.335  20.324  25.028  1.00  0.00    -0.463 OA
BRANCH   5   6
ATOM      6  C   UNL A   1      34.030  20.720  25.138  1.00  0.00     0.312 C 
ATOM      7  O   UNL A   1      33.220  20.261  25.931  1.00  0.00    -0.252 OA
BRANCH   6   8
ATOM      8  C   UNL A   1      33.761  21.877  24.184  1.00  0.00     0.124 C 
ATOM      9  C   UNL A   1      31.875  23.411  24.637  1.00  0.00     0.107 C 
ATOM     10  C   UNL A   1      31.580  22.461  23.526  1.00  0.00    -0.006 C 
ATOM     11  C   UNL A   1      33.349  23.150  24.934  1.00  0.00     0.048 C 
ATOM     12  C   UNL A   1      32.592  21.621  23.287  1.00  0.00    -0.014 C 
BRANCH   9  13
ATOM     13  N   UNL A   1      30.981  23.099  25.732  1.00  0.00    -0.332 N 
ATOM     14  N   UNL A   1      30.394  25.194  26.686  1.00  0.00    -0.335 N 
ATOM     15  C   UNL A   1      30.313  23.851  26.627  1.00  0.00     0.315 C 
ATOM     16  H   UNL A   1      29.959  25.593  27.474  1.00  0.00     0.165 HD
ATOM     17  O   UNL A   1      29.580  23.272  27.432  1.00  0.00    -0.249 OA
ATOM     18  H   UNL A   1      30.830  22.134  25.847  1.00  0.00     0.165 HD
BRANCH  14  19
ATOM     19  C   UNL A   1      31.006  26.153  25.794  1.00  0.00     0.095 C 
ATOM     20  C   UNL A   1      32.792  28.968  23.304  1.00  0.00     0.332 C 
ATOM     21  N   UNL A   1      31.818  28.450  24.273  1.00  0.00    -0.337 N 
ATOM     22  C   UNL A   1      32.518  28.085  25.517  1.00  0.00     0.264 C 
ATOM     23  C   UNL A   1      31.048  27.351  23.663  1.00  0.00     0.264 C 
ATOM     24  H   UNL A   1      31.133  29.161  24.527  1.00  0.00     0.347 HD
ATOM     25  C   UNL A   1      31.629  27.340  26.514  1.00  0.00     0.086 C 
ATOM     26  C   UNL A   1      30.120  26.649  24.665  1.00  0.00     0.086 C 
ENDBRANCH  14  19
ENDBRANCH   9  13
ENDBRANCH   6   8
ENDBRANCH   5   6
ENDBRANCH   4   5
ENDBRANCH   3   4
ENDBRANCH   2   3
ENDBRANCH   1   2
BRANCH   1  27
ATOM     27  C   UNL A   1      40.403  19.698  26.092  1.00  0.00     0.188 C 
BRANCH  27  28
ATOM     28  O   UNL A   1      41.637  19.535  25.425  1.00  0.00    -0.376 OA
BRANCH  28  29
ATOM     29  C   UNL A   1      42.834  19.916  26.075  1.00  0.00     0.202 C 
BRANCH  29  30
ATOM     30  C   UNL A   1      43.753  20.955  25.425  1.00  0.00     0.261 C 
BRANCH  30  31
ATOM     31  O   UNL A   1      43.887  22.189  26.150  1.00  0.00    -0.460 OA
BRANCH  31  32
ATOM     32  C   UNL A   1      43.663  23.315  25.439  1.00  0.00     0.338 C 
ATOM     33  O   UNL A   1      43.818  23.472  24.225  1.00  0.00    -0.246 OA
BRANCH  32  34
ATOM     34  C   UNL A   1      43.053  24.351  26.287  1.00  0.00     0.060 A 
ATOM     35  C   UNL A   1      43.588  25.646  26.259  1.00  0.00     0.016 A 
ATOM     36  C   UNL A   1      42.019  24.034  27.170  1.00  0.00     0.016 A 
ATOM     37  C   UNL A   1      43.110  26.622  27.138  1.00  0.00     0.010 A 
ATOM     38  C   UNL A   1      41.556  25.007  28.063  1.00  0.00     0.010 A 
ATOM     39  C   UNL A   1      42.120  26.296  28.074  1.00  0.00    -0.014 A 
BRANCH  39  40
ATOM     40  C   UNL A   1      41.763  27.253  29.153  1.00  0.00     0.031 A 
ATOM     41  C   UNL A   1      42.585  27.280  30.411  1.00  0.00     0.074 A 
ATOM     42  C   UNL A   1      40.711  28.080  29.028  1.00  0.00     0.049 A 
ATOM     43  N   UNL A   1      42.410  27.979  31.505  1.00  0.00    -0.248 NA
ATOM     44  C   UNL A   1      43.758  26.393  30.445  1.00  0.00     0.031 C 
ATOM     45  C   UNL A   1      39.853  28.170  27.853  1.00  0.00     0.029 A 
ATOM     46  N   UNL A   1      40.184  28.999  29.905  1.00  0.00    -0.354 N 
ATOM     47  C   UNL A   1      43.428  27.594  32.366  1.00  0.00     0.074 A 
ATOM     48  C   UNL A   1      44.218  26.599  31.670  1.00  0.00     0.031 C 
ATOM     49  C   UNL A   1      38.902  29.093  28.079  1.00  0.00     0.029 A 
ATOM     50  C   UNL A   1      39.064  29.633  29.425  1.00  0.00     0.049 A 
ATOM     51  H   UNL A   1      40.573  29.184  30.790  1.00  0.00     0.167 HD
ATOM     52  C   UNL A   1      43.674  28.026  33.625  1.00  0.00     0.037 A 
ATOM     53  C   UNL A   1      38.249  30.533  30.012  1.00  0.00     0.037 A 
ATOM     54  C   UNL A   1      42.896  29.022  34.313  1.00  0.00     0.049 A 
ATOM     55  C   UNL A   1      38.537  30.982  31.422  1.00  0.00     0.074 A 
ATOM     56  C   UNL A   1      43.094  29.547  35.578  1.00  0.00     0.029 A 
ATOM     57  N   UNL A   1      41.763  29.637  33.799  1.00  0.00    -0.354 N 
ATOM     58  N   UNL A   1      39.522  30.640  32.217  1.00  0.00    -0.248 NA
ATOM     59  C   UNL A   1      37.593  31.938  32.021  1.00  0.00     0.031 C 
ATOM     60  C   UNL A   1      42.049  30.433  35.855  1.00  0.00     0.029 A 
ATOM     61  C   UNL A   1      41.234  30.511  34.737  1.00  0.00     0.049 A 
ATOM     62  H   UNL A   1      41.390  29.477  32.903  1.00  0.00     0.167 HD
ATOM     63  C   UNL A   1      39.327  31.348  33.396  1.00  0.00     0.074 A 
ATOM     64  C   UNL A   1      38.145  32.160  33.206  1.00  0.00     0.031 C 
ATOM     65  C   UNL A   1      40.058  31.320  34.537  1.00  0.00     0.037 A 
BRANCH  52  66
ATOM     66  C   UNL A   1      44.812  27.391  34.369  1.00  0.00     0.064 A 
ATOM     67  C   UNL A   1      46.106  27.931  34.352  1.00  0.00     0.173 A 
ATOM     68  C   UNL A   1      44.587  26.247  35.153  1.00  0.00     0.173 A 
ATOM     69  F   UNL A   1      46.376  29.014  33.608  1.00  0.00    -0.203 F 
ATOM     70  C   UNL A   1      47.137  27.340  35.079  1.00  0.00     0.198 A 
ATOM     71  C   UNL A   1      45.612  25.678  35.900  1.00  0.00     0.198 A 
ATOM     72  F   UNL A   1      43.366  25.693  35.205  1.00  0.00    -0.203 F 
ATOM     73  F   UNL A   1      48.374  27.849  35.018  1.00  0.00    -0.200 F 
ATOM     74  C   UNL A   1      46.887  26.220  35.859  1.00  0.00     0.200 A 
ATOM     75  F   UNL A   1      45.366  24.603  36.664  1.00  0.00    -0.200 F 
ATOM     76  F   UNL A   1      47.878  25.661  36.568  1.00  0.00    -0.200 F 
ENDBRANCH  52  66
BRANCH  53  77
ATOM     77  C   UNL A   1      37.065  31.057  29.278  1.00  0.00     0.064 A 
ATOM     78  C   UNL A   1      35.943  30.248  29.041  1.00  0.00     0.173 A 
ATOM     79  C   UNL A   1      37.045  32.363  28.764  1.00  0.00     0.173 A 
ATOM     80  F   UNL A   1      35.926  28.980  29.477  1.00  0.00    -0.203 F 
ATOM     81  C   UNL A   1      34.861  30.718  28.297  1.00  0.00     0.198 A 
ATOM     82  C   UNL A   1      35.948  32.842  28.053  1.00  0.00     0.198 A 
ATOM     83  F   UNL A   1      38.098  33.173  28.948  1.00  0.00    -0.203 F 
ATOM     84  F   UNL A   1      33.834  29.901  28.025  1.00  0.00    -0.200 F 
ATOM     85  C   UNL A   1      34.862  32.015  27.809  1.00  0.00     0.200 A 
ATOM     86  F   UNL A   1      35.952  34.098  27.585  1.00  0.00    -0.200 F 
ATOM     87  F   UNL A   1      33.825  32.462  27.086  1.00  0.00    -0.200 F 
ENDBRANCH  53  77
BRANCH  65  88
ATOM     88  C   UNL A   1      39.620  32.210  35.666  1.00  0.00     0.064 A 
ATOM     89  C   UNL A   1      40.119  33.512  35.815  1.00  0.00     0.173 A 
ATOM     90  C   UNL A   1      38.651  31.771  36.582  1.00  0.00     0.173 A 
ATOM     91  F   UNL A   1      41.055  33.977  34.974  1.00  0.00    -0.203 F 
ATOM     92  C   UNL A   1      39.682  34.332  36.852  1.00  0.00     0.198 A 
ATOM     93  C   UNL A   1      38.194  32.605  37.599  1.00  0.00     0.198 A 
ATOM     94  F   UNL A   1      38.134  30.537  36.481  1.00  0.00    -0.203 F 
ATOM     95  F   UNL A   1      40.206  35.558  37.001  1.00  0.00    -0.200 F 
ATOM     96  C   UNL A   1      38.714  33.882  37.737  1.00  0.00     0.200 A 
ATOM     97  F   UNL A   1      37.246  32.174  38.442  1.00  0.00    -0.200 F 
ATOM     98  F   UNL A   1      38.287  34.678  38.728  1.00  0.00    -0.200 F 
ENDBRANCH  65  88
ENDBRANCH  39  40
ENDBRANCH  32  34
ENDBRANCH  31  32
ENDBRANCH  30  31
ENDBRANCH  29  30
ENDBRANCH  28  29
ENDBRANCH  27  28
ENDBRANCH   1  27
TORSDOF 19
ENDMDL
MODEL 3
REMARK VINA RESULT:     -11.0      4.966      9.436
REMARK SMILES C[NH+]1CCC(NC(=O)N[C@@H]2C=C[C@H](C(=O)OCCOCCOCCOC(=O)c3ccc(-c4c5nc(c(-c6c(F)c(F)c(F)c(F)c6F)c6ccc([nH]6)c(-c6c(F)c(F)c(F)c(F)c6F)c6nc(c(-c7c(F)c(F)c(F)c(F)c7F)c7ccc4[nH]7)C=C6)C=C5)cc3)C2)CC1
REMARK SMILES IDX 20 1 19 2 18 3 17 4 16 5 14 6 15 7 13 8 10 9 11 10 91 11
REMARK SMILES IDX 12 12 9 13 6 14 7 15 8 17 5 19 1 20 2 21 3 22 93 23 4 25
REMARK SMILES IDX 92 26 21 27 22 28 23 29 24 30 25 31 26 32 27 33 28 34 29 35
REMARK SMILES IDX 90 36 30 37 89 38 31 39 32 40 33 41 83 42 34 43 88 44 82 45
REMARK SMILES IDX 84 46 35 47 87 48 81 49 80 50 36 52 68 53 48 54 67 55 49 56
REMARK SMILES IDX 52 57 66 58 85 59 50 60 51 61 65 63 86 64 53 65 37 66 38 67
REMARK SMILES IDX 46 68 39 69 40 70 44 71 47 72 41 73 42 74 45 75 43 76 69 77
REMARK SMILES IDX 70 78 78 79 71 80 72 81 76 82 79 83 73 84 74 85 77 86 75 87
REMARK SMILES IDX 54 88 55 89 63 90 56 91 57 92 61 93 64 94 58 95 59 96 62 97
REMARK SMILES IDX 60 98
REMARK H PARENT 6 16 9 18 2 24 84 51 52 62
REMARK Flexibility Score: inf
ROOT
ATOM      1  C   UNL A   1      40.589  22.089  26.350  1.00  0.00     0.188 C 
ENDROOT
BRANCH   1   2
ATOM      2  O   UNL A   1      39.614  23.106  26.396  1.00  0.00    -0.376 OA
BRANCH   2   3
ATOM      3  C   UNL A   1      38.255  22.804  26.133  1.00  0.00     0.202 C 
BRANCH   3   4
ATOM      4  C   UNL A   1      37.820  21.576  25.320  1.00  0.00     0.261 C 
BRANCH   4   5
ATOM      5  O   UNL A   1      37.078  21.851  24.126  1.00  0.00    -0.463 OA
BRANCH   5   6
ATOM      6  C   UNL A   1      35.717  21.902  24.252  1.00  0.00     0.312 C 
ATOM      7  O   UNL A   1      35.029  21.050  24.797  1.00  0.00    -0.252 OA
BRANCH   6   8
ATOM      8  C   UNL A   1      35.195  23.219  23.691  1.00  0.00     0.124 C 
ATOM      9  C   UNL A   1      33.381  24.411  24.876  1.00  0.00     0.107 C 
ATOM     10  C   UNL A   1      32.900  23.724  23.642  1.00  0.00    -0.006 C 
ATOM     11  C   UNL A   1      34.894  24.233  24.803  1.00  0.00     0.048 C 
ATOM     12  C   UNL A   1      33.874  23.067  23.007  1.00  0.00    -0.014 C 
BRANCH   9  13
ATOM     13  N   UNL A   1      32.757  23.763  26.011  1.00  0.00    -0.332 N 
ATOM     14  N   UNL A   1      30.905  25.135  26.583  1.00  0.00    -0.335 N 
ATOM     15  C   UNL A   1      31.676  24.046  26.761  1.00  0.00     0.315 C 
ATOM     16  H   UNL A   1      30.234  25.279  27.289  1.00  0.00     0.165 HD
ATOM     17  O   UNL A   1      31.375  23.256  27.657  1.00  0.00    -0.249 OA
ATOM     18  H   UNL A   1      33.223  22.944  26.294  1.00  0.00     0.165 HD
BRANCH  14  19
ATOM     19  C   UNL A   1      30.887  26.131  25.534  1.00  0.00     0.095 C 
ATOM     20  C   UNL A   1      30.866  29.061  22.581  1.00  0.00     0.332 C 
ATOM     21  N   UNL A   1      30.455  28.397  23.824  1.00  0.00    -0.337 N 
ATOM     22  C   UNL A   1      31.595  28.364  24.756  1.00  0.00     0.264 C 
ATOM     23  C   UNL A   1      29.884  27.074  23.514  1.00  0.00     0.264 C 
ATOM     24  H   UNL A   1      29.714  28.916  24.295  1.00  0.00     0.347 HD
ATOM     25  C   UNL A   1      31.336  27.509  25.998  1.00  0.00     0.086 C 
ATOM     26  C   UNL A   1      29.578  26.250  24.773  1.00  0.00     0.086 C 
ENDBRANCH  14  19
ENDBRANCH   9  13
ENDBRANCH   6   8
ENDBRANCH   5   6
ENDBRANCH   4   5
ENDBRANCH   3   4
ENDBRANCH   2   3
ENDBRANCH   1   2
BRANCH   1  27
ATOM     27  C   UNL A   1      41.408  21.717  27.610  1.00  0.00     0.188 C 
BRANCH  27  28
ATOM     28  O   UNL A   1      42.355  20.669  27.595  1.00  0.00    -0.376 OA
BRANCH  28  29
ATOM     29  C   UNL A   1      41.946  19.368  27.217  1.00  0.00     0.202 C 
BRANCH  29  30
ATOM     30  C   UNL A   1      42.729  18.610  26.141  1.00  0.00     0.261 C 
BRANCH  30  31
ATOM     31  O   UNL A   1      42.951  19.338  24.922  1.00  0.00    -0.460 OA
BRANCH  31  32
ATOM     32  C   UNL A   1      44.243  19.527  24.578  1.00  0.00     0.338 C 
ATOM     33  O   UNL A   1      44.991  18.718  24.023  1.00  0.00    -0.246 OA
BRANCH  32  34
ATOM     34  C   UNL A   1      44.646  20.921  24.822  1.00  0.00     0.060 A 
ATOM     35  C   UNL A   1      45.389  21.216  25.974  1.00  0.00     0.016 A 
ATOM     36  C   UNL A   1      44.223  21.946  23.974  1.00  0.00     0.016 A 
ATOM     37  C   UNL A   1      45.685  22.542  26.298  1.00  0.00     0.010 A 
ATOM     38  C   UNL A   1      44.503  23.275  24.312  1.00  0.00     0.010 A 
ATOM     39  C   UNL A   1      45.207  23.583  25.491  1.00  0.00    -0.014 A 
BRANCH  39  40
ATOM     40  C   UNL A   1      45.323  24.994  25.939  1.00  0.00     0.031 A 
ATOM     41  C   UNL A   1      46.655  25.685  25.849  1.00  0.00     0.074 A 
ATOM     42  C   UNL A   1      44.264  25.655  26.437  1.00  0.00     0.049 A 
ATOM     43  N   UNL A   1      46.999  26.884  26.248  1.00  0.00    -0.248 NA
ATOM     44  C   UNL A   1      47.749  24.919  25.232  1.00  0.00     0.031 C 
ATOM     45  C   UNL A   1      42.917  25.108  26.553  1.00  0.00     0.029 A 
ATOM     46  N   UNL A   1      44.158  26.929  26.941  1.00  0.00    -0.354 N 
ATOM     47  C   UNL A   1      48.352  27.003  25.962  1.00  0.00     0.074 A 
ATOM     48  C   UNL A   1      48.768  25.756  25.356  1.00  0.00     0.031 C 
ATOM     49  C   UNL A   1      42.116  26.040  27.097  1.00  0.00     0.029 A 
ATOM     50  C   UNL A   1      42.899  27.235  27.399  1.00  0.00     0.049 A 
ATOM     51  H   UNL A   1      44.912  27.562  26.972  1.00  0.00     0.167 HD
ATOM     52  C   UNL A   1      49.172  28.055  26.194  1.00  0.00     0.037 A 
ATOM     53  C   UNL A   1      42.435  28.343  28.009  1.00  0.00     0.037 A 
ATOM     54  C   UNL A   1      48.757  29.299  26.787  1.00  0.00     0.049 A 
ATOM     55  C   UNL A   1      43.376  29.492  28.271  1.00  0.00     0.074 A 
ATOM     56  C   UNL A   1      49.513  30.433  27.027  1.00  0.00     0.029 A 
ATOM     57  N   UNL A   1      47.475  29.570  27.244  1.00  0.00    -0.354 N 
ATOM     58  N   UNL A   1      44.645  29.611  27.965  1.00  0.00    -0.248 NA
ATOM     59  C   UNL A   1      42.820  30.661  28.971  1.00  0.00     0.031 C 
ATOM     60  C   UNL A   1      48.707  31.368  27.684  1.00  0.00     0.029 A 
ATOM     61  C   UNL A   1      47.430  30.841  27.796  1.00  0.00     0.049 A 
ATOM     62  H   UNL A   1      46.712  28.951  27.187  1.00  0.00     0.167 HD
ATOM     63  C   UNL A   1      45.032  30.866  28.417  1.00  0.00     0.074 A 
ATOM     64  C   UNL A   1      43.858  31.484  28.995  1.00  0.00     0.031 C 
ATOM     65  C   UNL A   1      46.255  31.450  28.365  1.00  0.00     0.037 A 
BRANCH  52  66
ATOM     66  C   UNL A   1      50.623  27.896  25.845  1.00  0.00     0.064 A 
ATOM     67  C   UNL A   1      51.587  27.562  26.807  1.00  0.00     0.173 A 
ATOM     68  C   UNL A   1      51.044  28.033  24.512  1.00  0.00     0.173 A 
ATOM     69  F   UNL A   1      51.238  27.435  28.097  1.00  0.00    -0.203 F 
ATOM     70  C   UNL A   1      52.922  27.388  26.451  1.00  0.00     0.198 A 
ATOM     71  C   UNL A   1      52.373  27.829  24.156  1.00  0.00     0.198 A 
ATOM     72  F   UNL A   1      50.161  28.348  23.554  1.00  0.00    -0.203 F 
ATOM     73  F   UNL A   1      53.834  27.108  27.392  1.00  0.00    -0.200 F 
ATOM     74  C   UNL A   1      53.312  27.512  25.125  1.00  0.00     0.200 A 
ATOM     75  F   UNL A   1      52.745  27.936  22.872  1.00  0.00    -0.200 F 
ATOM     76  F   UNL A   1      54.595  27.331  24.782  1.00  0.00    -0.200 F 
ENDBRANCH  52  66
BRANCH  53  77
ATOM     77  C   UNL A   1      41.012  28.418  28.439  1.00  0.00     0.064 A 
ATOM     78  C   UNL A   1      40.026  28.949  27.593  1.00  0.00     0.173 A 
ATOM     79  C   UNL A   1      40.614  27.999  29.718  1.00  0.00     0.173 A 
ATOM     80  F   UNL A   1      40.360  29.399  26.375  1.00  0.00    -0.203 F 
ATOM     81  C   UNL A   1      38.705  29.080  28.019  1.00  0.00     0.198 A 
ATOM     82  C   UNL A   1      39.287  28.098  30.129  1.00  0.00     0.198 A 
ATOM     83  F   UNL A   1      41.518  27.499  30.573  1.00  0.00    -0.203 F 
ATOM     84  F   UNL A   1      37.799  29.655  27.217  1.00  0.00    -0.200 F 
ATOM     85  C   UNL A   1      38.336  28.649  29.285  1.00  0.00     0.200 A 
ATOM     86  F   UNL A   1      38.933  27.678  31.352  1.00  0.00    -0.200 F 
ATOM     87  F   UNL A   1      37.068  28.785  29.697  1.00  0.00    -0.200 F 
ENDBRANCH  53  77
BRANCH  65  88
ATOM     88  C   UNL A   1      46.387  32.838  28.926  1.00  0.00     0.064 A 
ATOM     89  C   UNL A   1      46.133  33.976  28.147  1.00  0.00     0.173 A 
ATOM     90  C   UNL A   1      46.723  33.031  30.275  1.00  0.00     0.173 A 
ATOM     91  F   UNL A   1      45.819  33.849  26.848  1.00  0.00    -0.203 F 
ATOM     92  C   UNL A   1      46.235  35.254  28.690  1.00  0.00     0.198 A 
ATOM     93  C   UNL A   1      46.793  34.309  30.823  1.00  0.00     0.198 A 
ATOM     94  F   UNL A   1      46.968  31.976  31.069  1.00  0.00    -0.203 F 
ATOM     95  F   UNL A   1      46.031  36.329  27.914  1.00  0.00    -0.200 F 
ATOM     96  C   UNL A   1      46.556  35.419  30.029  1.00  0.00     0.200 A 
ATOM     97  F   UNL A   1      47.086  34.465  32.121  1.00  0.00    -0.200 F 
ATOM     98  F   UNL A   1      46.642  36.650  30.552  1.00  0.00    -0.200 F 
ENDBRANCH  65  88
ENDBRANCH  39  40
ENDBRANCH  32  34
ENDBRANCH  31  32
ENDBRANCH  30  31
ENDBRANCH  29  30
ENDBRANCH  28  29
ENDBRANCH  27  28
ENDBRANCH   1  27
TORSDOF 19
ENDMDL
