MODEL 1
REMARK VINA RESULT:     -10.5      0.000      0.000
REMARK SMILES CC(C)c1ccc(NC(=O)C(=O)N/N=C/c2ccccc2C(=O)OCCOCCOCCOC(=O)c2ccc(-c3c4nc(c(-c5c(F)c(F)c(F)c(F)c5F)c5ccc([nH]5)c(-c5c(F)c(F)c(F)c(F)c5F)c5nc(c(-c6c(F)c(F)c(F)c(F)c6F)c6ccc3[nH]6)C=C5)C=C4)cc2)cc1
REMARK SMILES IDX 27 1 26 2 25 3 24 4 22 5 23 6 21 7 16 8 17 9 18 10 20 11
REMARK SMILES IDX 19 12 15 13 14 14 13 15 11 16 12 17 9 19 8 20 10 22 7 23
REMARK SMILES IDX 4 24 5 25 100 26 6 27 99 28 2 29 1 30 3 31 28 32 29 33 30 34
REMARK SMILES IDX 31 35 32 36 33 37 34 38 35 39 36 40 37 41 98 42 38 43 97 44
REMARK SMILES IDX 39 45 40 46 41 47 91 48 42 49 96 50 90 51 92 52 43 53 95 54
REMARK SMILES IDX 89 55 88 56 44 58 76 59 56 60 75 61 57 62 60 63 74 64 93 65
REMARK SMILES IDX 58 66 59 67 73 69 94 70 61 71 45 72 46 73 54 74 47 75 48 76
REMARK SMILES IDX 52 77 55 78 49 79 50 80 53 81 51 82 77 83 78 84 86 85 79 86
REMARK SMILES IDX 80 87 84 88 87 89 81 90 82 91 85 92 83 93 62 94 63 95 71 96
REMARK SMILES IDX 64 97 65 98 69 99 72 100 66 101 67 102 70 103 68 104
REMARK H PARENT 13 18 8 21 92 57 60 68
REMARK Flexibility Score: inf
ROOT
ATOM      1  O   UNL A   1      34.666  31.567  27.253  1.00  0.00    -0.376 OA
ENDROOT
BRANCH   1   2
ATOM      2  C   UNL A   1      33.696  30.531  27.296  1.00  0.00     0.202 C 
BRANCH   2   3
ATOM      3  C   UNL A   1      34.190  29.107  27.561  1.00  0.00     0.261 C 
BRANCH   3   4
ATOM      4  O   UNL A   1      33.179  28.110  27.352  1.00  0.00    -0.460 OA
BRANCH   4   5
ATOM      5  C   UNL A   1      33.320  27.319  26.262  1.00  0.00     0.338 C 
ATOM      6  O   UNL A   1      34.375  26.956  25.764  1.00  0.00    -0.246 OA
BRANCH   5   7
ATOM      7  C   UNL A   1      32.010  26.780  25.816  1.00  0.00     0.068 A 
ATOM      8  C   UNL A   1      31.567  25.470  26.034  1.00  0.00     0.009 A 
ATOM      9  C   UNL A   1      30.330  25.038  25.541  1.00  0.00     0.010 A 
ATOM     10  C   UNL A   1      29.531  25.917  24.810  1.00  0.00     0.001 A 
ATOM     11  C   UNL A   1      31.193  27.653  25.077  1.00  0.00     0.016 A 
ATOM     12  C   UNL A   1      29.968  27.218  24.565  1.00  0.00     0.001 A 
BRANCH   8  13
ATOM     13  C   UNL A   1      32.482  24.432  26.502  1.00  0.00     0.142 C 
ATOM     14  N   UNL A   1      32.155  23.205  26.756  1.00  0.00    -0.180 NA
BRANCH  14  15
ATOM     15  N   UNL A   1      33.196  22.470  27.283  1.00  0.00    -0.239 N 
ATOM     16  C   UNL A   1      33.975  21.543  26.600  1.00  0.00     0.329 C 
ATOM     17  O   UNL A   1      35.188  21.468  26.770  1.00  0.00    -0.262 OA
ATOM     18  H   UNL A   1      33.407  22.615  28.234  1.00  0.00     0.194 HD
BRANCH  16  19
ATOM     19  C   UNL A   1      33.252  20.557  25.662  1.00  0.00     0.315 C 
ATOM     20  N   UNL A   1      32.808  20.974  24.423  1.00  0.00    -0.318 N 
ATOM     21  H   UNL A   1      32.302  20.287  23.932  1.00  0.00     0.170 HD
ATOM     22  O   UNL A   1      32.979  19.418  26.038  1.00  0.00    -0.263 OA
BRANCH  20  23
ATOM     23  C   UNL A   1      32.938  22.188  23.728  1.00  0.00     0.041 A 
ATOM     24  C   UNL A   1      32.961  24.690  22.406  1.00  0.00    -0.045 A 
ATOM     25  C   UNL A   1      34.130  24.152  22.954  1.00  0.00     0.006 A 
ATOM     26  C   UNL A   1      31.783  23.940  22.493  1.00  0.00     0.006 A 
ATOM     27  C   UNL A   1      34.122  22.905  23.586  1.00  0.00     0.026 A 
ATOM     28  C   UNL A   1      31.775  22.700  23.140  1.00  0.00     0.026 A 
BRANCH  24  29
ATOM     29  C   UNL A   1      32.954  26.053  21.740  1.00  0.00     0.013 C 
ATOM     30  C   UNL A   1      31.524  26.569  21.560  1.00  0.00     0.012 C 
ATOM     31  C   UNL A   1      33.806  27.063  22.514  1.00  0.00     0.012 C 
ENDBRANCH  24  29
ENDBRANCH  20  23
ENDBRANCH  16  19
ENDBRANCH  14  15
ENDBRANCH   8  13
ENDBRANCH   5   7
ENDBRANCH   4   5
ENDBRANCH   3   4
ENDBRANCH   2   3
ENDBRANCH   1   2
BRANCH   1  32
ATOM     32  C   UNL A   1      35.247  32.053  28.457  1.00  0.00     0.188 C 
BRANCH  32  33
ATOM     33  C   UNL A   1      34.837  33.411  29.056  1.00  0.00     0.188 C 
BRANCH  33  34
ATOM     34  O   UNL A   1      34.514  34.420  28.119  1.00  0.00    -0.376 OA
BRANCH  34  35
ATOM     35  C   UNL A   1      34.030  35.640  28.670  1.00  0.00     0.202 C 
BRANCH  35  36
ATOM     36  C   UNL A   1      32.880  35.437  29.665  1.00  0.00     0.261 C 
BRANCH  36  37
ATOM     37  O   UNL A   1      32.972  36.245  30.854  1.00  0.00    -0.460 OA
BRANCH  37  38
ATOM     38  C   UNL A   1      32.667  35.647  32.027  1.00  0.00     0.338 C 
ATOM     39  O   UNL A   1      31.569  35.546  32.542  1.00  0.00    -0.246 OA
BRANCH  38  40
ATOM     40  C   UNL A   1      33.877  34.938  32.497  1.00  0.00     0.060 A 
ATOM     41  C   UNL A   1      35.125  35.561  32.355  1.00  0.00     0.016 A 
ATOM     42  C   UNL A   1      33.778  33.683  33.102  1.00  0.00     0.016 A 
ATOM     43  C   UNL A   1      36.281  34.918  32.804  1.00  0.00     0.010 A 
ATOM     44  C   UNL A   1      34.938  33.034  33.535  1.00  0.00     0.010 A 
ATOM     45  C   UNL A   1      36.197  33.638  33.369  1.00  0.00    -0.014 A 
BRANCH  45  46
ATOM     46  C   UNL A   1      37.430  32.859  33.642  1.00  0.00     0.031 A 
ATOM     47  C   UNL A   1      38.192  33.137  34.907  1.00  0.00     0.074 A 
ATOM     48  C   UNL A   1      37.877  31.928  32.781  1.00  0.00     0.049 A 
ATOM     49  N   UNL A   1      39.305  32.605  35.343  1.00  0.00    -0.248 NA
ATOM     50  C   UNL A   1      37.623  34.161  35.797  1.00  0.00     0.031 C 
ATOM     51  C   UNL A   1      37.229  31.555  31.526  1.00  0.00     0.029 A 
ATOM     52  N   UNL A   1      38.998  31.136  32.832  1.00  0.00    -0.354 N 
ATOM     53  C   UNL A   1      39.569  33.226  36.555  1.00  0.00     0.074 A 
ATOM     54  C   UNL A   1      38.517  34.197  36.772  1.00  0.00     0.031 C 
ATOM     55  C   UNL A   1      37.975  30.615  30.916  1.00  0.00     0.029 A 
ATOM     56  C   UNL A   1      39.160  30.338  31.727  1.00  0.00     0.049 A 
ATOM     57  H   UNL A   1      39.625  31.140  33.591  1.00  0.00     0.167 HD
ATOM     58  C   UNL A   1      40.588  33.002  37.417  1.00  0.00     0.037 A 
ATOM     59  C   UNL A   1      40.162  29.498  31.400  1.00  0.00     0.037 A 
ATOM     60  C   UNL A   1      41.642  32.046  37.203  1.00  0.00     0.049 A 
ATOM     61  C   UNL A   1      41.320  29.308  32.348  1.00  0.00     0.074 A 
ATOM     62  C   UNL A   1      42.696  31.723  38.038  1.00  0.00     0.029 A 
ATOM     63  N   UNL A   1      41.783  31.271  36.062  1.00  0.00    -0.354 N 
ATOM     64  N   UNL A   1      41.531  29.855  33.521  1.00  0.00    -0.248 NA
ATOM     65  C   UNL A   1      42.380  28.380  31.925  1.00  0.00     0.031 C 
ATOM     66  C   UNL A   1      43.504  30.788  37.382  1.00  0.00     0.029 A 
ATOM     67  C   UNL A   1      42.925  30.492  36.159  1.00  0.00     0.049 A 
ATOM     68  H   UNL A   1      41.164  31.273  35.297  1.00  0.00     0.167 HD
ATOM     69  C   UNL A   1      42.727  29.321  33.984  1.00  0.00     0.074 A 
ATOM     70  C   UNL A   1      43.192  28.397  32.972  1.00  0.00     0.031 C 
ATOM     71  C   UNL A   1      43.379  29.573  35.146  1.00  0.00     0.037 A 
BRANCH  58  72
ATOM     72  C   UNL A   1      40.624  33.830  38.666  1.00  0.00     0.064 A 
ATOM     73  C   UNL A   1      41.369  35.015  38.740  1.00  0.00     0.173 A 
ATOM     74  C   UNL A   1      39.890  33.441  39.797  1.00  0.00     0.173 A 
ATOM     75  F   UNL A   1      42.101  35.420  37.691  1.00  0.00    -0.203 F 
ATOM     76  C   UNL A   1      41.399  35.769  39.911  1.00  0.00     0.198 A 
ATOM     77  C   UNL A   1      39.901  34.211  40.956  1.00  0.00     0.198 A 
ATOM     78  F   UNL A   1      39.160  32.316  39.774  1.00  0.00    -0.203 F 
ATOM     79  F   UNL A   1      42.156  36.874  39.976  1.00  0.00    -0.200 F 
ATOM     80  C   UNL A   1      40.660  35.369  41.015  1.00  0.00     0.200 A 
ATOM     81  F   UNL A   1      39.179  33.829  42.019  1.00  0.00    -0.200 F 
ATOM     82  F   UNL A   1      40.689  36.097  42.140  1.00  0.00    -0.200 F 
ENDBRANCH  58  72
BRANCH  59  83
ATOM     83  C   UNL A   1      40.121  28.767  30.108  1.00  0.00     0.064 A 
ATOM     84  C   UNL A   1      39.513  27.508  30.007  1.00  0.00     0.173 A 
ATOM     85  C   UNL A   1      40.708  29.303  28.952  1.00  0.00     0.173 A 
ATOM     86  F   UNL A   1      38.967  26.940  31.093  1.00  0.00    -0.203 F 
ATOM     87  C   UNL A   1      39.504  26.807  28.803  1.00  0.00     0.198 A 
ATOM     88  C   UNL A   1      40.677  28.613  27.743  1.00  0.00     0.198 A 
ATOM     89  F   UNL A   1      41.309  30.501  28.999  1.00  0.00    -0.203 F 
ATOM     90  F   UNL A   1      38.956  25.586  28.745  1.00  0.00    -0.200 F 
ATOM     91  C   UNL A   1      40.080  27.363  27.671  1.00  0.00     0.200 A 
ATOM     92  F   UNL A   1      41.230  29.155  26.650  1.00  0.00    -0.200 F 
ATOM     93  F   UNL A   1      40.072  26.688  26.512  1.00  0.00    -0.200 F 
ENDBRANCH  59  83
BRANCH  71  94
ATOM     94  C   UNL A   1      44.653  28.822  35.405  1.00  0.00     0.064 A 
ATOM     95  C   UNL A   1      45.903  29.343  35.041  1.00  0.00     0.173 A 
ATOM     96  C   UNL A   1      44.627  27.586  36.071  1.00  0.00     0.173 A 
ATOM     97  F   UNL A   1      45.982  30.513  34.390  1.00  0.00    -0.203 F 
ATOM     98  C   UNL A   1      47.078  28.646  35.315  1.00  0.00     0.198 A 
ATOM     99  C   UNL A   1      45.805  26.906  36.368  1.00  0.00     0.198 A 
ATOM    100  F   UNL A   1      43.459  27.046  36.448  1.00  0.00    -0.203 F 
ATOM    101  F   UNL A   1      48.258  29.145  34.921  1.00  0.00    -0.200 F 
ATOM    102  C   UNL A   1      47.028  27.433  35.985  1.00  0.00     0.200 A 
ATOM    103  F   UNL A   1      45.756  25.740  37.027  1.00  0.00    -0.200 F 
ATOM    104  F   UNL A   1      48.161  26.769  36.255  1.00  0.00    -0.200 F 
ENDBRANCH  71  94
ENDBRANCH  45  46
ENDBRANCH  38  40
ENDBRANCH  37  38
ENDBRANCH  36  37
ENDBRANCH  35  36
ENDBRANCH  34  35
ENDBRANCH  33  34
ENDBRANCH  32  33
ENDBRANCH   1  32
TORSDOF 22
ENDMDL
MODEL 2
REMARK VINA RESULT:     -10.4      5.736      9.965
REMARK SMILES CC(C)c1ccc(NC(=O)C(=O)N/N=C/c2ccccc2C(=O)OCCOCCOCCOC(=O)c2ccc(-c3c4nc(c(-c5c(F)c(F)c(F)c(F)c5F)c5ccc([nH]5)c(-c5c(F)c(F)c(F)c(F)c5F)c5nc(c(-c6c(F)c(F)c(F)c(F)c6F)c6ccc3[nH]6)C=C5)C=C4)cc2)cc1
REMARK SMILES IDX 27 1 26 2 25 3 24 4 22 5 23 6 21 7 16 8 17 9 18 10 20 11
REMARK SMILES IDX 19 12 15 13 14 14 13 15 11 16 12 17 9 19 8 20 10 22 7 23
REMARK SMILES IDX 4 24 5 25 100 26 6 27 99 28 2 29 1 30 3 31 28 32 29 33 30 34
REMARK SMILES IDX 31 35 32 36 33 37 34 38 35 39 36 40 37 41 98 42 38 43 97 44
REMARK SMILES IDX 39 45 40 46 41 47 91 48 42 49 96 50 90 51 92 52 43 53 95 54
REMARK SMILES IDX 89 55 88 56 44 58 76 59 56 60 75 61 57 62 60 63 74 64 93 65
REMARK SMILES IDX 58 66 59 67 73 69 94 70 61 71 45 72 46 73 54 74 47 75 48 76
REMARK SMILES IDX 52 77 55 78 49 79 50 80 53 81 51 82 77 83 78 84 86 85 79 86
REMARK SMILES IDX 80 87 84 88 87 89 81 90 82 91 85 92 83 93 62 94 63 95 71 96
REMARK SMILES IDX 64 97 65 98 69 99 72 100 66 101 67 102 70 103 68 104
REMARK H PARENT 13 18 8 21 92 57 60 68
REMARK Flexibility Score: inf
ROOT
ATOM      1  O   UNL A   1      33.133  22.097  27.560  1.00  0.00    -0.376 OA
ENDROOT
BRANCH   1   2
ATOM      2  C   UNL A   1      32.813  23.320  26.916  1.00  0.00     0.202 C 
BRANCH   2   3
ATOM      3  C   UNL A   1      31.333  23.642  26.698  1.00  0.00     0.261 C 
BRANCH   3   4
ATOM      4  O   UNL A   1      30.968  24.956  27.145  1.00  0.00    -0.460 OA
BRANCH   4   5
ATOM      5  C   UNL A   1      30.863  25.915  26.195  1.00  0.00     0.338 C 
ATOM      6  O   UNL A   1      30.006  25.982  25.327  1.00  0.00    -0.246 OA
BRANCH   5   7
ATOM      7  C   UNL A   1      31.835  27.014  26.430  1.00  0.00     0.068 A 
ATOM      8  C   UNL A   1      33.159  27.022  25.975  1.00  0.00     0.009 A 
ATOM      9  C   UNL A   1      34.017  28.087  26.278  1.00  0.00     0.010 A 
ATOM     10  C   UNL A   1      33.554  29.149  27.055  1.00  0.00     0.001 A 
ATOM     11  C   UNL A   1      31.384  28.091  27.211  1.00  0.00     0.016 A 
ATOM     12  C   UNL A   1      32.244  29.144  27.533  1.00  0.00     0.001 A 
BRANCH   8  13
ATOM     13  C   UNL A   1      33.782  25.813  25.445  1.00  0.00     0.142 C 
ATOM     14  N   UNL A   1      34.146  25.636  24.215  1.00  0.00    -0.180 NA
BRANCH  14  15
ATOM     15  N   UNL A   1      34.610  24.360  23.969  1.00  0.00    -0.239 N 
ATOM     16  C   UNL A   1      34.525  23.674  22.763  1.00  0.00     0.329 C 
ATOM     17  O   UNL A   1      35.452  22.989  22.343  1.00  0.00    -0.262 OA
ATOM     18  H   UNL A   1      35.043  23.892  24.719  1.00  0.00     0.194 HD
BRANCH  16  19
ATOM     19  C   UNL A   1      33.191  23.746  21.995  1.00  0.00     0.315 C 
ATOM     20  N   UNL A   1      32.343  22.657  21.972  1.00  0.00    -0.318 N 
ATOM     21  H   UNL A   1      31.551  22.784  21.399  1.00  0.00     0.170 HD
ATOM     22  O   UNL A   1      32.909  24.734  21.319  1.00  0.00    -0.263 OA
BRANCH  20  23
ATOM     23  C   UNL A   1      32.389  21.404  22.605  1.00  0.00     0.041 A 
ATOM     24  C   UNL A   1      32.571  18.784  23.659  1.00  0.00    -0.045 A 
ATOM     25  C   UNL A   1      32.794  19.904  24.467  1.00  0.00     0.006 A 
ATOM     26  C   UNL A   1      32.217  18.991  22.322  1.00  0.00     0.006 A 
ATOM     27  C   UNL A   1      32.680  21.199  23.950  1.00  0.00     0.026 A 
ATOM     28  C   UNL A   1      32.119  20.288  21.804  1.00  0.00     0.026 A 
BRANCH  24  29
ATOM     29  C   UNL A   1      32.717  17.376  24.203  1.00  0.00     0.013 C 
ATOM     30  C   UNL A   1      34.025  16.736  23.728  1.00  0.00     0.012 C 
ATOM     31  C   UNL A   1      32.618  17.348  25.730  1.00  0.00     0.012 C 
ENDBRANCH  24  29
ENDBRANCH  20  23
ENDBRANCH  16  19
ENDBRANCH  14  15
ENDBRANCH   8  13
ENDBRANCH   5   7
ENDBRANCH   4   5
ENDBRANCH   3   4
ENDBRANCH   2   3
ENDBRANCH   1   2
BRANCH   1  32
ATOM     32  C   UNL A   1      34.378  21.458  27.305  1.00  0.00     0.188 C 
BRANCH  32  33
ATOM     33  C   UNL A   1      35.366  22.012  26.261  1.00  0.00     0.188 C 
BRANCH  33  34
ATOM     34  O   UNL A   1      36.306  21.083  25.757  1.00  0.00    -0.376 OA
BRANCH  34  35
ATOM     35  C   UNL A   1      37.383  21.641  25.011  1.00  0.00     0.202 C 
BRANCH  35  36
ATOM     36  C   UNL A   1      38.736  21.518  25.723  1.00  0.00     0.261 C 
BRANCH  36  37
ATOM     37  O   UNL A   1      39.091  20.174  26.100  1.00  0.00    -0.460 OA
BRANCH  37  38
ATOM     38  C   UNL A   1      40.408  19.874  26.139  1.00  0.00     0.338 C 
ATOM     39  O   UNL A   1      40.947  18.858  25.743  1.00  0.00    -0.246 OA
BRANCH  38  40
ATOM     40  C   UNL A   1      41.133  21.094  26.560  1.00  0.00     0.060 A 
ATOM     41  C   UNL A   1      41.116  21.458  27.913  1.00  0.00     0.016 A 
ATOM     42  C   UNL A   1      41.850  21.852  25.632  1.00  0.00     0.016 A 
ATOM     43  C   UNL A   1      41.806  22.597  28.337  1.00  0.00     0.010 A 
ATOM     44  C   UNL A   1      42.525  23.001  26.056  1.00  0.00     0.010 A 
ATOM     45  C   UNL A   1      42.488  23.391  27.406  1.00  0.00    -0.014 A 
BRANCH  45  46
ATOM     46  C   UNL A   1      43.031  24.713  27.806  1.00  0.00     0.031 A 
ATOM     47  C   UNL A   1      42.066  25.812  28.151  1.00  0.00     0.074 A 
ATOM     48  C   UNL A   1      44.354  24.943  27.853  1.00  0.00     0.049 A 
ATOM     49  N   UNL A   1      42.305  27.051  28.500  1.00  0.00    -0.248 NA
ATOM     50  C   UNL A   1      40.637  25.469  28.087  1.00  0.00     0.031 C 
ATOM     51  C   UNL A   1      45.395  23.964  27.553  1.00  0.00     0.029 A 
ATOM     52  N   UNL A   1      45.046  26.090  28.161  1.00  0.00    -0.354 N 
ATOM     53  C   UNL A   1      41.060  27.633  28.698  1.00  0.00     0.074 A 
ATOM     54  C   UNL A   1      40.067  26.621  28.400  1.00  0.00     0.031 C 
ATOM     55  C   UNL A   1      46.597  24.557  27.674  1.00  0.00     0.029 A 
ATOM     56  C   UNL A   1      46.407  25.961  28.040  1.00  0.00     0.049 A 
ATOM     57  H   UNL A   1      44.606  26.924  28.441  1.00  0.00     0.167 HD
ATOM     58  C   UNL A   1      40.769  28.891  29.101  1.00  0.00     0.037 A 
ATOM     59  C   UNL A   1      47.384  26.877  28.188  1.00  0.00     0.037 A 
ATOM     60  C   UNL A   1      41.749  29.904  29.388  1.00  0.00     0.049 A 
ATOM     61  C   UNL A   1      47.032  28.291  28.579  1.00  0.00     0.074 A 
ATOM     62  C   UNL A   1      41.549  31.196  29.840  1.00  0.00     0.029 A 
ATOM     63  N   UNL A   1      43.118  29.741  29.235  1.00  0.00    -0.354 N 
ATOM     64  N   UNL A   1      45.857  28.816  28.823  1.00  0.00    -0.248 NA
ATOM     65  C   UNL A   1      48.149  29.239  28.718  1.00  0.00     0.031 C 
ATOM     66  C   UNL A   1      42.792  31.832  29.912  1.00  0.00     0.029 A 
ATOM     67  C   UNL A   1      43.772  30.920  29.555  1.00  0.00     0.049 A 
ATOM     68  H   UNL A   1      43.560  28.911  28.944  1.00  0.00     0.167 HD
ATOM     69  C   UNL A   1      46.092  30.142  29.166  1.00  0.00     0.074 A 
ATOM     70  C   UNL A   1      47.524  30.340  29.111  1.00  0.00     0.031 C 
ATOM     71  C   UNL A   1      45.200  31.107  29.499  1.00  0.00     0.037 A 
BRANCH  58  72
ATOM     72  C   UNL A   1      39.319  29.251  29.230  1.00  0.00     0.064 A 
ATOM     73  C   UNL A   1      38.556  29.636  28.119  1.00  0.00     0.173 A 
ATOM     74  C   UNL A   1      38.681  29.191  30.479  1.00  0.00     0.173 A 
ATOM     75  F   UNL A   1      39.123  29.723  26.907  1.00  0.00    -0.203 F 
ATOM     76  C   UNL A   1      37.212  29.974  28.257  1.00  0.00     0.198 A 
ATOM     77  C   UNL A   1      37.332  29.505  30.608  1.00  0.00     0.198 A 
ATOM     78  F   UNL A   1      39.369  28.826  31.572  1.00  0.00    -0.203 F 
ATOM     79  F   UNL A   1      36.513  30.386  27.190  1.00  0.00    -0.200 F 
ATOM     80  C   UNL A   1      36.601  29.903  29.501  1.00  0.00     0.200 A 
ATOM     81  F   UNL A   1      36.740  29.427  31.808  1.00  0.00    -0.200 F 
ATOM     82  F   UNL A   1      35.307  30.227  29.631  1.00  0.00    -0.200 F 
ENDBRANCH  58  72
BRANCH  59  83
ATOM     83  C   UNL A   1      48.801  26.490  27.961  1.00  0.00     0.064 A 
ATOM     84  C   UNL A   1      49.651  26.196  29.036  1.00  0.00     0.173 A 
ATOM     85  C   UNL A   1      49.337  26.427  26.667  1.00  0.00     0.173 A 
ATOM     86  F   UNL A   1      49.192  26.275  30.294  1.00  0.00    -0.203 F 
ATOM     87  C   UNL A   1      50.989  25.866  28.826  1.00  0.00     0.198 A 
ATOM     88  C   UNL A   1      50.667  26.073  26.457  1.00  0.00     0.198 A 
ATOM     89  F   UNL A   1      48.566  26.707  25.607  1.00  0.00    -0.203 F 
ATOM     90  F   UNL A   1      51.792  25.634  29.873  1.00  0.00    -0.200 F 
ATOM     91  C   UNL A   1      51.493  25.799  27.536  1.00  0.00     0.200 A 
ATOM     92  F   UNL A   1      51.151  26.003  25.209  1.00  0.00    -0.200 F 
ATOM     93  F   UNL A   1      52.781  25.481  27.335  1.00  0.00    -0.200 F 
ENDBRANCH  59  83
BRANCH  71  94
ATOM     94  C   UNL A   1      45.742  32.461  29.858  1.00  0.00     0.064 A 
ATOM     95  C   UNL A   1      45.861  33.483  28.906  1.00  0.00     0.173 A 
ATOM     96  C   UNL A   1      46.099  32.754  31.184  1.00  0.00     0.173 A 
ATOM     97  F   UNL A   1      45.547  33.250  27.623  1.00  0.00    -0.203 F 
ATOM     98  C   UNL A   1      46.339  34.743  29.263  1.00  0.00     0.198 A 
ATOM     99  C   UNL A   1      46.549  34.021  31.542  1.00  0.00     0.198 A 
ATOM    100  F   UNL A   1      45.996  31.814  32.136  1.00  0.00    -0.203 F 
ATOM    101  F   UNL A   1      46.484  35.692  28.328  1.00  0.00    -0.200 F 
ATOM    102  C   UNL A   1      46.675  35.012  30.581  1.00  0.00     0.200 A 
ATOM    103  F   UNL A   1      46.860  34.285  32.819  1.00  0.00    -0.200 F 
ATOM    104  F   UNL A   1      47.125  36.228  30.924  1.00  0.00    -0.200 F 
ENDBRANCH  71  94
ENDBRANCH  45  46
ENDBRANCH  38  40
ENDBRANCH  37  38
ENDBRANCH  36  37
ENDBRANCH  35  36
ENDBRANCH  34  35
ENDBRANCH  33  34
ENDBRANCH  32  33
ENDBRANCH   1  32
TORSDOF 22
ENDMDL
MODEL 3
REMARK VINA RESULT:     -10.3      4.872      6.749
REMARK SMILES CC(C)c1ccc(NC(=O)C(=O)N/N=C/c2ccccc2C(=O)OCCOCCOCCOC(=O)c2ccc(-c3c4nc(c(-c5c(F)c(F)c(F)c(F)c5F)c5ccc([nH]5)c(-c5c(F)c(F)c(F)c(F)c5F)c5nc(c(-c6c(F)c(F)c(F)c(F)c6F)c6ccc3[nH]6)C=C5)C=C4)cc2)cc1
REMARK SMILES IDX 27 1 26 2 25 3 24 4 22 5 23 6 21 7 16 8 17 9 18 10 20 11
REMARK SMILES IDX 19 12 15 13 14 14 13 15 11 16 12 17 9 19 8 20 10 22 7 23
REMARK SMILES IDX 4 24 5 25 100 26 6 27 99 28 2 29 1 30 3 31 28 32 29 33 30 34
REMARK SMILES IDX 31 35 32 36 33 37 34 38 35 39 36 40 37 41 98 42 38 43 97 44
REMARK SMILES IDX 39 45 40 46 41 47 91 48 42 49 96 50 90 51 92 52 43 53 95 54
REMARK SMILES IDX 89 55 88 56 44 58 76 59 56 60 75 61 57 62 60 63 74 64 93 65
REMARK SMILES IDX 58 66 59 67 73 69 94 70 61 71 45 72 46 73 54 74 47 75 48 76
REMARK SMILES IDX 52 77 55 78 49 79 50 80 53 81 51 82 77 83 78 84 86 85 79 86
REMARK SMILES IDX 80 87 84 88 87 89 81 90 82 91 85 92 83 93 62 94 63 95 71 96
REMARK SMILES IDX 64 97 65 98 69 99 72 100 66 101 67 102 70 103 68 104
REMARK H PARENT 13 18 8 21 92 57 60 68
REMARK Flexibility Score: inf
ROOT
ATOM      1  O   UNL A   1      34.236  31.516  27.528  1.00  0.00    -0.376 OA
ENDROOT
BRANCH   1   2
ATOM      2  C   UNL A   1      34.135  30.131  27.233  1.00  0.00     0.202 C 
BRANCH   2   3
ATOM      3  C   UNL A   1      32.804  29.617  26.678  1.00  0.00     0.261 C 
BRANCH   3   4
ATOM      4  O   UNL A   1      32.822  28.215  26.375  1.00  0.00    -0.460 OA
BRANCH   4   5
ATOM      5  C   UNL A   1      31.789  27.477  26.846  1.00  0.00     0.338 C 
ATOM      6  O   UNL A   1      31.377  27.461  27.996  1.00  0.00    -0.246 OA
BRANCH   5   7
ATOM      7  C   UNL A   1      31.071  26.790  25.741  1.00  0.00     0.068 A 
ATOM      8  C   UNL A   1      30.932  25.402  25.617  1.00  0.00     0.009 A 
ATOM      9  C   UNL A   1      30.271  24.841  24.519  1.00  0.00     0.010 A 
ATOM     10  C   UNL A   1      29.752  25.672  23.525  1.00  0.00     0.001 A 
ATOM     11  C   UNL A   1      30.544  27.613  24.731  1.00  0.00     0.016 A 
ATOM     12  C   UNL A   1      29.902  27.055  23.623  1.00  0.00     0.001 A 
BRANCH   8  13
ATOM     13  C   UNL A   1      31.719  24.489  26.441  1.00  0.00     0.142 C 
ATOM     14  N   UNL A   1      31.651  23.197  26.400  1.00  0.00    -0.180 NA
BRANCH  14  15
ATOM     15  N   UNL A   1      32.430  22.586  27.362  1.00  0.00    -0.239 N 
ATOM     16  C   UNL A   1      33.520  21.755  27.129  1.00  0.00     0.329 C 
ATOM     17  O   UNL A   1      34.539  21.821  27.809  1.00  0.00    -0.262 OA
ATOM     18  H   UNL A   1      32.191  22.755  28.302  1.00  0.00     0.194 HD
BRANCH  16  19
ATOM     19  C   UNL A   1      33.382  20.692  26.022  1.00  0.00     0.315 C 
ATOM     20  N   UNL A   1      33.372  21.068  24.694  1.00  0.00    -0.318 N 
ATOM     21  H   UNL A   1      33.213  20.321  24.072  1.00  0.00     0.170 HD
ATOM     22  O   UNL A   1      33.186  19.511  26.307  1.00  0.00    -0.263 OA
BRANCH  20  23
ATOM     23  C   UNL A   1      33.545  22.308  24.058  1.00  0.00     0.041 A 
ATOM     24  C   UNL A   1      33.639  24.808  22.735  1.00  0.00    -0.045 A 
ATOM     25  C   UNL A   1      34.520  24.511  23.781  1.00  0.00     0.006 A 
ATOM     26  C   UNL A   1      32.734  23.822  22.331  1.00  0.00     0.006 A 
ATOM     27  C   UNL A   1      34.488  23.267  24.418  1.00  0.00     0.026 A 
ATOM     28  C   UNL A   1      32.694  22.584  22.981  1.00  0.00     0.026 A 
BRANCH  24  29
ATOM     29  C   UNL A   1      33.649  26.165  22.055  1.00  0.00     0.013 C 
ATOM     30  C   UNL A   1      32.451  26.315  21.114  1.00  0.00     0.012 C 
ATOM     31  C   UNL A   1      33.690  27.306  23.074  1.00  0.00     0.012 C 
ENDBRANCH  24  29
ENDBRANCH  20  23
ENDBRANCH  16  19
ENDBRANCH  14  15
ENDBRANCH   8  13
ENDBRANCH   5   7
ENDBRANCH   4   5
ENDBRANCH   3   4
ENDBRANCH   2   3
ENDBRANCH   1   2
BRANCH   1  32
ATOM     32  C   UNL A   1      33.069  32.329  27.547  1.00  0.00     0.188 C 
BRANCH  32  33
ATOM     33  C   UNL A   1      33.109  33.778  28.066  1.00  0.00     0.188 C 
BRANCH  33  34
ATOM     34  O   UNL A   1      34.388  34.382  28.097  1.00  0.00    -0.376 OA
BRANCH  34  35
ATOM     35  C   UNL A   1      34.619  35.281  29.176  1.00  0.00     0.202 C 
BRANCH  35  36
ATOM     36  C   UNL A   1      34.309  34.667  30.547  1.00  0.00     0.261 C 
BRANCH  36  37
ATOM     37  O   UNL A   1      35.449  34.093  31.214  1.00  0.00    -0.460 OA
BRANCH  37  38
ATOM     38  C   UNL A   1      35.328  32.820  31.652  1.00  0.00     0.338 C 
ATOM     39  O   UNL A   1      34.374  32.321  32.220  1.00  0.00    -0.246 OA
BRANCH  38  40
ATOM     40  C   UNL A   1      36.484  32.055  31.134  1.00  0.00     0.060 A 
ATOM     41  C   UNL A   1      37.324  31.400  32.044  1.00  0.00     0.016 A 
ATOM     42  C   UNL A   1      36.717  31.958  29.761  1.00  0.00     0.016 A 
ATOM     43  C   UNL A   1      38.413  30.659  31.579  1.00  0.00     0.010 A 
ATOM     44  C   UNL A   1      37.817  31.231  29.298  1.00  0.00     0.010 A 
ATOM     45  C   UNL A   1      38.684  30.596  30.205  1.00  0.00    -0.014 A 
BRANCH  45  46
ATOM     46  C   UNL A   1      39.955  30.004  29.720  1.00  0.00     0.031 A 
ATOM     47  C   UNL A   1      41.182  30.870  29.676  1.00  0.00     0.074 A 
ATOM     48  C   UNL A   1      40.022  28.725  29.312  1.00  0.00     0.049 A 
ATOM     49  N   UNL A   1      42.391  30.582  29.267  1.00  0.00    -0.248 NA
ATOM     50  C   UNL A   1      41.020  32.252  30.154  1.00  0.00     0.031 C 
ATOM     51  C   UNL A   1      38.911  27.777  29.311  1.00  0.00     0.029 A 
ATOM     52  N   UNL A   1      41.079  28.010  28.803  1.00  0.00    -0.354 N 
ATOM     53  C   UNL A   1      43.132  31.743  29.438  1.00  0.00     0.074 A 
ATOM     54  C   UNL A   1      42.231  32.749  29.960  1.00  0.00     0.031 C 
ATOM     55  C   UNL A   1      39.342  26.605  28.808  1.00  0.00     0.029 A 
ATOM     56  C   UNL A   1      40.750  26.729  28.433  1.00  0.00     0.049 A 
ATOM     57  H   UNL A   1      41.986  28.381  28.713  1.00  0.00     0.167 HD
ATOM     58  C   UNL A   1      44.447  31.951  29.194  1.00  0.00     0.037 A 
ATOM     59  C   UNL A   1      41.497  25.776  27.841  1.00  0.00     0.037 A 
ATOM     60  C   UNL A   1      45.346  30.959  28.666  1.00  0.00     0.049 A 
ATOM     61  C   UNL A   1      42.946  26.050  27.522  1.00  0.00     0.074 A 
ATOM     62  C   UNL A   1      46.703  31.067  28.422  1.00  0.00     0.029 A 
ATOM     63  N   UNL A   1      44.971  29.680  28.284  1.00  0.00    -0.354 N 
ATOM     64  N   UNL A   1      43.654  27.130  27.743  1.00  0.00    -0.248 NA
ATOM     65  C   UNL A   1      43.699  24.966  26.871  1.00  0.00     0.031 C 
ATOM     66  C   UNL A   1      47.141  29.870  27.845  1.00  0.00     0.029 A 
ATOM     67  C   UNL A   1      46.066  28.998  27.779  1.00  0.00     0.049 A 
ATOM     68  H   UNL A   1      44.062  29.310  28.363  1.00  0.00     0.167 HD
ATOM     69  C   UNL A   1      44.936  26.850  27.284  1.00  0.00     0.074 A 
ATOM     70  C   UNL A   1      44.912  25.493  26.783  1.00  0.00     0.031 C 
ATOM     71  C   UNL A   1      46.033  27.646  27.282  1.00  0.00     0.037 A 
BRANCH  58  72
ATOM     72  C   UNL A   1      44.988  33.321  29.474  1.00  0.00     0.064 A 
ATOM     73  C   UNL A   1      45.523  33.656  30.726  1.00  0.00     0.173 A 
ATOM     74  C   UNL A   1      44.988  34.303  28.473  1.00  0.00     0.173 A 
ATOM     75  F   UNL A   1      45.531  32.756  31.721  1.00  0.00    -0.203 F 
ATOM     76  C   UNL A   1      46.015  34.935  30.974  1.00  0.00     0.198 A 
ATOM     77  C   UNL A   1      45.505  35.572  28.716  1.00  0.00     0.198 A 
ATOM     78  F   UNL A   1      44.489  34.030  27.258  1.00  0.00    -0.203 F 
ATOM     79  F   UNL A   1      46.478  35.250  32.192  1.00  0.00    -0.200 F 
ATOM     80  C   UNL A   1      46.010  35.890  29.967  1.00  0.00     0.200 A 
ATOM     81  F   UNL A   1      45.509  36.491  27.740  1.00  0.00    -0.200 F 
ATOM     82  F   UNL A   1      46.486  37.119  30.207  1.00  0.00    -0.200 F 
ENDBRANCH  58  72
BRANCH  59  83
ATOM     83  C   UNL A   1      40.888  24.464  27.503  1.00  0.00     0.064 A 
ATOM     84  C   UNL A   1      41.319  23.285  28.126  1.00  0.00     0.173 A 
ATOM     85  C   UNL A   1      39.877  24.361  26.536  1.00  0.00     0.173 A 
ATOM     86  F   UNL A   1      42.305  23.329  29.034  1.00  0.00    -0.203 F 
ATOM     87  C   UNL A   1      40.771  22.049  27.784  1.00  0.00     0.198 A 
ATOM     88  C   UNL A   1      39.313  23.129  26.214  1.00  0.00     0.198 A 
ATOM     89  F   UNL A   1      39.436  25.460  25.907  1.00  0.00    -0.203 F 
ATOM     90  F   UNL A   1      41.233  20.932  28.361  1.00  0.00    -0.200 F 
ATOM     91  C   UNL A   1      39.765  21.974  26.833  1.00  0.00     0.200 A 
ATOM     92  F   UNL A   1      38.337  23.060  25.298  1.00  0.00    -0.200 F 
ATOM     93  F   UNL A   1      39.238  20.785  26.505  1.00  0.00    -0.200 F 
ENDBRANCH  59  83
BRANCH  71  94
ATOM     94  C   UNL A   1      47.311  27.066  26.747  1.00  0.00     0.064 A 
ATOM     95  C   UNL A   1      47.683  27.217  25.403  1.00  0.00     0.173 A 
ATOM     96  C   UNL A   1      48.200  26.394  27.601  1.00  0.00     0.173 A 
ATOM     97  F   UNL A   1      46.863  27.839  24.543  1.00  0.00    -0.203 F 
ATOM     98  C   UNL A   1      48.886  26.699  24.930  1.00  0.00     0.198 A 
ATOM     99  C   UNL A   1      49.413  25.902  27.131  1.00  0.00     0.198 A 
ATOM    100  F   UNL A   1      47.897  26.229  28.898  1.00  0.00    -0.203 F 
ATOM    101  F   UNL A   1      49.201  26.819  23.633  1.00  0.00    -0.200 F 
ATOM    102  C   UNL A   1      49.753  26.049  25.795  1.00  0.00     0.200 A 
ATOM    103  F   UNL A   1      50.257  25.286  27.972  1.00  0.00    -0.200 F 
ATOM    104  F   UNL A   1      50.914  25.559  25.339  1.00  0.00    -0.200 F 
ENDBRANCH  71  94
ENDBRANCH  45  46
ENDBRANCH  38  40
ENDBRANCH  37  38
ENDBRANCH  36  37
ENDBRANCH  35  36
ENDBRANCH  34  35
ENDBRANCH  33  34
ENDBRANCH  32  33
ENDBRANCH   1  32
TORSDOF 22
ENDMDL
