MODEL 1
REMARK VINA RESULT:     -12.1      0.000      0.000
REMARK SMILES O=C(OCCOCCOCCOC(=O)[C@@H]1CCCN1S(=O)(=O)c1ccc2c3c(cccc13)C(=O)N2)c1ccc(-c2c3nc(c(-c4c(F)c(F)c(F)c(F)c4F)c4ccc([nH]4)c(-c4c(F)c(F)c(F)c(F)c4F)c4nc(c(-c5c(F)c(F)c(F)c(F)c5F)c5ccc2[nH]5)C=C4)C=C3)cc1
REMARK SMILES IDX 7 1 6 2 5 3 4 4 3 5 2 6 1 7 36 8 37 9 98 10 38 11 97 12
REMARK SMILES IDX 39 13 40 14 41 15 91 16 42 17 96 18 90 19 92 20 43 21 95 22
REMARK SMILES IDX 89 23 88 24 44 26 76 27 56 28 75 29 57 30 60 31 74 32 93 33
REMARK SMILES IDX 58 34 59 35 73 37 94 38 61 39 45 40 46 41 54 42 47 43 48 44
REMARK SMILES IDX 52 45 55 46 49 47 50 48 53 49 51 50 77 51 78 52 86 53 79 54
REMARK SMILES IDX 80 55 84 56 87 57 81 58 82 59 85 60 83 61 62 62 63 63 71 64
REMARK SMILES IDX 64 65 65 66 69 67 72 68 66 69 67 70 70 71 68 72 8 73 9 74
REMARK SMILES IDX 10 75 11 76 12 77 13 78 14 79 15 80 16 81 19 82 17 83 18 84
REMARK SMILES IDX 20 85 21 86 22 87 23 88 24 89 32 90 25 91 27 92 31 93 26 94
REMARK SMILES IDX 28 95 30 96 35 97 29 98 33 99 34 101
REMARK H PARENT 92 25 60 36 35 100
REMARK Flexibility Score: inf
ROOT
ATOM      1  C   UNL A   1      41.154  21.925  26.179  1.00  0.00     0.188 C 
ENDROOT
BRANCH   1   2
ATOM      2  O   UNL A   1      41.609  20.707  25.605  1.00  0.00    -0.376 OA
BRANCH   2   3
ATOM      3  C   UNL A   1      42.232  19.812  26.523  1.00  0.00     0.202 C 
BRANCH   3   4
ATOM      4  C   UNL A   1      42.799  18.586  25.795  1.00  0.00     0.261 C 
BRANCH   4   5
ATOM      5  O   UNL A   1      44.135  18.875  25.327  1.00  0.00    -0.460 OA
BRANCH   5   6
ATOM      6  C   UNL A   1      44.550  19.798  24.433  1.00  0.00     0.338 C 
ATOM      7  O   UNL A   1      44.604  19.487  23.243  1.00  0.00    -0.246 OA
BRANCH   6   8
ATOM      8  C   UNL A   1      44.832  21.224  24.773  1.00  0.00     0.060 A 
ATOM      9  C   UNL A   1      44.402  22.317  24.031  1.00  0.00     0.016 A 
ATOM     10  C   UNL A   1      45.476  21.476  26.003  1.00  0.00     0.016 A 
ATOM     11  C   UNL A   1      44.608  23.615  24.495  1.00  0.00     0.010 A 
ATOM     12  C   UNL A   1      45.679  22.783  26.476  1.00  0.00     0.010 A 
ATOM     13  C   UNL A   1      45.236  23.864  25.717  1.00  0.00    -0.014 A 
BRANCH  13  14
ATOM     14  C   UNL A   1      45.513  25.279  26.056  1.00  0.00     0.031 A 
ATOM     15  C   UNL A   1      44.487  26.011  26.863  1.00  0.00     0.074 A 
ATOM     16  C   UNL A   1      46.719  25.830  25.816  1.00  0.00     0.049 A 
ATOM     17  N   UNL A   1      44.518  27.232  27.324  1.00  0.00    -0.248 NA
ATOM     18  C   UNL A   1      43.252  25.274  27.182  1.00  0.00     0.031 C 
ATOM     19  C   UNL A   1      47.805  25.176  25.097  1.00  0.00     0.029 A 
ATOM     20  N   UNL A   1      47.269  27.021  26.231  1.00  0.00    -0.354 N 
ATOM     21  C   UNL A   1      43.283  27.432  27.922  1.00  0.00     0.074 A 
ATOM     22  C   UNL A   1      42.551  26.190  27.830  1.00  0.00     0.031 C 
ATOM     23  C   UNL A   1      48.929  25.896  25.252  1.00  0.00     0.029 A 
ATOM     24  C   UNL A   1      48.623  27.120  25.990  1.00  0.00     0.049 A 
ATOM     25  H   UNL A   1      46.744  27.735  26.659  1.00  0.00     0.167 HD
ATOM     26  C   UNL A   1      42.793  28.581  28.437  1.00  0.00     0.037 A 
ATOM     27  C   UNL A   1      49.498  28.091  26.328  1.00  0.00     0.037 A 
ATOM     28  C   UNL A   1      43.542  29.805  28.501  1.00  0.00     0.049 A 
ATOM     29  C   UNL A   1      48.929  29.362  26.920  1.00  0.00     0.074 A 
ATOM     30  C   UNL A   1      43.116  31.061  28.886  1.00  0.00     0.029 A 
ATOM     31  N   UNL A   1      44.886  29.917  28.172  1.00  0.00    -0.354 N 
ATOM     32  N   UNL A   1      47.717  29.600  27.362  1.00  0.00    -0.248 NA
ATOM     33  C   UNL A   1      49.823  30.530  26.968  1.00  0.00     0.031 C 
ATOM     34  C   UNL A   1      44.187  31.945  28.742  1.00  0.00     0.029 A 
ATOM     35  C   UNL A   1      45.300  31.229  28.326  1.00  0.00     0.049 A 
ATOM     36  H   UNL A   1      45.460  29.175  27.874  1.00  0.00     0.167 HD
ATOM     37  C   UNL A   1      47.689  30.948  27.692  1.00  0.00     0.074 A 
ATOM     38  C   UNL A   1      49.025  31.461  27.473  1.00  0.00     0.031 C 
ATOM     39  C   UNL A   1      46.638  31.707  28.091  1.00  0.00     0.037 A 
BRANCH  26  40
ATOM     40  C   UNL A   1      41.350  28.591  28.833  1.00  0.00     0.064 A 
ATOM     41  C   UNL A   1      40.916  28.195  30.104  1.00  0.00     0.173 A 
ATOM     42  C   UNL A   1      40.380  29.000  27.903  1.00  0.00     0.173 A 
ATOM     43  F   UNL A   1      41.799  27.754  31.013  1.00  0.00    -0.203 F 
ATOM     44  C   UNL A   1      39.561  28.197  30.427  1.00  0.00     0.198 A 
ATOM     45  C   UNL A   1      39.032  29.030  28.238  1.00  0.00     0.198 A 
ATOM     46  F   UNL A   1      40.744  29.372  26.666  1.00  0.00    -0.203 F 
ATOM     47  F   UNL A   1      39.160  27.765  31.632  1.00  0.00    -0.200 F 
ATOM     48  C   UNL A   1      38.622  28.623  29.499  1.00  0.00     0.200 A 
ATOM     49  F   UNL A   1      38.128  29.443  27.339  1.00  0.00    -0.200 F 
ATOM     50  F   UNL A   1      37.319  28.628  29.813  1.00  0.00    -0.200 F 
ENDBRANCH  26  40
BRANCH  27  51
ATOM     51  C   UNL A   1      50.967  27.964  26.074  1.00  0.00     0.064 A 
ATOM     52  C   UNL A   1      51.852  27.625  27.113  1.00  0.00     0.173 A 
ATOM     53  C   UNL A   1      51.535  28.208  24.815  1.00  0.00     0.173 A 
ATOM     54  F   UNL A   1      51.384  27.420  28.353  1.00  0.00    -0.203 F 
ATOM     55  C   UNL A   1      53.230  27.535  26.901  1.00  0.00     0.198 A 
ATOM     56  C   UNL A   1      52.905  28.068  24.590  1.00  0.00     0.198 A 
ATOM     57  F   UNL A   1      50.760  28.579  23.786  1.00  0.00    -0.203 F 
ATOM     58  F   UNL A   1      54.050  27.265  27.925  1.00  0.00    -0.200 F 
ATOM     59  C   UNL A   1      53.754  27.740  25.635  1.00  0.00     0.200 A 
ATOM     60  F   UNL A   1      53.401  28.256  23.360  1.00  0.00    -0.200 F 
ATOM     61  F   UNL A   1      55.073  27.637  25.424  1.00  0.00    -0.200 F 
ENDBRANCH  27  51
BRANCH  39  62
ATOM     62  C   UNL A   1      46.871  33.179  28.273  1.00  0.00     0.064 A 
ATOM     63  C   UNL A   1      47.315  33.692  29.500  1.00  0.00     0.173 A 
ATOM     64  C   UNL A   1      46.777  34.059  27.184  1.00  0.00     0.173 A 
ATOM     65  F   UNL A   1      47.413  32.890  30.572  1.00  0.00    -0.203 F 
ATOM     66  C   UNL A   1      47.654  35.035  29.632  1.00  0.00     0.198 A 
ATOM     67  C   UNL A   1      47.145  35.393  27.313  1.00  0.00     0.198 A 
ATOM     68  F   UNL A   1      46.369  33.611  25.986  1.00  0.00    -0.203 F 
ATOM     69  F   UNL A   1      48.059  35.508  30.818  1.00  0.00    -0.200 F 
ATOM     70  C   UNL A   1      47.583  35.881  28.535  1.00  0.00     0.200 A 
ATOM     71  F   UNL A   1      47.096  36.205  26.246  1.00  0.00    -0.200 F 
ATOM     72  F   UNL A   1      47.941  37.167  28.656  1.00  0.00    -0.200 F 
ENDBRANCH  39  62
ENDBRANCH  13  14
ENDBRANCH   6   8
ENDBRANCH   5   6
ENDBRANCH   4   5
ENDBRANCH   3   4
ENDBRANCH   2   3
ENDBRANCH   1   2
BRANCH   1  73
ATOM     73  C   UNL A   1      39.733  21.874  26.774  1.00  0.00     0.188 C 
BRANCH  73  74
ATOM     74  O   UNL A   1      38.688  22.162  25.841  1.00  0.00    -0.376 OA
BRANCH  74  75
ATOM     75  C   UNL A   1      38.113  20.981  25.259  1.00  0.00     0.202 C 
BRANCH  75  76
ATOM     76  C   UNL A   1      36.567  20.978  25.329  1.00  0.00     0.261 C 
BRANCH  76  77
ATOM     77  O   UNL A   1      35.963  22.267  25.097  1.00  0.00    -0.462 OA
BRANCH  77  78
ATOM     78  C   UNL A   1      34.753  22.454  25.632  1.00  0.00     0.324 C 
ATOM     79  O   UNL A   1      34.518  22.255  26.824  1.00  0.00    -0.250 OA
BRANCH  78  80
ATOM     80  C   UNL A   1      33.708  22.962  24.690  1.00  0.00     0.183 C 
ATOM     81  C   UNL A   1      34.437  23.257  23.374  1.00  0.00     0.034 C 
ATOM     82  N   UNL A   1      32.596  23.975  24.716  1.00  0.00    -0.184 NA
ATOM     83  C   UNL A   1      33.313  23.531  22.413  1.00  0.00     0.019 C 
ATOM     84  C   UNL A   1      32.215  24.147  23.271  1.00  0.00     0.103 C 
BRANCH  82  85
ATOM     85  S   UNL A   1      32.585  25.436  25.614  1.00  0.00     0.244 S 
ATOM     86  O   UNL A   1      31.608  25.284  26.671  1.00  0.00    -0.207 OA
ATOM     87  O   UNL A   1      33.963  25.736  25.949  1.00  0.00    -0.207 OA
BRANCH  85  88
ATOM     88  C   UNL A   1      32.054  26.795  24.548  1.00  0.00     0.090 A 
ATOM     89  C   UNL A   1      33.097  27.557  24.004  1.00  0.00     0.024 A 
ATOM     90  C   UNL A   1      30.709  27.050  24.097  1.00  0.00     0.005 A 
ATOM     91  C   UNL A   1      32.940  28.607  23.094  1.00  0.00     0.028 A 
ATOM     92  C   UNL A   1      30.600  28.098  23.212  1.00  0.00     0.019 A 
ATOM     93  C   UNL A   1      29.450  26.442  24.373  1.00  0.00     0.010 A 
ATOM     94  C   UNL A   1      31.646  28.846  22.722  1.00  0.00     0.050 A 
ATOM     95  C   UNL A   1      29.436  28.630  22.670  1.00  0.00     0.050 A 
ATOM     96  C   UNL A   1      28.239  26.946  23.831  1.00  0.00     0.002 A 
ATOM     97  N   UNL A   1      31.138  29.831  21.903  1.00  0.00    -0.321 N 
ATOM     98  C   UNL A   1      28.209  28.063  22.983  1.00  0.00     0.014 A 
ATOM     99  C   UNL A   1      29.746  29.776  21.830  1.00  0.00     0.256 C 
ATOM    100  H   UNL A   1      31.691  30.493  21.429  1.00  0.00     0.170 HD
ATOM    101  O   UNL A   1      29.053  30.569  21.214  1.00  0.00    -0.269 OA
ENDBRANCH  85  88
ENDBRANCH  82  85
ENDBRANCH  78  80
ENDBRANCH  77  78
ENDBRANCH  76  77
ENDBRANCH  75  76
ENDBRANCH  74  75
ENDBRANCH  73  74
ENDBRANCH   1  73
TORSDOF 19
ENDMDL
MODEL 2
REMARK VINA RESULT:     -12.0      0.530      1.613
REMARK SMILES O=C(OCCOCCOCCOC(=O)[C@@H]1CCCN1S(=O)(=O)c1ccc2c3c(cccc13)C(=O)N2)c1ccc(-c2c3nc(c(-c4c(F)c(F)c(F)c(F)c4F)c4ccc([nH]4)c(-c4c(F)c(F)c(F)c(F)c4F)c4nc(c(-c5c(F)c(F)c(F)c(F)c5F)c5ccc2[nH]5)C=C4)C=C3)cc1
REMARK SMILES IDX 7 1 6 2 5 3 4 4 3 5 2 6 1 7 36 8 37 9 98 10 38 11 97 12
REMARK SMILES IDX 39 13 40 14 41 15 91 16 42 17 96 18 90 19 92 20 43 21 95 22
REMARK SMILES IDX 89 23 88 24 44 26 76 27 56 28 75 29 57 30 60 31 74 32 93 33
REMARK SMILES IDX 58 34 59 35 73 37 94 38 61 39 45 40 46 41 54 42 47 43 48 44
REMARK SMILES IDX 52 45 55 46 49 47 50 48 53 49 51 50 77 51 78 52 86 53 79 54
REMARK SMILES IDX 80 55 84 56 87 57 81 58 82 59 85 60 83 61 62 62 63 63 71 64
REMARK SMILES IDX 64 65 65 66 69 67 72 68 66 69 67 70 70 71 68 72 8 73 9 74
REMARK SMILES IDX 10 75 11 76 12 77 13 78 14 79 15 80 16 81 19 82 17 83 18 84
REMARK SMILES IDX 20 85 21 86 22 87 23 88 24 89 32 90 25 91 27 92 31 93 26 94
REMARK SMILES IDX 28 95 30 96 35 97 29 98 33 99 34 101
REMARK H PARENT 92 25 60 36 35 100
REMARK Flexibility Score: inf
ROOT
ATOM      1  C   UNL A   1      41.516  21.639  26.343  1.00  0.00     0.188 C 
ENDROOT
BRANCH   1   2
ATOM      2  O   UNL A   1      41.519  20.265  26.709  1.00  0.00    -0.376 OA
BRANCH   2   3
ATOM      3  C   UNL A   1      42.032  19.385  25.711  1.00  0.00     0.202 C 
BRANCH   3   4
ATOM      4  C   UNL A   1      43.327  18.712  26.187  1.00  0.00     0.261 C 
BRANCH   4   5
ATOM      5  O   UNL A   1      44.279  18.674  25.102  1.00  0.00    -0.460 OA
BRANCH   5   6
ATOM      6  C   UNL A   1      44.593  19.629  24.199  1.00  0.00     0.338 C 
ATOM      7  O   UNL A   1      44.536  19.352  23.001  1.00  0.00    -0.246 OA
BRANCH   6   8
ATOM      8  C   UNL A   1      44.883  21.050  24.553  1.00  0.00     0.060 A 
ATOM      9  C   UNL A   1      44.527  22.148  23.782  1.00  0.00     0.016 A 
ATOM     10  C   UNL A   1      45.452  21.293  25.821  1.00  0.00     0.016 A 
ATOM     11  C   UNL A   1      44.732  23.444  24.253  1.00  0.00     0.010 A 
ATOM     12  C   UNL A   1      45.653  22.597  26.302  1.00  0.00     0.010 A 
ATOM     13  C   UNL A   1      45.285  23.684  25.513  1.00  0.00    -0.014 A 
BRANCH  13  14
ATOM     14  C   UNL A   1      45.572  25.094  25.866  1.00  0.00     0.031 A 
ATOM     15  C   UNL A   1      44.538  25.834  26.655  1.00  0.00     0.074 A 
ATOM     16  C   UNL A   1      46.788  25.632  25.653  1.00  0.00     0.049 A 
ATOM     17  N   UNL A   1      44.573  27.053  27.123  1.00  0.00    -0.248 NA
ATOM     18  C   UNL A   1      43.288  25.110  26.944  1.00  0.00     0.031 C 
ATOM     19  C   UNL A   1      47.882  24.969  24.954  1.00  0.00     0.029 A 
ATOM     20  N   UNL A   1      47.343  26.814  26.086  1.00  0.00    -0.354 N 
ATOM     21  C   UNL A   1      43.329  27.264  27.695  1.00  0.00     0.074 A 
ATOM     22  C   UNL A   1      42.584  26.031  27.581  1.00  0.00     0.031 C 
ATOM     23  C   UNL A   1      49.011  25.675  25.136  1.00  0.00     0.029 A 
ATOM     24  C   UNL A   1      48.703  26.898  25.874  1.00  0.00     0.049 A 
ATOM     25  H   UNL A   1      46.818  27.532  26.507  1.00  0.00     0.167 HD
ATOM     26  C   UNL A   1      42.841  28.416  28.206  1.00  0.00     0.037 A 
ATOM     27  C   UNL A   1      49.582  27.858  26.235  1.00  0.00     0.037 A 
ATOM     28  C   UNL A   1      43.603  29.630  28.292  1.00  0.00     0.049 A 
ATOM     29  C   UNL A   1      49.016  29.132  26.822  1.00  0.00     0.074 A 
ATOM     30  C   UNL A   1      43.183  30.889  28.674  1.00  0.00     0.029 A 
ATOM     31  N   UNL A   1      44.955  29.729  27.992  1.00  0.00    -0.354 N 
ATOM     32  N   UNL A   1      47.798  29.383  27.240  1.00  0.00    -0.248 NA
ATOM     33  C   UNL A   1      49.922  30.289  26.894  1.00  0.00     0.031 C 
ATOM     34  C   UNL A   1      44.268  31.762  28.557  1.00  0.00     0.029 A 
ATOM     35  C   UNL A   1      45.381  31.035  28.161  1.00  0.00     0.049 A 
ATOM     36  H   UNL A   1      45.526  28.981  27.702  1.00  0.00     0.167 HD
ATOM     37  C   UNL A   1      47.779  30.729  27.576  1.00  0.00     0.074 A 
ATOM     38  C   UNL A   1      49.125  31.227  27.387  1.00  0.00     0.031 C 
ATOM     39  C   UNL A   1      46.729  31.498  27.956  1.00  0.00     0.037 A 
BRANCH  26  40
ATOM     40  C   UNL A   1      41.390  28.441  28.572  1.00  0.00     0.064 A 
ATOM     41  C   UNL A   1      40.397  28.865  27.681  1.00  0.00     0.173 A 
ATOM     42  C   UNL A   1      40.994  28.038  29.858  1.00  0.00     0.173 A 
ATOM     43  F   UNL A   1      40.729  29.300  26.456  1.00  0.00    -0.203 F 
ATOM     44  C   UNL A   1      39.059  28.895  28.067  1.00  0.00     0.198 A 
ATOM     45  C   UNL A   1      39.655  28.041  30.231  1.00  0.00     0.198 A 
ATOM     46  F   UNL A   1      41.910  27.641  30.754  1.00  0.00    -0.203 F 
ATOM     47  F   UNL A   1      38.128  29.353  27.217  1.00  0.00    -0.200 F 
ATOM     48  C   UNL A   1      38.688  28.475  29.336  1.00  0.00     0.200 A 
ATOM     49  F   UNL A   1      39.301  27.633  31.457  1.00  0.00    -0.200 F 
ATOM     50  F   UNL A   1      37.400  28.502  29.704  1.00  0.00    -0.200 F 
ENDBRANCH  26  40
BRANCH  27  51
ATOM     51  C   UNL A   1      51.055  27.714  26.011  1.00  0.00     0.064 A 
ATOM     52  C   UNL A   1      51.895  27.220  27.026  1.00  0.00     0.173 A 
ATOM     53  C   UNL A   1      51.672  28.093  24.809  1.00  0.00     0.173 A 
ATOM     54  F   UNL A   1      51.378  26.879  28.216  1.00  0.00    -0.203 F 
ATOM     55  C   UNL A   1      53.275  27.112  26.845  1.00  0.00     0.198 A 
ATOM     56  C   UNL A   1      53.044  27.937  24.610  1.00  0.00     0.198 A 
ATOM     57  F   UNL A   1      50.943  28.614  23.812  1.00  0.00    -0.203 F 
ATOM     58  F   UNL A   1      54.053  26.690  27.852  1.00  0.00    -0.200 F 
ATOM     59  C   UNL A   1      53.847  27.455  25.631  1.00  0.00     0.200 A 
ATOM     60  F   UNL A   1      53.587  28.259  23.428  1.00  0.00    -0.200 F 
ATOM     61  F   UNL A   1      55.169  27.335  25.448  1.00  0.00    -0.200 F 
ENDBRANCH  27  51
BRANCH  39  62
ATOM     62  C   UNL A   1      46.975  32.966  28.151  1.00  0.00     0.064 A 
ATOM     63  C   UNL A   1      46.724  33.883  27.119  1.00  0.00     0.173 A 
ATOM     64  C   UNL A   1      47.336  33.471  29.409  1.00  0.00     0.173 A 
ATOM     65  F   UNL A   1      46.383  33.446  25.896  1.00  0.00    -0.203 F 
ATOM     66  C   UNL A   1      46.828  35.252  27.340  1.00  0.00     0.198 A 
ATOM     67  C   UNL A   1      47.410  34.841  29.633  1.00  0.00     0.198 A 
ATOM     68  F   UNL A   1      47.574  32.634  30.430  1.00  0.00    -0.203 F 
ATOM     69  F   UNL A   1      46.601  36.109  26.335  1.00  0.00    -0.200 F 
ATOM     70  C   UNL A   1      47.157  35.731  28.599  1.00  0.00     0.200 A 
ATOM     71  F   UNL A   1      47.707  35.303  30.856  1.00  0.00    -0.200 F 
ATOM     72  F   UNL A   1      47.225  37.052  28.818  1.00  0.00    -0.200 F 
ENDBRANCH  39  62
ENDBRANCH  13  14
ENDBRANCH   6   8
ENDBRANCH   5   6
ENDBRANCH   4   5
ENDBRANCH   3   4
ENDBRANCH   2   3
ENDBRANCH   1   2
BRANCH   1  73
ATOM     73  C   UNL A   1      40.778  22.572  27.324  1.00  0.00     0.188 C 
BRANCH  73  74
ATOM     74  O   UNL A   1      39.709  23.322  26.740  1.00  0.00    -0.376 OA
BRANCH  74  75
ATOM     75  C   UNL A   1      38.710  22.492  26.126  1.00  0.00     0.202 C 
BRANCH  75  76
ATOM     76  C   UNL A   1      37.394  23.257  25.847  1.00  0.00     0.261 C 
BRANCH  76  77
ATOM     77  O   UNL A   1      36.495  22.576  24.948  1.00  0.00    -0.462 OA
BRANCH  77  78
ATOM     78  C   UNL A   1      35.274  22.312  25.424  1.00  0.00     0.324 C 
ATOM     79  O   UNL A   1      35.092  21.775  26.516  1.00  0.00    -0.250 OA
BRANCH  78  80
ATOM     80  C   UNL A   1      34.139  22.752  24.555  1.00  0.00     0.183 C 
ATOM     81  C   UNL A   1      34.770  23.179  23.224  1.00  0.00     0.034 C 
ATOM     82  N   UNL A   1      32.935  23.644  24.680  1.00  0.00    -0.184 NA
ATOM     83  C   UNL A   1      33.580  23.379  22.328  1.00  0.00     0.019 C 
ATOM     84  C   UNL A   1      32.469  23.840  23.263  1.00  0.00     0.103 C 
BRANCH  82  85
ATOM     85  S   UNL A   1      32.820  25.055  25.648  1.00  0.00     0.244 S 
ATOM     86  O   UNL A   1      31.786  24.819  26.632  1.00  0.00    -0.207 OA
ATOM     87  O   UNL A   1      34.165  25.376  26.085  1.00  0.00    -0.207 OA
BRANCH  85  88
ATOM     88  C   UNL A   1      32.314  26.452  24.621  1.00  0.00     0.090 A 
ATOM     89  C   UNL A   1      33.370  27.204  24.089  1.00  0.00     0.024 A 
ATOM     90  C   UNL A   1      30.971  26.750  24.188  1.00  0.00     0.005 A 
ATOM     91  C   UNL A   1      33.231  28.280  23.207  1.00  0.00     0.028 A 
ATOM     92  C   UNL A   1      30.880  27.822  23.330  1.00  0.00     0.019 A 
ATOM     93  C   UNL A   1      29.701  26.164  24.458  1.00  0.00     0.010 A 
ATOM     94  C   UNL A   1      31.941  28.558  22.851  1.00  0.00     0.050 A 
ATOM     95  C   UNL A   1      29.726  28.395  22.811  1.00  0.00     0.050 A 
ATOM     96  C   UNL A   1      28.498  26.709  23.939  1.00  0.00     0.002 A 
ATOM     97  N   UNL A   1      31.449  29.575  22.061  1.00  0.00    -0.321 N 
ATOM     98  C   UNL A   1      28.487  27.848  23.119  1.00  0.00     0.014 A 
ATOM     99  C   UNL A   1      30.056  29.554  21.998  1.00  0.00     0.256 C 
ATOM    100  H   UNL A   1      32.014  30.236  21.599  1.00  0.00     0.170 HD
ATOM    101  O   UNL A   1      29.377  30.378  21.408  1.00  0.00    -0.269 OA
ENDBRANCH  85  88
ENDBRANCH  82  85
ENDBRANCH  78  80
ENDBRANCH  77  78
ENDBRANCH  76  77
ENDBRANCH  75  76
ENDBRANCH  74  75
ENDBRANCH  73  74
ENDBRANCH   1  73
TORSDOF 19
ENDMDL
MODEL 3
REMARK VINA RESULT:     -12.0      6.741     12.375
REMARK SMILES O=C(OCCOCCOCCOC(=O)[C@@H]1CCCN1S(=O)(=O)c1ccc2c3c(cccc13)C(=O)N2)c1ccc(-c2c3nc(c(-c4c(F)c(F)c(F)c(F)c4F)c4ccc([nH]4)c(-c4c(F)c(F)c(F)c(F)c4F)c4nc(c(-c5c(F)c(F)c(F)c(F)c5F)c5ccc2[nH]5)C=C4)C=C3)cc1
REMARK SMILES IDX 7 1 6 2 5 3 4 4 3 5 2 6 1 7 36 8 37 9 98 10 38 11 97 12
REMARK SMILES IDX 39 13 40 14 41 15 91 16 42 17 96 18 90 19 92 20 43 21 95 22
REMARK SMILES IDX 89 23 88 24 44 26 76 27 56 28 75 29 57 30 60 31 74 32 93 33
REMARK SMILES IDX 58 34 59 35 73 37 94 38 61 39 45 40 46 41 54 42 47 43 48 44
REMARK SMILES IDX 52 45 55 46 49 47 50 48 53 49 51 50 77 51 78 52 86 53 79 54
REMARK SMILES IDX 80 55 84 56 87 57 81 58 82 59 85 60 83 61 62 62 63 63 71 64
REMARK SMILES IDX 64 65 65 66 69 67 72 68 66 69 67 70 70 71 68 72 8 73 9 74
REMARK SMILES IDX 10 75 11 76 12 77 13 78 14 79 15 80 16 81 19 82 17 83 18 84
REMARK SMILES IDX 20 85 21 86 22 87 23 88 24 89 32 90 25 91 27 92 31 93 26 94
REMARK SMILES IDX 28 95 30 96 35 97 29 98 33 99 34 101
REMARK H PARENT 92 25 60 36 35 100
REMARK Flexibility Score: inf
ROOT
ATOM      1  C   UNL A   1      33.890  32.893  28.290  1.00  0.00     0.188 C 
ENDROOT
BRANCH   1   2
ATOM      2  O   UNL A   1      33.944  34.067  29.090  1.00  0.00    -0.376 OA
BRANCH   2   3
ATOM      3  C   UNL A   1      33.258  35.192  28.543  1.00  0.00     0.202 C 
BRANCH   3   4
ATOM      4  C   UNL A   1      33.005  36.256  29.619  1.00  0.00     0.261 C 
BRANCH   4   5
ATOM      5  O   UNL A   1      32.336  35.654  30.749  1.00  0.00    -0.460 OA
BRANCH   5   6
ATOM      6  C   UNL A   1      32.711  35.609  32.046  1.00  0.00     0.338 C 
ATOM      7  O   UNL A   1      31.979  36.122  32.892  1.00  0.00    -0.246 OA
BRANCH   6   8
ATOM      8  C   UNL A   1      33.903  34.862  32.545  1.00  0.00     0.060 A 
ATOM      9  C   UNL A   1      33.895  33.535  32.953  1.00  0.00     0.016 A 
ATOM     10  C   UNL A   1      35.149  35.523  32.481  1.00  0.00     0.016 A 
ATOM     11  C   UNL A   1      35.083  32.886  33.287  1.00  0.00     0.010 A 
ATOM     12  C   UNL A   1      36.348  34.870  32.811  1.00  0.00     0.010 A 
ATOM     13  C   UNL A   1      36.317  33.537  33.213  1.00  0.00    -0.014 A 
BRANCH  13  14
ATOM     14  C   UNL A   1      37.500  32.796  33.707  1.00  0.00     0.031 A 
ATOM     15  C   UNL A   1      38.245  31.947  32.725  1.00  0.00     0.074 A 
ATOM     16  C   UNL A   1      38.001  33.023  34.937  1.00  0.00     0.049 A 
ATOM     17  N   UNL A   1      39.331  31.244  32.899  1.00  0.00    -0.248 NA
ATOM     18  C   UNL A   1      37.681  31.867  31.365  1.00  0.00     0.031 C 
ATOM     19  C   UNL A   1      37.386  33.881  35.942  1.00  0.00     0.029 A 
ATOM     20  N   UNL A   1      39.185  32.632  35.518  1.00  0.00    -0.354 N 
ATOM     21  C   UNL A   1      39.539  30.584  31.698  1.00  0.00     0.074 A 
ATOM     22  C   UNL A   1      38.512  31.019  30.780  1.00  0.00     0.031 C 
ATOM     23  C   UNL A   1      38.260  34.078  36.944  1.00  0.00     0.029 A 
ATOM     24  C   UNL A   1      39.456  33.273  36.708  1.00  0.00     0.049 A 
ATOM     25  H   UNL A   1      39.781  31.957  35.122  1.00  0.00     0.167 HD
ATOM     26  C   UNL A   1      40.471  29.646  31.424  1.00  0.00     0.037 A 
ATOM     27  C   UNL A   1      40.546  33.205  37.504  1.00  0.00     0.037 A 
ATOM     28  C   UNL A   1      41.471  29.223  32.365  1.00  0.00     0.049 A 
ATOM     29  C   UNL A   1      41.586  32.159  37.169  1.00  0.00     0.074 A 
ATOM     30  C   UNL A   1      42.390  28.198  32.249  1.00  0.00     0.029 A 
ATOM     31  N   UNL A   1      41.683  29.817  33.602  1.00  0.00    -0.354 N 
ATOM     32  N   UNL A   1      41.708  31.429  36.086  1.00  0.00    -0.248 NA
ATOM     33  C   UNL A   1      42.582  31.857  38.208  1.00  0.00     0.031 C 
ATOM     34  C   UNL A   1      43.124  28.138  33.436  1.00  0.00     0.029 A 
ATOM     35  C   UNL A   1      42.706  29.165  34.268  1.00  0.00     0.049 A 
ATOM     36  H   UNL A   1      41.180  30.588  33.952  1.00  0.00     0.167 HD
ATOM     37  C   UNL A   1      42.756  30.552  36.332  1.00  0.00     0.074 A 
ATOM     38  C   UNL A   1      43.287  30.891  37.635  1.00  0.00     0.031 C 
ATOM     39  C   UNL A   1      43.205  29.524  35.571  1.00  0.00     0.037 A 
BRANCH  26  40
ATOM     40  C   UNL A   1      40.355  28.928  30.116  1.00  0.00     0.064 A 
ATOM     41  C   UNL A   1      39.653  27.724  29.978  1.00  0.00     0.173 A 
ATOM     42  C   UNL A   1      40.977  29.463  28.976  1.00  0.00     0.173 A 
ATOM     43  F   UNL A   1      39.079  27.151  31.047  1.00  0.00    -0.203 F 
ATOM     44  C   UNL A   1      39.587  27.075  28.748  1.00  0.00     0.198 A 
ATOM     45  C   UNL A   1      40.885  28.828  27.743  1.00  0.00     0.198 A 
ATOM     46  F   UNL A   1      41.677  30.605  29.060  1.00  0.00    -0.203 F 
ATOM     47  F   UNL A   1      38.954  25.897  28.647  1.00  0.00    -0.200 F 
ATOM     48  C   UNL A   1      40.194  27.631  27.631  1.00  0.00     0.200 A 
ATOM     49  F   UNL A   1      41.471  29.369  26.666  1.00  0.00    -0.200 F 
ATOM     50  F   UNL A   1      40.126  27.005  26.447  1.00  0.00    -0.200 F 
ENDBRANCH  26  40
BRANCH  27  51
ATOM     51  C   UNL A   1      40.705  34.074  38.713  1.00  0.00     0.064 A 
ATOM     52  C   UNL A   1      40.163  33.690  39.953  1.00  0.00     0.173 A 
ATOM     53  C   UNL A   1      41.361  35.313  38.665  1.00  0.00     0.173 A 
ATOM     54  F   UNL A   1      39.485  32.538  40.061  1.00  0.00    -0.203 F 
ATOM     55  C   UNL A   1      40.273  34.505  41.082  1.00  0.00     0.198 A 
ATOM     56  C   UNL A   1      41.515  36.103  39.805  1.00  0.00     0.198 A 
ATOM     57  F   UNL A   1      41.864  35.765  37.508  1.00  0.00    -0.203 F 
ATOM     58  F   UNL A   1      39.696  34.136  42.234  1.00  0.00    -0.200 F 
ATOM     59  C   UNL A   1      40.964  35.703  41.011  1.00  0.00     0.200 A 
ATOM     60  F   UNL A   1      42.197  37.254  39.730  1.00  0.00    -0.200 F 
ATOM     61  F   UNL A   1      41.087  36.478  42.097  1.00  0.00    -0.200 F 
ENDBRANCH  27  51
BRANCH  39  62
ATOM     62  C   UNL A   1      44.293  28.660  36.139  1.00  0.00     0.064 A 
ATOM     63  C   UNL A   1      45.635  29.063  36.089  1.00  0.00     0.173 A 
ATOM     64  C   UNL A   1      43.981  27.491  36.848  1.00  0.00     0.173 A 
ATOM     65  F   UNL A   1      45.983  30.171  35.415  1.00  0.00    -0.203 F 
ATOM     66  C   UNL A   1      46.627  28.326  36.728  1.00  0.00     0.198 A 
ATOM     67  C   UNL A   1      44.971  26.773  37.510  1.00  0.00     0.198 A 
ATOM     68  F   UNL A   1      42.709  27.071  36.935  1.00  0.00    -0.203 F 
ATOM     69  F   UNL A   1      47.905  28.721  36.653  1.00  0.00    -0.200 F 
ATOM     70  C   UNL A   1      46.292  27.190  37.450  1.00  0.00     0.200 A 
ATOM     71  F   UNL A   1      44.644  25.687  38.226  1.00  0.00    -0.200 F 
ATOM     72  F   UNL A   1      47.245  26.500  38.092  1.00  0.00    -0.200 F 
ENDBRANCH  39  62
ENDBRANCH  13  14
ENDBRANCH   6   8
ENDBRANCH   5   6
ENDBRANCH   4   5
ENDBRANCH   3   4
ENDBRANCH   2   3
ENDBRANCH   1   2
BRANCH   1  73
ATOM     73  C   UNL A   1      35.181  32.050  28.284  1.00  0.00     0.188 C 
BRANCH  73  74
ATOM     74  O   UNL A   1      35.037  30.748  27.710  1.00  0.00    -0.376 OA
BRANCH  74  75
ATOM     75  C   UNL A   1      33.714  30.498  27.209  1.00  0.00     0.202 C 
BRANCH  75  76
ATOM     76  C   UNL A   1      33.671  29.314  26.213  1.00  0.00     0.261 C 
BRANCH  76  77
ATOM     77  O   UNL A   1      32.341  28.938  25.799  1.00  0.00    -0.462 OA
BRANCH  77  78
ATOM     78  C   UNL A   1      32.233  28.413  24.575  1.00  0.00     0.324 C 
ATOM     79  O   UNL A   1      32.656  28.984  23.570  1.00  0.00    -0.250 OA
BRANCH  78  80
ATOM     80  C   UNL A   1      31.596  27.061  24.512  1.00  0.00     0.183 C 
ATOM     81  C   UNL A   1      31.020  26.803  25.909  1.00  0.00     0.034 C 
ATOM     82  N   UNL A   1      31.966  25.689  24.020  1.00  0.00    -0.184 NA
ATOM     83  C   UNL A   1      30.200  25.557  25.718  1.00  0.00     0.019 C 
ATOM     84  C   UNL A   1      30.925  24.785  24.623  1.00  0.00     0.103 C 
BRANCH  82  85
ATOM     85  S   UNL A   1      33.543  25.014  24.003  1.00  0.00     0.244 S 
ATOM     86  O   UNL A   1      33.967  24.949  22.621  1.00  0.00    -0.207 OA
ATOM     87  O   UNL A   1      34.332  25.763  24.961  1.00  0.00    -0.207 OA
BRANCH  85  88
ATOM     88  C   UNL A   1      33.486  23.331  24.655  1.00  0.00     0.090 A 
ATOM     89  C   UNL A   1      33.845  23.211  26.005  1.00  0.00     0.024 A 
ATOM     90  C   UNL A   1      32.966  22.170  23.977  1.00  0.00     0.005 A 
ATOM     91  C   UNL A   1      33.805  22.028  26.748  1.00  0.00     0.028 A 
ATOM     92  C   UNL A   1      32.955  21.027  24.743  1.00  0.00     0.019 A 
ATOM     93  C   UNL A   1      32.452  21.948  22.666  1.00  0.00     0.010 A 
ATOM     94  C   UNL A   1      33.345  20.940  26.060  1.00  0.00     0.050 A 
ATOM     95  C   UNL A   1      32.591  19.746  24.346  1.00  0.00     0.050 A 
ATOM     96  C   UNL A   1      32.058  20.659  22.224  1.00  0.00     0.002 A 
ATOM     97  N   UNL A   1      33.238  19.628  26.466  1.00  0.00    -0.321 N 
ATOM     98  C   UNL A   1      32.138  19.528  23.052  1.00  0.00     0.014 A 
ATOM     99  C   UNL A   1      32.785  18.803  25.436  1.00  0.00     0.256 C 
ATOM    100  H   UNL A   1      33.456  19.311  27.372  1.00  0.00     0.170 HD
ATOM    101  O   UNL A   1      32.656  17.593  25.523  1.00  0.00    -0.269 OA
ENDBRANCH  85  88
ENDBRANCH  82  85
ENDBRANCH  78  80
ENDBRANCH  77  78
ENDBRANCH  76  77
ENDBRANCH  75  76
ENDBRANCH  74  75
ENDBRANCH  73  74
ENDBRANCH   1  73
TORSDOF 19
ENDMDL
