MODEL 1
REMARK VINA RESULT:     -12.2      0.000      0.000
REMARK SMILES CC(=O)Oc1cc(CCC(=O)OCCOCCOCCOC(=O)c2ccc(-c3c4nc(c(-c5c(F)c(F)c(F)c(F)c5F)c5ccc([nH]5)c(-c5c(F)c(F)c(F)c(F)c5F)c5nc(c(-c6c(F)c(F)c(F)c(F)c6F)c6ccc3[nH]6)C=C5)C=C4)cc2)c(OC(C)=O)c2c1C(=O)c1ccccc1C2=O
REMARK SMILES IDX 16 1 15 2 14 3 13 4 12 5 10 6 11 7 9 8 8 9 7 10 5 11 6 12
REMARK SMILES IDX 93 13 92 14 94 15 87 16 102 17 95 18 96 19 101 20 103 21
REMARK SMILES IDX 97 22 100 23 98 24 99 25 4 26 2 27 1 28 3 29 88 30 89 31
REMARK SMILES IDX 90 32 91 33 17 34 18 35 19 36 20 37 21 38 22 39 23 40 24 41
REMARK SMILES IDX 25 42 86 43 26 44 85 45 27 46 28 47 29 48 79 49 30 50 84 51
REMARK SMILES IDX 78 52 80 53 31 54 83 55 77 56 76 57 32 59 64 60 44 61 63 62
REMARK SMILES IDX 45 63 48 64 62 65 81 66 46 67 47 68 61 70 82 71 49 72 33 73
REMARK SMILES IDX 34 74 42 75 35 76 36 77 40 78 43 79 37 80 38 81 41 82 39 83
REMARK SMILES IDX 65 84 66 85 74 86 67 87 68 88 72 89 75 90 69 91 70 92 73 93
REMARK SMILES IDX 71 94 50 95 51 96 59 97 52 98 53 99 57 100 60 101 54 102
REMARK SMILES IDX 55 103 58 104 56 105
REMARK H PARENT 80 58 48 69
REMARK Flexibility Score: inf
ROOT
ATOM      1  C   UNL A   1      32.805  29.088  24.883  1.00  0.00     0.188 C 
ENDROOT
BRANCH   1   2
ATOM      2  O   UNL A   1      31.633  29.262  24.090  1.00  0.00    -0.376 OA
BRANCH   2   3
ATOM      3  C   UNL A   1      31.751  28.726  22.775  1.00  0.00     0.202 C 
BRANCH   3   4
ATOM      4  C   UNL A   1      30.639  27.706  22.443  1.00  0.00     0.261 C 
BRANCH   4   5
ATOM      5  O   UNL A   1      31.082  26.315  22.492  1.00  0.00    -0.463 OA
BRANCH   5   6
ATOM      6  C   UNL A   1      32.137  25.966  21.716  1.00  0.00     0.306 C 
ATOM      7  O   UNL A   1      32.059  25.803  20.498  1.00  0.00    -0.252 OA
BRANCH   6   8
ATOM      8  C   UNL A   1      33.439  25.621  22.453  1.00  0.00     0.127 C 
BRANCH   8   9
ATOM      9  C   UNL A   1      33.701  25.485  23.968  1.00  0.00     0.051 C 
BRANCH   9  10
ATOM     10  C   UNL A   1      34.136  24.160  24.545  1.00  0.00    -0.000 A 
ATOM     11  C   UNL A   1      35.955  22.575  24.767  1.00  0.00     0.143 A 
ATOM     12  C   UNL A   1      35.504  23.880  24.579  1.00  0.00     0.055 A 
ATOM     13  C   UNL A   1      35.061  21.510  24.915  1.00  0.00     0.080 A 
ATOM     14  C   UNL A   1      33.686  21.785  24.976  1.00  0.00     0.081 A 
ATOM     15  C   UNL A   1      35.582  20.117  24.932  1.00  0.00     0.198 C 
ATOM     16  C   UNL A   1      33.257  23.155  24.966  1.00  0.00     0.146 A 
ATOM     17  C   UNL A   1      32.775  20.603  24.814  1.00  0.00     0.198 C 
ATOM     18  O   UNL A   1      36.757  19.869  25.179  1.00  0.00    -0.288 OA
ATOM     19  C   UNL A   1      34.676  19.008  24.619  1.00  0.00     0.034 A 
ATOM     20  C   UNL A   1      33.315  19.247  24.545  1.00  0.00     0.034 A 
ATOM     21  O   UNL A   1      31.559  20.690  24.803  1.00  0.00    -0.288 OA
ATOM     22  C   UNL A   1      35.188  17.722  24.376  1.00  0.00     0.013 A 
ATOM     23  C   UNL A   1      32.453  18.185  24.206  1.00  0.00     0.013 A 
ATOM     24  C   UNL A   1      34.329  16.672  24.046  1.00  0.00     0.001 A 
ATOM     25  C   UNL A   1      32.960  16.904  23.957  1.00  0.00     0.001 A 
BRANCH  11  26
ATOM     26  O   UNL A   1      37.334  22.389  24.652  1.00  0.00    -0.426 OA
BRANCH  26  27
ATOM     27  C   UNL A   1      37.984  22.903  25.768  1.00  0.00     0.308 C 
ATOM     28  C   UNL A   1      39.129  22.009  26.126  1.00  0.00     0.139 C 
ATOM     29  O   UNL A   1      37.648  23.887  26.417  1.00  0.00    -0.252 OA
ENDBRANCH  26  27
ENDBRANCH  11  26
BRANCH  16  30
ATOM     30  O   UNL A   1      31.929  23.540  25.363  1.00  0.00    -0.426 OA
BRANCH  30  31
ATOM     31  C   UNL A   1      31.373  23.566  26.662  1.00  0.00     0.308 C 
ATOM     32  C   UNL A   1      30.017  22.964  26.844  1.00  0.00     0.139 C 
ATOM     33  O   UNL A   1      31.919  24.080  27.636  1.00  0.00    -0.252 OA
ENDBRANCH  30  31
ENDBRANCH  16  30
ENDBRANCH   9  10
ENDBRANCH   8   9
ENDBRANCH   6   8
ENDBRANCH   5   6
ENDBRANCH   4   5
ENDBRANCH   3   4
ENDBRANCH   2   3
ENDBRANCH   1   2
BRANCH   1  34
ATOM     34  C   UNL A   1      32.965  29.980  26.119  1.00  0.00     0.188 C 
BRANCH  34  35
ATOM     35  O   UNL A   1      31.839  30.500  26.819  1.00  0.00    -0.376 OA
BRANCH  35  36
ATOM     36  C   UNL A   1      31.350  31.774  26.411  1.00  0.00     0.202 C 
BRANCH  36  37
ATOM     37  C   UNL A   1      31.880  33.014  27.175  1.00  0.00     0.261 C 
BRANCH  37  38
ATOM     38  O   UNL A   1      33.288  33.250  27.030  1.00  0.00    -0.460 OA
BRANCH  38  39
ATOM     39  C   UNL A   1      33.894  33.798  28.122  1.00  0.00     0.338 C 
ATOM     40  O   UNL A   1      33.438  34.651  28.854  1.00  0.00    -0.246 OA
BRANCH  39  41
ATOM     41  C   UNL A   1      35.146  33.038  28.425  1.00  0.00     0.060 A 
ATOM     42  C   UNL A   1      35.066  31.639  28.454  1.00  0.00     0.016 A 
ATOM     43  C   UNL A   1      36.386  33.659  28.605  1.00  0.00     0.016 A 
ATOM     44  C   UNL A   1      36.201  30.862  28.716  1.00  0.00     0.010 A 
ATOM     45  C   UNL A   1      37.522  32.885  28.882  1.00  0.00     0.010 A 
ATOM     46  C   UNL A   1      37.425  31.484  28.993  1.00  0.00    -0.014 A 
BRANCH  46  47
ATOM     47  C   UNL A   1      38.481  30.729  29.723  1.00  0.00     0.031 A 
ATOM     48  C   UNL A   1      38.655  31.041  31.188  1.00  0.00     0.074 A 
ATOM     49  C   UNL A   1      39.254  29.786  29.154  1.00  0.00     0.049 A 
ATOM     50  N   UNL A   1      39.525  30.583  32.052  1.00  0.00    -0.248 NA
ATOM     51  C   UNL A   1      37.712  32.021  31.750  1.00  0.00     0.031 C 
ATOM     52  C   UNL A   1      39.173  29.341  27.767  1.00  0.00     0.029 A 
ATOM     53  N   UNL A   1      40.279  29.039  29.690  1.00  0.00    -0.354 N 
ATOM     54  C   UNL A   1      39.242  31.230  33.247  1.00  0.00     0.074 A 
ATOM     55  C   UNL A   1      38.151  32.142  32.990  1.00  0.00     0.031 C 
ATOM     56  C   UNL A   1      40.122  28.411  27.554  1.00  0.00     0.029 A 
ATOM     57  C   UNL A   1      40.896  28.216  28.782  1.00  0.00     0.049 A 
ATOM     58  H   UNL A   1      40.542  29.091  30.637  1.00  0.00     0.167 HD
ATOM     59  C   UNL A   1      39.827  31.079  34.460  1.00  0.00     0.037 A 
ATOM     60  C   UNL A   1      41.975  27.416  28.921  1.00  0.00     0.037 A 
ATOM     61  C   UNL A   1      40.922  30.185  34.722  1.00  0.00     0.049 A 
ATOM     62  C   UNL A   1      42.665  27.309  30.261  1.00  0.00     0.074 A 
ATOM     63  C   UNL A   1      41.579  29.954  35.917  1.00  0.00     0.029 A 
ATOM     64  N   UNL A   1      41.534  29.385  33.767  1.00  0.00    -0.354 N 
ATOM     65  N   UNL A   1      42.381  27.907  31.394  1.00  0.00    -0.248 NA
ATOM     66  C   UNL A   1      43.823  26.405  30.342  1.00  0.00     0.031 C 
ATOM     67  C   UNL A   1      42.632  29.065  35.671  1.00  0.00     0.029 A 
ATOM     68  C   UNL A   1      42.581  28.681  34.340  1.00  0.00     0.049 A 
ATOM     69  H   UNL A   1      41.264  29.327  32.822  1.00  0.00     0.167 HD
ATOM     70  C   UNL A   1      43.297  27.429  32.325  1.00  0.00     0.074 A 
ATOM     71  C   UNL A   1      44.145  26.485  31.626  1.00  0.00     0.031 C 
ATOM     72  C   UNL A   1      43.419  27.738  33.641  1.00  0.00     0.037 A 
BRANCH  59  73
ATOM     73  C   UNL A   1      39.318  31.952  35.572  1.00  0.00     0.064 A 
ATOM     74  C   UNL A   1      39.764  33.272  35.747  1.00  0.00     0.173 A 
ATOM     75  C   UNL A   1      38.398  31.445  36.502  1.00  0.00     0.173 A 
ATOM     76  F   UNL A   1      40.660  33.801  34.899  1.00  0.00    -0.203 F 
ATOM     77  C   UNL A   1      39.353  34.028  36.841  1.00  0.00     0.198 A 
ATOM     78  C   UNL A   1      37.956  32.219  37.571  1.00  0.00     0.198 A 
ATOM     79  F   UNL A   1      37.936  30.192  36.382  1.00  0.00    -0.203 F 
ATOM     80  F   UNL A   1      39.860  35.254  37.035  1.00  0.00    -0.200 F 
ATOM     81  C   UNL A   1      38.447  33.504  37.749  1.00  0.00     0.200 A 
ATOM     82  F   UNL A   1      37.069  31.715  38.440  1.00  0.00    -0.200 F 
ATOM     83  F   UNL A   1      38.059  34.229  38.807  1.00  0.00    -0.200 F 
ENDBRANCH  59  73
BRANCH  60  84
ATOM     84  C   UNL A   1      42.482  26.653  27.747  1.00  0.00     0.064 A 
ATOM     85  C   UNL A   1      43.410  27.211  26.856  1.00  0.00     0.173 A 
ATOM     86  C   UNL A   1      42.040  25.345  27.489  1.00  0.00     0.173 A 
ATOM     87  F   UNL A   1      43.835  28.470  27.035  1.00  0.00    -0.203 F 
ATOM     88  C   UNL A   1      43.872  26.494  25.752  1.00  0.00     0.198 A 
ATOM     89  C   UNL A   1      42.524  24.620  26.403  1.00  0.00     0.198 A 
ATOM     90  F   UNL A   1      41.140  24.770  28.301  1.00  0.00    -0.203 F 
ATOM     91  F   UNL A   1      44.725  27.069  24.894  1.00  0.00    -0.200 F 
ATOM     92  C   UNL A   1      43.437  25.196  25.533  1.00  0.00     0.200 A 
ATOM     93  F   UNL A   1      42.103  23.365  26.196  1.00  0.00    -0.200 F 
ATOM     94  F   UNL A   1      43.888  24.506  24.477  1.00  0.00    -0.200 F 
ENDBRANCH  60  84
BRANCH  72  95
ATOM     95  C   UNL A   1      44.468  27.012  34.440  1.00  0.00     0.064 A 
ATOM     96  C   UNL A   1      44.235  25.752  35.012  1.00  0.00     0.173 A 
ATOM     97  C   UNL A   1      45.748  27.570  34.593  1.00  0.00     0.173 A 
ATOM     98  F   UNL A   1      43.030  25.173  34.903  1.00  0.00    -0.203 F 
ATOM     99  C   UNL A   1      45.231  25.096  35.734  1.00  0.00     0.198 A 
ATOM    100  C   UNL A   1      46.751  26.895  35.283  1.00  0.00     0.198 A 
ATOM    101  F   UNL A   1      46.033  28.766  34.057  1.00  0.00    -0.203 F 
ATOM    102  F   UNL A   1      44.967  23.919  36.317  1.00  0.00    -0.200 F 
ATOM    103  C   UNL A   1      46.489  25.664  35.863  1.00  0.00     0.200 A 
ATOM    104  F   UNL A   1      47.973  27.438  35.388  1.00  0.00    -0.200 F 
ATOM    105  F   UNL A   1      47.447  25.028  36.550  1.00  0.00    -0.200 F 
ENDBRANCH  72  95
ENDBRANCH  46  47
ENDBRANCH  39  41
ENDBRANCH  38  39
ENDBRANCH  37  38
ENDBRANCH  36  37
ENDBRANCH  35  36
ENDBRANCH  34  35
ENDBRANCH   1  34
TORSDOF 23
ENDMDL
MODEL 2
REMARK VINA RESULT:     -11.6      1.235      7.564
REMARK SMILES CC(=O)Oc1cc(CCC(=O)OCCOCCOCCOC(=O)c2ccc(-c3c4nc(c(-c5c(F)c(F)c(F)c(F)c5F)c5ccc([nH]5)c(-c5c(F)c(F)c(F)c(F)c5F)c5nc(c(-c6c(F)c(F)c(F)c(F)c6F)c6ccc3[nH]6)C=C5)C=C4)cc2)c(OC(C)=O)c2c1C(=O)c1ccccc1C2=O
REMARK SMILES IDX 16 1 15 2 14 3 13 4 12 5 10 6 11 7 9 8 8 9 7 10 5 11 6 12
REMARK SMILES IDX 93 13 92 14 94 15 87 16 102 17 95 18 96 19 101 20 103 21
REMARK SMILES IDX 97 22 100 23 98 24 99 25 4 26 2 27 1 28 3 29 88 30 89 31
REMARK SMILES IDX 90 32 91 33 17 34 18 35 19 36 20 37 21 38 22 39 23 40 24 41
REMARK SMILES IDX 25 42 86 43 26 44 85 45 27 46 28 47 29 48 79 49 30 50 84 51
REMARK SMILES IDX 78 52 80 53 31 54 83 55 77 56 76 57 32 59 64 60 44 61 63 62
REMARK SMILES IDX 45 63 48 64 62 65 81 66 46 67 47 68 61 70 82 71 49 72 33 73
REMARK SMILES IDX 34 74 42 75 35 76 36 77 40 78 43 79 37 80 38 81 41 82 39 83
REMARK SMILES IDX 65 84 66 85 74 86 67 87 68 88 72 89 75 90 69 91 70 92 73 93
REMARK SMILES IDX 71 94 50 95 51 96 59 97 52 98 53 99 57 100 60 101 54 102
REMARK SMILES IDX 55 103 58 104 56 105
REMARK H PARENT 80 58 48 69
REMARK Flexibility Score: inf
ROOT
ATOM      1  C   UNL A   1      30.489  27.300  23.762  1.00  0.00     0.188 C 
ENDROOT
BRANCH   1   2
ATOM      2  O   UNL A   1      29.381  26.781  24.494  1.00  0.00    -0.376 OA
BRANCH   2   3
ATOM      3  C   UNL A   1      29.703  25.631  25.273  1.00  0.00     0.202 C 
BRANCH   3   4
ATOM      4  C   UNL A   1      31.028  25.787  26.052  1.00  0.00     0.261 C 
BRANCH   4   5
ATOM      5  O   UNL A   1      31.327  24.663  26.936  1.00  0.00    -0.463 OA
BRANCH   5   6
ATOM      6  C   UNL A   1      30.643  23.510  26.736  1.00  0.00     0.306 C 
ATOM      7  O   UNL A   1      29.948  22.974  27.599  1.00  0.00    -0.252 OA
BRANCH   6   8
ATOM      8  C   UNL A   1      30.893  22.793  25.401  1.00  0.00     0.127 C 
BRANCH   8   9
ATOM      9  C   UNL A   1      31.525  21.411  25.135  1.00  0.00     0.051 C 
BRANCH   9  10
ATOM     10  C   UNL A   1      32.990  21.302  24.786  1.00  0.00    -0.000 A 
ATOM     11  C   UNL A   1      34.925  19.846  24.703  1.00  0.00     0.143 A 
ATOM     12  C   UNL A   1      33.544  20.025  24.678  1.00  0.00     0.055 A 
ATOM     13  C   UNL A   1      35.797  20.931  24.850  1.00  0.00     0.080 A 
ATOM     14  C   UNL A   1      35.263  22.229  24.869  1.00  0.00     0.081 A 
ATOM     15  C   UNL A   1      37.248  20.678  25.054  1.00  0.00     0.198 C 
ATOM     16  C   UNL A   1      33.853  22.397  24.654  1.00  0.00     0.146 A 
ATOM     17  C   UNL A   1      36.191  23.310  25.343  1.00  0.00     0.198 C 
ATOM     18  O   UNL A   1      37.767  19.611  24.748  1.00  0.00    -0.288 OA
ATOM     19  C   UNL A   1      38.080  21.721  25.661  1.00  0.00     0.034 A 
ATOM     20  C   UNL A   1      37.561  22.994  25.817  1.00  0.00     0.034 A 
ATOM     21  O   UNL A   1      35.858  24.478  25.452  1.00  0.00    -0.288 OA
ATOM     22  C   UNL A   1      39.382  21.423  26.098  1.00  0.00     0.013 A 
ATOM     23  C   UNL A   1      38.352  23.982  26.436  1.00  0.00     0.013 A 
ATOM     24  C   UNL A   1      40.164  22.408  26.706  1.00  0.00     0.001 A 
ATOM     25  C   UNL A   1      39.647  23.689  26.878  1.00  0.00     0.001 A 
BRANCH  11  26
ATOM     26  O   UNL A   1      35.364  18.522  24.720  1.00  0.00    -0.426 OA
BRANCH  26  27
ATOM     27  C   UNL A   1      34.282  17.654  24.632  1.00  0.00     0.308 C 
ATOM     28  C   UNL A   1      34.207  17.099  23.245  1.00  0.00     0.139 C 
ATOM     29  O   UNL A   1      33.461  17.422  25.512  1.00  0.00    -0.252 OA
ENDBRANCH  26  27
ENDBRANCH  11  26
BRANCH  16  30
ATOM     30  O   UNL A   1      33.281  23.673  24.319  1.00  0.00    -0.426 OA
BRANCH  30  31
ATOM     31  C   UNL A   1      33.307  24.349  23.078  1.00  0.00     0.308 C 
ATOM     32  C   UNL A   1      33.187  23.522  21.839  1.00  0.00     0.139 C 
ATOM     33  O   UNL A   1      33.454  25.564  22.957  1.00  0.00    -0.252 OA
ENDBRANCH  30  31
ENDBRANCH  16  30
ENDBRANCH   9  10
ENDBRANCH   8   9
ENDBRANCH   6   8
ENDBRANCH   5   6
ENDBRANCH   4   5
ENDBRANCH   3   4
ENDBRANCH   2   3
ENDBRANCH   1   2
BRANCH   1  34
ATOM     34  C   UNL A   1      30.401  28.750  23.275  1.00  0.00     0.188 C 
BRANCH  34  35
ATOM     35  O   UNL A   1      30.673  29.849  24.138  1.00  0.00    -0.376 OA
BRANCH  35  36
ATOM     36  C   UNL A   1      31.387  29.571  25.340  1.00  0.00     0.202 C 
BRANCH  36  37
ATOM     37  C   UNL A   1      31.818  30.783  26.203  1.00  0.00     0.261 C 
BRANCH  37  38
ATOM     38  O   UNL A   1      33.045  30.598  26.926  1.00  0.00    -0.460 OA
BRANCH  38  39
ATOM     39  C   UNL A   1      33.589  31.739  27.437  1.00  0.00     0.338 C 
ATOM     40  O   UNL A   1      33.024  32.797  27.613  1.00  0.00    -0.246 OA
BRANCH  39  41
ATOM     41  C   UNL A   1      34.959  31.441  27.956  1.00  0.00     0.060 A 
ATOM     42  C   UNL A   1      35.270  30.105  28.244  1.00  0.00     0.016 A 
ATOM     43  C   UNL A   1      35.948  32.421  28.094  1.00  0.00     0.016 A 
ATOM     44  C   UNL A   1      36.539  29.751  28.719  1.00  0.00     0.010 A 
ATOM     45  C   UNL A   1      37.215  32.073  28.583  1.00  0.00     0.010 A 
ATOM     46  C   UNL A   1      37.500  30.742  28.951  1.00  0.00    -0.014 A 
BRANCH  46  47
ATOM     47  C   UNL A   1      38.633  30.462  29.875  1.00  0.00     0.031 A 
ATOM     48  C   UNL A   1      39.742  29.585  29.351  1.00  0.00     0.074 A 
ATOM     49  C   UNL A   1      38.723  30.963  31.120  1.00  0.00     0.049 A 
ATOM     50  N   UNL A   1      40.815  29.132  29.947  1.00  0.00    -0.248 NA
ATOM     51  C   UNL A   1      39.606  29.151  27.951  1.00  0.00     0.031 C 
ATOM     52  C   UNL A   1      37.760  31.860  31.750  1.00  0.00     0.029 A 
ATOM     53  N   UNL A   1      39.683  30.765  32.087  1.00  0.00    -0.354 N 
ATOM     54  C   UNL A   1      41.468  28.352  29.002  1.00  0.00     0.074 A 
ATOM     55  C   UNL A   1      40.652  28.357  27.809  1.00  0.00     0.031 C 
ATOM     56  C   UNL A   1      38.167  32.122  33.005  1.00  0.00     0.029 A 
ATOM     57  C   UNL A   1      39.405  31.388  33.278  1.00  0.00     0.049 A 
ATOM     58  H   UNL A   1      40.495  30.229  31.936  1.00  0.00     0.167 HD
ATOM     59  C   UNL A   1      42.648  27.694  29.105  1.00  0.00     0.037 A 
ATOM     60  C   UNL A   1      40.061  31.350  34.458  1.00  0.00     0.037 A 
ATOM     61  C   UNL A   1      43.459  27.672  30.292  1.00  0.00     0.049 A 
ATOM     62  C   UNL A   1      41.339  30.554  34.583  1.00  0.00     0.074 A 
ATOM     63  C   UNL A   1      44.673  27.041  30.495  1.00  0.00     0.029 A 
ATOM     64  N   UNL A   1      43.127  28.297  31.486  1.00  0.00    -0.354 N 
ATOM     65  N   UNL A   1      41.964  29.835  33.680  1.00  0.00    -0.248 NA
ATOM     66  C   UNL A   1      42.008  30.573  35.893  1.00  0.00     0.031 C 
ATOM     67  C   UNL A   1      45.043  27.227  31.832  1.00  0.00     0.029 A 
ATOM     68  C   UNL A   1      44.101  28.042  32.439  1.00  0.00     0.049 A 
ATOM     69  H   UNL A   1      42.320  28.841  31.634  1.00  0.00     0.167 HD
ATOM     70  C   UNL A   1      43.111  29.347  34.299  1.00  0.00     0.074 A 
ATOM     71  C   UNL A   1      43.099  29.857  35.654  1.00  0.00     0.031 C 
ATOM     72  C   UNL A   1      44.088  28.556  33.787  1.00  0.00     0.037 A 
BRANCH  59  73
ATOM     73  C   UNL A   1      43.088  26.899  27.908  1.00  0.00     0.064 A 
ATOM     74  C   UNL A   1      42.841  25.521  27.797  1.00  0.00     0.173 A 
ATOM     75  C   UNL A   1      43.803  27.520  26.873  1.00  0.00     0.173 A 
ATOM     76  F   UNL A   1      42.180  24.872  28.769  1.00  0.00    -0.203 F 
ATOM     77  C   UNL A   1      43.344  24.786  26.727  1.00  0.00     0.198 A 
ATOM     78  C   UNL A   1      44.267  26.790  25.783  1.00  0.00     0.198 A 
ATOM     79  F   UNL A   1      44.064  28.834  26.925  1.00  0.00    -0.203 F 
ATOM     80  F   UNL A   1      43.171  23.458  26.688  1.00  0.00    -0.200 F 
ATOM     81  C   UNL A   1      44.052  25.422  25.718  1.00  0.00     0.200 A 
ATOM     82  F   UNL A   1      44.939  27.409  24.802  1.00  0.00    -0.200 F 
ATOM     83  F   UNL A   1      44.543  24.713  24.693  1.00  0.00    -0.200 F 
ENDBRANCH  59  73
BRANCH  60  84
ATOM     84  C   UNL A   1      39.513  32.087  35.630  1.00  0.00     0.064 A 
ATOM     85  C   UNL A   1      38.588  31.493  36.501  1.00  0.00     0.173 A 
ATOM     86  C   UNL A   1      39.899  33.410  35.898  1.00  0.00     0.173 A 
ATOM     87  F   UNL A   1      38.156  30.244  36.268  1.00  0.00    -0.203 F 
ATOM     88  C   UNL A   1      38.070  32.193  37.590  1.00  0.00     0.198 A 
ATOM     89  C   UNL A   1      39.403  34.098  37.003  1.00  0.00     0.198 A 
ATOM     90  F   UNL A   1      40.768  34.031  35.086  1.00  0.00    -0.203 F 
ATOM     91  F   UNL A   1      37.155  31.615  38.381  1.00  0.00    -0.200 F 
ATOM     92  C   UNL A   1      38.485  33.491  37.846  1.00  0.00     0.200 A 
ATOM     93  F   UNL A   1      39.810  35.351  37.248  1.00  0.00    -0.200 F 
ATOM     94  F   UNL A   1      37.993  34.159  38.898  1.00  0.00    -0.200 F 
ENDBRANCH  60  84
BRANCH  72  95
ATOM     95  C   UNL A   1      45.264  28.232  34.668  1.00  0.00     0.064 A 
ATOM     96  C   UNL A   1      45.288  27.102  35.499  1.00  0.00     0.173 A 
ATOM     97  C   UNL A   1      46.409  29.046  34.641  1.00  0.00     0.173 A 
ATOM     98  F   UNL A   1      44.220  26.294  35.570  1.00  0.00    -0.203 F 
ATOM     99  C   UNL A   1      46.397  26.819  36.294  1.00  0.00     0.198 A 
ATOM    100  C   UNL A   1      47.530  28.739  35.409  1.00  0.00     0.198 A 
ATOM    101  F   UNL A   1      46.450  30.132  33.856  1.00  0.00    -0.203 F 
ATOM    102  F   UNL A   1      46.374  25.765  37.121  1.00  0.00    -0.200 F 
ATOM    103  C   UNL A   1      47.519  27.632  36.243  1.00  0.00     0.200 A 
ATOM    104  F   UNL A   1      48.620  29.516  35.341  1.00  0.00    -0.200 F 
ATOM    105  F   UNL A   1      48.587  27.353  37.002  1.00  0.00    -0.200 F 
ENDBRANCH  72  95
ENDBRANCH  46  47
ENDBRANCH  39  41
ENDBRANCH  38  39
ENDBRANCH  37  38
ENDBRANCH  36  37
ENDBRANCH  35  36
ENDBRANCH  34  35
ENDBRANCH   1  34
TORSDOF 23
ENDMDL
MODEL 3
REMARK VINA RESULT:     -11.5      0.898      6.849
REMARK SMILES CC(=O)Oc1cc(CCC(=O)OCCOCCOCCOC(=O)c2ccc(-c3c4nc(c(-c5c(F)c(F)c(F)c(F)c5F)c5ccc([nH]5)c(-c5c(F)c(F)c(F)c(F)c5F)c5nc(c(-c6c(F)c(F)c(F)c(F)c6F)c6ccc3[nH]6)C=C5)C=C4)cc2)c(OC(C)=O)c2c1C(=O)c1ccccc1C2=O
REMARK SMILES IDX 16 1 15 2 14 3 13 4 12 5 10 6 11 7 9 8 8 9 7 10 5 11 6 12
REMARK SMILES IDX 93 13 92 14 94 15 87 16 102 17 95 18 96 19 101 20 103 21
REMARK SMILES IDX 97 22 100 23 98 24 99 25 4 26 2 27 1 28 3 29 88 30 89 31
REMARK SMILES IDX 90 32 91 33 17 34 18 35 19 36 20 37 21 38 22 39 23 40 24 41
REMARK SMILES IDX 25 42 86 43 26 44 85 45 27 46 28 47 29 48 79 49 30 50 84 51
REMARK SMILES IDX 78 52 80 53 31 54 83 55 77 56 76 57 32 59 64 60 44 61 63 62
REMARK SMILES IDX 45 63 48 64 62 65 81 66 46 67 47 68 61 70 82 71 49 72 33 73
REMARK SMILES IDX 34 74 42 75 35 76 36 77 40 78 43 79 37 80 38 81 41 82 39 83
REMARK SMILES IDX 65 84 66 85 74 86 67 87 68 88 72 89 75 90 69 91 70 92 73 93
REMARK SMILES IDX 71 94 50 95 51 96 59 97 52 98 53 99 57 100 60 101 54 102
REMARK SMILES IDX 55 103 58 104 56 105
REMARK H PARENT 80 58 48 69
REMARK Flexibility Score: inf
ROOT
ATOM      1  C   UNL A   1      33.187  28.492  26.208  1.00  0.00     0.188 C 
ENDROOT
BRANCH   1   2
ATOM      2  O   UNL A   1      33.953  28.163  25.051  1.00  0.00    -0.376 OA
BRANCH   2   3
ATOM      3  C   UNL A   1      33.731  29.042  23.952  1.00  0.00     0.202 C 
BRANCH   3   4
ATOM      4  C   UNL A   1      32.700  28.491  22.942  1.00  0.00     0.261 C 
BRANCH   4   5
ATOM      5  O   UNL A   1      33.258  27.523  22.001  1.00  0.00    -0.463 OA
BRANCH   5   6
ATOM      6  C   UNL A   1      32.611  26.339  21.863  1.00  0.00     0.306 C 
ATOM      7  O   UNL A   1      31.519  26.224  21.309  1.00  0.00    -0.252 OA
BRANCH   6   8
ATOM      8  C   UNL A   1      33.238  25.133  22.578  1.00  0.00     0.127 C 
BRANCH   8   9
ATOM      9  C   UNL A   1      34.055  25.087  23.887  1.00  0.00     0.051 C 
BRANCH   9  10
ATOM     10  C   UNL A   1      34.473  23.759  24.472  1.00  0.00    -0.000 A 
ATOM     11  C   UNL A   1      36.229  22.095  24.604  1.00  0.00     0.143 A 
ATOM     12  C   UNL A   1      35.825  23.414  24.408  1.00  0.00     0.055 A 
ATOM     13  C   UNL A   1      35.301  21.079  24.855  1.00  0.00     0.080 A 
ATOM     14  C   UNL A   1      33.949  21.422  25.013  1.00  0.00     0.081 A 
ATOM     15  C   UNL A   1      35.756  19.664  24.877  1.00  0.00     0.198 C 
ATOM     16  C   UNL A   1      33.584  22.811  24.992  1.00  0.00     0.146 A 
ATOM     17  C   UNL A   1      32.975  20.281  24.961  1.00  0.00     0.198 C 
ATOM     18  O   UNL A   1      36.934  19.366  25.041  1.00  0.00    -0.288 OA
ATOM     19  C   UNL A   1      34.778  18.591  24.671  1.00  0.00     0.034 A 
ATOM     20  C   UNL A   1      33.429  18.894  24.695  1.00  0.00     0.034 A 
ATOM     21  O   UNL A   1      31.766  20.427  25.041  1.00  0.00    -0.288 OA
ATOM     22  C   UNL A   1      35.210  17.275  24.431  1.00  0.00     0.013 A 
ATOM     23  C   UNL A   1      32.495  17.866  24.458  1.00  0.00     0.013 A 
ATOM     24  C   UNL A   1      34.281  16.259  24.202  1.00  0.00     0.001 A 
ATOM     25  C   UNL A   1      32.921  16.555  24.213  1.00  0.00     0.001 A 
BRANCH  11  26
ATOM     26  O   UNL A   1      37.584  21.839  24.389  1.00  0.00    -0.426 OA
BRANCH  26  27
ATOM     27  C   UNL A   1      38.317  22.131  25.533  1.00  0.00     0.308 C 
ATOM     28  C   UNL A   1      38.044  23.542  25.946  1.00  0.00     0.139 C 
ATOM     29  O   UNL A   1      39.123  21.394  26.089  1.00  0.00    -0.252 OA
ENDBRANCH  26  27
ENDBRANCH  11  26
BRANCH  16  30
ATOM     30  O   UNL A   1      32.311  23.271  25.477  1.00  0.00    -0.426 OA
BRANCH  30  31
ATOM     31  C   UNL A   1      31.902  23.477  26.815  1.00  0.00     0.308 C 
ATOM     32  C   UNL A   1      32.577  22.666  27.874  1.00  0.00     0.139 C 
ATOM     33  O   UNL A   1      31.010  24.252  27.151  1.00  0.00    -0.252 OA
ENDBRANCH  30  31
ENDBRANCH  16  30
ENDBRANCH   9  10
ENDBRANCH   8   9
ENDBRANCH   6   8
ENDBRANCH   5   6
ENDBRANCH   4   5
ENDBRANCH   3   4
ENDBRANCH   2   3
ENDBRANCH   1   2
BRANCH   1  34
ATOM     34  C   UNL A   1      32.717  29.943  26.358  1.00  0.00     0.188 C 
BRANCH  34  35
ATOM     35  O   UNL A   1      31.386  30.336  26.041  1.00  0.00    -0.376 OA
BRANCH  35  36
ATOM     36  C   UNL A   1      31.105  31.733  26.026  1.00  0.00     0.202 C 
BRANCH  36  37
ATOM     37  C   UNL A   1      31.615  32.571  27.225  1.00  0.00     0.261 C 
BRANCH  37  38
ATOM     38  O   UNL A   1      32.864  33.242  26.999  1.00  0.00    -0.460 OA
BRANCH  38  39
ATOM     39  C   UNL A   1      33.368  33.900  28.082  1.00  0.00     0.338 C 
ATOM     40  O   UNL A   1      32.828  34.785  28.710  1.00  0.00    -0.246 OA
BRANCH  39  41
ATOM     41  C   UNL A   1      34.623  33.221  28.530  1.00  0.00     0.060 A 
ATOM     42  C   UNL A   1      34.516  31.911  29.018  1.00  0.00     0.016 A 
ATOM     43  C   UNL A   1      35.886  33.811  28.415  1.00  0.00     0.016 A 
ATOM     44  C   UNL A   1      35.652  31.210  29.440  1.00  0.00     0.010 A 
ATOM     45  C   UNL A   1      37.024  33.116  28.852  1.00  0.00     0.010 A 
ATOM     46  C   UNL A   1      36.906  31.832  29.418  1.00  0.00    -0.014 A 
BRANCH  46  47
ATOM     47  C   UNL A   1      38.000  31.305  30.280  1.00  0.00     0.031 A 
ATOM     48  C   UNL A   1      38.930  30.292  29.662  1.00  0.00     0.074 A 
ATOM     49  C   UNL A   1      38.206  31.700  31.549  1.00  0.00     0.049 A 
ATOM     50  N   UNL A   1      39.928  29.629  30.189  1.00  0.00    -0.248 NA
ATOM     51  C   UNL A   1      38.686  29.981  28.244  1.00  0.00     0.031 C 
ATOM     52  C   UNL A   1      37.426  32.702  32.268  1.00  0.00     0.029 A 
ATOM     53  N   UNL A   1      39.145  31.282  32.465  1.00  0.00    -0.354 N 
ATOM     54  C   UNL A   1      40.414  28.815  29.174  1.00  0.00     0.074 A 
ATOM     55  C   UNL A   1      39.579  29.035  28.015  1.00  0.00     0.031 C 
ATOM     56  C   UNL A   1      37.905  32.809  33.521  1.00  0.00     0.029 A 
ATOM     57  C   UNL A   1      39.008  31.862  33.702  1.00  0.00     0.049 A 
ATOM     58  H   UNL A   1      39.850  30.629  32.252  1.00  0.00     0.167 HD
ATOM     59  C   UNL A   1      41.468  27.964  29.193  1.00  0.00     0.037 A 
ATOM     60  C   UNL A   1      39.679  31.637  34.852  1.00  0.00     0.037 A 
ATOM     61  C   UNL A   1      42.295  27.728  30.345  1.00  0.00     0.049 A 
ATOM     62  C   UNL A   1      40.808  30.632  34.879  1.00  0.00     0.074 A 
ATOM     63  C   UNL A   1      43.390  26.892  30.463  1.00  0.00     0.029 A 
ATOM     64  N   UNL A   1      42.106  28.320  31.586  1.00  0.00    -0.354 N 
ATOM     65  N   UNL A   1      41.278  29.881  33.912  1.00  0.00    -0.248 NA
ATOM     66  C   UNL A   1      41.505  30.452  36.162  1.00  0.00     0.031 C 
ATOM     67  C   UNL A   1      43.822  26.925  31.794  1.00  0.00     0.029 A 
ATOM     68  C   UNL A   1      43.047  27.843  32.485  1.00  0.00     0.049 A 
ATOM     69  H   UNL A   1      41.406  28.979  31.797  1.00  0.00     0.167 HD
ATOM     70  C   UNL A   1      42.342  29.169  34.457  1.00  0.00     0.074 A 
ATOM     71  C   UNL A   1      42.453  29.582  35.840  1.00  0.00     0.031 C 
ATOM     72  C   UNL A   1      43.158  28.262  33.860  1.00  0.00     0.037 A 
BRANCH  59  73
ATOM     73  C   UNL A   1      41.735  27.188  27.934  1.00  0.00     0.064 A 
ATOM     74  C   UNL A   1      41.230  25.893  27.735  1.00  0.00     0.173 A 
ATOM     75  C   UNL A   1      42.544  27.735  26.927  1.00  0.00     0.173 A 
ATOM     76  F   UNL A   1      40.468  25.313  28.676  1.00  0.00    -0.203 F 
ATOM     77  C   UNL A   1      41.571  25.156  26.605  1.00  0.00     0.198 A 
ATOM     78  C   UNL A   1      42.848  27.011  25.777  1.00  0.00     0.198 A 
ATOM     79  F   UNL A   1      43.051  28.969  27.061  1.00  0.00    -0.203 F 
ATOM     80  F   UNL A   1      41.149  23.890  26.479  1.00  0.00    -0.200 F 
ATOM     81  C   UNL A   1      42.376  25.716  25.625  1.00  0.00     0.200 A 
ATOM     82  F   UNL A   1      43.615  27.560  24.825  1.00  0.00    -0.200 F 
ATOM     83  F   UNL A   1      42.712  25.003  24.542  1.00  0.00    -0.200 F 
ENDBRANCH  59  73
BRANCH  60  84
ATOM     84  C   UNL A   1      39.295  32.375  36.086  1.00  0.00     0.064 A 
ATOM     85  C   UNL A   1      39.870  33.612  36.408  1.00  0.00     0.173 A 
ATOM     86  C   UNL A   1      38.346  31.850  36.977  1.00  0.00     0.173 A 
ATOM     87  F   UNL A   1      40.812  34.140  35.611  1.00  0.00    -0.203 F 
ATOM     88  C   UNL A   1      39.515  34.293  37.572  1.00  0.00     0.198 A 
ATOM     89  C   UNL A   1      37.969  32.544  38.125  1.00  0.00     0.198 A 
ATOM     90  F   UNL A   1      37.776  30.661  36.726  1.00  0.00    -0.203 F 
ATOM     91  F   UNL A   1      40.113  35.454  37.876  1.00  0.00    -0.200 F 
ATOM     92  C   UNL A   1      38.557  33.764  38.424  1.00  0.00     0.200 A 
ATOM     93  F   UNL A   1      37.041  32.030  38.943  1.00  0.00    -0.200 F 
ATOM     94  F   UNL A   1      38.210  34.423  39.537  1.00  0.00    -0.200 F 
ENDBRANCH  60  84
BRANCH  72  95
ATOM     95  C   UNL A   1      44.285  27.688  34.676  1.00  0.00     0.064 A 
ATOM     96  C   UNL A   1      44.174  26.464  35.352  1.00  0.00     0.173 A 
ATOM     97  C   UNL A   1      45.519  28.358  34.740  1.00  0.00     0.173 A 
ATOM     98  F   UNL A   1      43.018  25.784  35.330  1.00  0.00    -0.203 F 
ATOM     99  C   UNL A   1      45.240  25.950  36.087  1.00  0.00     0.198 A 
ATOM    100  C   UNL A   1      46.594  27.823  35.445  1.00  0.00     0.198 A 
ATOM    101  F   UNL A   1      45.689  29.526  34.103  1.00  0.00    -0.203 F 
ATOM    102  F   UNL A   1      45.090  24.806  36.769  1.00  0.00    -0.200 F 
ATOM    103  C   UNL A   1      46.450  26.624  36.128  1.00  0.00     0.200 A 
ATOM    104  F   UNL A   1      47.769  28.468  35.466  1.00  0.00    -0.200 F 
ATOM    105  F   UNL A   1      47.477  26.125  36.829  1.00  0.00    -0.200 F 
ENDBRANCH  72  95
ENDBRANCH  46  47
ENDBRANCH  39  41
ENDBRANCH  38  39
ENDBRANCH  37  38
ENDBRANCH  36  37
ENDBRANCH  35  36
ENDBRANCH  34  35
ENDBRANCH   1  34
TORSDOF 23
ENDMDL
