MODEL 1
REMARK VINA RESULT:     -11.7      0.000      0.000
REMARK SMILES O=C(CN1C(=O)/C(=C\c2c(F)cccc2Cl)Oc2ccccc21)OCCOCCOCCOC(=O)c1ccc(-c2c3nc(c(-c4c(F)c(F)c(F)c(F)c4F)c4ccc([nH]4)c(-c4c(F)c(F)c(F)c(F)c4F)c4nc(c(-c5c(F)c(F)c(F)c(F)c5F)c5ccc2[nH]5)C=C4)C=C3)cc1
REMARK SMILES IDX 28 1 27 2 26 3 25 4 24 5 2 6 1 7 3 8 4 9 5 10 23 11 6 12
REMARK SMILES IDX 7 13 18 14 22 15 8 16 17 17 19 18 21 19 20 20 9 21 10 22
REMARK SMILES IDX 15 23 11 24 12 25 14 26 16 27 13 28 29 29 30 30 31 31 32 32
REMARK SMILES IDX 33 33 34 34 35 35 36 36 37 37 98 38 38 39 97 40 39 41 40 42
REMARK SMILES IDX 41 43 91 44 42 45 96 46 90 47 92 48 43 49 95 50 89 51 88 52
REMARK SMILES IDX 44 54 76 55 56 56 75 57 57 58 60 59 74 60 93 61 58 62 59 63
REMARK SMILES IDX 73 65 94 66 61 67 45 68 46 69 54 70 47 71 48 72 52 73 55 74
REMARK SMILES IDX 49 75 50 76 53 77 51 78 77 79 78 80 86 81 79 82 80 83 84 84
REMARK SMILES IDX 87 85 81 86 82 87 85 88 83 89 62 90 63 91 71 92 64 93 65 94
REMARK SMILES IDX 69 95 72 96 66 97 67 98 70 99 68 100
REMARK H PARENT 92 53 60 64
REMARK Flexibility Score: inf
ROOT
ATOM      1  C   UNL A   1      37.762  23.402  26.147  1.00  0.00     0.188 C 
ENDROOT
BRANCH   1   2
ATOM      2  O   UNL A   1      37.223  24.054  25.013  1.00  0.00    -0.376 OA
BRANCH   2   3
ATOM      3  C   UNL A   1      35.877  23.757  24.716  1.00  0.00     0.202 C 
BRANCH   3   4
ATOM      4  C   UNL A   1      35.648  23.109  23.361  1.00  0.00     0.261 C 
BRANCH   4   5
ATOM      5  O   UNL A   1      34.564  23.631  22.547  1.00  0.00    -0.462 OA
BRANCH   5   6
ATOM      6  C   UNL A   1      33.422  23.162  22.026  1.00  0.00     0.326 C 
ATOM      7  O   UNL A   1      33.271  23.254  20.803  1.00  0.00    -0.250 OA
BRANCH   6   8
ATOM      8  C   UNL A   1      32.268  22.585  22.842  1.00  0.00     0.248 C 
BRANCH   8   9
ATOM      9  N   UNL A   1      31.855  23.131  24.126  1.00  0.00    -0.291 N 
ATOM     10  C   UNL A   1      31.014  24.243  24.129  1.00  0.00     0.294 C 
ATOM     11  C   UNL A   1      32.340  22.560  25.327  1.00  0.00     0.088 A 
ATOM     12  O   UNL A   1      30.524  24.691  23.094  1.00  0.00    -0.265 OA
ATOM     13  C   UNL A   1      30.845  24.930  25.461  1.00  0.00     0.193 C 
ATOM     14  C   UNL A   1      32.076  23.206  26.532  1.00  0.00     0.151 A 
ATOM     15  C   UNL A   1      33.162  21.420  25.334  1.00  0.00     0.030 A 
ATOM     16  C   UNL A   1      30.426  26.205  25.577  1.00  0.00     0.065 C 
ATOM     17  O   UNL A   1      31.253  24.295  26.632  1.00  0.00    -0.449 OA
ATOM     18  C   UNL A   1      32.703  22.788  27.708  1.00  0.00     0.049 A 
ATOM     19  C   UNL A   1      33.801  21.013  26.504  1.00  0.00     0.002 A 
ATOM     20  C   UNL A   1      33.588  21.710  27.688  1.00  0.00     0.004 A 
BRANCH  16  21
ATOM     21  C   UNL A   1      30.135  27.188  24.516  1.00  0.00     0.033 A 
ATOM     22  C   UNL A   1      28.866  27.259  23.930  1.00  0.00     0.132 A 
ATOM     23  C   UNL A   1      31.105  28.112  24.085  1.00  0.00     0.051 A 
ATOM     24  F   UNL A   1      27.891  26.427  24.330  1.00  0.00    -0.206 F 
ATOM     25  C   UNL A   1      28.573  28.187  22.928  1.00  0.00     0.040 A 
ATOM     26  C   UNL A   1      30.818  29.046  23.081  1.00  0.00     0.021 A 
ATOM     27  Cl  UNL A   1      32.688  28.167  24.786  1.00  0.00    -0.084 Cl
ATOM     28  C   UNL A   1      29.552  29.080  22.498  1.00  0.00     0.005 A 
ENDBRANCH  16  21
ENDBRANCH   8   9
ENDBRANCH   6   8
ENDBRANCH   5   6
ENDBRANCH   4   5
ENDBRANCH   3   4
ENDBRANCH   2   3
ENDBRANCH   1   2
BRANCH   1  29
ATOM     29  C   UNL A   1      38.577  22.145  25.791  1.00  0.00     0.188 C 
BRANCH  29  30
ATOM     30  O   UNL A   1      37.923  21.027  25.200  1.00  0.00    -0.376 OA
BRANCH  30  31
ATOM     31  C   UNL A   1      38.589  19.775  25.107  1.00  0.00     0.202 C 
BRANCH  31  32
ATOM     32  C   UNL A   1      39.734  19.502  26.088  1.00  0.00     0.261 C 
BRANCH  32  33
ATOM     33  O   UNL A   1      40.962  19.094  25.458  1.00  0.00    -0.460 OA
BRANCH  33  34
ATOM     34  C   UNL A   1      42.087  19.224  26.205  1.00  0.00     0.338 C 
ATOM     35  O   UNL A   1      42.921  18.366  26.442  1.00  0.00    -0.246 OA
BRANCH  34  36
ATOM     36  C   UNL A   1      42.276  20.646  26.570  1.00  0.00     0.060 A 
ATOM     37  C   UNL A   1      42.327  21.059  27.903  1.00  0.00     0.016 A 
ATOM     38  C   UNL A   1      42.404  21.585  25.536  1.00  0.00     0.016 A 
ATOM     39  C   UNL A   1      42.553  22.409  28.199  1.00  0.00     0.010 A 
ATOM     40  C   UNL A   1      42.608  22.935  25.833  1.00  0.00     0.010 A 
ATOM     41  C   UNL A   1      42.713  23.352  27.167  1.00  0.00    -0.014 A 
BRANCH  41  42
ATOM     42  C   UNL A   1      43.175  24.727  27.479  1.00  0.00     0.031 A 
ATOM     43  C   UNL A   1      44.578  25.179  27.221  1.00  0.00     0.074 A 
ATOM     44  C   UNL A   1      42.288  25.581  28.022  1.00  0.00     0.049 A 
ATOM     45  N   UNL A   1      45.091  26.378  27.364  1.00  0.00    -0.248 NA
ATOM     46  C   UNL A   1      45.526  24.165  26.747  1.00  0.00     0.031 C 
ATOM     47  C   UNL A   1      40.900  25.247  28.345  1.00  0.00     0.029 A 
ATOM     48  N   UNL A   1      42.412  26.897  28.389  1.00  0.00    -0.354 N 
ATOM     49  C   UNL A   1      46.416  26.272  26.971  1.00  0.00     0.074 A 
ATOM     50  C   UNL A   1      46.640  24.880  26.630  1.00  0.00     0.031 C 
ATOM     51  C   UNL A   1      40.293  26.336  28.836  1.00  0.00     0.029 A 
ATOM     52  C   UNL A   1      41.250  27.439  28.878  1.00  0.00     0.049 A 
ATOM     53  H   UNL A   1      43.253  27.403  28.310  1.00  0.00     0.167 HD
ATOM     54  C   UNL A   1      47.350  27.253  26.886  1.00  0.00     0.037 A 
ATOM     55  C   UNL A   1      40.977  28.687  29.302  1.00  0.00     0.037 A 
ATOM     56  C   UNL A   1      47.138  28.631  27.264  1.00  0.00     0.049 A 
ATOM     57  C   UNL A   1      42.046  29.740  29.253  1.00  0.00     0.074 A 
ATOM     58  C   UNL A   1      48.021  29.695  27.184  1.00  0.00     0.029 A 
ATOM     59  N   UNL A   1      45.966  29.134  27.813  1.00  0.00    -0.354 N 
ATOM     60  N   UNL A   1      43.277  29.648  28.814  1.00  0.00    -0.248 NA
ATOM     61  C   UNL A   1      41.682  31.073  29.752  1.00  0.00     0.031 C 
ATOM     62  C   UNL A   1      47.403  30.827  27.728  1.00  0.00     0.029 A 
ATOM     63  C   UNL A   1      46.113  30.485  28.101  1.00  0.00     0.049 A 
ATOM     64  H   UNL A   1      45.148  28.610  27.975  1.00  0.00     0.167 HD
ATOM     65  C   UNL A   1      43.832  30.910  28.969  1.00  0.00     0.074 A 
ATOM     66  C   UNL A   1      42.795  31.756  29.523  1.00  0.00     0.031 C 
ATOM     67  C   UNL A   1      45.091  31.324  28.678  1.00  0.00     0.037 A 
BRANCH  54  68
ATOM     68  C   UNL A   1      48.701  26.868  26.355  1.00  0.00     0.064 A 
ATOM     69  C   UNL A   1      49.669  26.282  27.185  1.00  0.00     0.173 A 
ATOM     70  C   UNL A   1      49.015  27.032  24.997  1.00  0.00     0.173 A 
ATOM     71  F   UNL A   1      49.415  26.099  28.490  1.00  0.00    -0.203 F 
ATOM     72  C   UNL A   1      50.910  25.901  26.682  1.00  0.00     0.198 A 
ATOM     73  C   UNL A   1      50.247  26.624  24.491  1.00  0.00     0.198 A 
ATOM     74  F   UNL A   1      48.119  27.571  24.156  1.00  0.00    -0.203 F 
ATOM     75  F   UNL A   1      51.830  25.369  27.499  1.00  0.00    -0.200 F 
ATOM     76  C   UNL A   1      51.195  26.066  25.334  1.00  0.00     0.200 A 
ATOM     77  F   UNL A   1      50.514  26.766  23.185  1.00  0.00    -0.200 F 
ATOM     78  F   UNL A   1      52.386  25.687  24.848  1.00  0.00    -0.200 F 
ENDBRANCH  54  68
BRANCH  55  79
ATOM     79  C   UNL A   1      39.601  29.009  29.751  1.00  0.00     0.064 A 
ATOM     80  C   UNL A   1      38.649  29.485  28.840  1.00  0.00     0.173 A 
ATOM     81  C   UNL A   1      39.193  28.791  31.075  1.00  0.00     0.173 A 
ATOM     82  F   UNL A   1      39.001  29.725  27.569  1.00  0.00    -0.203 F 
ATOM     83  C   UNL A   1      37.336  29.727  29.237  1.00  0.00     0.198 A 
ATOM     84  C   UNL A   1      37.875  29.012  31.464  1.00  0.00     0.198 A 
ATOM     85  F   UNL A   1      40.070  28.332  31.980  1.00  0.00    -0.203 F 
ATOM     86  F   UNL A   1      36.448  30.198  28.350  1.00  0.00    -0.200 F 
ATOM     87  C   UNL A   1      36.948  29.481  30.544  1.00  0.00     0.200 A 
ATOM     88  F   UNL A   1      37.499  28.759  32.725  1.00  0.00    -0.200 F 
ATOM     89  F   UNL A   1      35.679  29.694  30.919  1.00  0.00    -0.200 F 
ENDBRANCH  55  79
BRANCH  67  90
ATOM     90  C   UNL A   1      45.421  32.764  28.959  1.00  0.00     0.064 A 
ATOM     91  C   UNL A   1      45.960  33.167  30.191  1.00  0.00     0.173 A 
ATOM     92  C   UNL A   1      45.213  33.751  27.983  1.00  0.00     0.173 A 
ATOM     93  F   UNL A   1      46.161  32.267  31.165  1.00  0.00    -0.203 F 
ATOM     94  C   UNL A   1      46.252  34.505  30.444  1.00  0.00     0.198 A 
ATOM     95  C   UNL A   1      45.535  35.084  28.229  1.00  0.00     0.198 A 
ATOM     96  F   UNL A   1      44.702  33.423  26.787  1.00  0.00    -0.203 F 
ATOM     97  F   UNL A   1      46.718  34.872  31.646  1.00  0.00    -0.200 F 
ATOM     98  C   UNL A   1      46.046  35.460  29.461  1.00  0.00     0.200 A 
ATOM     99  F   UNL A   1      45.345  36.005  27.273  1.00  0.00    -0.200 F 
ATOM    100  F   UNL A   1      46.331  36.748  29.705  1.00  0.00    -0.200 F 
ENDBRANCH  67  90
ENDBRANCH  41  42
ENDBRANCH  34  36
ENDBRANCH  33  34
ENDBRANCH  32  33
ENDBRANCH  31  32
ENDBRANCH  30  31
ENDBRANCH  29  30
ENDBRANCH   1  29
TORSDOF 19
ENDMDL
MODEL 2
REMARK VINA RESULT:     -11.7      0.304      7.111
REMARK SMILES O=C(CN1C(=O)/C(=C\c2c(F)cccc2Cl)Oc2ccccc21)OCCOCCOCCOC(=O)c1ccc(-c2c3nc(c(-c4c(F)c(F)c(F)c(F)c4F)c4ccc([nH]4)c(-c4c(F)c(F)c(F)c(F)c4F)c4nc(c(-c5c(F)c(F)c(F)c(F)c5F)c5ccc2[nH]5)C=C4)C=C3)cc1
REMARK SMILES IDX 28 1 27 2 26 3 25 4 24 5 2 6 1 7 3 8 4 9 5 10 23 11 6 12
REMARK SMILES IDX 7 13 18 14 22 15 8 16 17 17 19 18 21 19 20 20 9 21 10 22
REMARK SMILES IDX 15 23 11 24 12 25 14 26 16 27 13 28 29 29 30 30 31 31 32 32
REMARK SMILES IDX 33 33 34 34 35 35 36 36 37 37 98 38 38 39 97 40 39 41 40 42
REMARK SMILES IDX 41 43 91 44 42 45 96 46 90 47 92 48 43 49 95 50 89 51 88 52
REMARK SMILES IDX 44 54 76 55 56 56 75 57 57 58 60 59 74 60 93 61 58 62 59 63
REMARK SMILES IDX 73 65 94 66 61 67 45 68 46 69 54 70 47 71 48 72 52 73 55 74
REMARK SMILES IDX 49 75 50 76 53 77 51 78 77 79 78 80 86 81 79 82 80 83 84 84
REMARK SMILES IDX 87 85 81 86 82 87 85 88 83 89 62 90 63 91 71 92 64 93 65 94
REMARK SMILES IDX 69 95 72 96 66 97 67 98 70 99 68 100
REMARK H PARENT 92 53 60 64
REMARK Flexibility Score: inf
ROOT
ATOM      1  C   UNL A   1      37.956  23.310  26.106  1.00  0.00     0.188 C 
ENDROOT
BRANCH   1   2
ATOM      2  O   UNL A   1      37.421  23.809  24.895  1.00  0.00    -0.376 OA
BRANCH   2   3
ATOM      3  C   UNL A   1      36.049  23.566  24.685  1.00  0.00     0.202 C 
BRANCH   3   4
ATOM      4  C   UNL A   1      35.719  22.814  23.405  1.00  0.00     0.261 C 
BRANCH   4   5
ATOM      5  O   UNL A   1      34.813  23.455  22.469  1.00  0.00    -0.462 OA
BRANCH   5   6
ATOM      6  C   UNL A   1      33.560  23.259  22.035  1.00  0.00     0.326 C 
ATOM      7  O   UNL A   1      33.269  23.691  20.915  1.00  0.00    -0.250 OA
BRANCH   6   8
ATOM      8  C   UNL A   1      32.452  22.600  22.852  1.00  0.00     0.248 C 
BRANCH   8   9
ATOM      9  N   UNL A   1      31.997  23.119  24.133  1.00  0.00    -0.291 N 
ATOM     10  C   UNL A   1      31.144  24.222  24.132  1.00  0.00     0.294 C 
ATOM     11  C   UNL A   1      32.454  22.531  25.337  1.00  0.00     0.088 A 
ATOM     12  O   UNL A   1      30.678  24.683  23.091  1.00  0.00    -0.265 OA
ATOM     13  C   UNL A   1      30.931  24.883  25.470  1.00  0.00     0.193 C 
ATOM     14  C   UNL A   1      32.149  23.153  26.545  1.00  0.00     0.151 A 
ATOM     15  C   UNL A   1      33.287  21.400  25.347  1.00  0.00     0.030 A 
ATOM     16  C   UNL A   1      30.495  26.152  25.597  1.00  0.00     0.065 C 
ATOM     17  O   UNL A   1      31.312  24.231  26.641  1.00  0.00    -0.449 OA
ATOM     18  C   UNL A   1      32.747  22.720  27.731  1.00  0.00     0.049 A 
ATOM     19  C   UNL A   1      33.898  20.979  26.528  1.00  0.00     0.002 A 
ATOM     20  C   UNL A   1      33.644  21.652  27.717  1.00  0.00     0.004 A 
BRANCH  16  21
ATOM     21  C   UNL A   1      30.224  27.151  24.546  1.00  0.00     0.033 A 
ATOM     22  C   UNL A   1      28.971  27.219  23.925  1.00  0.00     0.132 A 
ATOM     23  C   UNL A   1      31.195  28.092  24.158  1.00  0.00     0.051 A 
ATOM     24  F   UNL A   1      27.993  26.371  24.283  1.00  0.00    -0.206 F 
ATOM     25  C   UNL A   1      28.696  28.162  22.931  1.00  0.00     0.040 A 
ATOM     26  C   UNL A   1      30.926  29.040  23.163  1.00  0.00     0.021 A 
ATOM     27  Cl  UNL A   1      32.757  28.151  24.905  1.00  0.00    -0.084 Cl
ATOM     28  C   UNL A   1      29.677  29.072  22.545  1.00  0.00     0.005 A 
ENDBRANCH  16  21
ENDBRANCH   8   9
ENDBRANCH   6   8
ENDBRANCH   5   6
ENDBRANCH   4   5
ENDBRANCH   3   4
ENDBRANCH   2   3
ENDBRANCH   1   2
BRANCH   1  29
ATOM     29  C   UNL A   1      38.730  21.992  25.928  1.00  0.00     0.188 C 
BRANCH  29  30
ATOM     30  O   UNL A   1      38.146  20.927  25.185  1.00  0.00    -0.376 OA
BRANCH  30  31
ATOM     31  C   UNL A   1      38.766  19.648  25.157  1.00  0.00     0.202 C 
BRANCH  31  32
ATOM     32  C   UNL A   1      39.899  19.384  26.154  1.00  0.00     0.261 C 
BRANCH  32  33
ATOM     33  O   UNL A   1      41.134  18.968  25.542  1.00  0.00    -0.460 OA
BRANCH  33  34
ATOM     34  C   UNL A   1      42.261  19.188  26.263  1.00  0.00     0.338 C 
ATOM     35  O   UNL A   1      43.136  18.382  26.532  1.00  0.00    -0.246 OA
BRANCH  34  36
ATOM     36  C   UNL A   1      42.390  20.634  26.551  1.00  0.00     0.060 A 
ATOM     37  C   UNL A   1      42.401  21.122  27.859  1.00  0.00     0.016 A 
ATOM     38  C   UNL A   1      42.502  21.518  25.468  1.00  0.00     0.016 A 
ATOM     39  C   UNL A   1      42.571  22.494  28.082  1.00  0.00     0.010 A 
ATOM     40  C   UNL A   1      42.650  22.890  25.692  1.00  0.00     0.010 A 
ATOM     41  C   UNL A   1      42.714  23.384  27.002  1.00  0.00    -0.014 A 
BRANCH  41  42
ATOM     42  C   UNL A   1      43.118  24.791  27.243  1.00  0.00     0.031 A 
ATOM     43  C   UNL A   1      42.177  25.809  27.807  1.00  0.00     0.074 A 
ATOM     44  C   UNL A   1      44.376  25.148  26.928  1.00  0.00     0.049 A 
ATOM     45  N   UNL A   1      42.424  27.050  28.151  1.00  0.00    -0.248 NA
ATOM     46  C   UNL A   1      40.786  25.388  28.010  1.00  0.00     0.031 C 
ATOM     47  C   UNL A   1      45.376  24.252  26.346  1.00  0.00     0.029 A 
ATOM     48  N   UNL A   1      45.032  26.346  27.057  1.00  0.00    -0.354 N 
ATOM     49  C   UNL A   1      41.227  27.554  28.638  1.00  0.00     0.074 A 
ATOM     50  C   UNL A   1      40.244  26.497  28.500  1.00  0.00     0.031 C 
ATOM     51  C   UNL A   1      46.527  24.922  26.194  1.00  0.00     0.029 A 
ATOM     52  C   UNL A   1      46.343  26.298  26.652  1.00  0.00     0.049 A 
ATOM     53  H   UNL A   1      44.605  27.162  27.407  1.00  0.00     0.167 HD
ATOM     54  C   UNL A   1      40.983  28.779  29.169  1.00  0.00     0.037 A 
ATOM     55  C   UNL A   1      47.296  27.247  26.657  1.00  0.00     0.037 A 
ATOM     56  C   UNL A   1      41.954  29.843  29.270  1.00  0.00     0.049 A 
ATOM     57  C   UNL A   1      46.984  28.612  27.195  1.00  0.00     0.074 A 
ATOM     58  C   UNL A   1      41.798  31.106  29.819  1.00  0.00     0.029 A 
ATOM     59  N   UNL A   1      43.257  29.781  28.793  1.00  0.00    -0.354 N 
ATOM     60  N   UNL A   1      45.869  29.059  27.719  1.00  0.00    -0.248 NA
ATOM     61  C   UNL A   1      48.067  29.604  27.150  1.00  0.00     0.031 C 
ATOM     62  C   UNL A   1      42.987  31.822  29.631  1.00  0.00     0.029 A 
ATOM     63  C   UNL A   1      43.905  30.990  29.011  1.00  0.00     0.049 A 
ATOM     64  H   UNL A   1      43.663  28.994  28.364  1.00  0.00     0.167 HD
ATOM     65  C   UNL A   1      46.117  30.376  28.078  1.00  0.00     0.074 A 
ATOM     66  C   UNL A   1      47.496  30.650  27.733  1.00  0.00     0.031 C 
ATOM     67  C   UNL A   1      45.271  31.274  28.643  1.00  0.00     0.037 A 
BRANCH  54  68
ATOM     68  C   UNL A   1      39.599  29.035  29.691  1.00  0.00     0.064 A 
ATOM     69  C   UNL A   1      38.580  29.508  28.850  1.00  0.00     0.173 A 
ATOM     70  C   UNL A   1      39.269  28.755  31.026  1.00  0.00     0.173 A 
ATOM     71  F   UNL A   1      38.844  29.786  27.563  1.00  0.00    -0.203 F 
ATOM     72  C   UNL A   1      37.291  29.717  29.332  1.00  0.00     0.198 A 
ATOM     73  C   UNL A   1      37.971  28.939  31.498  1.00  0.00     0.198 A 
ATOM     74  F   UNL A   1      40.201  28.284  31.869  1.00  0.00    -0.203 F 
ATOM     75  F   UNL A   1      36.341  30.197  28.517  1.00  0.00    -0.200 F 
ATOM     76  C   UNL A   1      36.986  29.427  30.653  1.00  0.00     0.200 A 
ATOM     77  F   UNL A   1      37.673  28.639  32.770  1.00  0.00    -0.200 F 
ATOM     78  F   UNL A   1      35.741  29.616  31.114  1.00  0.00    -0.200 F 
ENDBRANCH  54  68
BRANCH  55  79
ATOM     79  C   UNL A   1      48.659  26.900  26.187  1.00  0.00     0.064 A 
ATOM     80  C   UNL A   1      49.575  26.286  27.051  1.00  0.00     0.173 A 
ATOM     81  C   UNL A   1      49.052  27.116  24.858  1.00  0.00     0.173 A 
ATOM     82  F   UNL A   1      49.247  26.078  28.335  1.00  0.00    -0.203 F 
ATOM     83  C   UNL A   1      50.834  25.895  26.601  1.00  0.00     0.198 A 
ATOM     84  C   UNL A   1      50.302  26.704  24.405  1.00  0.00     0.198 A 
ATOM     85  F   UNL A   1      48.206  27.696  23.995  1.00  0.00    -0.203 F 
ATOM     86  F   UNL A   1      51.698  25.325  27.452  1.00  0.00    -0.200 F 
ATOM     87  C   UNL A   1      51.192  26.095  25.277  1.00  0.00     0.200 A 
ATOM     88  F   UNL A   1      50.640  26.885  23.121  1.00  0.00    -0.200 F 
ATOM     89  F   UNL A   1      52.395  25.699  24.840  1.00  0.00    -0.200 F 
ENDBRANCH  55  79
BRANCH  67  90
ATOM     90  C   UNL A   1      45.816  32.648  28.920  1.00  0.00     0.064 A 
ATOM     91  C   UNL A   1      45.691  33.690  27.987  1.00  0.00     0.173 A 
ATOM     92  C   UNL A   1      46.456  32.934  30.136  1.00  0.00     0.173 A 
ATOM     93  F   UNL A   1      45.105  33.466  26.802  1.00  0.00    -0.203 F 
ATOM     94  C   UNL A   1      46.209  34.956  28.250  1.00  0.00     0.198 A 
ATOM     95  C   UNL A   1      46.945  34.209  30.408  1.00  0.00     0.198 A 
ATOM     96  F   UNL A   1      46.602  31.978  31.066  1.00  0.00    -0.203 F 
ATOM     97  F   UNL A   1      46.122  35.919  27.323  1.00  0.00    -0.200 F 
ATOM     98  C   UNL A   1      46.829  35.216  29.462  1.00  0.00     0.200 A 
ATOM     99  F   UNL A   1      47.535  34.462  31.586  1.00  0.00    -0.200 F 
ATOM    100  F   UNL A   1      47.324  36.436  29.716  1.00  0.00    -0.200 F 
ENDBRANCH  67  90
ENDBRANCH  41  42
ENDBRANCH  34  36
ENDBRANCH  33  34
ENDBRANCH  32  33
ENDBRANCH  31  32
ENDBRANCH  30  31
ENDBRANCH  29  30
ENDBRANCH   1  29
TORSDOF 19
ENDMDL
MODEL 3
REMARK VINA RESULT:     -11.7      5.186     10.671
REMARK SMILES O=C(CN1C(=O)/C(=C\c2c(F)cccc2Cl)Oc2ccccc21)OCCOCCOCCOC(=O)c1ccc(-c2c3nc(c(-c4c(F)c(F)c(F)c(F)c4F)c4ccc([nH]4)c(-c4c(F)c(F)c(F)c(F)c4F)c4nc(c(-c5c(F)c(F)c(F)c(F)c5F)c5ccc2[nH]5)C=C4)C=C3)cc1
REMARK SMILES IDX 28 1 27 2 26 3 25 4 24 5 2 6 1 7 3 8 4 9 5 10 23 11 6 12
REMARK SMILES IDX 7 13 18 14 22 15 8 16 17 17 19 18 21 19 20 20 9 21 10 22
REMARK SMILES IDX 15 23 11 24 12 25 14 26 16 27 13 28 29 29 30 30 31 31 32 32
REMARK SMILES IDX 33 33 34 34 35 35 36 36 37 37 98 38 38 39 97 40 39 41 40 42
REMARK SMILES IDX 41 43 91 44 42 45 96 46 90 47 92 48 43 49 95 50 89 51 88 52
REMARK SMILES IDX 44 54 76 55 56 56 75 57 57 58 60 59 74 60 93 61 58 62 59 63
REMARK SMILES IDX 73 65 94 66 61 67 45 68 46 69 54 70 47 71 48 72 52 73 55 74
REMARK SMILES IDX 49 75 50 76 53 77 51 78 77 79 78 80 86 81 79 82 80 83 84 84
REMARK SMILES IDX 87 85 81 86 82 87 85 88 83 89 62 90 63 91 71 92 64 93 65 94
REMARK SMILES IDX 69 95 72 96 66 97 67 98 70 99 68 100
REMARK H PARENT 92 53 60 64
REMARK Flexibility Score: inf
ROOT
ATOM      1  C   UNL A   1      33.288  28.542  25.842  1.00  0.00     0.188 C 
ENDROOT
BRANCH   1   2
ATOM      2  O   UNL A   1      33.917  28.002  24.696  1.00  0.00    -0.376 OA
BRANCH   2   3
ATOM      3  C   UNL A   1      33.382  28.404  23.456  1.00  0.00     0.202 C 
BRANCH   3   4
ATOM      4  C   UNL A   1      34.028  27.759  22.240  1.00  0.00     0.261 C 
BRANCH   4   5
ATOM      5  O   UNL A   1      33.158  27.043  21.323  1.00  0.00    -0.462 OA
BRANCH   5   6
ATOM      6  C   UNL A   1      32.993  25.775  20.925  1.00  0.00     0.326 C 
ATOM      7  O   UNL A   1      32.903  25.563  19.712  1.00  0.00    -0.250 OA
BRANCH   6   8
ATOM      8  C   UNL A   1      32.840  24.583  21.866  1.00  0.00     0.248 C 
BRANCH   8   9
ATOM      9  N   UNL A   1      32.888  24.706  23.316  1.00  0.00    -0.291 N 
ATOM     10  C   UNL A   1      34.020  24.236  23.979  1.00  0.00     0.294 C 
ATOM     11  C   UNL A   1      31.786  25.252  24.017  1.00  0.00     0.088 A 
ATOM     12  O   UNL A   1      35.013  23.838  23.371  1.00  0.00    -0.265 OA
ATOM     13  C   UNL A   1      33.902  24.131  25.479  1.00  0.00     0.193 C 
ATOM     14  C   UNL A   1      31.781  25.196  25.408  1.00  0.00     0.151 A 
ATOM     15  C   UNL A   1      30.655  25.759  23.354  1.00  0.00     0.030 A 
ATOM     16  C   UNL A   1      34.702  23.343  26.222  1.00  0.00     0.065 C 
ATOM     17  O   UNL A   1      32.851  24.761  26.143  1.00  0.00    -0.449 OA
ATOM     18  C   UNL A   1      30.631  25.538  26.123  1.00  0.00     0.049 A 
ATOM     19  C   UNL A   1      29.501  26.084  24.066  1.00  0.00     0.002 A 
ATOM     20  C   UNL A   1      29.482  25.954  25.450  1.00  0.00     0.004 A 
BRANCH  16  21
ATOM     21  C   UNL A   1      35.748  22.401  25.780  1.00  0.00     0.033 A 
ATOM     22  C   UNL A   1      37.094  22.784  25.750  1.00  0.00     0.132 A 
ATOM     23  C   UNL A   1      35.438  21.078  25.414  1.00  0.00     0.051 A 
ATOM     24  F   UNL A   1      37.452  24.022  26.126  1.00  0.00    -0.206 F 
ATOM     25  C   UNL A   1      38.097  21.903  25.339  1.00  0.00     0.040 A 
ATOM     26  C   UNL A   1      36.439  20.189  25.001  1.00  0.00     0.021 A 
ATOM     27  Cl  UNL A   1      33.818  20.469  25.480  1.00  0.00    -0.084 Cl
ATOM     28  C   UNL A   1      37.770  20.603  24.958  1.00  0.00     0.005 A 
ENDBRANCH  16  21
ENDBRANCH   8   9
ENDBRANCH   6   8
ENDBRANCH   5   6
ENDBRANCH   4   5
ENDBRANCH   3   4
ENDBRANCH   2   3
ENDBRANCH   1   2
BRANCH   1  29
ATOM     29  C   UNL A   1      32.089  29.446  25.504  1.00  0.00     0.188 C 
BRANCH  29  30
ATOM     30  O   UNL A   1      31.928  30.687  26.185  1.00  0.00    -0.376 OA
BRANCH  30  31
ATOM     31  C   UNL A   1      32.801  31.036  27.251  1.00  0.00     0.202 C 
BRANCH  31  32
ATOM     32  C   UNL A   1      33.384  32.453  27.259  1.00  0.00     0.261 C 
BRANCH  32  33
ATOM     33  O   UNL A   1      32.496  33.450  27.798  1.00  0.00    -0.460 OA
BRANCH  33  34
ATOM     34  C   UNL A   1      33.088  34.519  28.386  1.00  0.00     0.338 C 
ATOM     35  O   UNL A   1      32.698  35.675  28.382  1.00  0.00    -0.246 OA
BRANCH  34  36
ATOM     36  C   UNL A   1      34.224  34.061  29.218  1.00  0.00     0.060 A 
ATOM     37  C   UNL A   1      34.028  33.272  30.353  1.00  0.00     0.016 A 
ATOM     38  C   UNL A   1      35.519  34.441  28.837  1.00  0.00     0.016 A 
ATOM     39  C   UNL A   1      35.137  32.826  31.082  1.00  0.00     0.010 A 
ATOM     40  C   UNL A   1      36.624  34.013  29.579  1.00  0.00     0.010 A 
ATOM     41  C   UNL A   1      36.442  33.178  30.689  1.00  0.00    -0.014 A 
BRANCH  41  42
ATOM     42  C   UNL A   1      37.613  32.523  31.323  1.00  0.00     0.031 A 
ATOM     43  C   UNL A   1      38.108  32.909  32.681  1.00  0.00     0.074 A 
ATOM     44  C   UNL A   1      38.245  31.558  30.632  1.00  0.00     0.049 A 
ATOM     45  N   UNL A   1      39.065  32.359  33.391  1.00  0.00    -0.248 NA
ATOM     46  C   UNL A   1      37.455  34.052  33.328  1.00  0.00     0.031 C 
ATOM     47  C   UNL A   1      37.873  31.116  29.287  1.00  0.00     0.029 A 
ATOM     48  N   UNL A   1      39.321  30.772  30.959  1.00  0.00    -0.354 N 
ATOM     49  C   UNL A   1      39.113  33.070  34.580  1.00  0.00     0.074 A 
ATOM     50  C   UNL A   1      38.119  34.122  34.476  1.00  0.00     0.031 C 
ATOM     51  C   UNL A   1      38.687  30.118  28.915  1.00  0.00     0.029 A 
ATOM     52  C   UNL A   1      39.649  29.862  29.985  1.00  0.00     0.049 A 
ATOM     53  H   UNL A   1      39.811  30.853  31.810  1.00  0.00     0.167 HD
ATOM     54  C   UNL A   1      39.900  32.849  35.663  1.00  0.00     0.037 A 
ATOM     55  C   UNL A   1      40.607  28.917  29.957  1.00  0.00     0.037 A 
ATOM     56  C   UNL A   1      40.916  31.826  35.750  1.00  0.00     0.049 A 
ATOM     57  C   UNL A   1      41.504  28.732  31.145  1.00  0.00     0.074 A 
ATOM     58  C   UNL A   1      41.740  31.515  36.819  1.00  0.00     0.029 A 
ATOM     59  N   UNL A   1      41.264  30.959  34.722  1.00  0.00    -0.354 N 
ATOM     60  N   UNL A   1      41.495  29.362  32.294  1.00  0.00    -0.248 NA
ATOM     61  C   UNL A   1      42.540  27.696  31.035  1.00  0.00     0.031 C 
ATOM     62  C   UNL A   1      42.617  30.497  36.423  1.00  0.00     0.029 A 
ATOM     63  C   UNL A   1      42.307  30.134  35.123  1.00  0.00     0.049 A 
ATOM     64  H   UNL A   1      40.834  30.933  33.836  1.00  0.00     0.167 HD
ATOM     65  C   UNL A   1      42.511  28.794  33.049  1.00  0.00     0.074 A 
ATOM     66  C   UNL A   1      43.102  27.751  32.235  1.00  0.00     0.031 C 
ATOM     67  C   UNL A   1      42.915  29.113  34.304  1.00  0.00     0.037 A 
BRANCH  54  68
ATOM     68  C   UNL A   1      39.689  33.736  36.856  1.00  0.00     0.064 A 
ATOM     69  C   UNL A   1      40.306  34.993  36.945  1.00  0.00     0.173 A 
ATOM     70  C   UNL A   1      38.822  33.356  37.892  1.00  0.00     0.173 A 
ATOM     71  F   UNL A   1      41.140  35.405  35.977  1.00  0.00    -0.203 F 
ATOM     72  C   UNL A   1      40.085  35.824  38.040  1.00  0.00     0.198 A 
ATOM     73  C   UNL A   1      38.582  34.202  38.972  1.00  0.00     0.198 A 
ATOM     74  F   UNL A   1      38.192  32.172  37.847  1.00  0.00    -0.203 F 
ATOM     75  F   UNL A   1      40.708  37.009  38.118  1.00  0.00    -0.200 F 
ATOM     76  C   UNL A   1      39.218  35.431  39.049  1.00  0.00     0.200 A 
ATOM     77  F   UNL A   1      37.729  33.829  39.936  1.00  0.00    -0.200 F 
ATOM     78  F   UNL A   1      38.996  36.237  40.097  1.00  0.00    -0.200 F 
ENDBRANCH  54  68
BRANCH  55  79
ATOM     79  C   UNL A   1      40.711  28.034  28.770  1.00  0.00     0.064 A 
ATOM     80  C   UNL A   1      40.041  26.805  28.737  1.00  0.00     0.173 A 
ATOM     81  C   UNL A   1      41.426  28.425  27.629  1.00  0.00     0.173 A 
ATOM     82  F   UNL A   1      39.361  26.384  29.813  1.00  0.00    -0.203 F 
ATOM     83  C   UNL A   1      40.078  25.999  27.602  1.00  0.00     0.198 A 
ATOM     84  C   UNL A   1      41.443  27.628  26.487  1.00  0.00     0.198 A 
ATOM     85  F   UNL A   1      42.079  29.596  27.614  1.00  0.00    -0.203 F 
ATOM     86  F   UNL A   1      39.442  24.819  27.601  1.00  0.00    -0.200 F 
ATOM     87  C   UNL A   1      40.770  26.415  26.475  1.00  0.00     0.200 A 
ATOM     88  F   UNL A   1      42.100  28.041  25.394  1.00  0.00    -0.200 F 
ATOM     89  F   UNL A   1      40.787  25.649  25.376  1.00  0.00    -0.200 F 
ENDBRANCH  55  79
BRANCH  67  90
ATOM     90  C   UNL A   1      44.060  28.324  34.877  1.00  0.00     0.064 A 
ATOM     91  C   UNL A   1      45.383  28.785  34.795  1.00  0.00     0.173 A 
ATOM     92  C   UNL A   1      43.833  27.103  35.531  1.00  0.00     0.173 A 
ATOM     93  F   UNL A   1      45.658  29.937  34.165  1.00  0.00    -0.203 F 
ATOM     94  C   UNL A   1      46.437  28.041  35.320  1.00  0.00     0.198 A 
ATOM     95  C   UNL A   1      44.886  26.377  36.082  1.00  0.00     0.198 A 
ATOM     96  F   UNL A   1      42.588  26.615  35.641  1.00  0.00    -0.203 F 
ATOM     97  F   UNL A   1      47.697  28.477  35.183  1.00  0.00    -0.200 F 
ATOM     98  C   UNL A   1      46.187  26.842  35.969  1.00  0.00     0.200 A 
ATOM     99  F   UNL A   1      44.641  25.222  36.719  1.00  0.00    -0.200 F 
ATOM    100  F   UNL A   1      47.203  26.128  36.477  1.00  0.00    -0.200 F 
ENDBRANCH  67  90
ENDBRANCH  41  42
ENDBRANCH  34  36
ENDBRANCH  33  34
ENDBRANCH  32  33
ENDBRANCH  31  32
ENDBRANCH  30  31
ENDBRANCH  29  30
ENDBRANCH   1  29
TORSDOF 19
ENDMDL
