MODEL 1
REMARK VINA RESULT:     -11.3      0.000      0.000
REMARK SMILES C[C@H]1[C@@H](C(=O)OCCOCCOCCOC(=O)c2ccc(-c3c4nc(c(-c5c(F)c(F)c(F)c(F)c5F)c5ccc([nH]5)c(-c5c(F)c(F)c(F)c(F)c5F)c5nc(c(-c6c(F)c(F)c(F)c(F)c6F)c6ccc3[nH]6)C=C5)C=C4)cc2)CC[N@@H+]1Cc1cc(F)c(F)c(F)c1
REMARK SMILES IDX 10 1 9 2 8 3 7 4 6 5 4 6 5 7 3 8 1 9 2 10 83 11 81 12 82 13
REMARK SMILES IDX 84 15 85 16 86 17 93 18 87 19 91 20 88 21 89 22 92 23 90 24
REMARK SMILES IDX 11 25 12 26 13 27 14 28 15 29 16 30 17 31 18 32 19 33 80 34
REMARK SMILES IDX 20 35 79 36 21 37 22 38 23 39 73 40 24 41 78 42 72 43 74 44
REMARK SMILES IDX 25 45 77 46 71 47 70 48 26 50 58 51 38 52 57 53 39 54 42 55
REMARK SMILES IDX 56 56 75 57 40 58 41 59 55 61 76 62 43 63 27 64 28 65 36 66
REMARK SMILES IDX 29 67 30 68 34 69 37 70 31 71 32 72 35 73 33 74 59 75 60 76
REMARK SMILES IDX 68 77 61 78 62 79 66 80 69 81 63 82 64 83 67 84 65 85 44 86
REMARK SMILES IDX 45 87 53 88 46 89 47 90 51 91 54 92 48 93 49 94 52 95 50 96
REMARK H PARENT 83 14 74 49 42 60
REMARK Flexibility Score: inf
ROOT
ATOM      1  C   UNL A   1      34.445  32.852  28.958  1.00  0.00     0.188 C 
ENDROOT
BRANCH   1   2
ATOM      2  O   UNL A   1      35.235  32.289  27.930  1.00  0.00    -0.376 OA
BRANCH   2   3
ATOM      3  C   UNL A   1      35.003  30.935  27.568  1.00  0.00     0.202 C 
BRANCH   3   4
ATOM      4  C   UNL A   1      33.562  30.407  27.634  1.00  0.00     0.261 C 
BRANCH   4   5
ATOM      5  O   UNL A   1      33.452  28.993  27.346  1.00  0.00    -0.463 OA
BRANCH   5   6
ATOM      6  C   UNL A   1      32.208  28.511  27.104  1.00  0.00     0.315 C 
ATOM      7  O   UNL A   1      31.407  28.235  27.994  1.00  0.00    -0.252 OA
BRANCH   6   8
ATOM      8  C   UNL A   1      31.785  28.455  25.637  1.00  0.00     0.162 C 
ATOM      9  C   UNL A   1      31.053  25.926  25.707  1.00  0.00     0.076 C 
ATOM     10  C   UNL A   1      31.088  27.259  24.965  1.00  0.00     0.195 C 
ATOM     11  N   UNL A   1      31.751  27.067  23.657  1.00  0.00    -0.328 N 
ATOM     12  C   UNL A   1      32.932  28.849  24.705  1.00  0.00     0.083 C 
ATOM     13  C   UNL A   1      33.042  27.731  23.687  1.00  0.00     0.263 C 
ATOM     14  H   UNL A   1      31.886  26.061  23.549  1.00  0.00     0.348 HD
BRANCH  11  15
ATOM     15  C   UNL A   1      30.959  27.314  22.451  1.00  0.00     0.299 C 
BRANCH  15  16
ATOM     16  C   UNL A   1      29.863  28.353  22.569  1.00  0.00     0.012 A 
ATOM     17  C   UNL A   1      28.589  27.986  23.024  1.00  0.00     0.052 A 
ATOM     18  C   UNL A   1      30.096  29.704  22.255  1.00  0.00     0.052 A 
ATOM     19  C   UNL A   1      27.606  28.956  23.215  1.00  0.00     0.162 A 
ATOM     20  C   UNL A   1      29.115  30.664  22.488  1.00  0.00     0.162 A 
ATOM     21  F   UNL A   1      26.397  28.578  23.654  1.00  0.00    -0.204 F 
ATOM     22  C   UNL A   1      27.871  30.296  22.972  1.00  0.00     0.194 A 
ATOM     23  F   UNL A   1      29.400  31.953  22.258  1.00  0.00    -0.204 F 
ATOM     24  F   UNL A   1      26.935  31.226  23.205  1.00  0.00    -0.200 F 
ENDBRANCH  15  16
ENDBRANCH  11  15
ENDBRANCH   6   8
ENDBRANCH   5   6
ENDBRANCH   4   5
ENDBRANCH   3   4
ENDBRANCH   2   3
ENDBRANCH   1   2
BRANCH   1  25
ATOM     25  C   UNL A   1      33.668  34.152  28.696  1.00  0.00     0.188 C 
BRANCH  25  26
ATOM     26  O   UNL A   1      34.303  35.375  28.402  1.00  0.00    -0.376 OA
BRANCH  26  27
ATOM     27  C   UNL A   1      33.669  36.590  28.749  1.00  0.00     0.202 C 
BRANCH  27  28
ATOM     28  C   UNL A   1      32.526  36.580  29.768  1.00  0.00     0.261 C 
BRANCH  28  29
ATOM     29  O   UNL A   1      32.860  37.105  31.062  1.00  0.00    -0.460 OA
BRANCH  29  30
ATOM     30  C   UNL A   1      32.566  36.306  32.113  1.00  0.00     0.338 C 
ATOM     31  O   UNL A   1      31.531  36.286  32.774  1.00  0.00    -0.246 OA
BRANCH  30  32
ATOM     32  C   UNL A   1      33.631  35.307  32.281  1.00  0.00     0.060 A 
ATOM     33  C   UNL A   1      33.306  34.027  32.753  1.00  0.00     0.016 A 
ATOM     34  C   UNL A   1      34.957  35.657  32.035  1.00  0.00     0.016 A 
ATOM     35  C   UNL A   1      34.311  33.088  32.990  1.00  0.00     0.010 A 
ATOM     36  C   UNL A   1      35.963  34.728  32.295  1.00  0.00     0.010 A 
ATOM     37  C   UNL A   1      35.649  33.449  32.795  1.00  0.00    -0.014 A 
BRANCH  37  38
ATOM     38  C   UNL A   1      36.757  32.584  33.263  1.00  0.00     0.031 A 
ATOM     39  C   UNL A   1      37.384  32.893  34.590  1.00  0.00     0.074 A 
ATOM     40  C   UNL A   1      37.242  31.594  32.496  1.00  0.00     0.049 A 
ATOM     41  N   UNL A   1      38.507  32.465  35.102  1.00  0.00    -0.248 NA
ATOM     42  C   UNL A   1      36.641  33.827  35.454  1.00  0.00     0.031 C 
ATOM     43  C   UNL A   1      36.673  31.149  31.227  1.00  0.00     0.029 A 
ATOM     44  N   UNL A   1      38.355  30.807  32.664  1.00  0.00    -0.354 N 
ATOM     45  C   UNL A   1      38.624  33.100  36.332  1.00  0.00     0.074 A 
ATOM     46  C   UNL A   1      37.462  33.948  36.486  1.00  0.00     0.031 C 
ATOM     47  C   UNL A   1      37.461  30.189  30.710  1.00  0.00     0.029 A 
ATOM     48  C   UNL A   1      38.619  30.000  31.584  1.00  0.00     0.049 A 
ATOM     49  H   UNL A   1      38.909  30.819  33.478  1.00  0.00     0.167 HD
ATOM     50  C   UNL A   1      39.619  32.988  37.242  1.00  0.00     0.037 A 
ATOM     51  C   UNL A   1      39.700  29.242  31.311  1.00  0.00     0.037 A 
ATOM     52  C   UNL A   1      40.770  32.141  37.074  1.00  0.00     0.049 A 
ATOM     53  C   UNL A   1      40.844  29.207  32.295  1.00  0.00     0.074 A 
ATOM     54  C   UNL A   1      41.835  31.953  37.935  1.00  0.00     0.029 A 
ATOM     55  N   UNL A   1      41.006  31.347  35.962  1.00  0.00    -0.354 N 
ATOM     56  N   UNL A   1      40.965  29.818  33.449  1.00  0.00    -0.248 NA
ATOM     57  C   UNL A   1      42.010  28.386  31.932  1.00  0.00     0.031 C 
ATOM     58  C   UNL A   1      42.745  31.090  37.318  1.00  0.00     0.029 A 
ATOM     59  C   UNL A   1      42.213  30.685  36.104  1.00  0.00     0.049 A 
ATOM     60  H   UNL A   1      40.404  31.266  35.187  1.00  0.00     0.167 HD
ATOM     61  C   UNL A   1      42.191  29.421  33.969  1.00  0.00     0.074 A 
ATOM     62  C   UNL A   1      42.782  28.521  33.002  1.00  0.00     0.031 C 
ATOM     63  C   UNL A   1      42.770  29.765  35.145  1.00  0.00     0.037 A 
BRANCH  50  64
ATOM     64  C   UNL A   1      39.531  33.837  38.477  1.00  0.00     0.064 A 
ATOM     65  C   UNL A   1      40.161  35.086  38.565  1.00  0.00     0.173 A 
ATOM     66  C   UNL A   1      38.779  33.403  39.579  1.00  0.00     0.173 A 
ATOM     67  F   UNL A   1      40.905  35.542  37.545  1.00  0.00    -0.203 F 
ATOM     68  C   UNL A   1      40.064  35.857  39.721  1.00  0.00     0.198 A 
ATOM     69  C   UNL A   1      38.657  34.190  40.721  1.00  0.00     0.198 A 
ATOM     70  F   UNL A   1      38.154  32.216  39.547  1.00  0.00    -0.203 F 
ATOM     71  F   UNL A   1      40.719  37.024  39.803  1.00  0.00    -0.200 F 
ATOM     72  C   UNL A   1      39.307  35.412  40.795  1.00  0.00     0.200 A 
ATOM     73  F   UNL A   1      37.913  33.763  41.750  1.00  0.00    -0.200 F 
ATOM     74  F   UNL A   1      39.209  36.157  41.903  1.00  0.00    -0.200 F 
ENDBRANCH  50  64
BRANCH  51  75
ATOM     75  C   UNL A   1      39.774  28.482  30.034  1.00  0.00     0.064 A 
ATOM     76  C   UNL A   1      39.253  27.184  29.936  1.00  0.00     0.173 A 
ATOM     77  C   UNL A   1      40.389  29.024  28.894  1.00  0.00     0.173 A 
ATOM     78  F   UNL A   1      38.683  26.609  31.005  1.00  0.00    -0.203 F 
ATOM     79  C   UNL A   1      39.361  26.452  28.755  1.00  0.00     0.198 A 
ATOM     80  C   UNL A   1      40.466  28.303  27.704  1.00  0.00     0.198 A 
ATOM     81  F   UNL A   1      40.909  30.259  28.935  1.00  0.00    -0.203 F 
ATOM     82  F   UNL A   1      38.902  25.193  28.706  1.00  0.00    -0.200 F 
ATOM     83  C   UNL A   1      39.961  27.014  27.638  1.00  0.00     0.200 A 
ATOM     84  F   UNL A   1      41.037  28.855  26.626  1.00  0.00    -0.200 F 
ATOM     85  F   UNL A   1      40.063  26.310  26.503  1.00  0.00    -0.200 F 
ENDBRANCH  51  75
BRANCH  63  86
ATOM     86  C   UNL A   1      44.077  29.118  35.503  1.00  0.00     0.064 A 
ATOM     87  C   UNL A   1      45.310  29.703  35.184  1.00  0.00     0.173 A 
ATOM     88  C   UNL A   1      44.087  27.939  36.268  1.00  0.00     0.173 A 
ATOM     89  F   UNL A   1      45.355  30.821  34.445  1.00  0.00    -0.203 F 
ATOM     90  C   UNL A   1      46.505  29.129  35.612  1.00  0.00     0.198 A 
ATOM     91  C   UNL A   1      45.281  27.387  36.720  1.00  0.00     0.198 A 
ATOM     92  F   UNL A   1      42.933  27.345  36.608  1.00  0.00    -0.203 F 
ATOM     93  F   UNL A   1      47.674  29.691  35.274  1.00  0.00    -0.200 F 
ATOM     94  C   UNL A   1      46.489  27.980  36.390  1.00  0.00     0.200 A 
ATOM     95  F   UNL A   1      45.261  26.288  37.488  1.00  0.00    -0.200 F 
ATOM     96  F   UNL A   1      47.639  27.446  36.824  1.00  0.00    -0.200 F 
ENDBRANCH  63  86
ENDBRANCH  37  38
ENDBRANCH  30  32
ENDBRANCH  29  30
ENDBRANCH  28  29
ENDBRANCH  27  28
ENDBRANCH  26  27
ENDBRANCH  25  26
ENDBRANCH   1  25
TORSDOF 19
ENDMDL
MODEL 2
REMARK VINA RESULT:     -10.8      5.391     11.970
REMARK SMILES C[C@H]1[C@@H](C(=O)OCCOCCOCCOC(=O)c2ccc(-c3c4nc(c(-c5c(F)c(F)c(F)c(F)c5F)c5ccc([nH]5)c(-c5c(F)c(F)c(F)c(F)c5F)c5nc(c(-c6c(F)c(F)c(F)c(F)c6F)c6ccc3[nH]6)C=C5)C=C4)cc2)CC[N@@H+]1Cc1cc(F)c(F)c(F)c1
REMARK SMILES IDX 10 1 9 2 8 3 7 4 6 5 4 6 5 7 3 8 1 9 2 10 83 11 81 12 82 13
REMARK SMILES IDX 84 15 85 16 86 17 93 18 87 19 91 20 88 21 89 22 92 23 90 24
REMARK SMILES IDX 11 25 12 26 13 27 14 28 15 29 16 30 17 31 18 32 19 33 80 34
REMARK SMILES IDX 20 35 79 36 21 37 22 38 23 39 73 40 24 41 78 42 72 43 74 44
REMARK SMILES IDX 25 45 77 46 71 47 70 48 26 50 58 51 38 52 57 53 39 54 42 55
REMARK SMILES IDX 56 56 75 57 40 58 41 59 55 61 76 62 43 63 27 64 28 65 36 66
REMARK SMILES IDX 29 67 30 68 34 69 37 70 31 71 32 72 35 73 33 74 59 75 60 76
REMARK SMILES IDX 68 77 61 78 62 79 66 80 69 81 63 82 64 83 67 84 65 85 44 86
REMARK SMILES IDX 45 87 53 88 46 89 47 90 51 91 54 92 48 93 49 94 52 95 50 96
REMARK H PARENT 83 14 74 49 42 60
REMARK Flexibility Score: inf
ROOT
ATOM      1  C   UNL A   1      45.458  18.832  25.135  1.00  0.00     0.188 C 
ENDROOT
BRANCH   1   2
ATOM      2  O   UNL A   1      46.402  19.848  25.409  1.00  0.00    -0.376 OA
BRANCH   2   3
ATOM      3  C   UNL A   1      46.104  21.173  24.993  1.00  0.00     0.202 C 
BRANCH   3   4
ATOM      4  C   UNL A   1      45.697  22.193  26.067  1.00  0.00     0.261 C 
BRANCH   4   5
ATOM      5  O   UNL A   1      46.586  23.332  26.148  1.00  0.00    -0.463 OA
BRANCH   5   6
ATOM      6  C   UNL A   1      46.100  24.522  25.717  1.00  0.00     0.315 C 
ATOM      7  O   UNL A   1      45.667  24.702  24.582  1.00  0.00    -0.252 OA
BRANCH   6   8
ATOM      8  C   UNL A   1      45.981  25.620  26.774  1.00  0.00     0.162 C 
ATOM      9  C   UNL A   1      48.281  26.758  26.180  1.00  0.00     0.076 C 
ATOM     10  C   UNL A   1      46.953  26.803  26.930  1.00  0.00     0.195 C 
ATOM     11  N   UNL A   1      47.220  26.939  28.378  1.00  0.00    -0.328 N 
ATOM     12  C   UNL A   1      45.807  25.034  28.176  1.00  0.00     0.083 C 
ATOM     13  C   UNL A   1      46.865  25.695  29.037  1.00  0.00     0.263 C 
ATOM     14  H   UNL A   1      48.222  27.102  28.470  1.00  0.00     0.348 HD
BRANCH  11  15
ATOM     15  C   UNL A   1      46.737  28.150  29.046  1.00  0.00     0.299 C 
BRANCH  15  16
ATOM     16  C   UNL A   1      45.990  29.142  28.179  1.00  0.00     0.012 A 
ATOM     17  C   UNL A   1      44.625  28.963  27.918  1.00  0.00     0.052 A 
ATOM     18  C   UNL A   1      46.631  30.272  27.640  1.00  0.00     0.052 A 
ATOM     19  C   UNL A   1      43.918  29.921  27.192  1.00  0.00     0.162 A 
ATOM     20  C   UNL A   1      45.901  31.237  26.950  1.00  0.00     0.162 A 
ATOM     21  F   UNL A   1      42.613  29.726  26.958  1.00  0.00    -0.204 F 
ATOM     22  C   UNL A   1      44.545  31.068  26.728  1.00  0.00     0.194 A 
ATOM     23  F   UNL A   1      46.527  32.343  26.524  1.00  0.00    -0.204 F 
ATOM     24  F   UNL A   1      43.846  32.005  26.073  1.00  0.00    -0.200 F 
ENDBRANCH  15  16
ENDBRANCH  11  15
ENDBRANCH   6   8
ENDBRANCH   5   6
ENDBRANCH   4   5
ENDBRANCH   3   4
ENDBRANCH   2   3
ENDBRANCH   1   2
BRANCH   1  25
ATOM     25  C   UNL A   1      44.135  19.190  24.438  1.00  0.00     0.188 C 
BRANCH  25  26
ATOM     26  O   UNL A   1      42.907  19.264  25.125  1.00  0.00    -0.376 OA
BRANCH  26  27
ATOM     27  C   UNL A   1      42.770  20.160  26.210  1.00  0.00     0.202 C 
BRANCH  27  28
ATOM     28  C   UNL A   1      41.372  20.610  26.645  1.00  0.00     0.261 C 
BRANCH  28  29
ATOM     29  O   UNL A   1      40.903  21.819  26.030  1.00  0.00    -0.460 OA
BRANCH  29  30
ATOM     30  C   UNL A   1      41.855  22.733  25.732  1.00  0.00     0.338 C 
ATOM     31  O   UNL A   1      42.758  22.633  24.906  1.00  0.00    -0.246 OA
BRANCH  30  32
ATOM     32  C   UNL A   1      41.569  23.987  26.444  1.00  0.00     0.060 A 
ATOM     33  C   UNL A   1      42.354  25.120  26.184  1.00  0.00     0.016 A 
ATOM     34  C   UNL A   1      40.571  24.024  27.414  1.00  0.00     0.016 A 
ATOM     35  C   UNL A   1      42.148  26.299  26.903  1.00  0.00     0.010 A 
ATOM     36  C   UNL A   1      40.382  25.193  28.149  1.00  0.00     0.010 A 
ATOM     37  C   UNL A   1      41.182  26.328  27.915  1.00  0.00    -0.014 A 
BRANCH  37  38
ATOM     38  C   UNL A   1      41.094  27.460  28.865  1.00  0.00     0.031 A 
ATOM     39  C   UNL A   1      42.022  27.469  30.044  1.00  0.00     0.074 A 
ATOM     40  C   UNL A   1      40.165  28.420  28.723  1.00  0.00     0.049 A 
ATOM     41  N   UNL A   1      41.978  28.189  31.134  1.00  0.00    -0.248 NA
ATOM     42  C   UNL A   1      43.148  26.523  29.987  1.00  0.00     0.031 C 
ATOM     43  C   UNL A   1      39.261  28.563  27.585  1.00  0.00     0.029 A 
ATOM     44  N   UNL A   1      39.807  29.439  29.571  1.00  0.00    -0.354 N 
ATOM     45  C   UNL A   1      43.050  27.762  31.907  1.00  0.00     0.074 A 
ATOM     46  C   UNL A   1      43.721  26.716  31.166  1.00  0.00     0.031 C 
ATOM     47  C   UNL A   1      38.426  29.590  27.820  1.00  0.00     0.029 A 
ATOM     48  C   UNL A   1      38.699  30.133  29.151  1.00  0.00     0.049 A 
ATOM     49  H   UNL A   1      40.297  29.652  30.399  1.00  0.00     0.167 HD
ATOM     50  C   UNL A   1      43.429  28.200  33.129  1.00  0.00     0.037 A 
ATOM     51  C   UNL A   1      37.960  31.059  29.794  1.00  0.00     0.037 A 
ATOM     52  C   UNL A   1      42.750  29.241  33.856  1.00  0.00     0.049 A 
ATOM     53  C   UNL A   1      38.342  31.464  31.197  1.00  0.00     0.074 A 
ATOM     54  C   UNL A   1      43.053  29.762  35.100  1.00  0.00     0.029 A 
ATOM     55  N   UNL A   1      41.626  29.912  33.400  1.00  0.00    -0.354 N 
ATOM     56  N   UNL A   1      39.343  31.052  31.936  1.00  0.00    -0.248 NA
ATOM     57  C   UNL A   1      37.483  32.458  31.860  1.00  0.00     0.031 C 
ATOM     58  C   UNL A   1      42.076  30.708  35.424  1.00  0.00     0.029 A 
ATOM     59  C   UNL A   1      41.207  30.827  34.352  1.00  0.00     0.049 A 
ATOM     60  H   UNL A   1      41.190  29.762  32.531  1.00  0.00     0.167 HD
ATOM     61  C   UNL A   1      39.263  31.764  33.126  1.00  0.00     0.074 A 
ATOM     62  C   UNL A   1      38.110  32.631  33.016  1.00  0.00     0.031 C 
ATOM     63  C   UNL A   1      40.075  31.708  34.210  1.00  0.00     0.037 A 
BRANCH  50  64
ATOM     64  C   UNL A   1      44.600  27.523  33.779  1.00  0.00     0.064 A 
ATOM     65  C   UNL A   1      44.461  26.332  34.505  1.00  0.00     0.173 A 
ATOM     66  C   UNL A   1      45.889  28.063  33.647  1.00  0.00     0.173 A 
ATOM     67  F   UNL A   1      43.249  25.782  34.674  1.00  0.00    -0.203 F 
ATOM     68  C   UNL A   1      45.563  25.722  35.098  1.00  0.00     0.198 A 
ATOM     69  C   UNL A   1      46.994  27.434  34.213  1.00  0.00     0.198 A 
ATOM     70  F   UNL A   1      46.080  29.200  32.961  1.00  0.00    -0.203 F 
ATOM     71  F   UNL A   1      45.398  24.612  35.832  1.00  0.00    -0.200 F 
ATOM     72  C   UNL A   1      46.829  26.268  34.946  1.00  0.00     0.200 A 
ATOM     73  F   UNL A   1      48.217  27.956  34.052  1.00  0.00    -0.200 F 
ATOM     74  F   UNL A   1      47.889  25.676  35.511  1.00  0.00    -0.200 F 
ENDBRANCH  50  64
BRANCH  51  75
ATOM     75  C   UNL A   1      36.758  31.642  29.137  1.00  0.00     0.064 A 
ATOM     76  C   UNL A   1      36.723  32.993  28.767  1.00  0.00     0.173 A 
ATOM     77  C   UNL A   1      35.613  30.869  28.888  1.00  0.00     0.173 A 
ATOM     78  F   UNL A   1      37.780  33.782  29.011  1.00  0.00    -0.203 F 
ATOM     79  C   UNL A   1      35.583  33.553  28.192  1.00  0.00     0.198 A 
ATOM     80  C   UNL A   1      34.487  31.423  28.283  1.00  0.00     0.198 A 
ATOM     81  F   UNL A   1      35.591  29.572  29.227  1.00  0.00    -0.203 F 
ATOM     82  F   UNL A   1      35.558  34.862  27.899  1.00  0.00    -0.200 F 
ATOM     83  C   UNL A   1      34.468  32.767  27.945  1.00  0.00     0.200 A 
ATOM     84  F   UNL A   1      33.416  30.656  28.037  1.00  0.00    -0.200 F 
ATOM     85  F   UNL A   1      33.374  33.306  27.391  1.00  0.00    -0.200 F 
ENDBRANCH  51  75
BRANCH  63  86
ATOM     86  C   UNL A   1      39.808  32.658  35.342  1.00  0.00     0.064 A 
ATOM     87  C   UNL A   1      40.313  33.966  35.351  1.00  0.00     0.173 A 
ATOM     88  C   UNL A   1      38.947  32.278  36.384  1.00  0.00     0.173 A 
ATOM     89  F   UNL A   1      41.150  34.373  34.385  1.00  0.00    -0.203 F 
ATOM     90  C   UNL A   1      39.971  34.856  36.366  1.00  0.00     0.198 A 
ATOM     91  C   UNL A   1      38.583  33.181  37.380  1.00  0.00     0.198 A 
ATOM     92  F   UNL A   1      38.429  31.041  36.417  1.00  0.00    -0.203 F 
ATOM     93  F   UNL A   1      40.486  36.094  36.370  1.00  0.00    -0.200 F 
ATOM     94  C   UNL A   1      39.097  34.467  37.371  1.00  0.00     0.200 A 
ATOM     95  F   UNL A   1      37.723  32.808  38.338  1.00  0.00    -0.200 F 
ATOM     96  F   UNL A   1      38.748  35.335  38.331  1.00  0.00    -0.200 F 
ENDBRANCH  63  86
ENDBRANCH  37  38
ENDBRANCH  30  32
ENDBRANCH  29  30
ENDBRANCH  28  29
ENDBRANCH  27  28
ENDBRANCH  26  27
ENDBRANCH  25  26
ENDBRANCH   1  25
TORSDOF 19
ENDMDL
MODEL 3
REMARK VINA RESULT:     -10.8      4.222      9.481
REMARK SMILES C[C@H]1[C@@H](C(=O)OCCOCCOCCOC(=O)c2ccc(-c3c4nc(c(-c5c(F)c(F)c(F)c(F)c5F)c5ccc([nH]5)c(-c5c(F)c(F)c(F)c(F)c5F)c5nc(c(-c6c(F)c(F)c(F)c(F)c6F)c6ccc3[nH]6)C=C5)C=C4)cc2)CC[N@@H+]1Cc1cc(F)c(F)c(F)c1
REMARK SMILES IDX 10 1 9 2 8 3 7 4 6 5 4 6 5 7 3 8 1 9 2 10 83 11 81 12 82 13
REMARK SMILES IDX 84 15 85 16 86 17 93 18 87 19 91 20 88 21 89 22 92 23 90 24
REMARK SMILES IDX 11 25 12 26 13 27 14 28 15 29 16 30 17 31 18 32 19 33 80 34
REMARK SMILES IDX 20 35 79 36 21 37 22 38 23 39 73 40 24 41 78 42 72 43 74 44
REMARK SMILES IDX 25 45 77 46 71 47 70 48 26 50 58 51 38 52 57 53 39 54 42 55
REMARK SMILES IDX 56 56 75 57 40 58 41 59 55 61 76 62 43 63 27 64 28 65 36 66
REMARK SMILES IDX 29 67 30 68 34 69 37 70 31 71 32 72 35 73 33 74 59 75 60 76
REMARK SMILES IDX 68 77 61 78 62 79 66 80 69 81 63 82 64 83 67 84 65 85 44 86
REMARK SMILES IDX 45 87 53 88 46 89 47 90 51 91 54 92 48 93 49 94 52 95 50 96
REMARK H PARENT 83 14 74 49 42 60
REMARK Flexibility Score: inf
ROOT
ATOM      1  C   UNL A   1      39.791  19.890  26.020  1.00  0.00     0.188 C 
ENDROOT
BRANCH   1   2
ATOM      2  O   UNL A   1      39.133  21.104  25.717  1.00  0.00    -0.376 OA
BRANCH   2   3
ATOM      3  C   UNL A   1      37.713  21.109  25.683  1.00  0.00     0.202 C 
BRANCH   3   4
ATOM      4  C   UNL A   1      37.024  21.544  24.381  1.00  0.00     0.261 C 
BRANCH   4   5
ATOM      5  O   UNL A   1      36.985  22.979  24.199  1.00  0.00    -0.463 OA
BRANCH   5   6
ATOM      6  C   UNL A   1      36.402  23.706  25.184  1.00  0.00     0.315 C 
ATOM      7  O   UNL A   1      37.029  24.200  26.118  1.00  0.00    -0.252 OA
BRANCH   6   8
ATOM      8  C   UNL A   1      34.916  24.010  25.002  1.00  0.00     0.162 C 
ATOM      9  C   UNL A   1      34.110  22.343  26.874  1.00  0.00     0.076 C 
ATOM     10  C   UNL A   1      33.789  23.473  25.901  1.00  0.00     0.195 C 
ATOM     11  N   UNL A   1      32.701  23.038  24.998  1.00  0.00    -0.328 N 
ATOM     12  C   UNL A   1      34.461  23.755  23.564  1.00  0.00     0.083 C 
ATOM     13  C   UNL A   1      33.249  22.851  23.666  1.00  0.00     0.263 C 
ATOM     14  H   UNL A   1      32.369  22.145  25.360  1.00  0.00     0.348 HD
BRANCH  11  15
ATOM     15  C   UNL A   1      31.440  23.780  25.048  1.00  0.00     0.299 C 
BRANCH  15  16
ATOM     16  C   UNL A   1      31.551  25.290  25.096  1.00  0.00     0.012 A 
ATOM     17  C   UNL A   1      31.329  25.976  26.298  1.00  0.00     0.052 A 
ATOM     18  C   UNL A   1      31.901  26.037  23.956  1.00  0.00     0.052 A 
ATOM     19  C   UNL A   1      31.515  27.356  26.363  1.00  0.00     0.162 A 
ATOM     20  C   UNL A   1      32.120  27.409  24.049  1.00  0.00     0.162 A 
ATOM     21  F   UNL A   1      31.299  27.986  27.526  1.00  0.00    -0.204 F 
ATOM     22  C   UNL A   1      31.933  28.071  25.250  1.00  0.00     0.194 A 
ATOM     23  F   UNL A   1      32.536  28.074  22.963  1.00  0.00    -0.204 F 
ATOM     24  F   UNL A   1      32.155  29.390  25.336  1.00  0.00    -0.200 F 
ENDBRANCH  15  16
ENDBRANCH  11  15
ENDBRANCH   6   8
ENDBRANCH   5   6
ENDBRANCH   4   5
ENDBRANCH   3   4
ENDBRANCH   2   3
ENDBRANCH   1   2
BRANCH   1  25
ATOM     25  C   UNL A   1      41.294  19.900  26.344  1.00  0.00     0.188 C 
BRANCH  25  26
ATOM     26  O   UNL A   1      42.288  19.710  25.363  1.00  0.00    -0.376 OA
BRANCH  26  27
ATOM     27  C   UNL A   1      43.651  19.787  25.729  1.00  0.00     0.202 C 
BRANCH  27  28
ATOM     28  C   UNL A   1      44.373  21.137  25.667  1.00  0.00     0.261 C 
BRANCH  28  29
ATOM     29  O   UNL A   1      43.685  22.225  26.303  1.00  0.00    -0.460 OA
BRANCH  29  30
ATOM     30  C   UNL A   1      43.177  23.163  25.471  1.00  0.00     0.338 C 
ATOM     31  O   UNL A   1      43.027  23.086  24.254  1.00  0.00    -0.246 OA
BRANCH  30  32
ATOM     32  C   UNL A   1      42.655  24.287  26.262  1.00  0.00     0.060 A 
ATOM     33  C   UNL A   1      43.134  25.582  26.017  1.00  0.00     0.016 A 
ATOM     34  C   UNL A   1      41.745  24.051  27.289  1.00  0.00     0.016 A 
ATOM     35  C   UNL A   1      42.708  26.652  26.806  1.00  0.00     0.010 A 
ATOM     36  C   UNL A   1      41.338  25.114  28.093  1.00  0.00     0.010 A 
ATOM     37  C   UNL A   1      41.833  26.414  27.872  1.00  0.00    -0.014 A 
BRANCH  37  38
ATOM     38  C   UNL A   1      41.548  27.458  28.883  1.00  0.00     0.031 A 
ATOM     39  C   UNL A   1      42.378  27.480  30.132  1.00  0.00     0.074 A 
ATOM     40  C   UNL A   1      40.530  28.321  28.728  1.00  0.00     0.049 A 
ATOM     41  N   UNL A   1      42.173  28.109  31.259  1.00  0.00    -0.248 NA
ATOM     42  C   UNL A   1      43.606  26.667  30.106  1.00  0.00     0.031 C 
ATOM     43  C   UNL A   1      39.702  28.448  27.531  1.00  0.00     0.029 A 
ATOM     44  N   UNL A   1      39.997  29.230  29.608  1.00  0.00    -0.354 N 
ATOM     45  C   UNL A   1      43.227  27.744  32.088  1.00  0.00     0.074 A 
ATOM     46  C   UNL A   1      44.064  26.834  31.338  1.00  0.00     0.031 C 
ATOM     47  C   UNL A   1      38.741  29.359  27.763  1.00  0.00     0.029 A 
ATOM     48  C   UNL A   1      38.851  29.830  29.144  1.00  0.00     0.049 A 
ATOM     49  H   UNL A   1      40.397  29.434  30.485  1.00  0.00     0.167 HD
ATOM     50  C   UNL A   1      43.462  28.130  33.363  1.00  0.00     0.037 A 
ATOM     51  C   UNL A   1      37.967  30.621  29.783  1.00  0.00     0.037 A 
ATOM     52  C   UNL A   1      42.618  29.036  34.097  1.00  0.00     0.049 A 
ATOM     53  C   UNL A   1      38.196  30.962  31.236  1.00  0.00     0.074 A 
ATOM     54  C   UNL A   1      42.768  29.495  35.393  1.00  0.00     0.029 A 
ATOM     55  N   UNL A   1      41.462  29.614  33.596  1.00  0.00    -0.354 N 
ATOM     56  N   UNL A   1      39.180  30.606  32.026  1.00  0.00    -0.248 NA
ATOM     57  C   UNL A   1      37.184  31.806  31.890  1.00  0.00     0.031 C 
ATOM     58  C   UNL A   1      41.669  30.303  35.696  1.00  0.00     0.029 A 
ATOM     59  C   UNL A   1      40.873  30.407  34.566  1.00  0.00     0.049 A 
ATOM     60  H   UNL A   1      41.112  29.482  32.685  1.00  0.00     0.167 HD
ATOM     61  C   UNL A   1      38.932  31.216  33.249  1.00  0.00     0.074 A 
ATOM     62  C   UNL A   1      37.700  31.961  33.102  1.00  0.00     0.031 C 
ATOM     63  C   UNL A   1      39.663  31.169  34.390  1.00  0.00     0.037 A 
BRANCH  50  64
ATOM     64  C   UNL A   1      44.651  27.537  34.061  1.00  0.00     0.064 A 
ATOM     65  C   UNL A   1      44.574  26.322  34.755  1.00  0.00     0.173 A 
ATOM     66  C   UNL A   1      45.895  28.185  34.009  1.00  0.00     0.173 A 
ATOM     67  F   UNL A   1      43.406  25.669  34.848  1.00  0.00    -0.203 F 
ATOM     68  C   UNL A   1      45.692  25.791  35.394  1.00  0.00     0.198 A 
ATOM     69  C   UNL A   1      47.018  27.636  34.620  1.00  0.00     0.198 A 
ATOM     70  F   UNL A   1      46.025  29.350  33.356  1.00  0.00    -0.203 F 
ATOM     71  F   UNL A   1      45.583  24.654  36.097  1.00  0.00    -0.200 F 
ATOM     72  C   UNL A   1      46.914  26.444  35.321  1.00  0.00     0.200 A 
ATOM     73  F   UNL A   1      48.199  28.262  34.535  1.00  0.00    -0.200 F 
ATOM     74  F   UNL A   1      47.990  25.928  35.930  1.00  0.00    -0.200 F 
ENDBRANCH  50  64
BRANCH  51  75
ATOM     75  C   UNL A   1      36.760  31.118  29.069  1.00  0.00     0.064 A 
ATOM     76  C   UNL A   1      35.710  30.251  28.737  1.00  0.00     0.173 A 
ATOM     77  C   UNL A   1      36.640  32.463  28.682  1.00  0.00     0.173 A 
ATOM     78  F   UNL A   1      35.789  28.951  29.058  1.00  0.00    -0.203 F 
ATOM     79  C   UNL A   1      34.597  30.704  28.030  1.00  0.00     0.198 A 
ATOM     80  C   UNL A   1      35.512  32.920  28.004  1.00  0.00     0.198 A 
ATOM     81  F   UNL A   1      37.618  33.334  28.970  1.00  0.00    -0.203 F 
ATOM     82  F   UNL A   1      33.634  29.840  27.678  1.00  0.00    -0.200 F 
ATOM     83  C   UNL A   1      34.496  32.038  27.669  1.00  0.00     0.200 A 
ATOM     84  F   UNL A   1      35.415  34.213  27.668  1.00  0.00    -0.200 F 
ATOM     85  F   UNL A   1      33.426  32.473  26.990  1.00  0.00    -0.200 F 
ENDBRANCH  51  75
BRANCH  63  86
ATOM     86  C   UNL A   1      39.207  32.000  35.555  1.00  0.00     0.064 A 
ATOM     87  C   UNL A   1      38.335  31.498  36.531  1.00  0.00     0.173 A 
ATOM     88  C   UNL A   1      39.735  33.287  35.745  1.00  0.00     0.173 A 
ATOM     89  F   UNL A   1      37.793  30.279  36.389  1.00  0.00    -0.203 F 
ATOM     90  C   UNL A   1      38.004  32.256  37.651  1.00  0.00     0.198 A 
ATOM     91  C   UNL A   1      39.426  34.030  36.881  1.00  0.00     0.198 A 
ATOM     92  F   UNL A   1      40.582  33.810  34.844  1.00  0.00    -0.203 F 
ATOM     93  F   UNL A   1      37.148  31.768  38.559  1.00  0.00    -0.200 F 
ATOM     94  C   UNL A   1      38.560  33.515  37.831  1.00  0.00     0.200 A 
ATOM     95  F   UNL A   1      39.981  35.237  37.061  1.00  0.00    -0.200 F 
ATOM     96  F   UNL A   1      38.261  34.231  38.924  1.00  0.00    -0.200 F 
ENDBRANCH  63  86
ENDBRANCH  37  38
ENDBRANCH  30  32
ENDBRANCH  29  30
ENDBRANCH  28  29
ENDBRANCH  27  28
ENDBRANCH  26  27
ENDBRANCH  25  26
ENDBRANCH   1  25
TORSDOF 19
ENDMDL
