MODEL 1
REMARK VINA RESULT:     -11.1      0.000      0.000
REMARK SMILES Cc1nn(C)c(=O)c(C(=O)N2CCCC[C@H]2C(=O)OCCOCCOCCOC(=O)c2ccc(-c3c4nc(c(-c5c(F)c(F)c(F)c(F)c5F)c5ccc([nH]5)c(-c5c(F)c(F)c(F)c(F)c5F)c5nc(c(-c6c(F)c(F)c(F)c(F)c6F)c6ccc3[nH]6)C=C5)C=C4)cc2)c1C
REMARK SMILES IDX 23 1 22 2 21 3 20 4 19 5 17 6 18 7 16 8 11 9 12 10 13 11
REMARK SMILES IDX 15 12 14 13 9 14 10 15 8 16 1 17 2 18 3 19 94 20 4 21 95 22
REMARK SMILES IDX 5 23 6 24 7 25 24 26 25 27 26 28 27 29 28 30 29 31 30 32
REMARK SMILES IDX 31 33 32 34 93 35 33 36 92 37 34 38 35 39 36 40 86 41 37 42
REMARK SMILES IDX 91 43 85 44 87 45 38 46 90 47 84 48 83 49 39 51 71 52 51 53
REMARK SMILES IDX 70 54 52 55 55 56 69 57 88 58 53 59 54 60 68 62 89 63 56 64
REMARK SMILES IDX 40 65 41 66 49 67 42 68 43 69 47 70 50 71 44 72 45 73 48 74
REMARK SMILES IDX 46 75 72 76 73 77 81 78 74 79 75 80 79 81 82 82 76 83 77 84
REMARK SMILES IDX 80 85 78 86 57 87 58 88 66 89 59 90 60 91 64 92 67 93 61 94
REMARK SMILES IDX 62 95 65 96 63 97
REMARK H PARENT 87 50 55 61
REMARK Flexibility Score: inf
ROOT
ATOM      1  C   UNL A   1      30.745  29.357  22.307  1.00  0.00     0.188 C 
ENDROOT
BRANCH   1   2
ATOM      2  O   UNL A   1      31.328  28.066  22.265  1.00  0.00    -0.376 OA
BRANCH   2   3
ATOM      3  C   UNL A   1      32.726  27.961  22.450  1.00  0.00     0.202 C 
BRANCH   3   4
ATOM      4  C   UNL A   1      33.371  26.597  22.173  1.00  0.00     0.261 C 
BRANCH   4   5
ATOM      5  O   UNL A   1      33.260  25.639  23.250  1.00  0.00    -0.462 OA
BRANCH   5   6
ATOM      6  C   UNL A   1      32.689  24.441  22.942  1.00  0.00     0.328 C 
ATOM      7  O   UNL A   1      33.020  23.746  21.985  1.00  0.00    -0.250 OA
BRANCH   6   8
ATOM      8  C   UNL A   1      31.573  24.003  23.925  1.00  0.00     0.195 C 
ATOM      9  N   UNL A   1      31.902  23.839  25.371  1.00  0.00    -0.325 N 
ATOM     10  C   UNL A   1      31.613  24.959  26.266  1.00  0.00     0.121 C 
ATOM     11  C   UNL A   1      30.292  25.665  26.027  1.00  0.00     0.022 C 
ATOM     12  C   UNL A   1      30.285  24.825  23.677  1.00  0.00     0.037 C 
ATOM     13  C   UNL A   1      30.117  26.046  24.572  1.00  0.00     0.005 C 
BRANCH   9  14
ATOM     14  C   UNL A   1      32.447  22.707  25.994  1.00  0.00     0.260 C 
ATOM     15  O   UNL A   1      32.255  22.484  27.194  1.00  0.00    -0.269 OA
BRANCH  14  16
ATOM     16  C   UNL A   1      33.413  21.806  25.306  1.00  0.00     0.111 A 
ATOM     17  C   UNL A   1      37.076  21.293  24.680  1.00  0.00     0.069 C 
ATOM     18  C   UNL A   1      35.640  20.944  24.991  1.00  0.00     0.062 A 
ATOM     19  N   UNL A   1      35.284  19.708  24.859  1.00  0.00    -0.175 NA
ATOM     20  C   UNL A   1      34.733  22.018  25.473  1.00  0.00    -0.010 A 
ATOM     21  N   UNL A   1      33.948  19.433  25.001  1.00  0.00    -0.232 N 
ATOM     22  C   UNL A   1      35.368  23.085  26.303  1.00  0.00     0.047 C 
ATOM     23  C   UNL A   1      33.600  18.024  25.043  1.00  0.00     0.178 C 
ATOM     24  C   UNL A   1      32.960  20.419  24.960  1.00  0.00     0.279 A 
ATOM     25  O   UNL A   1      31.773  20.187  24.743  1.00  0.00    -0.267 OA
ENDBRANCH  14  16
ENDBRANCH   9  14
ENDBRANCH   6   8
ENDBRANCH   5   6
ENDBRANCH   4   5
ENDBRANCH   3   4
ENDBRANCH   2   3
ENDBRANCH   1   2
BRANCH   1  26
ATOM     26  C   UNL A   1      29.759  29.766  23.418  1.00  0.00     0.188 C 
BRANCH  26  27
ATOM     27  O   UNL A   1      30.205  30.440  24.573  1.00  0.00    -0.376 OA
BRANCH  27  28
ATOM     28  C   UNL A   1      31.391  29.989  25.205  1.00  0.00     0.202 C 
BRANCH  28  29
ATOM     29  C   UNL A   1      31.870  30.773  26.431  1.00  0.00     0.261 C 
BRANCH  29  30
ATOM     30  O   UNL A   1      33.301  30.954  26.460  1.00  0.00    -0.460 OA
BRANCH  30  31
ATOM     31  C   UNL A   1      33.776  31.771  27.423  1.00  0.00     0.338 C 
ATOM     32  O   UNL A   1      33.203  32.741  27.923  1.00  0.00    -0.246 OA
BRANCH  31  33
ATOM     33  C   UNL A   1      35.057  31.272  27.946  1.00  0.00     0.060 A 
ATOM     34  C   UNL A   1      35.114  29.965  28.445  1.00  0.00     0.016 A 
ATOM     35  C   UNL A   1      36.165  32.115  28.046  1.00  0.00     0.016 A 
ATOM     36  C   UNL A   1      36.275  29.497  29.064  1.00  0.00     0.010 A 
ATOM     37  C   UNL A   1      37.322  31.652  28.684  1.00  0.00     0.010 A 
ATOM     38  C   UNL A   1      37.374  30.351  29.220  1.00  0.00    -0.014 A 
BRANCH  38  39
ATOM     39  C   UNL A   1      38.519  29.938  30.070  1.00  0.00     0.031 A 
ATOM     40  C   UNL A   1      39.533  28.977  29.515  1.00  0.00     0.074 A 
ATOM     41  C   UNL A   1      38.674  30.431  31.311  1.00  0.00     0.049 A 
ATOM     42  N   UNL A   1      40.572  28.432  30.097  1.00  0.00    -0.248 NA
ATOM     43  C   UNL A   1      39.350  28.577  28.112  1.00  0.00     0.031 C 
ATOM     44  C   UNL A   1      37.804  31.423  31.935  1.00  0.00     0.029 A 
ATOM     45  N   UNL A   1      39.625  30.165  32.266  1.00  0.00    -0.354 N 
ATOM     46  C   UNL A   1      41.162  27.624  29.134  1.00  0.00     0.074 A 
ATOM     47  C   UNL A   1      40.348  27.722  27.942  1.00  0.00     0.031 C 
ATOM     48  C   UNL A   1      38.263  31.690  33.169  1.00  0.00     0.029 A 
ATOM     49  C   UNL A   1      39.432  30.850  33.439  1.00  0.00     0.049 A 
ATOM     50  H   UNL A   1      40.372  29.541  32.123  1.00  0.00     0.167 HD
ATOM     51  C   UNL A   1      42.288  26.879  29.233  1.00  0.00     0.037 A 
ATOM     52  C   UNL A   1      40.106  30.792  34.604  1.00  0.00     0.037 A 
ATOM     53  C   UNL A   1      43.099  26.790  30.419  1.00  0.00     0.049 A 
ATOM     54  C   UNL A   1      41.294  29.873  34.731  1.00  0.00     0.074 A 
ATOM     55  C   UNL A   1      44.261  26.066  30.614  1.00  0.00     0.029 A 
ATOM     56  N   UNL A   1      42.827  27.443  31.612  1.00  0.00    -0.354 N 
ATOM     57  N   UNL A   1      41.844  29.104  33.821  1.00  0.00    -0.248 NA
ATOM     58  C   UNL A   1      41.951  29.805  36.045  1.00  0.00     0.031 C 
ATOM     59  C   UNL A   1      44.660  26.232  31.944  1.00  0.00     0.029 A 
ATOM     60  C   UNL A   1      43.780  27.108  32.562  1.00  0.00     0.049 A 
ATOM     61  H   UNL A   1      42.070  28.054  31.763  1.00  0.00     0.167 HD
ATOM     62  C   UNL A   1      42.920  28.481  34.441  1.00  0.00     0.074 A 
ATOM     63  C   UNL A   1      42.951  28.963  35.806  1.00  0.00     0.031 C 
ATOM     64  C   UNL A   1      43.803  27.595  33.919  1.00  0.00     0.037 A 
BRANCH  51  65
ATOM     65  C   UNL A   1      42.691  26.071  28.034  1.00  0.00     0.064 A 
ATOM     66  C   UNL A   1      42.210  24.770  27.822  1.00  0.00     0.173 A 
ATOM     67  C   UNL A   1      43.553  26.615  27.069  1.00  0.00     0.173 A 
ATOM     68  F   UNL A   1      41.391  24.198  28.719  1.00  0.00    -0.203 F 
ATOM     69  C   UNL A   1      42.603  24.032  26.708  1.00  0.00     0.198 A 
ATOM     70  C   UNL A   1      43.918  25.886  25.940  1.00  0.00     0.198 A 
ATOM     71  F   UNL A   1      44.037  27.857  27.218  1.00  0.00    -0.203 F 
ATOM     72  F   UNL A   1      42.174  22.772  26.555  1.00  0.00    -0.200 F 
ATOM     73  C   UNL A   1      43.452  24.593  25.766  1.00  0.00     0.200 A 
ATOM     74  F   UNL A   1      44.728  26.436  25.024  1.00  0.00    -0.200 F 
ATOM     75  F   UNL A   1      43.828  23.883  24.693  1.00  0.00    -0.200 F 
ENDBRANCH  51  65
BRANCH  52  76
ATOM     76  C   UNL A   1      39.659  31.637  35.741  1.00  0.00     0.064 A 
ATOM     77  C   UNL A   1      40.264  32.873  36.003  1.00  0.00     0.173 A 
ATOM     78  C   UNL A   1      38.580  31.251  36.553  1.00  0.00     0.173 A 
ATOM     79  F   UNL A   1      41.314  33.273  35.273  1.00  0.00    -0.203 F 
ATOM     80  C   UNL A   1      39.801  33.697  37.029  1.00  0.00     0.198 A 
ATOM     81  C   UNL A   1      38.103  32.086  37.560  1.00  0.00     0.198 A 
ATOM     82  F   UNL A   1      37.971  30.075  36.346  1.00  0.00    -0.203 F 
ATOM     83  F   UNL A   1      40.411  34.864  37.274  1.00  0.00    -0.200 F 
ATOM     84  C   UNL A   1      38.713  33.308  37.798  1.00  0.00     0.200 A 
ATOM     85  F   UNL A   1      37.046  31.711  38.294  1.00  0.00    -0.200 F 
ATOM     86  F   UNL A   1      38.258  34.108  38.772  1.00  0.00    -0.200 F 
ENDBRANCH  52  76
BRANCH  64  87
ATOM     87  C   UNL A   1      44.900  27.077  34.806  1.00  0.00     0.064 A 
ATOM     88  C   UNL A   1      44.758  25.878  35.517  1.00  0.00     0.173 A 
ATOM     89  C   UNL A   1      46.150  27.716  34.835  1.00  0.00     0.173 A 
ATOM     90  F   UNL A   1      43.581  25.235  35.530  1.00  0.00    -0.203 F 
ATOM     91  C   UNL A   1      45.830  25.334  36.222  1.00  0.00     0.198 A 
ATOM     92  C   UNL A   1      47.225  27.156  35.519  1.00  0.00     0.198 A 
ATOM     93  F   UNL A   1      46.340  28.861  34.162  1.00  0.00    -0.203 F 
ATOM     94  F   UNL A   1      45.670  24.191  36.904  1.00  0.00    -0.200 F 
ATOM     95  C   UNL A   1      47.065  25.964  36.209  1.00  0.00     0.200 A 
ATOM     96  F   UNL A   1      48.424  27.756  35.488  1.00  0.00    -0.200 F 
ATOM     97  F   UNL A   1      48.104  25.420  36.859  1.00  0.00    -0.200 F 
ENDBRANCH  64  87
ENDBRANCH  38  39
ENDBRANCH  31  33
ENDBRANCH  30  31
ENDBRANCH  29  30
ENDBRANCH  28  29
ENDBRANCH  27  28
ENDBRANCH  26  27
ENDBRANCH   1  26
TORSDOF 19
ENDMDL
MODEL 2
REMARK VINA RESULT:     -11.1      1.154      7.375
REMARK SMILES Cc1nn(C)c(=O)c(C(=O)N2CCCC[C@H]2C(=O)OCCOCCOCCOC(=O)c2ccc(-c3c4nc(c(-c5c(F)c(F)c(F)c(F)c5F)c5ccc([nH]5)c(-c5c(F)c(F)c(F)c(F)c5F)c5nc(c(-c6c(F)c(F)c(F)c(F)c6F)c6ccc3[nH]6)C=C5)C=C4)cc2)c1C
REMARK SMILES IDX 23 1 22 2 21 3 20 4 19 5 17 6 18 7 16 8 11 9 12 10 13 11
REMARK SMILES IDX 15 12 14 13 9 14 10 15 8 16 1 17 2 18 3 19 94 20 4 21 95 22
REMARK SMILES IDX 5 23 6 24 7 25 24 26 25 27 26 28 27 29 28 30 29 31 30 32
REMARK SMILES IDX 31 33 32 34 93 35 33 36 92 37 34 38 35 39 36 40 86 41 37 42
REMARK SMILES IDX 91 43 85 44 87 45 38 46 90 47 84 48 83 49 39 51 71 52 51 53
REMARK SMILES IDX 70 54 52 55 55 56 69 57 88 58 53 59 54 60 68 62 89 63 56 64
REMARK SMILES IDX 40 65 41 66 49 67 42 68 43 69 47 70 50 71 44 72 45 73 48 74
REMARK SMILES IDX 46 75 72 76 73 77 81 78 74 79 75 80 79 81 82 82 76 83 77 84
REMARK SMILES IDX 80 85 78 86 57 87 58 88 66 89 59 90 60 91 64 92 67 93 61 94
REMARK SMILES IDX 62 95 65 96 63 97
REMARK H PARENT 87 50 55 61
REMARK Flexibility Score: inf
ROOT
ATOM      1  C   UNL A   1      29.942  29.895  22.395  1.00  0.00     0.188 C 
ENDROOT
BRANCH   1   2
ATOM      2  O   UNL A   1      29.954  28.539  21.982  1.00  0.00    -0.376 OA
BRANCH   2   3
ATOM      3  C   UNL A   1      30.356  27.561  22.920  1.00  0.00     0.202 C 
BRANCH   3   4
ATOM      4  C   UNL A   1      29.250  26.755  23.613  1.00  0.00     0.261 C 
BRANCH   4   5
ATOM      5  O   UNL A   1      29.701  25.890  24.681  1.00  0.00    -0.462 OA
BRANCH   5   6
ATOM      6  C   UNL A   1      30.617  24.939  24.346  1.00  0.00     0.328 C 
ATOM      7  O   UNL A   1      30.457  24.113  23.450  1.00  0.00    -0.250 OA
BRANCH   6   8
ATOM      8  C   UNL A   1      31.916  24.990  25.191  1.00  0.00     0.195 C 
ATOM      9  N   UNL A   1      33.218  25.242  24.507  1.00  0.00    -0.325 N 
ATOM     10  C   UNL A   1      33.723  26.616  24.491  1.00  0.00     0.121 C 
ATOM     11  C   UNL A   1      33.565  27.387  25.787  1.00  0.00     0.022 C 
ATOM     12  C   UNL A   1      31.704  25.863  26.451  1.00  0.00     0.037 C 
ATOM     13  C   UNL A   1      32.147  27.314  26.312  1.00  0.00     0.005 C 
BRANCH   9  14
ATOM     14  C   UNL A   1      34.045  24.298  23.883  1.00  0.00     0.260 C 
ATOM     15  O   UNL A   1      34.339  24.398  22.687  1.00  0.00    -0.269 OA
BRANCH  14  16
ATOM     16  C   UNL A   1      34.479  23.045  24.562  1.00  0.00     0.111 A 
ATOM     17  C   UNL A   1      33.638  19.405  24.909  1.00  0.00     0.069 C 
ATOM     18  C   UNL A   1      34.489  20.644  24.757  1.00  0.00     0.062 A 
ATOM     19  N   UNL A   1      35.749  20.541  25.029  1.00  0.00    -0.175 NA
ATOM     20  C   UNL A   1      33.851  21.891  24.262  1.00  0.00    -0.010 A 
ATOM     21  N   UNL A   1      36.476  21.703  25.029  1.00  0.00    -0.232 N 
ATOM     22  C   UNL A   1      32.733  21.711  23.288  1.00  0.00     0.047 C 
ATOM     23  C   UNL A   1      37.915  21.541  25.143  1.00  0.00     0.178 C 
ATOM     24  C   UNL A   1      35.888  22.969  25.068  1.00  0.00     0.279 A 
ATOM     25  O   UNL A   1      36.484  23.988  25.408  1.00  0.00    -0.267 OA
ENDBRANCH  14  16
ENDBRANCH   9  14
ENDBRANCH   6   8
ENDBRANCH   5   6
ENDBRANCH   4   5
ENDBRANCH   3   4
ENDBRANCH   2   3
ENDBRANCH   1   2
BRANCH   1  26
ATOM     26  C   UNL A   1      29.850  30.289  23.881  1.00  0.00     0.188 C 
BRANCH  26  27
ATOM     27  O   UNL A   1      31.012  30.505  24.648  1.00  0.00    -0.376 OA
BRANCH  27  28
ATOM     28  C   UNL A   1      30.869  30.860  26.013  1.00  0.00     0.202 C 
BRANCH  28  29
ATOM     29  C   UNL A   1      31.733  32.014  26.530  1.00  0.00     0.261 C 
BRANCH  29  30
ATOM     30  O   UNL A   1      32.875  31.565  27.290  1.00  0.00    -0.460 OA
BRANCH  30  31
ATOM     31  C   UNL A   1      33.757  32.520  27.654  1.00  0.00     0.338 C 
ATOM     32  O   UNL A   1      33.540  33.728  27.766  1.00  0.00    -0.246 OA
BRANCH  31  33
ATOM     33  C   UNL A   1      35.035  31.919  28.066  1.00  0.00     0.060 A 
ATOM     34  C   UNL A   1      35.075  30.546  28.335  1.00  0.00     0.016 A 
ATOM     35  C   UNL A   1      36.159  32.715  28.291  1.00  0.00     0.016 A 
ATOM     36  C   UNL A   1      36.234  29.961  28.848  1.00  0.00     0.010 A 
ATOM     37  C   UNL A   1      37.315  32.132  28.825  1.00  0.00     0.010 A 
ATOM     38  C   UNL A   1      37.350  30.759  29.131  1.00  0.00    -0.014 A 
BRANCH  38  39
ATOM     39  C   UNL A   1      38.497  30.189  29.881  1.00  0.00     0.031 A 
ATOM     40  C   UNL A   1      38.744  30.639  31.293  1.00  0.00     0.074 A 
ATOM     41  C   UNL A   1      39.295  29.260  29.326  1.00  0.00     0.049 A 
ATOM     42  N   UNL A   1      39.718  30.326  32.111  1.00  0.00    -0.248 NA
ATOM     43  C   UNL A   1      37.758  31.570  31.862  1.00  0.00     0.031 C 
ATOM     44  C   UNL A   1      39.117  28.688  27.995  1.00  0.00     0.029 A 
ATOM     45  N   UNL A   1      40.414  28.633  29.818  1.00  0.00    -0.354 N 
ATOM     46  C   UNL A   1      39.463  31.022  33.285  1.00  0.00     0.074 A 
ATOM     47  C   UNL A   1      38.264  31.801  33.064  1.00  0.00     0.031 C 
ATOM     48  C   UNL A   1      40.089  27.786  27.776  1.00  0.00     0.029 A 
ATOM     49  C   UNL A   1      40.985  27.754  28.933  1.00  0.00     0.049 A 
ATOM     50  H   UNL A   1      40.771  28.799  30.720  1.00  0.00     0.167 HD
ATOM     51  C   UNL A   1      40.160  31.002  34.446  1.00  0.00     0.037 A 
ATOM     52  C   UNL A   1      42.113  27.024  29.035  1.00  0.00     0.037 A 
ATOM     53  C   UNL A   1      41.348  30.220  34.664  1.00  0.00     0.049 A 
ATOM     54  C   UNL A   1      42.937  27.099  30.295  1.00  0.00     0.074 A 
ATOM     55  C   UNL A   1      42.121  30.129  35.808  1.00  0.00     0.029 A 
ATOM     56  N   UNL A   1      41.938  29.398  33.715  1.00  0.00    -0.354 N 
ATOM     57  N   UNL A   1      42.697  27.765  31.399  1.00  0.00    -0.248 NA
ATOM     58  C   UNL A   1      44.190  26.329  30.322  1.00  0.00     0.031 C 
ATOM     59  C   UNL A   1      43.213  29.300  35.531  1.00  0.00     0.029 A 
ATOM     60  C   UNL A   1      43.088  28.826  34.234  1.00  0.00     0.049 A 
ATOM     61  H   UNL A   1      41.592  29.244  32.806  1.00  0.00     0.167 HD
ATOM     62  C   UNL A   1      43.751  27.479  32.259  1.00  0.00     0.074 A 
ATOM     63  C   UNL A   1      44.633  26.575  31.551  1.00  0.00     0.031 C 
ATOM     64  C   UNL A   1      43.960  27.924  33.522  1.00  0.00     0.037 A 
BRANCH  51  65
ATOM     65  C   UNL A   1      39.673  31.881  35.561  1.00  0.00     0.064 A 
ATOM     66  C   UNL A   1      40.162  33.184  35.745  1.00  0.00     0.173 A 
ATOM     67  C   UNL A   1      38.684  31.423  36.445  1.00  0.00     0.173 A 
ATOM     68  F   UNL A   1      41.116  33.667  34.934  1.00  0.00    -0.203 F 
ATOM     69  C   UNL A   1      39.704  33.980  36.791  1.00  0.00     0.198 A 
ATOM     70  C   UNL A   1      38.205  32.234  37.470  1.00  0.00     0.198 A 
ATOM     71  F   UNL A   1      38.175  30.189  36.310  1.00  0.00    -0.203 F 
ATOM     72  F   UNL A   1      40.226  35.201  36.980  1.00  0.00    -0.200 F 
ATOM     73  C   UNL A   1      38.723  33.507  37.649  1.00  0.00     0.200 A 
ATOM     74  F   UNL A   1      37.246  31.780  38.289  1.00  0.00    -0.200 F 
ATOM     75  F   UNL A   1      38.282  34.276  38.654  1.00  0.00    -0.200 F 
ENDBRANCH  51  65
BRANCH  52  76
ATOM     76  C   UNL A   1      42.520  26.162  27.895  1.00  0.00     0.064 A 
ATOM     77  C   UNL A   1      41.965  24.888  27.720  1.00  0.00     0.173 A 
ATOM     78  C   UNL A   1      43.431  26.617  26.929  1.00  0.00     0.173 A 
ATOM     79  F   UNL A   1      41.112  24.398  28.630  1.00  0.00    -0.203 F 
ATOM     80  C   UNL A   1      42.297  24.105  26.615  1.00  0.00     0.198 A 
ATOM     81  C   UNL A   1      43.743  25.844  25.813  1.00  0.00     0.198 A 
ATOM     82  F   UNL A   1      43.995  27.827  27.054  1.00  0.00    -0.203 F 
ATOM     83  F   UNL A   1      41.769  22.880  26.482  1.00  0.00    -0.200 F 
ATOM     84  C   UNL A   1      43.176  24.588  25.657  1.00  0.00     0.200 A 
ATOM     85  F   UNL A   1      44.584  26.320  24.885  1.00  0.00    -0.200 F 
ATOM     86  F   UNL A   1      43.481  23.842  24.586  1.00  0.00    -0.200 F 
ENDBRANCH  52  76
BRANCH  64  87
ATOM     87  C   UNL A   1      45.183  27.446  34.251  1.00  0.00     0.064 A 
ATOM     88  C   UNL A   1      45.170  26.264  35.003  1.00  0.00     0.173 A 
ATOM     89  C   UNL A   1      46.411  28.106  34.084  1.00  0.00     0.173 A 
ATOM     90  F   UNL A   1      44.020  25.601  35.201  1.00  0.00    -0.203 F 
ATOM     91  C   UNL A   1      46.344  25.755  35.556  1.00  0.00     0.198 A 
ATOM     92  C   UNL A   1      47.586  27.581  34.616  1.00  0.00     0.198 A 
ATOM     93  F   UNL A   1      46.480  29.236  33.365  1.00  0.00    -0.203 F 
ATOM     94  F   UNL A   1      46.307  24.627  36.280  1.00  0.00    -0.200 F 
ATOM     95  C   UNL A   1      47.551  26.405  35.350  1.00  0.00     0.200 A 
ATOM     96  F   UNL A   1      48.755  28.200  34.398  1.00  0.00    -0.200 F 
ATOM     97  F   UNL A   1      48.684  25.895  35.854  1.00  0.00    -0.200 F 
ENDBRANCH  64  87
ENDBRANCH  38  39
ENDBRANCH  31  33
ENDBRANCH  30  31
ENDBRANCH  29  30
ENDBRANCH  28  29
ENDBRANCH  27  28
ENDBRANCH  26  27
ENDBRANCH   1  26
TORSDOF 19
ENDMDL
MODEL 3
REMARK VINA RESULT:     -11.1      4.609      8.555
REMARK SMILES Cc1nn(C)c(=O)c(C(=O)N2CCCC[C@H]2C(=O)OCCOCCOCCOC(=O)c2ccc(-c3c4nc(c(-c5c(F)c(F)c(F)c(F)c5F)c5ccc([nH]5)c(-c5c(F)c(F)c(F)c(F)c5F)c5nc(c(-c6c(F)c(F)c(F)c(F)c6F)c6ccc3[nH]6)C=C5)C=C4)cc2)c1C
REMARK SMILES IDX 23 1 22 2 21 3 20 4 19 5 17 6 18 7 16 8 11 9 12 10 13 11
REMARK SMILES IDX 15 12 14 13 9 14 10 15 8 16 1 17 2 18 3 19 94 20 4 21 95 22
REMARK SMILES IDX 5 23 6 24 7 25 24 26 25 27 26 28 27 29 28 30 29 31 30 32
REMARK SMILES IDX 31 33 32 34 93 35 33 36 92 37 34 38 35 39 36 40 86 41 37 42
REMARK SMILES IDX 91 43 85 44 87 45 38 46 90 47 84 48 83 49 39 51 71 52 51 53
REMARK SMILES IDX 70 54 52 55 55 56 69 57 88 58 53 59 54 60 68 62 89 63 56 64
REMARK SMILES IDX 40 65 41 66 49 67 42 68 43 69 47 70 50 71 44 72 45 73 48 74
REMARK SMILES IDX 46 75 72 76 73 77 81 78 74 79 75 80 79 81 82 82 76 83 77 84
REMARK SMILES IDX 80 85 78 86 57 87 58 88 66 89 59 90 60 91 64 92 67 93 61 94
REMARK SMILES IDX 62 95 65 96 63 97
REMARK H PARENT 87 50 55 61
REMARK Flexibility Score: inf
ROOT
ATOM      1  C   UNL A   1      36.749  21.544  25.083  1.00  0.00     0.188 C 
ENDROOT
BRANCH   1   2
ATOM      2  O   UNL A   1      35.544  21.410  25.818  1.00  0.00    -0.376 OA
BRANCH   2   3
ATOM      3  C   UNL A   1      34.543  20.553  25.306  1.00  0.00     0.202 C 
BRANCH   3   4
ATOM      4  C   UNL A   1      33.128  20.703  25.881  1.00  0.00     0.261 C 
BRANCH   4   5
ATOM      5  O   UNL A   1      32.119  21.099  24.924  1.00  0.00    -0.462 OA
BRANCH   5   6
ATOM      6  C   UNL A   1      31.385  22.203  25.238  1.00  0.00     0.328 C 
ATOM      7  O   UNL A   1      30.536  22.236  26.126  1.00  0.00    -0.250 OA
BRANCH   6   8
ATOM      8  C   UNL A   1      31.722  23.450  24.380  1.00  0.00     0.195 C 
ATOM      9  N   UNL A   1      32.486  24.573  24.999  1.00  0.00    -0.325 N 
ATOM     10  C   UNL A   1      33.933  24.607  24.789  1.00  0.00     0.121 C 
ATOM     11  C   UNL A   1      34.400  24.263  23.388  1.00  0.00     0.022 C 
ATOM     12  C   UNL A   1      32.272  23.019  22.999  1.00  0.00     0.037 C 
ATOM     13  C   UNL A   1      33.791  22.965  22.898  1.00  0.00     0.005 C 
BRANCH   9  14
ATOM     14  C   UNL A   1      31.970  25.633  25.756  1.00  0.00     0.260 C 
ATOM     15  O   UNL A   1      31.424  25.433  26.846  1.00  0.00    -0.269 OA
BRANCH  14  16
ATOM     16  C   UNL A   1      31.894  27.025  25.230  1.00  0.00     0.111 A 
ATOM     17  C   UNL A   1      29.811  29.285  23.079  1.00  0.00     0.069 C 
ATOM     18  C   UNL A   1      30.663  28.847  24.247  1.00  0.00     0.062 A 
ATOM     19  N   UNL A   1      31.187  29.771  24.984  1.00  0.00    -0.175 NA
ATOM     20  C   UNL A   1      30.814  27.393  24.514  1.00  0.00    -0.010 A 
ATOM     21  N   UNL A   1      32.073  29.363  25.946  1.00  0.00    -0.232 N 
ATOM     22  C   UNL A   1      29.635  26.541  24.176  1.00  0.00     0.047 C 
ATOM     23  C   UNL A   1      32.496  30.389  26.883  1.00  0.00     0.178 C 
ATOM     24  C   UNL A   1      32.656  28.094  25.955  1.00  0.00     0.279 A 
ATOM     25  O   UNL A   1      33.680  27.818  26.576  1.00  0.00    -0.267 OA
ENDBRANCH  14  16
ENDBRANCH   9  14
ENDBRANCH   6   8
ENDBRANCH   5   6
ENDBRANCH   4   5
ENDBRANCH   3   4
ENDBRANCH   2   3
ENDBRANCH   1   2
BRANCH   1  26
ATOM     26  C   UNL A   1      38.004  22.195  25.693  1.00  0.00     0.188 C 
BRANCH  26  27
ATOM     27  O   UNL A   1      39.204  21.470  25.830  1.00  0.00    -0.376 OA
BRANCH  27  28
ATOM     28  C   UNL A   1      39.212  20.098  25.473  1.00  0.00     0.202 C 
BRANCH  28  29
ATOM     29  C   UNL A   1      40.258  19.206  26.149  1.00  0.00     0.261 C 
BRANCH  29  30
ATOM     30  O   UNL A   1      41.466  19.066  25.373  1.00  0.00    -0.460 OA
BRANCH  30  31
ATOM     31  C   UNL A   1      42.607  19.460  25.977  1.00  0.00     0.338 C 
ATOM     32  O   UNL A   1      43.630  18.791  26.142  1.00  0.00    -0.246 OA
BRANCH  31  33
ATOM     33  C   UNL A   1      42.556  20.893  26.304  1.00  0.00     0.060 A 
ATOM     34  C   UNL A   1      42.576  21.822  25.256  1.00  0.00     0.016 A 
ATOM     35  C   UNL A   1      42.598  21.326  27.630  1.00  0.00     0.016 A 
ATOM     36  C   UNL A   1      42.656  23.189  25.527  1.00  0.00     0.010 A 
ATOM     37  C   UNL A   1      42.699  22.696  27.902  1.00  0.00     0.010 A 
ATOM     38  C   UNL A   1      42.755  23.633  26.852  1.00  0.00    -0.014 A 
BRANCH  38  39
ATOM     39  C   UNL A   1      43.065  25.056  27.136  1.00  0.00     0.031 A 
ATOM     40  C   UNL A   1      44.419  25.596  26.772  1.00  0.00     0.074 A 
ATOM     41  C   UNL A   1      42.146  25.868  27.685  1.00  0.00     0.049 A 
ATOM     42  N   UNL A   1      44.929  26.784  26.985  1.00  0.00    -0.248 NA
ATOM     43  C   UNL A   1      45.323  24.671  26.072  1.00  0.00     0.031 C 
ATOM     44  C   UNL A   1      40.777  25.486  28.014  1.00  0.00     0.029 A 
ATOM     45  N   UNL A   1      42.229  27.188  28.058  1.00  0.00    -0.354 N 
ATOM     46  C   UNL A   1      46.209  26.746  26.449  1.00  0.00     0.074 A 
ATOM     47  C   UNL A   1      46.413  25.410  25.933  1.00  0.00     0.031 C 
ATOM     48  C   UNL A   1      40.141  26.549  28.535  1.00  0.00     0.029 A 
ATOM     49  C   UNL A   1      41.075  27.673  28.620  1.00  0.00     0.049 A 
ATOM     50  H   UNL A   1      43.039  27.733  27.934  1.00  0.00     0.167 HD
ATOM     51  C   UNL A   1      47.126  27.741  26.383  1.00  0.00     0.037 A 
ATOM     52  C   UNL A   1      40.809  28.878  29.162  1.00  0.00     0.037 A 
ATOM     53  C   UNL A   1      46.916  29.070  26.892  1.00  0.00     0.049 A 
ATOM     54  C   UNL A   1      41.879  29.940  29.178  1.00  0.00     0.074 A 
ATOM     55  C   UNL A   1      47.783  30.149  26.867  1.00  0.00     0.029 A 
ATOM     56  N   UNL A   1      45.758  29.502  27.523  1.00  0.00    -0.354 N 
ATOM     57  N   UNL A   1      43.091  29.898  28.679  1.00  0.00    -0.248 NA
ATOM     58  C   UNL A   1      41.550  31.212  29.839  1.00  0.00     0.031 C 
ATOM     59  C   UNL A   1      47.172  31.214  27.537  1.00  0.00     0.029 A 
ATOM     60  C   UNL A   1      45.902  30.819  27.927  1.00  0.00     0.049 A 
ATOM     61  H   UNL A   1      44.953  28.952  27.664  1.00  0.00     0.167 HD
ATOM     62  C   UNL A   1      43.660  31.137  28.942  1.00  0.00     0.074 A 
ATOM     63  C   UNL A   1      42.660  31.915  29.644  1.00  0.00     0.031 C 
ATOM     64  C   UNL A   1      44.898  31.587  28.623  1.00  0.00     0.037 A 
BRANCH  51  65
ATOM     65  C   UNL A   1      48.456  27.416  25.768  1.00  0.00     0.064 A 
ATOM     66  C   UNL A   1      49.562  27.047  26.549  1.00  0.00     0.173 A 
ATOM     67  C   UNL A   1      48.621  27.453  24.375  1.00  0.00     0.173 A 
ATOM     68  F   UNL A   1      49.462  27.006  27.886  1.00  0.00    -0.203 F 
ATOM     69  C   UNL A   1      50.791  26.759  25.959  1.00  0.00     0.198 A 
ATOM     70  C   UNL A   1      49.842  27.133  23.787  1.00  0.00     0.198 A 
ATOM     71  F   UNL A   1      47.594  27.793  23.581  1.00  0.00    -0.203 F 
ATOM     72  F   UNL A   1      51.848  26.462  26.728  1.00  0.00    -0.200 F 
ATOM     73  C   UNL A   1      50.928  26.797  24.580  1.00  0.00     0.200 A 
ATOM     74  F   UNL A   1      49.968  27.156  22.453  1.00  0.00    -0.200 F 
ATOM     75  F   UNL A   1      52.111  26.518  24.015  1.00  0.00    -0.200 F 
ENDBRANCH  51  65
BRANCH  52  76
ATOM     76  C   UNL A   1      39.461  29.131  29.734  1.00  0.00     0.064 A 
ATOM     77  C   UNL A   1      39.172  28.812  31.067  1.00  0.00     0.173 A 
ATOM     78  C   UNL A   1      38.453  29.746  28.975  1.00  0.00     0.173 A 
ATOM     79  F   UNL A   1      40.092  28.199  31.824  1.00  0.00    -0.203 F 
ATOM     80  C   UNL A   1      37.928  29.109  31.623  1.00  0.00     0.198 A 
ATOM     81  C   UNL A   1      37.220  30.065  29.540  1.00  0.00     0.198 A 
ATOM     82  F   UNL A   1      38.678  30.066  27.692  1.00  0.00    -0.203 F 
ATOM     83  F   UNL A   1      37.669  28.774  32.895  1.00  0.00    -0.200 F 
ATOM     84  C   UNL A   1      36.958  29.746  30.862  1.00  0.00     0.200 A 
ATOM     85  F   UNL A   1      36.290  30.690  28.803  1.00  0.00    -0.200 F 
ATOM     86  F   UNL A   1      35.769  30.047  31.403  1.00  0.00    -0.200 F 
ENDBRANCH  52  76
BRANCH  64  87
ATOM     87  C   UNL A   1      45.268  32.990  29.011  1.00  0.00     0.064 A 
ATOM     88  C   UNL A   1      45.975  33.260  30.190  1.00  0.00     0.173 A 
ATOM     89  C   UNL A   1      45.029  34.056  28.128  1.00  0.00     0.173 A 
ATOM     90  F   UNL A   1      46.220  32.278  31.072  1.00  0.00    -0.203 F 
ATOM     91  C   UNL A   1      46.437  34.544  30.470  1.00  0.00     0.198 A 
ATOM     92  C   UNL A   1      45.514  35.333  28.398  1.00  0.00     0.198 A 
ATOM     93  F   UNL A   1      44.365  33.849  26.982  1.00  0.00    -0.203 F 
ATOM     94  F   UNL A   1      47.104  34.782  31.608  1.00  0.00    -0.200 F 
ATOM     95  C   UNL A   1      46.220  35.575  29.567  1.00  0.00     0.200 A 
ATOM     96  F   UNL A   1      45.322  36.323  27.515  1.00  0.00    -0.200 F 
ATOM     97  F   UNL A   1      46.695  36.803  29.822  1.00  0.00    -0.200 F 
ENDBRANCH  64  87
ENDBRANCH  38  39
ENDBRANCH  31  33
ENDBRANCH  30  31
ENDBRANCH  29  30
ENDBRANCH  28  29
ENDBRANCH  27  28
ENDBRANCH  26  27
ENDBRANCH   1  26
TORSDOF 19
ENDMDL
