MODEL 1
REMARK VINA RESULT:     -11.4      0.000      0.000
REMARK SMILES Cc1ccc(S(=O)(=O)N[C@@H](C)C(=O)Oc2csc(C(=O)OCCOCCOCCOC(=O)c3ccc(-c4c5nc(c(-c6c(F)c(F)c(F)c(F)c6F)c6ccc([nH]6)c(-c6c(F)c(F)c(F)c(F)c6F)c6nc(c(-c7c(F)c(F)c(F)c(F)c7F)c7ccc4[nH]7)C=C6)C=C5)cc3)c2C)cc1
REMARK SMILES IDX 23 1 22 2 21 3 19 4 20 5 18 6 15 7 16 8 96 9 17 10 97 11
REMARK SMILES IDX 14 12 12 13 13 14 10 15 11 16 9 17 6 19 7 20 8 21 5 22 1 23
REMARK SMILES IDX 2 24 3 25 99 26 4 27 98 28 24 29 25 30 26 31 27 32 28 33
REMARK SMILES IDX 29 34 30 35 31 36 32 37 33 38 34 39 95 40 35 41 94 42 36 43
REMARK SMILES IDX 37 44 38 45 88 46 39 47 93 48 87 49 89 50 40 51 92 52 86 53
REMARK SMILES IDX 85 54 41 56 73 57 53 58 72 59 54 60 57 61 71 62 90 63 55 64
REMARK SMILES IDX 56 65 70 67 91 68 58 69 42 70 43 71 51 72 44 73 45 74 49 75
REMARK SMILES IDX 52 76 46 77 47 78 50 79 48 80 74 81 75 82 83 83 76 84 77 85
REMARK SMILES IDX 81 86 84 87 78 88 79 89 82 90 80 91 59 92 60 93 68 94 61 95
REMARK SMILES IDX 62 96 66 97 69 98 63 99 64 100 67 101 65 102
REMARK H PARENT 9 18 89 55 57 66
REMARK Flexibility Score: inf
ROOT
ATOM      1  C   UNL A   1      34.911  30.864  28.159  1.00  0.00     0.202 C 
ENDROOT
BRANCH   1   2
ATOM      2  C   UNL A   1      33.539  30.361  27.519  1.00  0.00     0.261 C 
BRANCH   2   3
ATOM      3  O   UNL A   1      33.395  30.455  26.041  1.00  0.00    -0.459 OA
BRANCH   3   4
ATOM      4  C   UNL A   1      32.493  29.737  25.301  1.00  0.00     0.348 C 
ATOM      5  O   UNL A   1      31.297  30.006  25.349  1.00  0.00    -0.245 OA
BRANCH   4   6
ATOM      6  C   UNL A   1      33.055  28.637  24.426  1.00  0.00     0.119 A 
ATOM      7  C   UNL A   1      33.566  26.466  23.770  1.00  0.00     0.145 A 
ATOM      8  C   UNL A   1      33.614  27.012  22.529  1.00  0.00     0.113 A 
ATOM      9  C   UNL A   1      33.521  27.400  24.855  1.00  0.00     0.017 A 
ATOM     10  S   UNL A   1      33.369  28.635  22.740  1.00  0.00    -0.133 S 
ATOM     11  C   UNL A   1      33.787  27.039  26.261  1.00  0.00     0.050 C 
BRANCH   7  12
ATOM     12  O   UNL A   1      33.438  25.152  23.925  1.00  0.00    -0.424 OA
BRANCH  12  13
ATOM     13  C   UNL A   1      32.358  24.646  23.261  1.00  0.00     0.329 C 
ATOM     14  O   UNL A   1      32.288  24.345  22.068  1.00  0.00    -0.250 OA
BRANCH  13  15
ATOM     15  C   UNL A   1      31.188  24.484  24.200  1.00  0.00     0.177 C 
ATOM     16  C   UNL A   1      30.207  25.638  24.090  1.00  0.00     0.038 C 
BRANCH  15  17
ATOM     17  N   UNL A   1      31.811  24.345  25.527  1.00  0.00    -0.197 NA
ATOM     18  H   UNL A   1      32.767  24.686  25.433  1.00  0.00     0.142 HD
BRANCH  17  19
ATOM     19  S   UNL A   1      31.907  22.868  26.285  1.00  0.00     0.241 S 
ATOM     20  O   UNL A   1      30.893  22.025  25.700  1.00  0.00    -0.207 OA
ATOM     21  O   UNL A   1      31.956  23.145  27.704  1.00  0.00    -0.207 OA
BRANCH  19  22
ATOM     22  C   UNL A   1      33.494  22.236  25.810  1.00  0.00     0.082 A 
ATOM     23  C   UNL A   1      37.398  20.718  24.878  1.00  0.00     0.044 C 
ATOM     24  C   UNL A   1      36.028  21.229  25.211  1.00  0.00    -0.051 A 
ATOM     25  C   UNL A   1      35.892  22.428  25.923  1.00  0.00     0.005 A 
ATOM     26  C   UNL A   1      34.880  20.546  24.786  1.00  0.00     0.005 A 
ATOM     27  C   UNL A   1      34.630  22.926  26.236  1.00  0.00     0.022 A 
ATOM     28  C   UNL A   1      33.611  21.053  25.074  1.00  0.00     0.022 A 
ENDBRANCH  19  22
ENDBRANCH  17  19
ENDBRANCH  15  17
ENDBRANCH  13  15
ENDBRANCH  12  13
ENDBRANCH   7  12
ENDBRANCH   4   6
ENDBRANCH   3   4
ENDBRANCH   2   3
ENDBRANCH   1   2
BRANCH   1  29
ATOM     29  O   UNL A   1      35.225  32.260  28.017  1.00  0.00    -0.376 OA
BRANCH  29  30
ATOM     30  C   UNL A   1      34.279  33.315  28.273  1.00  0.00     0.188 C 
BRANCH  30  31
ATOM     31  C   UNL A   1      34.474  34.788  27.875  1.00  0.00     0.188 C 
BRANCH  31  32
ATOM     32  O   UNL A   1      34.112  35.663  28.933  1.00  0.00    -0.376 OA
BRANCH  32  33
ATOM     33  C   UNL A   1      32.949  35.314  29.686  1.00  0.00     0.202 C 
BRANCH  33  34
ATOM     34  C   UNL A   1      32.924  35.849  31.142  1.00  0.00     0.261 C 
BRANCH  34  35
ATOM     35  O   UNL A   1      33.340  34.839  32.099  1.00  0.00    -0.460 OA
BRANCH  35  36
ATOM     36  C   UNL A   1      34.534  35.044  32.742  1.00  0.00     0.338 C 
ATOM     37  O   UNL A   1      34.852  36.085  33.290  1.00  0.00    -0.246 OA
BRANCH  36  38
ATOM     38  C   UNL A   1      35.432  33.857  32.583  1.00  0.00     0.060 A 
ATOM     39  C   UNL A   1      35.742  32.886  33.548  1.00  0.00     0.016 A 
ATOM     40  C   UNL A   1      36.178  33.830  31.447  1.00  0.00     0.016 A 
ATOM     41  C   UNL A   1      36.830  31.946  33.356  1.00  0.00     0.010 A 
ATOM     42  C   UNL A   1      37.368  33.116  31.444  1.00  0.00     0.010 A 
ATOM     43  C   UNL A   1      37.718  32.051  32.282  1.00  0.00    -0.014 A 
BRANCH  43  44
ATOM     44  C   UNL A   1      39.013  31.278  31.999  1.00  0.00     0.031 A 
ATOM     45  C   UNL A   1      39.312  29.943  31.228  1.00  0.00     0.074 A 
ATOM     46  C   UNL A   1      40.106  32.033  32.264  1.00  0.00     0.049 A 
ATOM     47  N   UNL A   1      40.510  29.645  30.791  1.00  0.00    -0.248 NA
ATOM     48  C   UNL A   1      38.420  28.827  30.849  1.00  0.00     0.031 C 
ATOM     49  C   UNL A   1      41.508  31.863  31.879  1.00  0.00     0.029 A 
ATOM     50  N   UNL A   1      40.172  33.055  33.223  1.00  0.00    -0.354 N 
ATOM     51  C   UNL A   1      40.485  28.539  29.972  1.00  0.00     0.074 A 
ATOM     52  C   UNL A   1      39.131  28.088  29.983  1.00  0.00     0.031 C 
ATOM     53  C   UNL A   1      42.277  32.379  32.849  1.00  0.00     0.029 A 
ATOM     54  C   UNL A   1      41.378  32.802  33.903  1.00  0.00     0.049 A 
ATOM     55  H   UNL A   1      39.526  33.781  33.382  1.00  0.00     0.167 HD
ATOM     56  C   UNL A   1      41.627  28.025  29.431  1.00  0.00     0.037 A 
ATOM     57  C   UNL A   1      41.332  32.329  35.178  1.00  0.00     0.037 A 
ATOM     58  C   UNL A   1      42.727  28.272  30.346  1.00  0.00     0.049 A 
ATOM     59  C   UNL A   1      42.016  30.988  35.324  1.00  0.00     0.074 A 
ATOM     60  C   UNL A   1      43.765  29.177  30.427  1.00  0.00     0.029 A 
ATOM     61  N   UNL A   1      42.639  27.661  31.596  1.00  0.00    -0.354 N 
ATOM     62  N   UNL A   1      42.376  30.231  34.319  1.00  0.00    -0.248 NA
ATOM     63  C   UNL A   1      42.354  30.391  36.610  1.00  0.00     0.031 C 
ATOM     64  C   UNL A   1      44.134  29.261  31.808  1.00  0.00     0.029 A 
ATOM     65  C   UNL A   1      43.376  28.353  32.535  1.00  0.00     0.049 A 
ATOM     66  H   UNL A   1      42.120  26.846  31.783  1.00  0.00     0.167 HD
ATOM     67  C   UNL A   1      42.908  29.062  34.786  1.00  0.00     0.074 A 
ATOM     68  C   UNL A   1      42.916  29.232  36.227  1.00  0.00     0.031 C 
ATOM     69  C   UNL A   1      43.244  28.028  33.956  1.00  0.00     0.037 A 
BRANCH  56  70
ATOM     70  C   UNL A   1      41.735  27.294  28.105  1.00  0.00     0.064 A 
ATOM     71  C   UNL A   1      41.626  25.886  28.026  1.00  0.00     0.173 A 
ATOM     72  C   UNL A   1      42.130  27.919  26.902  1.00  0.00     0.173 A 
ATOM     73  F   UNL A   1      41.301  25.156  29.103  1.00  0.00    -0.203 F 
ATOM     74  C   UNL A   1      41.887  25.173  26.841  1.00  0.00     0.198 A 
ATOM     75  C   UNL A   1      42.351  27.211  25.712  1.00  0.00     0.198 A 
ATOM     76  F   UNL A   1      42.371  29.235  26.842  1.00  0.00    -0.203 F 
ATOM     77  F   UNL A   1      41.816  23.833  26.833  1.00  0.00    -0.200 F 
ATOM     78  C   UNL A   1      42.240  25.837  25.682  1.00  0.00     0.200 A 
ATOM     79  F   UNL A   1      42.698  27.874  24.598  1.00  0.00    -0.200 F 
ATOM     80  F   UNL A   1      42.491  25.161  24.552  1.00  0.00    -0.200 F 
ENDBRANCH  56  70
BRANCH  57  81
ATOM     81  C   UNL A   1      40.165  32.873  35.948  1.00  0.00     0.064 A 
ATOM     82  C   UNL A   1      39.118  31.969  36.262  1.00  0.00     0.173 A 
ATOM     83  C   UNL A   1      40.180  34.078  36.657  1.00  0.00     0.173 A 
ATOM     84  F   UNL A   1      39.041  30.787  35.627  1.00  0.00    -0.203 F 
ATOM     85  C   UNL A   1      38.227  32.196  37.310  1.00  0.00     0.198 A 
ATOM     86  C   UNL A   1      39.244  34.328  37.676  1.00  0.00     0.198 A 
ATOM     87  F   UNL A   1      41.164  34.968  36.469  1.00  0.00    -0.203 F 
ATOM     88  F   UNL A   1      37.358  31.239  37.668  1.00  0.00    -0.200 F 
ATOM     89  C   UNL A   1      38.298  33.373  38.026  1.00  0.00     0.200 A 
ATOM     90  F   UNL A   1      39.343  35.444  38.413  1.00  0.00    -0.200 F 
ATOM     91  F   UNL A   1      37.501  33.563  39.088  1.00  0.00    -0.200 F 
ENDBRANCH  57  81
BRANCH  69  92
ATOM     92  C   UNL A   1      43.436  26.604  34.436  1.00  0.00     0.064 A 
ATOM     93  C   UNL A   1      42.381  25.792  34.892  1.00  0.00     0.173 A 
ATOM     94  C   UNL A   1      44.678  25.950  34.274  1.00  0.00     0.173 A 
ATOM     95  F   UNL A   1      41.125  26.253  34.967  1.00  0.00    -0.203 F 
ATOM     96  C   UNL A   1      42.564  24.446  35.221  1.00  0.00     0.198 A 
ATOM     97  C   UNL A   1      44.841  24.587  34.537  1.00  0.00     0.198 A 
ATOM     98  F   UNL A   1      45.754  26.605  33.814  1.00  0.00    -0.203 F 
ATOM     99  F   UNL A   1      41.531  23.733  35.690  1.00  0.00    -0.200 F 
ATOM    100  C   UNL A   1      43.789  23.839  35.026  1.00  0.00     0.200 A 
ATOM    101  F   UNL A   1      46.016  23.994  34.280  1.00  0.00    -0.200 F 
ATOM    102  F   UNL A   1      43.944  22.534  35.280  1.00  0.00    -0.200 F 
ENDBRANCH  69  92
ENDBRANCH  43  44
ENDBRANCH  36  38
ENDBRANCH  35  36
ENDBRANCH  34  35
ENDBRANCH  33  34
ENDBRANCH  32  33
ENDBRANCH  31  32
ENDBRANCH  30  31
ENDBRANCH  29  30
ENDBRANCH   1  29
TORSDOF 23
ENDMDL
MODEL 2
REMARK VINA RESULT:     -10.9      1.283      2.137
REMARK SMILES Cc1ccc(S(=O)(=O)N[C@@H](C)C(=O)Oc2csc(C(=O)OCCOCCOCCOC(=O)c3ccc(-c4c5nc(c(-c6c(F)c(F)c(F)c(F)c6F)c6ccc([nH]6)c(-c6c(F)c(F)c(F)c(F)c6F)c6nc(c(-c7c(F)c(F)c(F)c(F)c7F)c7ccc4[nH]7)C=C6)C=C5)cc3)c2C)cc1
REMARK SMILES IDX 23 1 22 2 21 3 19 4 20 5 18 6 15 7 16 8 96 9 17 10 97 11
REMARK SMILES IDX 14 12 12 13 13 14 10 15 11 16 9 17 6 19 7 20 8 21 5 22 1 23
REMARK SMILES IDX 2 24 3 25 99 26 4 27 98 28 24 29 25 30 26 31 27 32 28 33
REMARK SMILES IDX 29 34 30 35 31 36 32 37 33 38 34 39 95 40 35 41 94 42 36 43
REMARK SMILES IDX 37 44 38 45 88 46 39 47 93 48 87 49 89 50 40 51 92 52 86 53
REMARK SMILES IDX 85 54 41 56 73 57 53 58 72 59 54 60 57 61 71 62 90 63 55 64
REMARK SMILES IDX 56 65 70 67 91 68 58 69 42 70 43 71 51 72 44 73 45 74 49 75
REMARK SMILES IDX 52 76 46 77 47 78 50 79 48 80 74 81 75 82 83 83 76 84 77 85
REMARK SMILES IDX 81 86 84 87 78 88 79 89 82 90 80 91 59 92 60 93 68 94 61 95
REMARK SMILES IDX 62 96 66 97 69 98 63 99 64 100 67 101 65 102
REMARK H PARENT 9 18 89 55 57 66
REMARK Flexibility Score: inf
ROOT
ATOM      1  C   UNL A   1      33.945  30.877  27.278  1.00  0.00     0.202 C 
ENDROOT
BRANCH   1   2
ATOM      2  C   UNL A   1      32.352  30.817  27.214  1.00  0.00     0.261 C 
BRANCH   2   3
ATOM      3  O   UNL A   1      31.735  30.171  26.023  1.00  0.00    -0.459 OA
BRANCH   3   4
ATOM      4  C   UNL A   1      31.674  28.818  25.817  1.00  0.00     0.348 C 
ATOM      5  O   UNL A   1      31.685  28.045  26.769  1.00  0.00    -0.245 OA
BRANCH   4   6
ATOM      6  C   UNL A   1      31.570  28.355  24.380  1.00  0.00     0.119 A 
ATOM      7  C   UNL A   1      31.798  26.918  22.567  1.00  0.00     0.145 A 
ATOM      8  C   UNL A   1      30.790  27.660  22.043  1.00  0.00     0.113 A 
ATOM      9  C   UNL A   1      32.416  27.456  23.741  1.00  0.00     0.017 A 
ATOM     10  S   UNL A   1      30.495  28.860  23.143  1.00  0.00    -0.133 S 
ATOM     11  C   UNL A   1      33.712  26.991  24.273  1.00  0.00     0.050 C 
BRANCH   7  12
ATOM     12  O   UNL A   1      32.077  25.716  22.073  1.00  0.00    -0.424 OA
BRANCH  12  13
ATOM     13  C   UNL A   1      31.462  24.708  22.759  1.00  0.00     0.329 C 
ATOM     14  O   UNL A   1      30.265  24.615  23.034  1.00  0.00    -0.250 OA
BRANCH  13  15
ATOM     15  C   UNL A   1      32.465  23.657  23.168  1.00  0.00     0.177 C 
ATOM     16  C   UNL A   1      33.271  23.151  21.985  1.00  0.00     0.038 C 
BRANCH  15  17
ATOM     17  N   UNL A   1      31.651  22.625  23.831  1.00  0.00    -0.197 NA
ATOM     18  H   UNL A   1      30.797  23.087  24.142  1.00  0.00     0.142 HD
BRANCH  17  19
ATOM     19  S   UNL A   1      32.232  21.775  25.137  1.00  0.00     0.241 S 
ATOM     20  O   UNL A   1      31.105  21.485  25.989  1.00  0.00    -0.207 OA
ATOM     21  O   UNL A   1      33.390  22.503  25.610  1.00  0.00    -0.207 OA
BRANCH  19  22
ATOM     22  C   UNL A   1      32.810  20.249  24.443  1.00  0.00     0.082 A 
ATOM     23  C   UNL A   1      34.202  16.466  22.971  1.00  0.00     0.044 C 
ATOM     24  C   UNL A   1      33.694  17.780  23.487  1.00  0.00    -0.051 A 
ATOM     25  C   UNL A   1      34.365  18.414  24.542  1.00  0.00     0.005 A 
ATOM     26  C   UNL A   1      32.584  18.404  22.902  1.00  0.00     0.005 A 
ATOM     27  C   UNL A   1      33.917  19.638  25.031  1.00  0.00     0.022 A 
ATOM     28  C   UNL A   1      32.145  19.645  23.371  1.00  0.00     0.022 A 
ENDBRANCH  19  22
ENDBRANCH  17  19
ENDBRANCH  15  17
ENDBRANCH  13  15
ENDBRANCH  12  13
ENDBRANCH   7  12
ENDBRANCH   4   6
ENDBRANCH   3   4
ENDBRANCH   2   3
ENDBRANCH   1   2
BRANCH   1  29
ATOM     29  O   UNL A   1      34.527  31.891  28.114  1.00  0.00    -0.376 OA
BRANCH  29  30
ATOM     30  C   UNL A   1      34.027  33.240  28.189  1.00  0.00     0.188 C 
BRANCH  30  31
ATOM     31  C   UNL A   1      34.886  34.507  28.038  1.00  0.00     0.188 C 
BRANCH  31  32
ATOM     32  O   UNL A   1      34.175  35.667  28.445  1.00  0.00    -0.376 OA
BRANCH  32  33
ATOM     33  C   UNL A   1      33.002  35.457  29.233  1.00  0.00     0.202 C 
BRANCH  33  34
ATOM     34  C   UNL A   1      33.184  35.692  30.756  1.00  0.00     0.261 C 
BRANCH  34  35
ATOM     35  O   UNL A   1      33.542  34.469  31.454  1.00  0.00    -0.460 OA
BRANCH  35  36
ATOM     36  C   UNL A   1      34.391  34.589  32.524  1.00  0.00     0.338 C 
ATOM     37  O   UNL A   1      34.370  35.510  33.322  1.00  0.00    -0.246 OA
BRANCH  36  38
ATOM     38  C   UNL A   1      35.415  33.497  32.512  1.00  0.00     0.060 A 
ATOM     39  C   UNL A   1      35.879  32.750  33.606  1.00  0.00     0.016 A 
ATOM     40  C   UNL A   1      36.111  33.353  31.353  1.00  0.00     0.016 A 
ATOM     41  C   UNL A   1      37.060  31.914  33.507  1.00  0.00     0.010 A 
ATOM     42  C   UNL A   1      37.375  32.784  31.397  1.00  0.00     0.010 A 
ATOM     43  C   UNL A   1      37.884  31.926  32.378  1.00  0.00    -0.014 A 
BRANCH  43  44
ATOM     44  C   UNL A   1      39.247  31.261  32.150  1.00  0.00     0.031 A 
ATOM     45  C   UNL A   1      39.683  29.949  31.405  1.00  0.00     0.074 A 
ATOM     46  C   UNL A   1      40.264  32.107  32.445  1.00  0.00     0.049 A 
ATOM     47  N   UNL A   1      40.917  29.748  31.015  1.00  0.00    -0.248 NA
ATOM     48  C   UNL A   1      38.901  28.759  31.008  1.00  0.00     0.031 C 
ATOM     49  C   UNL A   1      41.688  32.050  32.111  1.00  0.00     0.029 A 
ATOM     50  N   UNL A   1      40.210  33.139  33.393  1.00  0.00    -0.354 N 
ATOM     51  C   UNL A   1      41.013  28.637  30.207  1.00  0.00     0.074 A 
ATOM     52  C   UNL A   1      39.702  28.074  30.176  1.00  0.00     0.031 C 
ATOM     53  C   UNL A   1      42.376  32.637  33.101  1.00  0.00     0.029 A 
ATOM     54  C   UNL A   1      41.408  32.992  34.118  1.00  0.00     0.049 A 
ATOM     55  H   UNL A   1      39.501  33.810  33.522  1.00  0.00     0.167 HD
ATOM     56  C   UNL A   1      42.213  28.215  29.713  1.00  0.00     0.037 A 
ATOM     57  C   UNL A   1      41.355  32.528  35.396  1.00  0.00     0.037 A 
ATOM     58  C   UNL A   1      43.255  28.561  30.664  1.00  0.00     0.049 A 
ATOM     59  C   UNL A   1      42.142  31.250  35.581  1.00  0.00     0.074 A 
ATOM     60  C   UNL A   1      44.210  29.550  30.771  1.00  0.00     0.029 A 
ATOM     61  N   UNL A   1      43.173  27.955  31.916  1.00  0.00    -0.354 N 
ATOM     62  N   UNL A   1      42.599  30.518  34.599  1.00  0.00    -0.248 NA
ATOM     63  C   UNL A   1      42.482  30.694  36.886  1.00  0.00     0.031 C 
ATOM     64  C   UNL A   1      44.521  29.676  32.162  1.00  0.00     0.029 A 
ATOM     65  C   UNL A   1      43.816  28.714  32.872  1.00  0.00     0.049 A 
ATOM     66  H   UNL A   1      42.717  27.101  32.094  1.00  0.00     0.167 HD
ATOM     67  C   UNL A   1      43.210  29.401  35.097  1.00  0.00     0.074 A 
ATOM     68  C   UNL A   1      43.151  29.583  36.536  1.00  0.00     0.031 C 
ATOM     69  C   UNL A   1      43.660  28.391  34.292  1.00  0.00     0.037 A 
BRANCH  56  70
ATOM     70  C   UNL A   1      42.428  27.484  28.400  1.00  0.00     0.064 A 
ATOM     71  C   UNL A   1      42.175  28.107  27.156  1.00  0.00     0.173 A 
ATOM     72  C   UNL A   1      42.708  26.102  28.317  1.00  0.00     0.173 A 
ATOM     73  F   UNL A   1      41.854  29.407  27.088  1.00  0.00    -0.203 F 
ATOM     74  C   UNL A   1      42.207  27.403  25.938  1.00  0.00     0.198 A 
ATOM     75  C   UNL A   1      42.779  25.411  27.099  1.00  0.00     0.198 A 
ATOM     76  F   UNL A   1      42.873  25.353  29.414  1.00  0.00    -0.203 F 
ATOM     77  F   UNL A   1      41.912  28.033  24.791  1.00  0.00    -0.200 F 
ATOM     78  C   UNL A   1      42.518  26.058  25.910  1.00  0.00     0.200 A 
ATOM     79  F   UNL A   1      43.077  24.103  27.092  1.00  0.00    -0.200 F 
ATOM     80  F   UNL A   1      42.547  25.384  24.750  1.00  0.00    -0.200 F 
ENDBRANCH  56  70
BRANCH  57  81
ATOM     81  C   UNL A   1      40.120  32.980  36.119  1.00  0.00     0.064 A 
ATOM     82  C   UNL A   1      39.148  31.992  36.420  1.00  0.00     0.173 A 
ATOM     83  C   UNL A   1      40.005  34.194  36.802  1.00  0.00     0.173 A 
ATOM     84  F   UNL A   1      39.197  30.796  35.808  1.00  0.00    -0.203 F 
ATOM     85  C   UNL A   1      38.206  32.158  37.434  1.00  0.00     0.198 A 
ATOM     86  C   UNL A   1      39.018  34.378  37.786  1.00  0.00     0.198 A 
ATOM     87  F   UNL A   1      40.912  35.165  36.625  1.00  0.00    -0.203 F 
ATOM     88  F   UNL A   1      37.415  31.134  37.786  1.00  0.00    -0.200 F 
ATOM     89  C   UNL A   1      38.150  33.349  38.127  1.00  0.00     0.200 A 
ATOM     90  F   UNL A   1      38.994  35.512  38.502  1.00  0.00    -0.200 F 
ATOM     91  F   UNL A   1      37.306  33.486  39.160  1.00  0.00    -0.200 F 
ENDBRANCH  57  81
BRANCH  69  92
ATOM     92  C   UNL A   1      43.952  26.993  34.795  1.00  0.00     0.064 A 
ATOM     93  C   UNL A   1      45.219  26.584  35.252  1.00  0.00     0.173 A 
ATOM     94  C   UNL A   1      42.904  26.068  35.006  1.00  0.00     0.173 A 
ATOM     95  F   UNL A   1      46.272  27.413  35.231  1.00  0.00    -0.203 F 
ATOM     96  C   UNL A   1      45.438  25.325  35.818  1.00  0.00     0.198 A 
ATOM     97  C   UNL A   1      43.113  24.838  35.636  1.00  0.00     0.198 A 
ATOM     98  F   UNL A   1      41.645  26.353  34.646  1.00  0.00    -0.203 F 
ATOM     99  F   UNL A   1      46.674  24.975  36.197  1.00  0.00    -0.200 F 
ATOM    100  C   UNL A   1      44.382  24.460  36.027  1.00  0.00     0.200 A 
ATOM    101  F   UNL A   1      42.070  24.037  35.895  1.00  0.00    -0.200 F 
ATOM    102  F   UNL A   1      44.583  23.281  36.630  1.00  0.00    -0.200 F 
ENDBRANCH  69  92
ENDBRANCH  43  44
ENDBRANCH  36  38
ENDBRANCH  35  36
ENDBRANCH  34  35
ENDBRANCH  33  34
ENDBRANCH  32  33
ENDBRANCH  31  32
ENDBRANCH  30  31
ENDBRANCH  29  30
ENDBRANCH   1  29
TORSDOF 23
ENDMDL
MODEL 3
REMARK VINA RESULT:     -10.7      1.408      2.319
REMARK SMILES Cc1ccc(S(=O)(=O)N[C@@H](C)C(=O)Oc2csc(C(=O)OCCOCCOCCOC(=O)c3ccc(-c4c5nc(c(-c6c(F)c(F)c(F)c(F)c6F)c6ccc([nH]6)c(-c6c(F)c(F)c(F)c(F)c6F)c6nc(c(-c7c(F)c(F)c(F)c(F)c7F)c7ccc4[nH]7)C=C6)C=C5)cc3)c2C)cc1
REMARK SMILES IDX 23 1 22 2 21 3 19 4 20 5 18 6 15 7 16 8 96 9 17 10 97 11
REMARK SMILES IDX 14 12 12 13 13 14 10 15 11 16 9 17 6 19 7 20 8 21 5 22 1 23
REMARK SMILES IDX 2 24 3 25 99 26 4 27 98 28 24 29 25 30 26 31 27 32 28 33
REMARK SMILES IDX 29 34 30 35 31 36 32 37 33 38 34 39 95 40 35 41 94 42 36 43
REMARK SMILES IDX 37 44 38 45 88 46 39 47 93 48 87 49 89 50 40 51 92 52 86 53
REMARK SMILES IDX 85 54 41 56 73 57 53 58 72 59 54 60 57 61 71 62 90 63 55 64
REMARK SMILES IDX 56 65 70 67 91 68 58 69 42 70 43 71 51 72 44 73 45 74 49 75
REMARK SMILES IDX 52 76 46 77 47 78 50 79 48 80 74 81 75 82 83 83 76 84 77 85
REMARK SMILES IDX 81 86 84 87 78 88 79 89 82 90 80 91 59 92 60 93 68 94 61 95
REMARK SMILES IDX 62 96 66 97 69 98 63 99 64 100 67 101 65 102
REMARK H PARENT 9 18 89 55 57 66
REMARK Flexibility Score: inf
ROOT
ATOM      1  C   UNL A   1      34.021  29.351  26.757  1.00  0.00     0.202 C 
ENDROOT
BRANCH   1   2
ATOM      2  C   UNL A   1      32.928  29.490  25.603  1.00  0.00     0.261 C 
BRANCH   2   3
ATOM      3  O   UNL A   1      33.108  28.657  24.383  1.00  0.00    -0.459 OA
BRANCH   3   4
ATOM      4  C   UNL A   1      32.232  27.690  23.966  1.00  0.00     0.348 C 
ATOM      5  O   UNL A   1      31.031  27.804  24.187  1.00  0.00    -0.245 OA
BRANCH   4   6
ATOM      6  C   UNL A   1      32.823  26.516  23.215  1.00  0.00     0.119 A 
ATOM      7  C   UNL A   1      33.715  24.391  22.912  1.00  0.00     0.145 A 
ATOM      8  C   UNL A   1      33.287  24.556  21.635  1.00  0.00     0.113 A 
ATOM      9  C   UNL A   1      33.703  25.570  23.726  1.00  0.00     0.017 A 
ATOM     10  S   UNL A   1      32.674  26.091  21.560  1.00  0.00    -0.133 S 
ATOM     11  C   UNL A   1      34.415  25.686  25.014  1.00  0.00     0.050 C 
BRANCH   7  12
ATOM     12  O   UNL A   1      33.994  23.178  23.379  1.00  0.00    -0.424 OA
BRANCH  12  13
ATOM     13  C   UNL A   1      35.336  22.957  23.503  1.00  0.00     0.329 C 
ATOM     14  O   UNL A   1      36.230  23.354  22.754  1.00  0.00    -0.250 OA
BRANCH  13  15
ATOM     15  C   UNL A   1      35.624  22.127  24.729  1.00  0.00     0.177 C 
ATOM     16  C   UNL A   1      37.032  21.556  24.711  1.00  0.00     0.038 C 
BRANCH  15  17
ATOM     17  N   UNL A   1      34.561  21.109  24.730  1.00  0.00    -0.197 NA
ATOM     18  H   UNL A   1      33.957  21.321  23.936  1.00  0.00     0.142 HD
BRANCH  17  19
ATOM     19  S   UNL A   1      33.560  20.907  26.043  1.00  0.00     0.241 S 
ATOM     20  O   UNL A   1      34.383  21.014  27.223  1.00  0.00    -0.207 OA
ATOM     21  O   UNL A   1      32.759  19.735  25.764  1.00  0.00    -0.207 OA
BRANCH  19  22
ATOM     22  C   UNL A   1      32.482  22.314  25.990  1.00  0.00     0.082 A 
ATOM     23  C   UNL A   1      29.697  25.576  25.873  1.00  0.00     0.044 C 
ATOM     24  C   UNL A   1      30.668  24.434  25.936  1.00  0.00    -0.051 A 
ATOM     25  C   UNL A   1      30.558  23.383  25.015  1.00  0.00     0.005 A 
ATOM     26  C   UNL A   1      31.707  24.422  26.876  1.00  0.00     0.005 A 
ATOM     27  C   UNL A   1      31.452  22.317  25.050  1.00  0.00     0.022 A 
ATOM     28  C   UNL A   1      32.624  23.368  26.898  1.00  0.00     0.022 A 
ENDBRANCH  19  22
ENDBRANCH  17  19
ENDBRANCH  15  17
ENDBRANCH  13  15
ENDBRANCH  12  13
ENDBRANCH   7  12
ENDBRANCH   4   6
ENDBRANCH   3   4
ENDBRANCH   2   3
ENDBRANCH   1   2
BRANCH   1  29
ATOM     29  O   UNL A   1      34.362  30.546  27.481  1.00  0.00    -0.376 OA
BRANCH  29  30
ATOM     30  C   UNL A   1      33.680  31.802  27.302  1.00  0.00     0.188 C 
BRANCH  30  31
ATOM     31  C   UNL A   1      33.634  32.934  28.342  1.00  0.00     0.188 C 
BRANCH  31  32
ATOM     32  O   UNL A   1      33.742  34.209  27.727  1.00  0.00    -0.376 OA
BRANCH  32  33
ATOM     33  C   UNL A   1      34.200  35.283  28.550  1.00  0.00     0.202 C 
BRANCH  33  34
ATOM     34  C   UNL A   1      33.668  35.267  30.007  1.00  0.00     0.261 C 
BRANCH  34  35
ATOM     35  O   UNL A   1      34.717  34.960  30.963  1.00  0.00    -0.460 OA
BRANCH  35  36
ATOM     36  C   UNL A   1      34.438  34.006  31.909  1.00  0.00     0.338 C 
ATOM     37  O   UNL A   1      33.579  34.116  32.766  1.00  0.00    -0.246 OA
BRANCH  36  38
ATOM     38  C   UNL A   1      35.404  32.866  31.812  1.00  0.00     0.060 A 
ATOM     39  C   UNL A   1      35.718  31.928  32.807  1.00  0.00     0.016 A 
ATOM     40  C   UNL A   1      36.204  32.863  30.714  1.00  0.00     0.016 A 
ATOM     41  C   UNL A   1      36.862  31.044  32.682  1.00  0.00     0.010 A 
ATOM     42  C   UNL A   1      37.429  32.214  30.780  1.00  0.00     0.010 A 
ATOM     43  C   UNL A   1      37.794  31.182  31.650  1.00  0.00    -0.014 A 
BRANCH  43  44
ATOM     44  C   UNL A   1      39.140  30.475  31.442  1.00  0.00     0.031 A 
ATOM     45  C   UNL A   1      39.537  29.112  30.770  1.00  0.00     0.074 A 
ATOM     46  C   UNL A   1      40.178  31.315  31.672  1.00  0.00     0.049 A 
ATOM     47  N   UNL A   1      40.761  28.862  30.375  1.00  0.00    -0.248 NA
ATOM     48  C   UNL A   1      38.724  27.918  30.456  1.00  0.00     0.031 C 
ATOM     49  C   UNL A   1      41.596  31.208  31.321  1.00  0.00     0.029 A 
ATOM     50  N   UNL A   1      40.161  32.402  32.558  1.00  0.00    -0.354 N 
ATOM     51  C   UNL A   1      40.820  27.704  29.633  1.00  0.00     0.074 A 
ATOM     52  C   UNL A   1      39.498  27.168  29.654  1.00  0.00     0.031 C 
ATOM     53  C   UNL A   1      42.311  31.838  32.265  1.00  0.00     0.029 A 
ATOM     54  C   UNL A   1      41.367  32.273  33.273  1.00  0.00     0.049 A 
ATOM     55  H   UNL A   1      39.468  33.094  32.656  1.00  0.00     0.167 HD
ATOM     56  C   UNL A   1      42.003  27.228  29.148  1.00  0.00     0.037 A 
ATOM     57  C   UNL A   1      41.324  31.886  34.577  1.00  0.00     0.037 A 
ATOM     58  C   UNL A   1      43.067  27.606  30.061  1.00  0.00     0.049 A 
ATOM     59  C   UNL A   1      42.088  30.604  34.826  1.00  0.00     0.074 A 
ATOM     60  C   UNL A   1      44.044  28.579  30.095  1.00  0.00     0.029 A 
ATOM     61  N   UNL A   1      42.992  27.078  31.348  1.00  0.00    -0.354 N 
ATOM     62  N   UNL A   1      42.514  29.805  33.882  1.00  0.00    -0.248 NA
ATOM     63  C   UNL A   1      42.436  30.120  36.156  1.00  0.00     0.031 C 
ATOM     64  C   UNL A   1      44.380  28.780  31.472  1.00  0.00     0.029 A 
ATOM     65  C   UNL A   1      43.666  27.878  32.248  1.00  0.00     0.049 A 
ATOM     66  H   UNL A   1      42.522  26.246  31.583  1.00  0.00     0.167 HD
ATOM     67  C   UNL A   1      43.109  28.707  34.437  1.00  0.00     0.074 A 
ATOM     68  C   UNL A   1      43.077  28.975  35.863  1.00  0.00     0.031 C 
ATOM     69  C   UNL A   1      43.526  27.642  33.687  1.00  0.00     0.037 A 
BRANCH  56  70
ATOM     70  C   UNL A   1      42.183  26.416  27.878  1.00  0.00     0.064 A 
ATOM     71  C   UNL A   1      41.709  25.087  27.775  1.00  0.00     0.173 A 
ATOM     72  C   UNL A   1      42.983  26.837  26.792  1.00  0.00     0.173 A 
ATOM     73  F   UNL A   1      40.973  24.540  28.753  1.00  0.00    -0.203 F 
ATOM     74  C   UNL A   1      42.007  24.261  26.676  1.00  0.00     0.198 A 
ATOM     75  C   UNL A   1      43.246  26.026  25.679  1.00  0.00     0.198 A 
ATOM     76  F   UNL A   1      43.585  28.033  26.788  1.00  0.00    -0.203 F 
ATOM     77  F   UNL A   1      41.571  22.992  26.652  1.00  0.00    -0.200 F 
ATOM     78  C   UNL A   1      42.768  24.734  25.625  1.00  0.00     0.200 A 
ATOM     79  F   UNL A   1      43.992  26.502  24.670  1.00  0.00    -0.200 F 
ATOM     80  F   UNL A   1      43.055  23.947  24.577  1.00  0.00    -0.200 F 
ENDBRANCH  56  70
BRANCH  57  81
ATOM     81  C   UNL A   1      40.111  32.406  35.289  1.00  0.00     0.064 A 
ATOM     82  C   UNL A   1      39.122  31.458  35.662  1.00  0.00     0.173 A 
ATOM     83  C   UNL A   1      40.031  33.661  35.901  1.00  0.00     0.173 A 
ATOM     84  F   UNL A   1      39.137  30.228  35.121  1.00  0.00    -0.203 F 
ATOM     85  C   UNL A   1      38.201  31.704  36.678  1.00  0.00     0.198 A 
ATOM     86  C   UNL A   1      39.063  33.924  36.887  1.00  0.00     0.198 A 
ATOM     87  F   UNL A   1      40.955  34.599  35.653  1.00  0.00    -0.203 F 
ATOM     88  F   UNL A   1      37.394  30.720  37.102  1.00  0.00    -0.200 F 
ATOM     89  C   UNL A   1      38.180  32.935  37.300  1.00  0.00     0.200 A 
ATOM     90  F   UNL A   1      39.074  35.098  37.534  1.00  0.00    -0.200 F 
ATOM     91  F   UNL A   1      37.355  33.151  38.335  1.00  0.00    -0.200 F 
ENDBRANCH  57  81
BRANCH  69  92
ATOM     92  C   UNL A   1      43.797  26.270  34.267  1.00  0.00     0.064 A 
ATOM     93  C   UNL A   1      42.785  25.422  34.756  1.00  0.00     0.173 A 
ATOM     94  C   UNL A   1      45.082  25.689  34.176  1.00  0.00     0.173 A 
ATOM     95  F   UNL A   1      41.500  25.804  34.773  1.00  0.00    -0.203 F 
ATOM     96  C   UNL A   1      43.045  24.117  35.180  1.00  0.00     0.198 A 
ATOM     97  C   UNL A   1      45.326  24.361  34.536  1.00  0.00     0.198 A 
ATOM     98  F   UNL A   1      46.124  26.381  33.695  1.00  0.00    -0.203 F 
ATOM     99  F   UNL A   1      42.049  23.371  35.675  1.00  0.00    -0.200 F 
ATOM    100  C   UNL A   1      44.311  23.580  35.053  1.00  0.00     0.200 A 
ATOM    101  F   UNL A   1      46.542  23.831  34.345  1.00  0.00    -0.200 F 
ATOM    102  F   UNL A   1      44.543  22.307  35.399  1.00  0.00    -0.200 F 
ENDBRANCH  69  92
ENDBRANCH  43  44
ENDBRANCH  36  38
ENDBRANCH  35  36
ENDBRANCH  34  35
ENDBRANCH  33  34
ENDBRANCH  32  33
ENDBRANCH  31  32
ENDBRANCH  30  31
ENDBRANCH  29  30
ENDBRANCH   1  29
TORSDOF 23
ENDMDL
