MODEL 1
REMARK VINA RESULT:     -11.0      0.000      0.000
REMARK SMILES CC(C)CC(=O)Nc1ccc(NC(=O)[C@@H]2CCCC[C@@H]2C(=O)OCCOCCOCCOC(=O)c2ccc(-c3c4nc(c(-c5c(F)c(F)c(F)c(F)c5F)c5ccc([nH]5)c(-c5c(F)c(F)c(F)c(F)c5F)c5nc(c(-c6c(F)c(F)c(F)c(F)c6F)c6ccc3[nH]6)C=C5)C=C4)cc2)cc1
REMARK SMILES IDX 26 1 25 2 24 3 23 4 21 5 22 6 20 7 15 8 16 9 17 10 19 11
REMARK SMILES IDX 18 12 13 13 12 14 14 16 11 17 8 18 9 19 99 20 10 21 98 22
REMARK SMILES IDX 7 23 5 24 6 25 4 27 2 28 1 29 3 30 27 31 28 32 29 33 30 34
REMARK SMILES IDX 31 35 32 36 33 37 34 38 35 39 36 40 97 41 37 42 96 43 38 44
REMARK SMILES IDX 39 45 40 46 90 47 41 48 95 49 89 50 91 51 42 52 94 53 88 54
REMARK SMILES IDX 87 55 43 57 75 58 55 59 74 60 56 61 59 62 73 63 92 64 57 65
REMARK SMILES IDX 58 66 72 68 93 69 60 70 44 71 45 72 53 73 46 74 47 75 51 76
REMARK SMILES IDX 54 77 48 78 49 79 52 80 50 81 76 82 77 83 85 84 78 85 79 86
REMARK SMILES IDX 83 87 86 88 80 89 81 90 84 91 82 92 61 93 62 94 70 95 63 96
REMARK SMILES IDX 64 97 68 98 71 99 65 100 66 101 69 102 67 103
REMARK H PARENT 12 15 7 26 91 56 59 67
REMARK Flexibility Score: inf
ROOT
ATOM      1  O   UNL A   1      33.385  28.500  26.273  1.00  0.00    -0.376 OA
ENDROOT
BRANCH   1   2
ATOM      2  C   UNL A   1      33.129  29.252  25.095  1.00  0.00     0.202 C 
BRANCH   2   3
ATOM      3  C   UNL A   1      31.692  29.226  24.579  1.00  0.00     0.261 C 
BRANCH   3   4
ATOM      4  O   UNL A   1      31.066  27.931  24.658  1.00  0.00    -0.463 OA
BRANCH   4   5
ATOM      5  C   UNL A   1      30.474  27.483  23.526  1.00  0.00     0.309 C 
ATOM      6  O   UNL A   1      29.678  28.150  22.872  1.00  0.00    -0.252 OA
BRANCH   5   7
ATOM      7  C   UNL A   1      30.793  26.013  23.218  1.00  0.00     0.111 C 
ATOM      8  C   UNL A   1      31.615  25.191  24.237  1.00  0.00     0.093 C 
ATOM      9  C   UNL A   1      33.015  25.792  24.416  1.00  0.00     0.014 C 
ATOM     10  C   UNL A   1      33.779  25.747  23.099  1.00  0.00     0.001 C 
ATOM     11  C   UNL A   1      31.564  25.960  21.870  1.00  0.00     0.016 C 
ATOM     12  C   UNL A   1      33.010  26.462  21.995  1.00  0.00     0.001 C 
BRANCH   8  13
ATOM     13  C   UNL A   1      30.917  24.848  25.546  1.00  0.00     0.228 C 
ATOM     14  N   UNL A   1      31.460  23.942  26.413  1.00  0.00    -0.326 N 
ATOM     15  H   UNL A   1      31.123  24.042  27.334  1.00  0.00     0.169 HD
ATOM     16  O   UNL A   1      29.854  25.375  25.874  1.00  0.00    -0.274 OA
BRANCH  14  17
ATOM     17  C   UNL A   1      32.394  22.899  26.278  1.00  0.00     0.041 A 
ATOM     18  C   UNL A   1      34.392  21.005  25.722  1.00  0.00     0.041 A 
ATOM     19  C   UNL A   1      34.237  21.477  27.017  1.00  0.00     0.028 A 
ATOM     20  C   UNL A   1      33.479  21.378  24.741  1.00  0.00     0.028 A 
ATOM     21  C   UNL A   1      33.260  22.450  27.281  1.00  0.00     0.028 A 
ATOM     22  C   UNL A   1      32.500  22.332  25.007  1.00  0.00     0.028 A 
BRANCH  18  23
ATOM     23  N   UNL A   1      35.488  20.203  25.395  1.00  0.00    -0.326 N 
ATOM     24  C   UNL A   1      36.755  20.655  25.097  1.00  0.00     0.224 C 
ATOM     25  O   UNL A   1      37.554  19.912  24.527  1.00  0.00    -0.275 OA
ATOM     26  H   UNL A   1      35.341  19.230  25.375  1.00  0.00     0.169 HD
BRANCH  24  27
ATOM     27  C   UNL A   1      37.194  21.990  25.700  1.00  0.00     0.103 C 
BRANCH  27  28
ATOM     28  C   UNL A   1      37.063  23.216  24.787  1.00  0.00    -0.008 C 
ATOM     29  C   UNL A   1      36.547  22.850  23.395  1.00  0.00     0.008 C 
ATOM     30  C   UNL A   1      36.093  24.217  25.424  1.00  0.00     0.008 C 
ENDBRANCH  27  28
ENDBRANCH  24  27
ENDBRANCH  18  23
ENDBRANCH  14  17
ENDBRANCH   8  13
ENDBRANCH   5   7
ENDBRANCH   4   5
ENDBRANCH   3   4
ENDBRANCH   2   3
ENDBRANCH   1   2
BRANCH   1  31
ATOM     31  C   UNL A   1      33.918  29.185  27.400  1.00  0.00     0.188 C 
BRANCH  31  32
ATOM     32  C   UNL A   1      34.484  30.603  27.200  1.00  0.00     0.188 C 
BRANCH  32  33
ATOM     33  O   UNL A   1      33.777  31.704  27.757  1.00  0.00    -0.376 OA
BRANCH  33  34
ATOM     34  C   UNL A   1      32.430  31.909  27.345  1.00  0.00     0.202 C 
BRANCH  34  35
ATOM     35  C   UNL A   1      31.979  33.366  27.392  1.00  0.00     0.261 C 
BRANCH  35  36
ATOM     36  O   UNL A   1      33.109  34.256  27.476  1.00  0.00    -0.460 OA
BRANCH  36  37
ATOM     37  C   UNL A   1      33.191  34.995  28.600  1.00  0.00     0.338 C 
ATOM     38  O   UNL A   1      32.428  35.879  28.972  1.00  0.00    -0.246 OA
BRANCH  37  39
ATOM     39  C   UNL A   1      34.283  34.495  29.451  1.00  0.00     0.060 A 
ATOM     40  C   UNL A   1      35.592  34.622  28.976  1.00  0.00     0.016 A 
ATOM     41  C   UNL A   1      34.024  33.813  30.643  1.00  0.00     0.016 A 
ATOM     42  C   UNL A   1      36.648  34.028  29.668  1.00  0.00     0.010 A 
ATOM     43  C   UNL A   1      35.083  33.208  31.330  1.00  0.00     0.010 A 
ATOM     44  C   UNL A   1      36.395  33.286  30.829  1.00  0.00    -0.014 A 
BRANCH  44  45
ATOM     45  C   UNL A   1      37.475  32.457  31.420  1.00  0.00     0.031 A 
ATOM     46  C   UNL A   1      37.985  32.800  32.792  1.00  0.00     0.074 A 
ATOM     47  C   UNL A   1      37.972  31.390  30.769  1.00  0.00     0.049 A 
ATOM     48  N   UNL A   1      38.988  32.289  33.460  1.00  0.00    -0.248 NA
ATOM     49  C   UNL A   1      37.259  33.859  33.511  1.00  0.00     0.031 C 
ATOM     50  C   UNL A   1      37.508  30.897  29.475  1.00  0.00     0.029 A 
ATOM     51  N   UNL A   1      38.985  30.530  31.117  1.00  0.00    -0.354 N 
ATOM     52  C   UNL A   1      39.026  32.976  34.666  1.00  0.00     0.074 A 
ATOM     53  C   UNL A   1      37.950  33.944  34.638  1.00  0.00     0.031 C 
ATOM     54  C   UNL A   1      38.244  29.826  29.130  1.00  0.00     0.029 A 
ATOM     55  C   UNL A   1      39.259  29.590  30.155  1.00  0.00     0.049 A 
ATOM     56  H   UNL A   1      39.467  30.583  31.973  1.00  0.00     0.167 HD
ATOM     57  C   UNL A   1      39.882  32.816  35.703  1.00  0.00     0.037 A 
ATOM     58  C   UNL A   1      40.242  28.668  30.095  1.00  0.00     0.037 A 
ATOM     59  C   UNL A   1      40.950  31.852  35.737  1.00  0.00     0.049 A 
ATOM     60  C   UNL A   1      41.241  28.573  31.221  1.00  0.00     0.074 A 
ATOM     61  C   UNL A   1      41.881  31.629  36.735  1.00  0.00     0.029 A 
ATOM     62  N   UNL A   1      41.226  30.948  34.722  1.00  0.00    -0.354 N 
ATOM     63  N   UNL A   1      41.293  29.246  32.345  1.00  0.00    -0.248 NA
ATOM     64  C   UNL A   1      42.327  27.593  31.062  1.00  0.00     0.031 C 
ATOM     65  C   UNL A   1      42.747  30.617  36.308  1.00  0.00     0.029 A 
ATOM     66  C   UNL A   1      42.326  30.179  35.063  1.00  0.00     0.049 A 
ATOM     67  H   UNL A   1      40.716  30.866  33.884  1.00  0.00     0.167 HD
ATOM     68  C   UNL A   1      42.398  28.760  33.033  1.00  0.00     0.074 A 
ATOM     69  C   UNL A   1      42.980  27.722  32.209  1.00  0.00     0.031 C 
ATOM     70  C   UNL A   1      42.887  29.139  34.238  1.00  0.00     0.037 A 
BRANCH  57  71
ATOM     71  C   UNL A   1      39.726  33.739  36.873  1.00  0.00     0.064 A 
ATOM     72  C   UNL A   1      40.367  34.986  36.922  1.00  0.00     0.173 A 
ATOM     73  C   UNL A   1      38.903  33.380  37.951  1.00  0.00     0.173 A 
ATOM     74  F   UNL A   1      41.178  35.367  35.925  1.00  0.00    -0.203 F 
ATOM     75  C   UNL A   1      40.204  35.829  38.019  1.00  0.00     0.198 A 
ATOM     76  C   UNL A   1      38.723  34.235  39.033  1.00  0.00     0.198 A 
ATOM     77  F   UNL A   1      38.267  32.198  37.950  1.00  0.00    -0.203 F 
ATOM     78  F   UNL A   1      40.860  36.998  38.065  1.00  0.00    -0.200 F 
ATOM     79  C   UNL A   1      39.379  35.456  39.069  1.00  0.00     0.200 A 
ATOM     80  F   UNL A   1      37.918  33.878  40.043  1.00  0.00    -0.200 F 
ATOM     81  F   UNL A   1      39.222  36.271  40.122  1.00  0.00    -0.200 F 
ENDBRANCH  57  71
BRANCH  58  82
ATOM     82  C   UNL A   1      40.365  27.785  28.906  1.00  0.00     0.064 A 
ATOM     83  C   UNL A   1      41.135  28.164  27.798  1.00  0.00     0.173 A 
ATOM     84  C   UNL A   1      39.678  26.563  28.836  1.00  0.00     0.173 A 
ATOM     85  F   UNL A   1      41.783  29.338  27.805  1.00  0.00    -0.203 F 
ATOM     86  C   UNL A   1      41.200  27.363  26.660  1.00  0.00     0.198 A 
ATOM     87  C   UNL A   1      39.767  25.749  27.709  1.00  0.00     0.198 A 
ATOM     88  F   UNL A   1      38.918  26.160  29.866  1.00  0.00    -0.203 F 
ATOM     89  F   UNL A   1      41.901  27.773  25.595  1.00  0.00    -0.200 F 
ATOM     90  C   UNL A   1      40.521  26.154  26.618  1.00  0.00     0.200 A 
ATOM     91  F   UNL A   1      39.114  24.580  27.677  1.00  0.00    -0.200 F 
ATOM     92  F   UNL A   1      40.581  25.387  25.521  1.00  0.00    -0.200 F 
ENDBRANCH  58  82
BRANCH  70  93
ATOM     93  C   UNL A   1      44.091  28.409  34.759  1.00  0.00     0.064 A 
ATOM     94  C   UNL A   1      45.392  28.889  34.547  1.00  0.00     0.173 A 
ATOM     95  C   UNL A   1      43.936  27.242  35.522  1.00  0.00     0.173 A 
ATOM     96  F   UNL A   1      45.592  29.992  33.813  1.00  0.00    -0.203 F 
ATOM     97  C   UNL A   1      46.496  28.214  35.063  1.00  0.00     0.198 A 
ATOM     98  C   UNL A   1      45.042  26.585  36.059  1.00  0.00     0.198 A 
ATOM     99  F   UNL A   1      42.713  26.746  35.760  1.00  0.00    -0.203 F 
ATOM    100  F   UNL A   1      47.732  28.667  34.814  1.00  0.00    -0.200 F 
ATOM    101  C   UNL A   1      46.319  27.067  35.824  1.00  0.00     0.200 A 
ATOM    102  F   UNL A   1      44.868  25.484  36.804  1.00  0.00    -0.200 F 
ATOM    103  F   UNL A   1      47.382  26.426  36.326  1.00  0.00    -0.200 F 
ENDBRANCH  70  93
ENDBRANCH  44  45
ENDBRANCH  37  39
ENDBRANCH  36  37
ENDBRANCH  35  36
ENDBRANCH  34  35
ENDBRANCH  33  34
ENDBRANCH  32  33
ENDBRANCH  31  32
ENDBRANCH   1  31
TORSDOF 22
ENDMDL
MODEL 2
REMARK VINA RESULT:     -10.8      0.753      7.036
REMARK SMILES CC(C)CC(=O)Nc1ccc(NC(=O)[C@@H]2CCCC[C@@H]2C(=O)OCCOCCOCCOC(=O)c2ccc(-c3c4nc(c(-c5c(F)c(F)c(F)c(F)c5F)c5ccc([nH]5)c(-c5c(F)c(F)c(F)c(F)c5F)c5nc(c(-c6c(F)c(F)c(F)c(F)c6F)c6ccc3[nH]6)C=C5)C=C4)cc2)cc1
REMARK SMILES IDX 26 1 25 2 24 3 23 4 21 5 22 6 20 7 15 8 16 9 17 10 19 11
REMARK SMILES IDX 18 12 13 13 12 14 14 16 11 17 8 18 9 19 99 20 10 21 98 22
REMARK SMILES IDX 7 23 5 24 6 25 4 27 2 28 1 29 3 30 27 31 28 32 29 33 30 34
REMARK SMILES IDX 31 35 32 36 33 37 34 38 35 39 36 40 97 41 37 42 96 43 38 44
REMARK SMILES IDX 39 45 40 46 90 47 41 48 95 49 89 50 91 51 42 52 94 53 88 54
REMARK SMILES IDX 87 55 43 57 75 58 55 59 74 60 56 61 59 62 73 63 92 64 57 65
REMARK SMILES IDX 58 66 72 68 93 69 60 70 44 71 45 72 53 73 46 74 47 75 51 76
REMARK SMILES IDX 54 77 48 78 49 79 52 80 50 81 76 82 77 83 85 84 78 85 79 86
REMARK SMILES IDX 83 87 86 88 80 89 81 90 84 91 82 92 61 93 62 94 70 95 63 96
REMARK SMILES IDX 64 97 68 98 71 99 65 100 66 101 69 102 67 103
REMARK H PARENT 12 15 7 26 91 56 59 67
REMARK Flexibility Score: inf
ROOT
ATOM      1  O   UNL A   1      33.908  28.510  26.452  1.00  0.00    -0.376 OA
ENDROOT
BRANCH   1   2
ATOM      2  C   UNL A   1      33.617  29.251  25.275  1.00  0.00     0.202 C 
BRANCH   2   3
ATOM      3  C   UNL A   1      32.139  29.420  24.935  1.00  0.00     0.261 C 
BRANCH   3   4
ATOM      4  O   UNL A   1      31.363  28.216  25.088  1.00  0.00    -0.463 OA
BRANCH   4   5
ATOM      5  C   UNL A   1      30.584  27.868  24.036  1.00  0.00     0.309 C 
ATOM      6  O   UNL A   1      29.797  28.639  23.496  1.00  0.00    -0.252 OA
BRANCH   5   7
ATOM      7  C   UNL A   1      30.686  26.380  23.675  1.00  0.00     0.111 C 
ATOM      8  C   UNL A   1      31.348  25.405  24.675  1.00  0.00     0.093 C 
ATOM      9  C   UNL A   1      32.818  25.780  24.908  1.00  0.00     0.014 C 
ATOM     10  C   UNL A   1      33.600  25.669  23.606  1.00  0.00     0.001 C 
ATOM     11  C   UNL A   1      31.476  26.261  22.342  1.00  0.00     0.016 C 
ATOM     12  C   UNL A   1      32.977  26.533  22.516  1.00  0.00     0.001 C 
BRANCH   8  13
ATOM     13  C   UNL A   1      30.572  25.123  25.955  1.00  0.00     0.228 C 
ATOM     14  N   UNL A   1      30.976  24.143  26.817  1.00  0.00    -0.326 N 
ATOM     15  H   UNL A   1      30.624  24.264  27.730  1.00  0.00     0.169 HD
ATOM     16  O   UNL A   1      29.570  25.767  26.263  1.00  0.00    -0.274 OA
BRANCH  14  17
ATOM     17  C   UNL A   1      31.783  22.998  26.686  1.00  0.00     0.041 A 
ATOM     18  C   UNL A   1      33.470  20.835  26.087  1.00  0.00     0.041 A 
ATOM     19  C   UNL A   1      33.651  21.537  27.269  1.00  0.00     0.028 A 
ATOM     20  C   UNL A   1      32.380  21.128  25.273  1.00  0.00     0.028 A 
ATOM     21  C   UNL A   1      32.828  22.639  27.546  1.00  0.00     0.028 A 
ATOM     22  C   UNL A   1      31.553  22.212  25.556  1.00  0.00     0.028 A 
BRANCH  18  23
ATOM     23  N   UNL A   1      34.405  19.876  25.691  1.00  0.00    -0.326 N 
ATOM     24  C   UNL A   1      35.668  20.136  25.205  1.00  0.00     0.224 C 
ATOM     25  O   UNL A   1      36.287  19.260  24.600  1.00  0.00    -0.275 OA
ATOM     26  H   UNL A   1      34.139  18.931  25.765  1.00  0.00     0.169 HD
BRANCH  24  27
ATOM     27  C   UNL A   1      36.345  21.436  25.643  1.00  0.00     0.103 C 
BRANCH  27  28
ATOM     28  C   UNL A   1      36.690  22.425  24.522  1.00  0.00    -0.008 C 
ATOM     29  C   UNL A   1      35.471  22.794  23.678  1.00  0.00     0.008 C 
ATOM     30  C   UNL A   1      37.269  23.703  25.138  1.00  0.00     0.008 C 
ENDBRANCH  27  28
ENDBRANCH  24  27
ENDBRANCH  18  23
ENDBRANCH  14  17
ENDBRANCH   8  13
ENDBRANCH   5   7
ENDBRANCH   4   5
ENDBRANCH   3   4
ENDBRANCH   2   3
ENDBRANCH   1   2
BRANCH   1  31
ATOM     31  C   UNL A   1      34.742  29.115  27.433  1.00  0.00     0.188 C 
BRANCH  31  32
ATOM     32  C   UNL A   1      35.172  30.580  27.232  1.00  0.00     0.188 C 
BRANCH  32  33
ATOM     33  O   UNL A   1      34.435  31.603  27.891  1.00  0.00    -0.376 OA
BRANCH  33  34
ATOM     34  C   UNL A   1      33.031  31.664  27.664  1.00  0.00     0.202 C 
BRANCH  34  35
ATOM     35  C   UNL A   1      32.524  33.048  27.267  1.00  0.00     0.261 C 
BRANCH  35  36
ATOM     36  O   UNL A   1      33.512  34.060  27.540  1.00  0.00    -0.460 OA
BRANCH  36  37
ATOM     37  C   UNL A   1      33.378  34.708  28.715  1.00  0.00     0.338 C 
ATOM     38  O   UNL A   1      32.427  35.381  29.093  1.00  0.00    -0.246 OA
BRANCH  37  39
ATOM     39  C   UNL A   1      34.507  34.379  29.601  1.00  0.00     0.060 A 
ATOM     40  C   UNL A   1      35.802  34.563  29.106  1.00  0.00     0.016 A 
ATOM     41  C   UNL A   1      34.303  33.798  30.855  1.00  0.00     0.016 A 
ATOM     42  C   UNL A   1      36.901  34.124  29.842  1.00  0.00     0.010 A 
ATOM     43  C   UNL A   1      35.407  33.348  31.589  1.00  0.00     0.010 A 
ATOM     44  C   UNL A   1      36.709  33.479  31.071  1.00  0.00    -0.014 A 
BRANCH  44  45
ATOM     45  C   UNL A   1      37.851  32.799  31.730  1.00  0.00     0.031 A 
ATOM     46  C   UNL A   1      38.484  31.619  31.047  1.00  0.00     0.074 A 
ATOM     47  C   UNL A   1      38.348  33.242  32.898  1.00  0.00     0.049 A 
ATOM     48  N   UNL A   1      39.416  30.807  31.480  1.00  0.00    -0.248 NA
ATOM     49  C   UNL A   1      38.007  31.318  29.689  1.00  0.00     0.031 C 
ATOM     50  C   UNL A   1      37.884  34.424  33.621  1.00  0.00     0.029 A 
ATOM     51  N   UNL A   1      39.358  32.739  33.682  1.00  0.00    -0.354 N 
ATOM     52  C   UNL A   1      39.622  29.891  30.457  1.00  0.00     0.074 A 
ATOM     53  C   UNL A   1      38.716  30.241  29.384  1.00  0.00     0.031 C 
ATOM     54  C   UNL A   1      38.601  34.549  34.751  1.00  0.00     0.029 A 
ATOM     55  C   UNL A   1      39.538  33.432  34.854  1.00  0.00     0.049 A 
ATOM     56  H   UNL A   1      39.899  31.958  33.428  1.00  0.00     0.167 HD
ATOM     57  C   UNL A   1      40.486  28.850  30.418  1.00  0.00     0.037 A 
ATOM     58  C   UNL A   1      40.343  33.169  35.904  1.00  0.00     0.037 A 
ATOM     59  C   UNL A   1      41.392  28.501  31.479  1.00  0.00     0.049 A 
ATOM     60  C   UNL A   1      41.229  31.949  35.874  1.00  0.00     0.074 A 
ATOM     61  C   UNL A   1      42.292  27.452  31.539  1.00  0.00     0.029 A 
ATOM     62  N   UNL A   1      41.512  29.199  32.673  1.00  0.00    -0.354 N 
ATOM     63  N   UNL A   1      41.397  31.067  34.919  1.00  0.00    -0.248 NA
ATOM     64  C   UNL A   1      42.031  31.684  37.079  1.00  0.00     0.031 C 
ATOM     65  C   UNL A   1      42.929  27.490  32.784  1.00  0.00     0.029 A 
ATOM     66  C   UNL A   1      42.458  28.591  33.481  1.00  0.00     0.049 A 
ATOM     67  H   UNL A   1      41.001  30.006  32.908  1.00  0.00     0.167 HD
ATOM     68  C   UNL A   1      42.334  30.158  35.396  1.00  0.00     0.074 A 
ATOM     69  C   UNL A   1      42.713  30.605  36.720  1.00  0.00     0.031 C 
ATOM     70  C   UNL A   1      42.835  29.053  34.792  1.00  0.00     0.037 A 
BRANCH  57  71
ATOM     71  C   UNL A   1      40.462  27.981  29.197  1.00  0.00     0.064 A 
ATOM     72  C   UNL A   1      39.658  26.834  29.121  1.00  0.00     0.173 A 
ATOM     73  C   UNL A   1      41.236  28.316  28.076  1.00  0.00     0.173 A 
ATOM     74  F   UNL A   1      38.913  26.462  30.173  1.00  0.00    -0.203 F 
ATOM     75  C   UNL A   1      39.648  26.043  27.975  1.00  0.00     0.198 A 
ATOM     76  C   UNL A   1      41.205  27.537  26.924  1.00  0.00     0.198 A 
ATOM     77  F   UNL A   1      42.020  29.405  28.098  1.00  0.00    -0.203 F 
ATOM     78  F   UNL A   1      38.905  24.927  27.939  1.00  0.00    -0.200 F 
ATOM     79  C   UNL A   1      40.416  26.398  26.876  1.00  0.00     0.200 A 
ATOM     80  F   UNL A   1      41.941  27.887  25.859  1.00  0.00    -0.200 F 
ATOM     81  F   UNL A   1      40.403  25.637  25.773  1.00  0.00    -0.200 F 
ENDBRANCH  57  71
BRANCH  58  82
ATOM     82  C   UNL A   1      40.321  34.053  37.099  1.00  0.00     0.064 A 
ATOM     83  C   UNL A   1      39.361  33.885  38.107  1.00  0.00     0.173 A 
ATOM     84  C   UNL A   1      41.233  35.110  37.236  1.00  0.00     0.173 A 
ATOM     85  F   UNL A   1      38.448  32.908  38.004  1.00  0.00    -0.203 F 
ATOM     86  C   UNL A   1      39.304  34.751  39.197  1.00  0.00     0.198 A 
ATOM     87  C   UNL A   1      41.193  35.958  38.340  1.00  0.00     0.198 A 
ATOM     88  F   UNL A   1      42.164  35.320  36.294  1.00  0.00    -0.203 F 
ATOM     89  F   UNL A   1      38.344  34.601  40.118  1.00  0.00    -0.200 F 
ATOM     90  C   UNL A   1      40.223  35.783  39.315  1.00  0.00     0.200 A 
ATOM     91  F   UNL A   1      42.086  36.949  38.454  1.00  0.00    -0.200 F 
ATOM     92  F   UNL A   1      40.164  36.619  40.362  1.00  0.00    -0.200 F 
ENDBRANCH  58  82
BRANCH  70  93
ATOM     93  C   UNL A   1      43.873  28.266  35.538  1.00  0.00     0.064 A 
ATOM     94  C   UNL A   1      45.239  28.568  35.438  1.00  0.00     0.173 A 
ATOM     95  C   UNL A   1      43.489  27.229  36.402  1.00  0.00     0.173 A 
ATOM     96  F   UNL A   1      45.656  29.541  34.615  1.00  0.00    -0.203 F 
ATOM     97  C   UNL A   1      46.186  27.845  36.160  1.00  0.00     0.198 A 
ATOM     98  C   UNL A   1      44.437  26.526  37.143  1.00  0.00     0.198 A 
ATOM     99  F   UNL A   1      42.195  26.905  36.539  1.00  0.00    -0.203 F 
ATOM    100  F   UNL A   1      47.488  28.123  36.019  1.00  0.00    -0.200 F 
ATOM    101  C   UNL A   1      45.783  26.831  37.017  1.00  0.00     0.200 A 
ATOM    102  F   UNL A   1      44.046  25.554  37.979  1.00  0.00    -0.200 F 
ATOM    103  F   UNL A   1      46.696  26.143  37.717  1.00  0.00    -0.200 F 
ENDBRANCH  70  93
ENDBRANCH  44  45
ENDBRANCH  37  39
ENDBRANCH  36  37
ENDBRANCH  35  36
ENDBRANCH  34  35
ENDBRANCH  33  34
ENDBRANCH  32  33
ENDBRANCH  31  32
ENDBRANCH   1  31
TORSDOF 22
ENDMDL
MODEL 3
REMARK VINA RESULT:     -10.5      5.070     10.680
REMARK SMILES CC(C)CC(=O)Nc1ccc(NC(=O)[C@@H]2CCCC[C@@H]2C(=O)OCCOCCOCCOC(=O)c2ccc(-c3c4nc(c(-c5c(F)c(F)c(F)c(F)c5F)c5ccc([nH]5)c(-c5c(F)c(F)c(F)c(F)c5F)c5nc(c(-c6c(F)c(F)c(F)c(F)c6F)c6ccc3[nH]6)C=C5)C=C4)cc2)cc1
REMARK SMILES IDX 26 1 25 2 24 3 23 4 21 5 22 6 20 7 15 8 16 9 17 10 19 11
REMARK SMILES IDX 18 12 13 13 12 14 14 16 11 17 8 18 9 19 99 20 10 21 98 22
REMARK SMILES IDX 7 23 5 24 6 25 4 27 2 28 1 29 3 30 27 31 28 32 29 33 30 34
REMARK SMILES IDX 31 35 32 36 33 37 34 38 35 39 36 40 97 41 37 42 96 43 38 44
REMARK SMILES IDX 39 45 40 46 90 47 41 48 95 49 89 50 91 51 42 52 94 53 88 54
REMARK SMILES IDX 87 55 43 57 75 58 55 59 74 60 56 61 59 62 73 63 92 64 57 65
REMARK SMILES IDX 58 66 72 68 93 69 60 70 44 71 45 72 53 73 46 74 47 75 51 76
REMARK SMILES IDX 54 77 48 78 49 79 52 80 50 81 76 82 77 83 85 84 78 85 79 86
REMARK SMILES IDX 83 87 86 88 80 89 81 90 84 91 82 92 61 93 62 94 70 95 63 96
REMARK SMILES IDX 64 97 68 98 71 99 65 100 66 101 69 102 67 103
REMARK H PARENT 12 15 7 26 91 56 59 67
REMARK Flexibility Score: inf
ROOT
ATOM      1  O   UNL A   1      43.037  19.026  24.998  1.00  0.00    -0.376 OA
ENDROOT
BRANCH   1   2
ATOM      2  C   UNL A   1      42.312  18.518  26.110  1.00  0.00     0.202 C 
BRANCH   2   3
ATOM      3  C   UNL A   1      42.340  19.370  27.377  1.00  0.00     0.261 C 
BRANCH   3   4
ATOM      4  O   UNL A   1      41.269  20.330  27.459  1.00  0.00    -0.463 OA
BRANCH   4   5
ATOM      5  C   UNL A   1      41.586  21.608  27.145  1.00  0.00     0.309 C 
ATOM      6  O   UNL A   1      42.066  21.939  26.065  1.00  0.00    -0.252 OA
BRANCH   5   7
ATOM      7  C   UNL A   1      41.412  22.580  28.321  1.00  0.00     0.111 C 
ATOM      8  C   UNL A   1      41.142  24.074  28.030  1.00  0.00     0.093 C 
ATOM      9  C   UNL A   1      42.318  24.701  27.268  1.00  0.00     0.014 C 
ATOM     10  C   UNL A   1      43.583  24.641  28.114  1.00  0.00     0.001 C 
ATOM     11  C   UNL A   1      42.697  22.517  29.193  1.00  0.00     0.016 C 
ATOM     12  C   UNL A   1      43.897  23.209  28.531  1.00  0.00     0.001 C 
BRANCH   8  13
ATOM     13  C   UNL A   1      39.777  24.411  27.446  1.00  0.00     0.228 C 
ATOM     14  N   UNL A   1      39.290  25.687  27.492  1.00  0.00    -0.326 N 
ATOM     15  H   UNL A   1      38.589  25.856  26.820  1.00  0.00     0.169 HD
ATOM     16  O   UNL A   1      39.072  23.558  26.905  1.00  0.00    -0.274 OA
BRANCH  14  17
ATOM     17  C   UNL A   1      39.571  26.811  28.290  1.00  0.00     0.041 A 
ATOM     18  C   UNL A   1      40.206  28.816  30.151  1.00  0.00     0.041 A 
ATOM     19  C   UNL A   1      40.783  28.844  28.890  1.00  0.00     0.028 A 
ATOM     20  C   UNL A   1      39.226  27.870  30.437  1.00  0.00     0.028 A 
ATOM     21  C   UNL A   1      40.489  27.820  27.977  1.00  0.00     0.028 A 
ATOM     22  C   UNL A   1      38.923  26.863  29.525  1.00  0.00     0.028 A 
BRANCH  18  23
ATOM     23  N   UNL A   1      40.644  29.697  31.142  1.00  0.00    -0.326 N 
ATOM     24  C   UNL A   1      40.077  30.918  31.441  1.00  0.00     0.224 C 
ATOM     25  O   UNL A   1      40.709  31.744  32.100  1.00  0.00    -0.275 OA
ATOM     26  H   UNL A   1      41.425  29.423  31.673  1.00  0.00     0.169 HD
BRANCH  24  27
ATOM     27  C   UNL A   1      38.590  31.105  31.137  1.00  0.00     0.103 C 
BRANCH  27  28
ATOM     28  C   UNL A   1      38.258  31.925  29.883  1.00  0.00    -0.008 C 
ATOM     29  C   UNL A   1      37.697  31.058  28.755  1.00  0.00     0.008 C 
ATOM     30  C   UNL A   1      37.224  32.998  30.242  1.00  0.00     0.008 C 
ENDBRANCH  27  28
ENDBRANCH  24  27
ENDBRANCH  18  23
ENDBRANCH  14  17
ENDBRANCH   8  13
ENDBRANCH   5   7
ENDBRANCH   4   5
ENDBRANCH   3   4
ENDBRANCH   2   3
ENDBRANCH   1   2
BRANCH   1  31
ATOM     31  C   UNL A   1      44.436  19.231  25.151  1.00  0.00     0.188 C 
BRANCH  31  32
ATOM     32  C   UNL A   1      45.028  20.598  24.758  1.00  0.00     0.188 C 
BRANCH  32  33
ATOM     33  O   UNL A   1      44.532  21.244  23.592  1.00  0.00    -0.376 OA
BRANCH  33  34
ATOM     34  C   UNL A   1      44.505  22.667  23.579  1.00  0.00     0.202 C 
BRANCH  34  35
ATOM     35  C   UNL A   1      45.024  23.311  24.862  1.00  0.00     0.261 C 
BRANCH  35  36
ATOM     36  O   UNL A   1      44.753  24.727  24.878  1.00  0.00    -0.460 OA
BRANCH  36  37
ATOM     37  C   UNL A   1      45.835  25.530  24.903  1.00  0.00     0.338 C 
ATOM     38  O   UNL A   1      46.875  25.404  24.268  1.00  0.00    -0.246 OA
BRANCH  37  39
ATOM     39  C   UNL A   1      45.556  26.724  25.719  1.00  0.00     0.060 A 
ATOM     40  C   UNL A   1      46.605  27.260  26.472  1.00  0.00     0.016 A 
ATOM     41  C   UNL A   1      44.264  27.242  25.832  1.00  0.00     0.016 A 
ATOM     42  C   UNL A   1      46.360  28.291  27.378  1.00  0.00     0.010 A 
ATOM     43  C   UNL A   1      44.016  28.270  26.749  1.00  0.00     0.010 A 
ATOM     44  C   UNL A   1      45.057  28.777  27.550  1.00  0.00    -0.014 A 
BRANCH  44  45
ATOM     45  C   UNL A   1      44.757  29.693  28.679  1.00  0.00     0.031 A 
ATOM     46  C   UNL A   1      44.468  29.105  30.032  1.00  0.00     0.074 A 
ATOM     47  C   UNL A   1      44.779  31.028  28.520  1.00  0.00     0.049 A 
ATOM     48  N   UNL A   1      44.078  29.699  31.132  1.00  0.00    -0.248 NA
ATOM     49  C   UNL A   1      44.652  27.652  30.164  1.00  0.00     0.031 C 
ATOM     50  C   UNL A   1      45.128  31.727  27.286  1.00  0.00     0.029 A 
ATOM     51  N   UNL A   1      44.496  32.033  29.412  1.00  0.00    -0.354 N 
ATOM     52  C   UNL A   1      43.952  28.691  32.079  1.00  0.00     0.074 A 
ATOM     53  C   UNL A   1      44.301  27.447  31.425  1.00  0.00     0.031 C 
ATOM     54  C   UNL A   1      45.027  33.051  27.495  1.00  0.00     0.029 A 
ATOM     55  C   UNL A   1      44.560  33.289  28.860  1.00  0.00     0.049 A 
ATOM     56  H   UNL A   1      44.268  31.869  30.355  1.00  0.00     0.167 HD
ATOM     57  C   UNL A   1      43.575  28.793  33.375  1.00  0.00     0.037 A 
ATOM     58  C   UNL A   1      44.242  34.488  29.389  1.00  0.00     0.037 A 
ATOM     59  C   UNL A   1      43.233  30.027  34.031  1.00  0.00     0.049 A 
ATOM     60  C   UNL A   1      43.736  34.565  30.807  1.00  0.00     0.074 A 
ATOM     61  C   UNL A   1      42.821  30.228  35.336  1.00  0.00     0.029 A 
ATOM     62  N   UNL A   1      43.264  31.275  33.424  1.00  0.00    -0.354 N 
ATOM     63  N   UNL A   1      43.586  33.606  31.688  1.00  0.00    -0.248 NA
ATOM     64  C   UNL A   1      43.343  35.894  31.300  1.00  0.00     0.031 C 
ATOM     65  C   UNL A   1      42.564  31.592  35.509  1.00  0.00     0.029 A 
ATOM     66  C   UNL A   1      42.860  32.246  34.325  1.00  0.00     0.049 A 
ATOM     67  H   UNL A   1      43.533  31.443  32.493  1.00  0.00     0.167 HD
ATOM     68  C   UNL A   1      43.104  34.215  32.841  1.00  0.00     0.074 A 
ATOM     69  C   UNL A   1      43.002  35.630  32.554  1.00  0.00     0.031 C 
ATOM     70  C   UNL A   1      42.775  33.653  34.029  1.00  0.00     0.037 A 
BRANCH  57  71
ATOM     71  C   UNL A   1      43.471  27.522  34.164  1.00  0.00     0.064 A 
ATOM     72  C   UNL A   1      44.594  26.926  34.756  1.00  0.00     0.173 A 
ATOM     73  C   UNL A   1      42.225  26.907  34.350  1.00  0.00     0.173 A 
ATOM     74  F   UNL A   1      45.810  27.467  34.592  1.00  0.00    -0.203 F 
ATOM     75  C   UNL A   1      44.474  25.746  35.487  1.00  0.00     0.198 A 
ATOM     76  C   UNL A   1      42.105  25.743  35.102  1.00  0.00     0.198 A 
ATOM     77  F   UNL A   1      41.120  27.440  33.805  1.00  0.00    -0.203 F 
ATOM     78  F   UNL A   1      45.566  25.169  36.009  1.00  0.00    -0.200 F 
ATOM     79  C   UNL A   1      43.230  25.160  35.665  1.00  0.00     0.200 A 
ATOM     80  F   UNL A   1      40.900  25.182  35.280  1.00  0.00    -0.200 F 
ATOM     81  F   UNL A   1      43.115  24.027  36.372  1.00  0.00    -0.200 F 
ENDBRANCH  57  71
BRANCH  58  82
ATOM     82  C   UNL A   1      44.348  35.719  28.562  1.00  0.00     0.064 A 
ATOM     83  C   UNL A   1      43.233  36.241  27.893  1.00  0.00     0.173 A 
ATOM     84  C   UNL A   1      45.577  36.373  28.390  1.00  0.00     0.173 A 
ATOM     85  F   UNL A   1      42.043  35.631  28.000  1.00  0.00    -0.203 F 
ATOM     86  C   UNL A   1      43.346  37.359  27.070  1.00  0.00     0.198 A 
ATOM     87  C   UNL A   1      45.684  37.509  27.590  1.00  0.00     0.198 A 
ATOM     88  F   UNL A   1      46.678  35.908  29.000  1.00  0.00    -0.203 F 
ATOM     89  F   UNL A   1      42.275  37.806  26.400  1.00  0.00    -0.200 F 
ATOM     90  C   UNL A   1      44.570  37.995  26.923  1.00  0.00     0.200 A 
ATOM     91  F   UNL A   1      46.866  38.123  27.457  1.00  0.00    -0.200 F 
ATOM     92  F   UNL A   1      44.678  39.069  26.128  1.00  0.00    -0.200 F 
ENDBRANCH  58  82
BRANCH  70  93
ATOM     93  C   UNL A   1      42.306  34.569  35.123  1.00  0.00     0.064 A 
ATOM     94  C   UNL A   1      40.953  34.907  35.270  1.00  0.00     0.173 A 
ATOM     95  C   UNL A   1      43.217  35.072  36.064  1.00  0.00     0.173 A 
ATOM     96  F   UNL A   1      40.047  34.463  34.387  1.00  0.00    -0.203 F 
ATOM     97  C   UNL A   1      40.532  35.735  36.308  1.00  0.00     0.198 A 
ATOM     98  C   UNL A   1      42.787  35.878  37.117  1.00  0.00     0.198 A 
ATOM     99  F   UNL A   1      44.521  34.772  35.973  1.00  0.00    -0.203 F 
ATOM    100  F   UNL A   1      39.240  36.079  36.406  1.00  0.00    -0.200 F 
ATOM    101  C   UNL A   1      41.448  36.213  37.234  1.00  0.00     0.200 A 
ATOM    102  F   UNL A   1      43.671  36.329  38.017  1.00  0.00    -0.200 F 
ATOM    103  F   UNL A   1      41.038  37.001  38.236  1.00  0.00    -0.200 F 
ENDBRANCH  70  93
ENDBRANCH  44  45
ENDBRANCH  37  39
ENDBRANCH  36  37
ENDBRANCH  35  36
ENDBRANCH  34  35
ENDBRANCH  33  34
ENDBRANCH  32  33
ENDBRANCH  31  32
ENDBRANCH   1  31
TORSDOF 22
ENDMDL
