MODEL 1
REMARK VINA RESULT:      -8.6      0.000      0.000
REMARK SMILES CN(CCOCC1CC1)C(=O)N1CC[C@](C)(C(=O)OCCOCCOCCOC(=O)c2ccc(-c3c4nc(c(-c5c(F)c(F)c(F)c(F)c5F)c5ccc([nH]5)c(-c5c(F)c(F)c(F)c(F)c5F)c5nc(c(-c6c(F)c(F)c(F)c(F)c6F)c6ccc3[nH]6)C=C5)C=C4)cc2)C1
REMARK SMILES IDX 21 1 20 2 19 3 17 4 18 5 15 6 12 7 13 8 94 9 14 10 16 11
REMARK SMILES IDX 10 12 11 13 2 14 1 15 3 16 4 17 5 18 6 19 7 20 8 21 9 22
REMARK SMILES IDX 22 23 23 24 24 25 25 26 26 27 27 28 28 29 29 30 30 31 31 32
REMARK SMILES IDX 32 33 93 34 33 35 92 36 34 37 35 38 36 39 86 40 37 41 91 42
REMARK SMILES IDX 85 43 87 44 38 45 90 46 84 47 83 48 39 50 71 51 51 52 70 53
REMARK SMILES IDX 52 54 55 55 69 56 88 57 53 58 54 59 68 61 89 62 56 63 40 64
REMARK SMILES IDX 41 65 49 66 42 67 43 68 47 69 50 70 44 71 45 72 48 73 46 74
REMARK SMILES IDX 72 75 73 76 81 77 74 78 75 79 79 80 82 81 76 82 77 83 80 84
REMARK SMILES IDX 78 85 57 86 58 87 66 88 59 89 60 90 64 91 67 92 61 93 62 94
REMARK SMILES IDX 65 95 63 96
REMARK H PARENT 87 49 55 60
REMARK Flexibility Score: inf
ROOT
ATOM      1  C   UNL A   1      45.869  18.894  25.361  1.00  0.00     0.202 C 
ENDROOT
BRANCH   1   2
ATOM      2  C   UNL A   1      46.300  20.200  24.680  1.00  0.00     0.261 C 
BRANCH   2   3
ATOM      3  O   UNL A   1      46.070  21.413  25.434  1.00  0.00    -0.463 OA
BRANCH   3   4
ATOM      4  C   UNL A   1      45.009  22.144  25.013  1.00  0.00     0.313 C 
ATOM      5  O   UNL A   1      44.146  21.717  24.249  1.00  0.00    -0.252 OA
BRANCH   4   6
ATOM      6  C   UNL A   1      44.994  23.598  25.480  1.00  0.00     0.084 C 
ATOM      7  N   UNL A   1      46.382  25.499  26.063  1.00  0.00    -0.323 N 
ATOM      8  C   UNL A   1      45.785  24.977  27.284  1.00  0.00     0.122 C 
ATOM      9  C   UNL A   1      46.003  24.630  24.922  1.00  0.00     0.139 C 
ATOM     10  C   UNL A   1      45.366  23.566  26.969  1.00  0.00     0.042 C 
ATOM     11  C   UNL A   1      43.559  24.103  25.257  1.00  0.00     0.026 C 
BRANCH   7  12
ATOM     12  C   UNL A   1      47.129  26.642  26.222  1.00  0.00     0.319 C 
ATOM     13  O   UNL A   1      48.363  26.523  26.258  1.00  0.00    -0.248 OA
BRANCH  12  14
ATOM     14  N   UNL A   1      46.591  27.905  26.326  1.00  0.00    -0.325 N 
ATOM     15  C   UNL A   1      45.264  28.100  25.721  1.00  0.00     0.148 C 
BRANCH  14  16
ATOM     16  C   UNL A   1      47.145  29.115  26.932  1.00  0.00     0.149 C 
BRANCH  16  17
ATOM     17  C   UNL A   1      46.218  30.343  26.877  1.00  0.00     0.181 C 
BRANCH  17  18
ATOM     18  O   UNL A   1      46.798  31.452  26.190  1.00  0.00    -0.379 OA
BRANCH  18  19
ATOM     19  C   UNL A   1      46.069  32.666  26.356  1.00  0.00     0.163 C 
BRANCH  19  20
ATOM     20  C   UNL A   1      45.911  32.992  27.804  1.00  0.00     0.015 C 
ATOM     21  C   UNL A   1      45.875  34.425  28.270  1.00  0.00     0.006 C 
ATOM     22  C   UNL A   1      44.617  33.608  28.271  1.00  0.00     0.006 C 
ENDBRANCH  19  20
ENDBRANCH  18  19
ENDBRANCH  17  18
ENDBRANCH  16  17
ENDBRANCH  14  16
ENDBRANCH  12  14
ENDBRANCH   7  12
ENDBRANCH   4   6
ENDBRANCH   3   4
ENDBRANCH   2   3
ENDBRANCH   1   2
BRANCH   1  23
ATOM     23  O   UNL A   1      44.590  18.410  24.992  1.00  0.00    -0.376 OA
BRANCH  23  24
ATOM     24  C   UNL A   1      43.557  18.356  25.970  1.00  0.00     0.188 C 
BRANCH  24  25
ATOM     25  C   UNL A   1      42.516  19.481  26.068  1.00  0.00     0.188 C 
BRANCH  25  26
ATOM     26  O   UNL A   1      41.197  19.058  25.738  1.00  0.00    -0.376 OA
BRANCH  26  27
ATOM     27  C   UNL A   1      40.176  19.997  26.054  1.00  0.00     0.202 C 
BRANCH  27  28
ATOM     28  C   UNL A   1      40.758  21.206  26.776  1.00  0.00     0.261 C 
BRANCH  28  29
ATOM     29  O   UNL A   1      40.433  22.399  26.037  1.00  0.00    -0.460 OA
BRANCH  29  30
ATOM     30  C   UNL A   1      39.276  23.020  26.328  1.00  0.00     0.338 C 
ATOM     31  O   UNL A   1      38.147  22.612  26.127  1.00  0.00    -0.246 OA
BRANCH  30  32
ATOM     32  C   UNL A   1      39.585  24.354  26.891  1.00  0.00     0.060 A 
ATOM     33  C   UNL A   1      40.202  25.359  26.135  1.00  0.00     0.016 A 
ATOM     34  C   UNL A   1      39.300  24.573  28.237  1.00  0.00     0.016 A 
ATOM     35  C   UNL A   1      40.567  26.570  26.729  1.00  0.00     0.010 A 
ATOM     36  C   UNL A   1      39.627  25.797  28.821  1.00  0.00     0.010 A 
ATOM     37  C   UNL A   1      40.284  26.796  28.080  1.00  0.00    -0.014 A 
BRANCH  37  38
ATOM     38  C   UNL A   1      40.717  28.029  28.783  1.00  0.00     0.031 A 
ATOM     39  C   UNL A   1      42.087  28.075  29.395  1.00  0.00     0.074 A 
ATOM     40  C   UNL A   1      39.875  29.064  28.946  1.00  0.00     0.049 A 
ATOM     41  N   UNL A   1      42.569  28.890  30.296  1.00  0.00    -0.248 NA
ATOM     42  C   UNL A   1      43.037  27.050  28.936  1.00  0.00     0.031 C 
ATOM     43  C   UNL A   1      38.546  29.181  28.349  1.00  0.00     0.029 A 
ATOM     44  N   UNL A   1      40.006  30.202  29.704  1.00  0.00    -0.354 N 
ATOM     45  C   UNL A   1      43.863  28.453  30.545  1.00  0.00     0.074 A 
ATOM     46  C   UNL A   1      44.092  27.301  29.698  1.00  0.00     0.031 C 
ATOM     47  C   UNL A   1      37.971  30.314  28.787  1.00  0.00     0.029 A 
ATOM     48  C   UNL A   1      38.863  30.962  29.745  1.00  0.00     0.049 A 
ATOM     49  H   UNL A   1      40.837  30.449  30.172  1.00  0.00     0.167 HD
ATOM     50  C   UNL A   1      44.771  28.964  31.410  1.00  0.00     0.037 A 
ATOM     51  C   UNL A   1      38.549  32.022  30.516  1.00  0.00     0.037 A 
ATOM     52  C   UNL A   1      44.545  30.124  32.231  1.00  0.00     0.049 A 
ATOM     53  C   UNL A   1      39.546  32.528  31.525  1.00  0.00     0.074 A 
ATOM     54  C   UNL A   1      45.408  30.728  33.129  1.00  0.00     0.029 A 
ATOM     55  N   UNL A   1      43.371  30.862  32.247  1.00  0.00    -0.354 N 
ATOM     56  N   UNL A   1      40.752  32.090  31.792  1.00  0.00    -0.248 NA
ATOM     57  C   UNL A   1      39.127  33.667  32.355  1.00  0.00     0.031 C 
ATOM     58  C   UNL A   1      44.741  31.808  33.720  1.00  0.00     0.029 A 
ATOM     59  C   UNL A   1      43.480  31.904  33.154  1.00  0.00     0.049 A 
ATOM     60  H   UNL A   1      42.577  30.673  31.697  1.00  0.00     0.167 HD
ATOM     61  C   UNL A   1      41.244  32.913  32.796  1.00  0.00     0.074 A 
ATOM     62  C   UNL A   1      40.210  33.884  33.087  1.00  0.00     0.031 C 
ATOM     63  C   UNL A   1      42.445  32.869  33.422  1.00  0.00     0.037 A 
BRANCH  50  64
ATOM     64  C   UNL A   1      46.082  28.251  31.544  1.00  0.00     0.064 A 
ATOM     65  C   UNL A   1      46.224  27.106  32.342  1.00  0.00     0.173 A 
ATOM     66  C   UNL A   1      47.202  28.696  30.826  1.00  0.00     0.173 A 
ATOM     67  F   UNL A   1      45.186  26.651  33.060  1.00  0.00    -0.203 F 
ATOM     68  C   UNL A   1      47.445  26.441  32.426  1.00  0.00     0.198 A 
ATOM     69  C   UNL A   1      48.415  28.014  30.893  1.00  0.00     0.198 A 
ATOM     70  F   UNL A   1      47.117  29.785  30.047  1.00  0.00    -0.203 F 
ATOM     71  F   UNL A   1      47.569  25.371  33.222  1.00  0.00    -0.200 F 
ATOM     72  C   UNL A   1      48.535  26.892  31.696  1.00  0.00     0.200 A 
ATOM     73  F   UNL A   1      49.464  28.444  30.179  1.00  0.00    -0.200 F 
ATOM     74  F   UNL A   1      49.706  26.244  31.771  1.00  0.00    -0.200 F 
ENDBRANCH  50  64
BRANCH  51  75
ATOM     75  C   UNL A   1      37.206  32.648  30.403  1.00  0.00     0.064 A 
ATOM     76  C   UNL A   1      36.208  32.383  31.351  1.00  0.00     0.173 A 
ATOM     77  C   UNL A   1      36.886  33.503  29.338  1.00  0.00     0.173 A 
ATOM     78  F   UNL A   1      36.457  31.545  32.369  1.00  0.00    -0.203 F 
ATOM     79  C   UNL A   1      34.935  32.937  31.228  1.00  0.00     0.198 A 
ATOM     80  C   UNL A   1      35.623  34.079  29.233  1.00  0.00     0.198 A 
ATOM     81  F   UNL A   1      37.805  33.781  28.402  1.00  0.00    -0.203 F 
ATOM     82  F   UNL A   1      33.984  32.628  32.120  1.00  0.00    -0.200 F 
ATOM     83  C   UNL A   1      34.646  33.789  30.174  1.00  0.00     0.200 A 
ATOM     84  F   UNL A   1      35.349  34.907  28.216  1.00  0.00    -0.200 F 
ATOM     85  F   UNL A   1      33.422  34.322  30.056  1.00  0.00    -0.200 F 
ENDBRANCH  51  75
BRANCH  63  86
ATOM     86  C   UNL A   1      42.727  33.926  34.451  1.00  0.00     0.064 A 
ATOM     87  C   UNL A   1      43.394  35.115  34.121  1.00  0.00     0.173 A 
ATOM     88  C   UNL A   1      42.290  33.760  35.774  1.00  0.00     0.173 A 
ATOM     89  F   UNL A   1      43.844  35.313  32.873  1.00  0.00    -0.203 F 
ATOM     90  C   UNL A   1      43.632  36.091  35.086  1.00  0.00     0.198 A 
ATOM     91  C   UNL A   1      42.506  34.749  36.729  1.00  0.00     0.198 A 
ATOM     92  F   UNL A   1      41.642  32.644  36.138  1.00  0.00    -0.203 F 
ATOM     93  F   UNL A   1      44.309  37.201  34.760  1.00  0.00    -0.200 F 
ATOM     94  C   UNL A   1      43.183  35.910  36.386  1.00  0.00     0.200 A 
ATOM     95  F   UNL A   1      42.061  34.579  37.982  1.00  0.00    -0.200 F 
ATOM     96  F   UNL A   1      43.409  36.854  37.311  1.00  0.00    -0.200 F 
ENDBRANCH  63  86
ENDBRANCH  37  38
ENDBRANCH  30  32
ENDBRANCH  29  30
ENDBRANCH  28  29
ENDBRANCH  27  28
ENDBRANCH  26  27
ENDBRANCH  25  26
ENDBRANCH  24  25
ENDBRANCH  23  24
ENDBRANCH   1  23
TORSDOF 24
ENDMDL
MODEL 2
REMARK VINA RESULT:      -8.6      0.968      1.990
REMARK SMILES CN(CCOCC1CC1)C(=O)N1CC[C@](C)(C(=O)OCCOCCOCCOC(=O)c2ccc(-c3c4nc(c(-c5c(F)c(F)c(F)c(F)c5F)c5ccc([nH]5)c(-c5c(F)c(F)c(F)c(F)c5F)c5nc(c(-c6c(F)c(F)c(F)c(F)c6F)c6ccc3[nH]6)C=C5)C=C4)cc2)C1
REMARK SMILES IDX 21 1 20 2 19 3 17 4 18 5 15 6 12 7 13 8 94 9 14 10 16 11
REMARK SMILES IDX 10 12 11 13 2 14 1 15 3 16 4 17 5 18 6 19 7 20 8 21 9 22
REMARK SMILES IDX 22 23 23 24 24 25 25 26 26 27 27 28 28 29 29 30 30 31 31 32
REMARK SMILES IDX 32 33 93 34 33 35 92 36 34 37 35 38 36 39 86 40 37 41 91 42
REMARK SMILES IDX 85 43 87 44 38 45 90 46 84 47 83 48 39 50 71 51 51 52 70 53
REMARK SMILES IDX 52 54 55 55 69 56 88 57 53 58 54 59 68 61 89 62 56 63 40 64
REMARK SMILES IDX 41 65 49 66 42 67 43 68 47 69 50 70 44 71 45 72 48 73 46 74
REMARK SMILES IDX 72 75 73 76 81 77 74 78 75 79 79 80 82 81 76 82 77 83 80 84
REMARK SMILES IDX 78 85 57 86 58 87 66 88 59 89 60 90 64 91 67 92 61 93 62 94
REMARK SMILES IDX 65 95 63 96
REMARK H PARENT 87 49 55 60
REMARK Flexibility Score: inf
ROOT
ATOM      1  C   UNL A   1      45.615  18.851  25.288  1.00  0.00     0.202 C 
ENDROOT
BRANCH   1   2
ATOM      2  C   UNL A   1      45.861  20.221  24.644  1.00  0.00     0.261 C 
BRANCH   2   3
ATOM      3  O   UNL A   1      45.861  21.354  25.544  1.00  0.00    -0.463 OA
BRANCH   3   4
ATOM      4  C   UNL A   1      45.342  22.490  25.019  1.00  0.00     0.313 C 
ATOM      5  O   UNL A   1      44.803  22.547  23.916  1.00  0.00    -0.252 OA
BRANCH   4   6
ATOM      6  C   UNL A   1      45.550  23.749  25.857  1.00  0.00     0.084 C 
ATOM      7  N   UNL A   1      47.080  24.898  27.347  1.00  0.00    -0.323 N 
ATOM      8  C   UNL A   1      45.949  24.421  28.132  1.00  0.00     0.122 C 
ATOM      9  C   UNL A   1      46.935  24.434  25.946  1.00  0.00     0.139 C 
ATOM     10  C   UNL A   1      45.311  23.329  27.315  1.00  0.00     0.042 C 
ATOM     11  C   UNL A   1      44.501  24.764  25.372  1.00  0.00     0.026 C 
BRANCH   7  12
ATOM     12  C   UNL A   1      47.994  25.654  28.043  1.00  0.00     0.319 C 
ATOM     13  O   UNL A   1      48.007  25.547  29.279  1.00  0.00    -0.248 OA
BRANCH  12  14
ATOM     14  N   UNL A   1      48.901  26.503  27.450  1.00  0.00    -0.325 N 
ATOM     15  C   UNL A   1      50.116  25.882  26.903  1.00  0.00     0.148 C 
BRANCH  14  16
ATOM     16  C   UNL A   1      48.861  27.957  27.293  1.00  0.00     0.149 C 
BRANCH  16  17
ATOM     17  C   UNL A   1      47.542  28.504  26.715  1.00  0.00     0.181 C 
BRANCH  17  18
ATOM     18  O   UNL A   1      47.364  29.900  26.950  1.00  0.00    -0.379 OA
BRANCH  18  19
ATOM     19  C   UNL A   1      46.297  30.471  26.197  1.00  0.00     0.163 C 
BRANCH  19  20
ATOM     20  C   UNL A   1      45.010  30.370  26.946  1.00  0.00     0.015 C 
ATOM     21  C   UNL A   1      44.765  31.214  28.171  1.00  0.00     0.006 C 
ATOM     22  C   UNL A   1      44.046  31.528  26.891  1.00  0.00     0.006 C 
ENDBRANCH  19  20
ENDBRANCH  18  19
ENDBRANCH  17  18
ENDBRANCH  16  17
ENDBRANCH  14  16
ENDBRANCH  12  14
ENDBRANCH   7  12
ENDBRANCH   4   6
ENDBRANCH   3   4
ENDBRANCH   2   3
ENDBRANCH   1   2
BRANCH   1  23
ATOM     23  O   UNL A   1      44.332  18.294  25.060  1.00  0.00    -0.376 OA
BRANCH  23  24
ATOM     24  C   UNL A   1      43.316  18.460  26.045  1.00  0.00     0.188 C 
BRANCH  24  25
ATOM     25  C   UNL A   1      42.286  19.592  25.918  1.00  0.00     0.188 C 
BRANCH  25  26
ATOM     26  O   UNL A   1      40.945  19.124  25.810  1.00  0.00    -0.376 OA
BRANCH  26  27
ATOM     27  C   UNL A   1      39.955  20.143  25.856  1.00  0.00     0.202 C 
BRANCH  27  28
ATOM     28  C   UNL A   1      40.418  21.308  26.721  1.00  0.00     0.261 C 
BRANCH  28  29
ATOM     29  O   UNL A   1      40.288  22.534  25.973  1.00  0.00    -0.460 OA
BRANCH  29  30
ATOM     30  C   UNL A   1      39.231  23.321  26.243  1.00  0.00     0.338 C 
ATOM     31  O   UNL A   1      38.078  23.156  25.894  1.00  0.00    -0.246 OA
BRANCH  30  32
ATOM     32  C   UNL A   1      39.705  24.501  27.002  1.00  0.00     0.060 A 
ATOM     33  C   UNL A   1      39.355  24.716  28.342  1.00  0.00     0.016 A 
ATOM     34  C   UNL A   1      40.474  25.444  26.325  1.00  0.00     0.016 A 
ATOM     35  C   UNL A   1      39.740  25.890  28.995  1.00  0.00     0.010 A 
ATOM     36  C   UNL A   1      40.893  26.597  26.988  1.00  0.00     0.010 A 
ATOM     37  C   UNL A   1      40.511  26.842  28.319  1.00  0.00    -0.014 A 
BRANCH  37  38
ATOM     38  C   UNL A   1      40.882  28.139  28.936  1.00  0.00     0.031 A 
ATOM     39  C   UNL A   1      42.250  28.296  29.535  1.00  0.00     0.074 A 
ATOM     40  C   UNL A   1      39.988  29.138  29.037  1.00  0.00     0.049 A 
ATOM     41  N   UNL A   1      42.693  29.192  30.376  1.00  0.00    -0.248 NA
ATOM     42  C   UNL A   1      43.250  27.293  29.136  1.00  0.00     0.031 C 
ATOM     43  C   UNL A   1      38.653  29.147  28.445  1.00  0.00     0.029 A 
ATOM     44  N   UNL A   1      40.063  30.329  29.719  1.00  0.00    -0.354 N 
ATOM     45  C   UNL A   1      44.009  28.840  30.643  1.00  0.00     0.074 A 
ATOM     46  C   UNL A   1      44.294  27.648  29.872  1.00  0.00     0.031 C 
ATOM     47  C   UNL A   1      38.021  30.275  28.811  1.00  0.00     0.029 A 
ATOM     48  C   UNL A   1      38.882  31.030  29.719  1.00  0.00     0.049 A 
ATOM     49  H   UNL A   1      40.882  30.648  30.163  1.00  0.00     0.167 HD
ATOM     50  C   UNL A   1      44.892  29.452  31.466  1.00  0.00     0.037 A 
ATOM     51  C   UNL A   1      38.517  32.120  30.421  1.00  0.00     0.037 A 
ATOM     52  C   UNL A   1      44.610  30.651  32.211  1.00  0.00     0.049 A 
ATOM     53  C   UNL A   1      39.490  32.742  31.387  1.00  0.00     0.074 A 
ATOM     54  C   UNL A   1      45.444  31.356  33.062  1.00  0.00     0.029 A 
ATOM     55  N   UNL A   1      43.399  31.327  32.188  1.00  0.00    -0.354 N 
ATOM     56  N   UNL A   1      40.719  32.386  31.673  1.00  0.00    -0.248 NA
ATOM     57  C   UNL A   1      39.016  33.911  32.144  1.00  0.00     0.031 C 
ATOM     58  C   UNL A   1      44.724  32.436  33.585  1.00  0.00     0.029 A 
ATOM     59  C   UNL A   1      43.458  32.430  33.024  1.00  0.00     0.049 A 
ATOM     60  H   UNL A   1      42.614  31.061  31.657  1.00  0.00     0.167 HD
ATOM     61  C   UNL A   1      41.172  33.297  32.618  1.00  0.00     0.074 A 
ATOM     62  C   UNL A   1      40.089  34.230  32.852  1.00  0.00     0.031 C 
ATOM     63  C   UNL A   1      42.376  33.356  33.237  1.00  0.00     0.037 A 
BRANCH  50  64
ATOM     64  C   UNL A   1      46.240  28.818  31.637  1.00  0.00     0.064 A 
ATOM     65  C   UNL A   1      46.449  27.755  32.528  1.00  0.00     0.173 A 
ATOM     66  C   UNL A   1      47.326  29.252  30.863  1.00  0.00     0.173 A 
ATOM     67  F   UNL A   1      45.447  27.315  33.302  1.00  0.00    -0.203 F 
ATOM     68  C   UNL A   1      47.704  27.160  32.647  1.00  0.00     0.198 A 
ATOM     69  C   UNL A   1      48.572  28.639  30.965  1.00  0.00     0.198 A 
ATOM     70  F   UNL A   1      47.175  30.264  29.995  1.00  0.00    -0.203 F 
ATOM     71  F   UNL A   1      47.892  26.170  33.529  1.00  0.00    -0.200 F 
ATOM     72  C   UNL A   1      48.760  27.598  31.860  1.00  0.00     0.200 A 
ATOM     73  F   UNL A   1      49.587  29.055  30.198  1.00  0.00    -0.200 F 
ATOM     74  F   UNL A   1      49.962  27.016  31.969  1.00  0.00    -0.200 F 
ENDBRANCH  50  64
BRANCH  51  75
ATOM     75  C   UNL A   1      37.143  32.668  30.277  1.00  0.00     0.064 A 
ATOM     76  C   UNL A   1      36.812  33.505  29.204  1.00  0.00     0.173 A 
ATOM     77  C   UNL A   1      36.143  32.385  31.219  1.00  0.00     0.173 A 
ATOM     78  F   UNL A   1      37.744  33.831  28.296  1.00  0.00    -0.203 F 
ATOM     79  C   UNL A   1      35.535  34.052  29.086  1.00  0.00     0.198 A 
ATOM     80  C   UNL A   1      34.859  32.909  31.085  1.00  0.00     0.198 A 
ATOM     81  F   UNL A   1      36.413  31.595  32.268  1.00  0.00    -0.203 F 
ATOM     82  F   UNL A   1      35.258  34.890  28.078  1.00  0.00    -0.200 F 
ATOM     83  C   UNL A   1      34.559  33.749  30.023  1.00  0.00     0.200 A 
ATOM     84  F   UNL A   1      33.917  32.607  31.989  1.00  0.00    -0.200 F 
ATOM     85  F   UNL A   1      33.332  34.275  29.910  1.00  0.00    -0.200 F 
ENDBRANCH  51  75
BRANCH  63  86
ATOM     86  C   UNL A   1      42.606  34.492  34.192  1.00  0.00     0.064 A 
ATOM     87  C   UNL A   1      42.434  34.337  35.574  1.00  0.00     0.173 A 
ATOM     88  C   UNL A   1      43.041  35.739  33.716  1.00  0.00     0.173 A 
ATOM     89  F   UNL A   1      42.005  33.169  36.075  1.00  0.00    -0.203 F 
ATOM     90  C   UNL A   1      42.667  35.398  36.446  1.00  0.00     0.198 A 
ATOM     91  C   UNL A   1      43.298  36.789  34.593  1.00  0.00     0.198 A 
ATOM     92  F   UNL A   1      43.226  35.935  32.403  1.00  0.00    -0.203 F 
ATOM     93  F   UNL A   1      42.455  35.242  37.760  1.00  0.00    -0.200 F 
ATOM     94  C   UNL A   1      43.106  36.619  35.956  1.00  0.00     0.200 A 
ATOM     95  F   UNL A   1      43.733  37.965  34.119  1.00  0.00    -0.200 F 
ATOM     96  F   UNL A   1      43.335  37.637  36.798  1.00  0.00    -0.200 F 
ENDBRANCH  63  86
ENDBRANCH  37  38
ENDBRANCH  30  32
ENDBRANCH  29  30
ENDBRANCH  28  29
ENDBRANCH  27  28
ENDBRANCH  26  27
ENDBRANCH  25  26
ENDBRANCH  24  25
ENDBRANCH  23  24
ENDBRANCH   1  23
TORSDOF 24
ENDMDL
MODEL 3
REMARK VINA RESULT:      -7.7      5.558     10.034
REMARK SMILES CN(CCOCC1CC1)C(=O)N1CC[C@](C)(C(=O)OCCOCCOCCOC(=O)c2ccc(-c3c4nc(c(-c5c(F)c(F)c(F)c(F)c5F)c5ccc([nH]5)c(-c5c(F)c(F)c(F)c(F)c5F)c5nc(c(-c6c(F)c(F)c(F)c(F)c6F)c6ccc3[nH]6)C=C5)C=C4)cc2)C1
REMARK SMILES IDX 21 1 20 2 19 3 17 4 18 5 15 6 12 7 13 8 94 9 14 10 16 11
REMARK SMILES IDX 10 12 11 13 2 14 1 15 3 16 4 17 5 18 6 19 7 20 8 21 9 22
REMARK SMILES IDX 22 23 23 24 24 25 25 26 26 27 27 28 28 29 29 30 30 31 31 32
REMARK SMILES IDX 32 33 93 34 33 35 92 36 34 37 35 38 36 39 86 40 37 41 91 42
REMARK SMILES IDX 85 43 87 44 38 45 90 46 84 47 83 48 39 50 71 51 51 52 70 53
REMARK SMILES IDX 52 54 55 55 69 56 88 57 53 58 54 59 68 61 89 62 56 63 40 64
REMARK SMILES IDX 41 65 49 66 42 67 43 68 47 69 50 70 44 71 45 72 48 73 46 74
REMARK SMILES IDX 72 75 73 76 81 77 74 78 75 79 79 80 82 81 76 82 77 83 80 84
REMARK SMILES IDX 78 85 57 86 58 87 66 88 59 89 60 90 64 91 67 92 61 93 62 94
REMARK SMILES IDX 65 95 63 96
REMARK H PARENT 87 49 55 60
REMARK Flexibility Score: inf
ROOT
ATOM      1  C   UNL A   1      39.597  21.552  26.401  1.00  0.00     0.202 C 
ENDROOT
BRANCH   1   2
ATOM      2  C   UNL A   1      38.442  21.282  25.429  1.00  0.00     0.261 C 
BRANCH   2   3
ATOM      3  O   UNL A   1      37.146  21.786  25.828  1.00  0.00    -0.463 OA
BRANCH   3   4
ATOM      4  C   UNL A   1      36.829  22.997  25.308  1.00  0.00     0.313 C 
ATOM      5  O   UNL A   1      37.621  23.933  25.229  1.00  0.00    -0.252 OA
BRANCH   4   6
ATOM      6  C   UNL A   1      35.368  23.168  24.900  1.00  0.00     0.084 C 
ATOM      7  N   UNL A   1      33.140  23.685  25.706  1.00  0.00    -0.323 N 
ATOM      8  C   UNL A   1      33.189  22.268  25.376  1.00  0.00     0.122 C 
ATOM      9  C   UNL A   1      34.487  24.279  25.519  1.00  0.00     0.139 C 
ATOM     10  C   UNL A   1      34.648  21.895  25.369  1.00  0.00     0.042 C 
ATOM     11  C   UNL A   1      35.366  23.298  23.368  1.00  0.00     0.026 C 
BRANCH   7  12
ATOM     12  C   UNL A   1      31.906  24.151  26.094  1.00  0.00     0.319 C 
ATOM     13  O   UNL A   1      31.531  23.896  27.248  1.00  0.00    -0.248 OA
BRANCH  12  14
ATOM     14  N   UNL A   1      31.075  24.893  25.286  1.00  0.00    -0.325 N 
ATOM     15  C   UNL A   1      29.964  25.587  25.954  1.00  0.00     0.148 C 
BRANCH  14  16
ATOM     16  C   UNL A   1      31.105  25.089  23.836  1.00  0.00     0.149 C 
BRANCH  16  17
ATOM     17  C   UNL A   1      32.084  26.177  23.356  1.00  0.00     0.181 C 
BRANCH  17  18
ATOM     18  O   UNL A   1      31.525  27.489  23.393  1.00  0.00    -0.379 OA
BRANCH  18  19
ATOM     19  C   UNL A   1      30.263  27.588  22.737  1.00  0.00     0.163 C 
BRANCH  19  20
ATOM     20  C   UNL A   1      29.967  29.006  22.375  1.00  0.00     0.015 C 
ATOM     21  C   UNL A   1      28.561  29.541  22.450  1.00  0.00     0.006 C 
ATOM     22  C   UNL A   1      29.577  29.967  23.468  1.00  0.00     0.006 C 
ENDBRANCH  19  20
ENDBRANCH  18  19
ENDBRANCH  17  18
ENDBRANCH  16  17
ENDBRANCH  14  16
ENDBRANCH  12  14
ENDBRANCH   7  12
ENDBRANCH   4   6
ENDBRANCH   3   4
ENDBRANCH   2   3
ENDBRANCH   1   2
BRANCH   1  23
ATOM     23  O   UNL A   1      40.831  20.944  26.062  1.00  0.00    -0.376 OA
BRANCH  23  24
ATOM     24  C   UNL A   1      41.129  19.645  26.565  1.00  0.00     0.188 C 
BRANCH  24  25
ATOM     25  C   UNL A   1      42.423  18.927  26.153  1.00  0.00     0.188 C 
BRANCH  25  26
ATOM     26  O   UNL A   1      42.993  19.439  24.953  1.00  0.00    -0.376 OA
BRANCH  26  27
ATOM     27  C   UNL A   1      44.244  20.094  25.123  1.00  0.00     0.202 C 
BRANCH  27  28
ATOM     28  C   UNL A   1      44.070  21.607  25.101  1.00  0.00     0.261 C 
BRANCH  28  29
ATOM     29  O   UNL A   1      44.585  22.160  26.329  1.00  0.00    -0.460 OA
BRANCH  29  30
ATOM     30  C   UNL A   1      43.818  23.051  26.983  1.00  0.00     0.338 C 
ATOM     31  O   UNL A   1      42.794  22.831  27.601  1.00  0.00    -0.246 OA
BRANCH  30  32
ATOM     32  C   UNL A   1      44.389  24.402  26.781  1.00  0.00     0.060 A 
ATOM     33  C   UNL A   1      44.318  25.066  25.550  1.00  0.00     0.016 A 
ATOM     34  C   UNL A   1      45.067  24.988  27.848  1.00  0.00     0.016 A 
ATOM     35  C   UNL A   1      44.953  26.298  25.370  1.00  0.00     0.010 A 
ATOM     36  C   UNL A   1      45.668  26.235  27.682  1.00  0.00     0.010 A 
ATOM     37  C   UNL A   1      45.637  26.890  26.438  1.00  0.00    -0.014 A 
BRANCH  37  38
ATOM     38  C   UNL A   1      46.395  28.156  26.285  1.00  0.00     0.031 A 
ATOM     39  C   UNL A   1      47.873  28.094  26.033  1.00  0.00     0.074 A 
ATOM     40  C   UNL A   1      45.792  29.347  26.450  1.00  0.00     0.049 A 
ATOM     41  N   UNL A   1      48.781  29.025  26.165  1.00  0.00    -0.248 NA
ATOM     42  C   UNL A   1      48.399  26.797  25.580  1.00  0.00     0.031 C 
ATOM     43  C   UNL A   1      44.358  29.556  26.631  1.00  0.00     0.029 A 
ATOM     44  N   UNL A   1      46.331  30.608  26.532  1.00  0.00    -0.354 N 
ATOM     45  C   UNL A   1      49.990  28.419  25.856  1.00  0.00     0.074 A 
ATOM     46  C   UNL A   1      49.702  27.039  25.526  1.00  0.00     0.031 C 
ATOM     47  C   UNL A   1      44.131  30.866  26.832  1.00  0.00     0.029 A 
ATOM     48  C   UNL A   1      45.410  31.571  26.862  1.00  0.00     0.049 A 
ATOM     49  H   UNL A   1      47.283  30.803  26.369  1.00  0.00     0.167 HD
ATOM     50  C   UNL A   1      51.229  28.966  25.859  1.00  0.00     0.037 A 
ATOM     51  C   UNL A   1      45.585  32.861  27.212  1.00  0.00     0.037 A 
ATOM     52  C   UNL A   1      51.506  30.345  26.164  1.00  0.00     0.049 A 
ATOM     53  C   UNL A   1      46.978  33.429  27.282  1.00  0.00     0.074 A 
ATOM     54  C   UNL A   1      52.727  30.997  26.179  1.00  0.00     0.029 A 
ATOM     55  N   UNL A   1      50.545  31.286  26.500  1.00  0.00    -0.354 N 
ATOM     56  N   UNL A   1      48.126  32.846  27.032  1.00  0.00    -0.248 NA
ATOM     57  C   UNL A   1      47.100  34.833  27.701  1.00  0.00     0.031 C 
ATOM     58  C   UNL A   1      52.509  32.325  26.566  1.00  0.00     0.029 A 
ATOM     59  C   UNL A   1      51.148  32.510  26.744  1.00  0.00     0.049 A 
ATOM     60  H   UNL A   1      49.579  31.111  26.558  1.00  0.00     0.167 HD
ATOM     61  C   UNL A   1      49.099  33.815  27.236  1.00  0.00     0.074 A 
ATOM     62  C   UNL A   1      48.408  35.028  27.623  1.00  0.00     0.031 C 
ATOM     63  C   UNL A   1      50.445  33.710  27.116  1.00  0.00     0.037 A 
BRANCH  50  64
ATOM     64  C   UNL A   1      52.389  28.064  25.558  1.00  0.00     0.064 A 
ATOM     65  C   UNL A   1      52.990  27.277  26.550  1.00  0.00     0.173 A 
ATOM     66  C   UNL A   1      52.873  27.955  24.246  1.00  0.00     0.173 A 
ATOM     67  F   UNL A   1      52.573  27.358  27.822  1.00  0.00    -0.203 F 
ATOM     68  C   UNL A   1      54.046  26.422  26.240  1.00  0.00     0.198 A 
ATOM     69  C   UNL A   1      53.911  27.081  23.935  1.00  0.00     0.198 A 
ATOM     70  F   UNL A   1      52.329  28.686  23.261  1.00  0.00    -0.203 F 
ATOM     71  F   UNL A   1      54.631  25.705  27.209  1.00  0.00    -0.200 F 
ATOM     72  C   UNL A   1      54.499  26.320  24.933  1.00  0.00     0.200 A 
ATOM     73  F   UNL A   1      54.341  26.975  22.671  1.00  0.00    -0.200 F 
ATOM     74  F   UNL A   1      55.508  25.489  24.636  1.00  0.00    -0.200 F 
ENDBRANCH  50  64
BRANCH  51  75
ATOM     75  C   UNL A   1      44.412  33.695  27.579  1.00  0.00     0.064 A 
ATOM     76  C   UNL A   1      43.844  34.582  26.655  1.00  0.00     0.173 A 
ATOM     77  C   UNL A   1      43.851  33.641  28.863  1.00  0.00     0.173 A 
ATOM     78  F   UNL A   1      44.367  34.693  25.424  1.00  0.00    -0.203 F 
ATOM     79  C   UNL A   1      42.767  35.395  27.006  1.00  0.00     0.198 A 
ATOM     80  C   UNL A   1      42.757  34.433  29.205  1.00  0.00     0.198 A 
ATOM     81  F   UNL A   1      44.364  32.814  29.786  1.00  0.00    -0.203 F 
ATOM     82  F   UNL A   1      42.275  36.270  26.119  1.00  0.00    -0.200 F 
ATOM     83  C   UNL A   1      42.221  35.315  28.278  1.00  0.00     0.200 A 
ATOM     84  F   UNL A   1      42.228  34.348  30.433  1.00  0.00    -0.200 F 
ATOM     85  F   UNL A   1      41.187  36.097  28.616  1.00  0.00    -0.200 F 
ENDBRANCH  51  75
BRANCH  63  86
ATOM     86  C   UNL A   1      51.258  34.949  27.358  1.00  0.00     0.064 A 
ATOM     87  C   UNL A   1      51.801  35.238  28.618  1.00  0.00     0.173 A 
ATOM     88  C   UNL A   1      51.527  35.836  26.305  1.00  0.00     0.173 A 
ATOM     89  F   UNL A   1      51.559  34.428  29.660  1.00  0.00    -0.203 F 
ATOM     90  C   UNL A   1      52.566  36.385  28.820  1.00  0.00     0.198 A 
ATOM     91  C   UNL A   1      52.314  36.967  26.504  1.00  0.00     0.198 A 
ATOM     92  F   UNL A   1      51.035  35.601  25.080  1.00  0.00    -0.203 F 
ATOM     93  F   UNL A   1      53.040  36.665  30.042  1.00  0.00    -0.200 F 
ATOM     94  C   UNL A   1      52.827  37.243  27.762  1.00  0.00     0.200 A 
ATOM     95  F   UNL A   1      52.575  37.790  25.479  1.00  0.00    -0.200 F 
ATOM     96  F   UNL A   1      53.568  38.343  27.958  1.00  0.00    -0.200 F 
ENDBRANCH  63  86
ENDBRANCH  37  38
ENDBRANCH  30  32
ENDBRANCH  29  30
ENDBRANCH  28  29
ENDBRANCH  27  28
ENDBRANCH  26  27
ENDBRANCH  25  26
ENDBRANCH  24  25
ENDBRANCH  23  24
ENDBRANCH   1  23
TORSDOF 24
ENDMDL
