MODEL 1
REMARK VINA RESULT:      -8.6      0.000      0.000
REMARK SMILES CCCCCC[C@H]1OCC[C@H]1C(=O)OCCOCCOCCOC(=O)c1ccc(-c2c3nc(c(-c4c(F)c(F)c(F)c(F)c4F)c4ccc([nH]4)c(-c4c(F)c(F)c(F)c(F)c4F)c4nc(c(-c5c(F)c(F)c(F)c(F)c5F)c5ccc2[nH]5)C=C4)C=C3)cc1
REMARK SMILES IDX 17 1 16 2 15 3 14 4 12 5 13 6 11 7 7 8 8 9 9 10 10 11 6 12
REMARK SMILES IDX 5 13 4 14 3 15 2 16 1 17 18 18 19 19 20 20 21 21 22 22 23 23
REMARK SMILES IDX 24 24 25 25 26 26 27 27 88 28 28 29 87 30 29 31 30 32 31 33
REMARK SMILES IDX 81 34 32 35 86 36 80 37 82 38 33 39 85 40 79 41 78 42 34 44
REMARK SMILES IDX 66 45 46 46 65 47 47 48 50 49 64 50 83 51 48 52 49 53 63 55
REMARK SMILES IDX 84 56 51 57 35 58 36 59 44 60 37 61 38 62 42 63 45 64 39 65
REMARK SMILES IDX 40 66 43 67 41 68 67 69 68 70 76 71 69 72 70 73 74 74 77 75
REMARK SMILES IDX 71 76 72 77 75 78 73 79 52 80 53 81 61 82 54 83 55 84 59 85
REMARK SMILES IDX 62 86 56 87 57 88 60 89 58 90
REMARK H PARENT 82 43 50 54
REMARK Flexibility Score: inf
ROOT
ATOM      1  O   UNL A   1      32.563  37.162  31.122  1.00  0.00    -0.376 OA
ENDROOT
BRANCH   1   2
ATOM      2  C   UNL A   1      32.928  36.799  32.454  1.00  0.00     0.202 C 
BRANCH   2   3
ATOM      3  C   UNL A   1      33.755  35.512  32.599  1.00  0.00     0.261 C 
BRANCH   3   4
ATOM      4  O   UNL A   1      34.999  35.661  33.329  1.00  0.00    -0.463 OA
BRANCH   4   5
ATOM      5  C   UNL A   1      36.024  34.885  32.923  1.00  0.00     0.311 C 
ATOM      6  O   UNL A   1      37.180  35.023  33.324  1.00  0.00    -0.252 OA
BRANCH   5   7
ATOM      7  C   UNL A   1      35.712  33.817  31.886  1.00  0.00     0.130 C 
ATOM      8  C   UNL A   1      36.654  33.201  30.854  1.00  0.00     0.132 C 
ATOM      9  O   UNL A   1      37.381  32.148  31.501  1.00  0.00    -0.377 OA
ATOM     10  C   UNL A   1      36.700  31.828  32.718  1.00  0.00     0.161 C 
ATOM     11  C   UNL A   1      35.372  32.559  32.681  1.00  0.00     0.046 C 
BRANCH   8  12
ATOM     12  C   UNL A   1      37.514  33.992  29.868  1.00  0.00     0.033 C 
BRANCH  12  13
ATOM     13  C   UNL A   1      38.852  34.555  30.326  1.00  0.00     0.003 C 
BRANCH  13  14
ATOM     14  C   UNL A   1      39.961  34.654  29.277  1.00  0.00     0.000 C 
BRANCH  14  15
ATOM     15  C   UNL A   1      41.350  34.921  29.860  1.00  0.00    -0.000 C 
BRANCH  15  16
ATOM     16  C   UNL A   1      42.500  34.238  29.110  1.00  0.00    -0.003 C 
ATOM     17  C   UNL A   1      43.079  35.084  27.985  1.00  0.00     0.004 C 
ENDBRANCH  15  16
ENDBRANCH  14  15
ENDBRANCH  13  14
ENDBRANCH  12  13
ENDBRANCH   8  12
ENDBRANCH   5   7
ENDBRANCH   4   5
ENDBRANCH   3   4
ENDBRANCH   2   3
ENDBRANCH   1   2
BRANCH   1  18
ATOM     18  C   UNL A   1      33.478  36.796  30.100  1.00  0.00     0.188 C 
BRANCH  18  19
ATOM     19  C   UNL A   1      32.997  35.690  29.162  1.00  0.00     0.188 C 
BRANCH  19  20
ATOM     20  O   UNL A   1      34.015  34.744  28.843  1.00  0.00    -0.376 OA
BRANCH  20  21
ATOM     21  C   UNL A   1      33.576  33.656  28.032  1.00  0.00     0.202 C 
BRANCH  21  22
ATOM     22  C   UNL A   1      33.957  32.281  28.588  1.00  0.00     0.261 C 
BRANCH  22  23
ATOM     23  O   UNL A   1      34.721  31.537  27.627  1.00  0.00    -0.460 OA
BRANCH  23  24
ATOM     24  C   UNL A   1      34.815  30.204  27.867  1.00  0.00     0.338 C 
ATOM     25  O   UNL A   1      33.978  29.350  27.618  1.00  0.00    -0.246 OA
BRANCH  24  26
ATOM     26  C   UNL A   1      36.192  29.881  28.316  1.00  0.00     0.060 A 
ATOM     27  C   UNL A   1      37.254  30.202  27.456  1.00  0.00     0.016 A 
ATOM     28  C   UNL A   1      36.455  29.357  29.585  1.00  0.00     0.016 A 
ATOM     29  C   UNL A   1      38.572  29.963  27.845  1.00  0.00     0.010 A 
ATOM     30  C   UNL A   1      37.775  29.119  29.975  1.00  0.00     0.010 A 
ATOM     31  C   UNL A   1      38.837  29.389  29.093  1.00  0.00    -0.014 A 
BRANCH  31  32
ATOM     32  C   UNL A   1      40.192  28.878  29.411  1.00  0.00     0.031 A 
ATOM     33  C   UNL A   1      41.090  29.742  30.253  1.00  0.00     0.074 A 
ATOM     34  C   UNL A   1      40.624  27.688  28.961  1.00  0.00     0.049 A 
ATOM     35  N   UNL A   1      42.338  29.560  30.598  1.00  0.00    -0.248 NA
ATOM     36  C   UNL A   1      40.498  30.988  30.766  1.00  0.00     0.031 C 
ATOM     37  C   UNL A   1      39.841  26.747  28.164  1.00  0.00     0.029 A 
ATOM     38  N   UNL A   1      41.845  27.076  29.104  1.00  0.00    -0.354 N 
ATOM     39  C   UNL A   1      42.681  30.672  31.357  1.00  0.00     0.074 A 
ATOM     40  C   UNL A   1      41.524  31.539  31.392  1.00  0.00     0.031 C 
ATOM     41  C   UNL A   1      40.607  25.680  27.873  1.00  0.00     0.029 A 
ATOM     42  C   UNL A   1      41.942  25.879  28.438  1.00  0.00     0.049 A 
ATOM     43  H   UNL A   1      42.581  27.459  29.634  1.00  0.00     0.167 HD
ATOM     44  C   UNL A   1      43.853  30.941  31.980  1.00  0.00     0.037 A 
ATOM     45  C   UNL A   1      42.997  25.054  28.286  1.00  0.00     0.037 A 
ATOM     46  C   UNL A   1      45.002  30.077  31.946  1.00  0.00     0.049 A 
ATOM     47  C   UNL A   1      44.314  25.409  28.934  1.00  0.00     0.074 A 
ATOM     48  C   UNL A   1      46.228  30.249  32.562  1.00  0.00     0.029 A 
ATOM     49  N   UNL A   1      45.067  28.880  31.248  1.00  0.00    -0.354 N 
ATOM     50  N   UNL A   1      44.623  26.443  29.678  1.00  0.00    -0.248 NA
ATOM     51  C   UNL A   1      45.430  24.474  28.721  1.00  0.00     0.031 C 
ATOM     52  C   UNL A   1      47.055  29.182  32.193  1.00  0.00     0.029 A 
ATOM     53  C   UNL A   1      46.323  28.316  31.396  1.00  0.00     0.049 A 
ATOM     54  H   UNL A   1      44.331  28.491  30.724  1.00  0.00     0.167 HD
ATOM     55  C   UNL A   1      45.951  26.269  30.048  1.00  0.00     0.074 A 
ATOM     56  C   UNL A   1      46.388  25.022  29.456  1.00  0.00     0.031 C 
ATOM     57  C   UNL A   1      46.739  27.067  30.810  1.00  0.00     0.037 A 
BRANCH  44  58
ATOM     58  C   UNL A   1      43.952  32.235  32.731  1.00  0.00     0.064 A 
ATOM     59  C   UNL A   1      44.501  33.386  32.149  1.00  0.00     0.173 A 
ATOM     60  C   UNL A   1      43.473  32.329  34.046  1.00  0.00     0.173 A 
ATOM     61  F   UNL A   1      44.991  33.344  30.900  1.00  0.00    -0.203 F 
ATOM     62  C   UNL A   1      44.593  34.577  32.865  1.00  0.00     0.198 A 
ATOM     63  C   UNL A   1      43.536  33.529  34.748  1.00  0.00     0.198 A 
ATOM     64  F   UNL A   1      42.939  31.257  34.650  1.00  0.00    -0.203 F 
ATOM     65  F   UNL A   1      45.170  35.650  32.306  1.00  0.00    -0.200 F 
ATOM     66  C   UNL A   1      44.104  34.650  34.160  1.00  0.00     0.200 A 
ATOM     67  F   UNL A   1      43.055  33.600  35.997  1.00  0.00    -0.200 F 
ATOM     68  F   UNL A   1      44.187  35.798  34.846  1.00  0.00    -0.200 F 
ENDBRANCH  44  58
BRANCH  45  69
ATOM     69  C   UNL A   1      42.865  23.812  27.479  1.00  0.00     0.064 A 
ATOM     70  C   UNL A   1      42.444  22.610  28.066  1.00  0.00     0.173 A 
ATOM     71  C   UNL A   1      43.190  23.792  26.114  1.00  0.00     0.173 A 
ATOM     72  F   UNL A   1      42.151  22.570  29.373  1.00  0.00    -0.203 F 
ATOM     73  C   UNL A   1      42.375  21.432  27.324  1.00  0.00     0.198 A 
ATOM     74  C   UNL A   1      43.093  22.619  25.368  1.00  0.00     0.198 A 
ATOM     75  F   UNL A   1      43.605  24.913  25.506  1.00  0.00    -0.203 F 
ATOM     76  F   UNL A   1      42.024  20.285  27.924  1.00  0.00    -0.200 F 
ATOM     77  C   UNL A   1      42.694  21.438  25.975  1.00  0.00     0.200 A 
ATOM     78  F   UNL A   1      43.396  22.632  24.062  1.00  0.00    -0.200 F 
ATOM     79  F   UNL A   1      42.631  20.305  25.264  1.00  0.00    -0.200 F 
ENDBRANCH  45  69
BRANCH  57  80
ATOM     80  C   UNL A   1      48.139  26.600  31.088  1.00  0.00     0.064 A 
ATOM     81  C   UNL A   1      48.442  25.785  32.189  1.00  0.00     0.173 A 
ATOM     82  C   UNL A   1      49.185  26.932  30.212  1.00  0.00     0.173 A 
ATOM     83  F   UNL A   1      47.482  25.448  33.063  1.00  0.00    -0.203 F 
ATOM     84  C   UNL A   1      49.743  25.343  32.417  1.00  0.00     0.198 A 
ATOM     85  C   UNL A   1      50.477  26.461  30.423  1.00  0.00     0.198 A 
ATOM     86  F   UNL A   1      48.948  27.700  29.137  1.00  0.00    -0.203 F 
ATOM     87  F   UNL A   1      50.017  24.605  33.501  1.00  0.00    -0.200 F 
ATOM     88  C   UNL A   1      50.757  25.674  31.530  1.00  0.00     0.200 A 
ATOM     89  F   UNL A   1      51.452  26.768  29.557  1.00  0.00    -0.200 F 
ATOM     90  F   UNL A   1      52.006  25.239  31.745  1.00  0.00    -0.200 F 
ENDBRANCH  57  80
ENDBRANCH  31  32
ENDBRANCH  24  26
ENDBRANCH  23  24
ENDBRANCH  22  23
ENDBRANCH  21  22
ENDBRANCH  20  21
ENDBRANCH  19  20
ENDBRANCH  18  19
ENDBRANCH   1  18
TORSDOF 22
ENDMDL
MODEL 2
REMARK VINA RESULT:      -8.5      4.253      7.938
REMARK SMILES CCCCCC[C@H]1OCC[C@H]1C(=O)OCCOCCOCCOC(=O)c1ccc(-c2c3nc(c(-c4c(F)c(F)c(F)c(F)c4F)c4ccc([nH]4)c(-c4c(F)c(F)c(F)c(F)c4F)c4nc(c(-c5c(F)c(F)c(F)c(F)c5F)c5ccc2[nH]5)C=C4)C=C3)cc1
REMARK SMILES IDX 17 1 16 2 15 3 14 4 12 5 13 6 11 7 7 8 8 9 9 10 10 11 6 12
REMARK SMILES IDX 5 13 4 14 3 15 2 16 1 17 18 18 19 19 20 20 21 21 22 22 23 23
REMARK SMILES IDX 24 24 25 25 26 26 27 27 88 28 28 29 87 30 29 31 30 32 31 33
REMARK SMILES IDX 81 34 32 35 86 36 80 37 82 38 33 39 85 40 79 41 78 42 34 44
REMARK SMILES IDX 66 45 46 46 65 47 47 48 50 49 64 50 83 51 48 52 49 53 63 55
REMARK SMILES IDX 84 56 51 57 35 58 36 59 44 60 37 61 38 62 42 63 45 64 39 65
REMARK SMILES IDX 40 66 43 67 41 68 67 69 68 70 76 71 69 72 70 73 74 74 77 75
REMARK SMILES IDX 71 76 72 77 75 78 73 79 52 80 53 81 61 82 54 83 55 84 59 85
REMARK SMILES IDX 62 86 56 87 57 88 60 89 58 90
REMARK H PARENT 82 43 50 54
REMARK Flexibility Score: inf
ROOT
ATOM      1  O   UNL A   1      34.240  30.996  27.243  1.00  0.00    -0.376 OA
ENDROOT
BRANCH   1   2
ATOM      2  C   UNL A   1      34.892  29.725  27.255  1.00  0.00     0.202 C 
BRANCH   2   3
ATOM      3  C   UNL A   1      34.041  28.527  26.804  1.00  0.00     0.261 C 
BRANCH   3   4
ATOM      4  O   UNL A   1      32.756  28.869  26.227  1.00  0.00    -0.463 OA
BRANCH   4   5
ATOM      5  C   UNL A   1      31.736  28.032  26.507  1.00  0.00     0.311 C 
ATOM      6  O   UNL A   1      31.326  27.821  27.649  1.00  0.00    -0.252 OA
BRANCH   5   7
ATOM      7  C   UNL A   1      31.108  27.294  25.336  1.00  0.00     0.130 C 
ATOM      8  C   UNL A   1      30.861  27.810  23.919  1.00  0.00     0.132 C 
ATOM      9  O   UNL A   1      32.076  27.648  23.177  1.00  0.00    -0.377 OA
ATOM     10  C   UNL A   1      32.915  26.742  23.901  1.00  0.00     0.161 C 
ATOM     11  C   UNL A   1      32.065  26.150  25.009  1.00  0.00     0.046 C 
BRANCH   8  12
ATOM     12  C   UNL A   1      30.127  29.106  23.574  1.00  0.00     0.033 C 
BRANCH  12  13
ATOM     13  C   UNL A   1      28.710  29.041  23.024  1.00  0.00     0.003 C 
BRANCH  13  14
ATOM     14  C   UNL A   1      27.866  30.313  23.125  1.00  0.00     0.000 C 
BRANCH  14  15
ATOM     15  C   UNL A   1      28.666  31.566  23.490  1.00  0.00    -0.000 C 
BRANCH  15  16
ATOM     16  C   UNL A   1      28.462  32.753  22.541  1.00  0.00    -0.003 C 
ATOM     17  C   UNL A   1      28.030  32.342  21.140  1.00  0.00     0.004 C 
ENDBRANCH  15  16
ENDBRANCH  14  15
ENDBRANCH  13  14
ENDBRANCH  12  13
ENDBRANCH   8  12
ENDBRANCH   5   7
ENDBRANCH   4   5
ENDBRANCH   3   4
ENDBRANCH   2   3
ENDBRANCH   1   2
BRANCH   1  18
ATOM     18  C   UNL A   1      34.355  31.770  28.429  1.00  0.00     0.188 C 
BRANCH  18  19
ATOM     19  C   UNL A   1      34.436  33.279  28.216  1.00  0.00     0.188 C 
BRANCH  19  20
ATOM     20  O   UNL A   1      33.246  33.964  28.602  1.00  0.00    -0.376 OA
BRANCH  20  21
ATOM     21  C   UNL A   1      33.284  35.375  28.397  1.00  0.00     0.202 C 
BRANCH  21  22
ATOM     22  C   UNL A   1      32.922  36.188  29.642  1.00  0.00     0.261 C 
BRANCH  22  23
ATOM     23  O   UNL A   1      32.328  35.348  30.644  1.00  0.00    -0.460 OA
BRANCH  23  24
ATOM     24  C   UNL A   1      32.575  35.713  31.928  1.00  0.00     0.338 C 
ATOM     25  O   UNL A   1      31.878  36.416  32.642  1.00  0.00    -0.246 OA
BRANCH  24  26
ATOM     26  C   UNL A   1      33.755  34.966  32.433  1.00  0.00     0.060 A 
ATOM     27  C   UNL A   1      35.007  35.598  32.367  1.00  0.00     0.016 A 
ATOM     28  C   UNL A   1      33.636  33.712  33.039  1.00  0.00     0.016 A 
ATOM     29  C   UNL A   1      36.143  34.962  32.869  1.00  0.00     0.010 A 
ATOM     30  C   UNL A   1      34.773  33.076  33.541  1.00  0.00     0.010 A 
ATOM     31  C   UNL A   1      36.036  33.683  33.428  1.00  0.00    -0.014 A 
BRANCH  31  32
ATOM     32  C   UNL A   1      37.253  32.885  33.711  1.00  0.00     0.031 A 
ATOM     33  C   UNL A   1      37.992  33.159  34.991  1.00  0.00     0.074 A 
ATOM     34  C   UNL A   1      37.701  31.949  32.856  1.00  0.00     0.049 A 
ATOM     35  N   UNL A   1      39.119  32.658  35.428  1.00  0.00    -0.248 NA
ATOM     36  C   UNL A   1      37.377  34.142  35.898  1.00  0.00     0.031 C 
ATOM     37  C   UNL A   1      37.060  31.571  31.600  1.00  0.00     0.029 A 
ATOM     38  N   UNL A   1      38.821  31.156  32.918  1.00  0.00    -0.354 N 
ATOM     39  C   UNL A   1      39.350  33.273  36.652  1.00  0.00     0.074 A 
ATOM     40  C   UNL A   1      38.270  34.208  36.872  1.00  0.00     0.031 C 
ATOM     41  C   UNL A   1      37.806  30.626  30.998  1.00  0.00     0.029 A 
ATOM     42  C   UNL A   1      38.991  30.359  31.813  1.00  0.00     0.049 A 
ATOM     43  H   UNL A   1      39.442  31.159  33.681  1.00  0.00     0.167 HD
ATOM     44  C   UNL A   1      40.368  33.068  37.521  1.00  0.00     0.037 A 
ATOM     45  C   UNL A   1      40.002  29.527  31.492  1.00  0.00     0.037 A 
ATOM     46  C   UNL A   1      41.442  32.137  37.302  1.00  0.00     0.049 A 
ATOM     47  C   UNL A   1      41.160  29.365  32.446  1.00  0.00     0.074 A 
ATOM     48  C   UNL A   1      42.508  31.840  38.130  1.00  0.00     0.029 A 
ATOM     49  N   UNL A   1      41.588  31.358  36.163  1.00  0.00    -0.354 N 
ATOM     50  N   UNL A   1      41.358  29.922  33.616  1.00  0.00    -0.248 NA
ATOM     51  C   UNL A   1      42.237  28.452  32.033  1.00  0.00     0.031 C 
ATOM     52  C   UNL A   1      43.330  30.920  37.471  1.00  0.00     0.029 A 
ATOM     53  C   UNL A   1      42.743  30.599  36.257  1.00  0.00     0.049 A 
ATOM     54  H   UNL A   1      40.965  31.347  35.402  1.00  0.00     0.167 HD
ATOM     55  C   UNL A   1      42.557  29.406  34.091  1.00  0.00     0.074 A 
ATOM     56  C   UNL A   1      43.038  28.480  33.088  1.00  0.00     0.031 C 
ATOM     57  C   UNL A   1      43.203  29.673  35.254  1.00  0.00     0.037 A 
BRANCH  44  58
ATOM     58  C   UNL A   1      40.376  33.886  38.778  1.00  0.00     0.064 A 
ATOM     59  C   UNL A   1      41.093  35.088  38.872  1.00  0.00     0.173 A 
ATOM     60  C   UNL A   1      39.639  33.472  39.897  1.00  0.00     0.173 A 
ATOM     61  F   UNL A   1      41.828  35.519  37.835  1.00  0.00    -0.203 F 
ATOM     62  C   UNL A   1      41.095  35.830  40.050  1.00  0.00     0.198 A 
ATOM     63  C   UNL A   1      39.618  34.232  41.063  1.00  0.00     0.198 A 
ATOM     64  F   UNL A   1      38.937  32.330  39.860  1.00  0.00    -0.203 F 
ATOM     65  F   UNL A   1      41.830  36.948  40.134  1.00  0.00    -0.200 F 
ATOM     66  C   UNL A   1      40.353  35.406  41.141  1.00  0.00     0.200 A 
ATOM     67  F   UNL A   1      38.892  33.826  42.113  1.00  0.00    -0.200 F 
ATOM     68  F   UNL A   1      40.350  36.125  42.272  1.00  0.00    -0.200 F 
ENDBRANCH  44  58
BRANCH  45  69
ATOM     69  C   UNL A   1      39.977  28.784  30.203  1.00  0.00     0.064 A 
ATOM     70  C   UNL A   1      39.390  27.514  30.112  1.00  0.00     0.173 A 
ATOM     71  C   UNL A   1      40.573  29.311  29.047  1.00  0.00     0.173 A 
ATOM     72  F   UNL A   1      38.836  26.954  31.197  1.00  0.00    -0.203 F 
ATOM     73  C   UNL A   1      39.417  26.791  28.921  1.00  0.00     0.198 A 
ATOM     74  C   UNL A   1      40.573  28.599  27.849  1.00  0.00     0.198 A 
ATOM     75  F   UNL A   1      41.155  30.518  29.082  1.00  0.00    -0.203 F 
ATOM     76  F   UNL A   1      38.898  25.556  28.877  1.00  0.00    -0.200 F 
ATOM     77  C   UNL A   1      40.004  27.337  27.789  1.00  0.00     0.200 A 
ATOM     78  F   UNL A   1      41.136  29.133  26.756  1.00  0.00    -0.200 F 
ATOM     79  F   UNL A   1      40.033  26.640  26.645  1.00  0.00    -0.200 F 
ENDBRANCH  45  69
BRANCH  57  80
ATOM     80  C   UNL A   1      44.475  28.923  35.530  1.00  0.00     0.064 A 
ATOM     81  C   UNL A   1      45.728  29.429  35.156  1.00  0.00     0.173 A 
ATOM     82  C   UNL A   1      44.442  27.703  36.225  1.00  0.00     0.173 A 
ATOM     83  F   UNL A   1      45.815  30.584  34.479  1.00  0.00    -0.203 F 
ATOM     84  C   UNL A   1      46.898  28.728  35.442  1.00  0.00     0.198 A 
ATOM     85  C   UNL A   1      45.614  27.023  36.539  1.00  0.00     0.198 A 
ATOM     86  F   UNL A   1      43.270  27.180  36.617  1.00  0.00    -0.203 F 
ATOM     87  F   UNL A   1      48.080  29.208  35.031  1.00  0.00    -0.200 F 
ATOM     88  C   UNL A   1      46.841  27.532  36.140  1.00  0.00     0.200 A 
ATOM     89  F   UNL A   1      45.558  25.875  37.229  1.00  0.00    -0.200 F 
ATOM     90  F   UNL A   1      47.968  26.865  36.423  1.00  0.00    -0.200 F 
ENDBRANCH  57  80
ENDBRANCH  31  32
ENDBRANCH  24  26
ENDBRANCH  23  24
ENDBRANCH  22  23
ENDBRANCH  21  22
ENDBRANCH  20  21
ENDBRANCH  19  20
ENDBRANCH  18  19
ENDBRANCH   1  18
TORSDOF 22
ENDMDL
MODEL 3
REMARK VINA RESULT:      -8.2      0.670      2.077
REMARK SMILES CCCCCC[C@H]1OCC[C@H]1C(=O)OCCOCCOCCOC(=O)c1ccc(-c2c3nc(c(-c4c(F)c(F)c(F)c(F)c4F)c4ccc([nH]4)c(-c4c(F)c(F)c(F)c(F)c4F)c4nc(c(-c5c(F)c(F)c(F)c(F)c5F)c5ccc2[nH]5)C=C4)C=C3)cc1
REMARK SMILES IDX 17 1 16 2 15 3 14 4 12 5 13 6 11 7 7 8 8 9 9 10 10 11 6 12
REMARK SMILES IDX 5 13 4 14 3 15 2 16 1 17 18 18 19 19 20 20 21 21 22 22 23 23
REMARK SMILES IDX 24 24 25 25 26 26 27 27 88 28 28 29 87 30 29 31 30 32 31 33
REMARK SMILES IDX 81 34 32 35 86 36 80 37 82 38 33 39 85 40 79 41 78 42 34 44
REMARK SMILES IDX 66 45 46 46 65 47 47 48 50 49 64 50 83 51 48 52 49 53 63 55
REMARK SMILES IDX 84 56 51 57 35 58 36 59 44 60 37 61 38 62 42 63 45 64 39 65
REMARK SMILES IDX 40 66 43 67 41 68 67 69 68 70 76 71 69 72 70 73 74 74 77 75
REMARK SMILES IDX 71 76 72 77 75 78 73 79 52 80 53 81 61 82 54 83 55 84 59 85
REMARK SMILES IDX 62 86 56 87 57 88 60 89 58 90
REMARK H PARENT 82 43 50 54
REMARK Flexibility Score: inf
ROOT
ATOM      1  O   UNL A   1      32.763  36.983  30.810  1.00  0.00    -0.376 OA
ENDROOT
BRANCH   1   2
ATOM      2  C   UNL A   1      33.155  36.603  32.130  1.00  0.00     0.202 C 
BRANCH   2   3
ATOM      3  C   UNL A   1      33.572  35.135  32.313  1.00  0.00     0.261 C 
BRANCH   3   4
ATOM      4  O   UNL A   1      34.399  34.872  33.474  1.00  0.00    -0.463 OA
BRANCH   4   5
ATOM      5  C   UNL A   1      35.693  34.578  33.230  1.00  0.00     0.311 C 
ATOM      6  O   UNL A   1      36.616  34.916  33.970  1.00  0.00    -0.252 OA
BRANCH   5   7
ATOM      7  C   UNL A   1      35.998  33.825  31.945  1.00  0.00     0.130 C 
ATOM      8  C   UNL A   1      37.363  33.520  31.332  1.00  0.00     0.132 C 
ATOM      9  O   UNL A   1      37.875  32.342  31.968  1.00  0.00    -0.377 OA
ATOM     10  C   UNL A   1      36.787  31.698  32.639  1.00  0.00     0.161 C 
ATOM     11  C   UNL A   1      35.519  32.395  32.184  1.00  0.00     0.046 C 
BRANCH   8  12
ATOM     12  C   UNL A   1      38.450  34.558  31.051  1.00  0.00     0.033 C 
BRANCH  12  13
ATOM     13  C   UNL A   1      39.114  34.596  29.683  1.00  0.00     0.003 C 
BRANCH  13  14
ATOM     14  C   UNL A   1      40.622  34.851  29.648  1.00  0.00     0.000 C 
BRANCH  14  15
ATOM     15  C   UNL A   1      41.128  35.425  28.323  1.00  0.00    -0.000 C 
BRANCH  15  16
ATOM     16  C   UNL A   1      42.409  36.260  28.437  1.00  0.00    -0.003 C 
ATOM     17  C   UNL A   1      42.195  37.741  28.152  1.00  0.00     0.004 C 
ENDBRANCH  15  16
ENDBRANCH  14  15
ENDBRANCH  13  14
ENDBRANCH  12  13
ENDBRANCH   8  12
ENDBRANCH   5   7
ENDBRANCH   4   5
ENDBRANCH   3   4
ENDBRANCH   2   3
ENDBRANCH   1   2
BRANCH   1  18
ATOM     18  C   UNL A   1      33.588  36.514  29.753  1.00  0.00     0.188 C 
BRANCH  18  19
ATOM     19  C   UNL A   1      32.905  35.568  28.767  1.00  0.00     0.188 C 
BRANCH  19  20
ATOM     20  O   UNL A   1      33.804  34.638  28.168  1.00  0.00    -0.376 OA
BRANCH  20  21
ATOM     21  C   UNL A   1      33.289  33.313  28.045  1.00  0.00     0.202 C 
BRANCH  21  22
ATOM     22  C   UNL A   1      34.213  32.238  28.622  1.00  0.00     0.261 C 
BRANCH  22  23
ATOM     23  O   UNL A   1      34.724  31.393  27.580  1.00  0.00    -0.460 OA
BRANCH  23  24
ATOM     24  C   UNL A   1      34.855  30.082  27.908  1.00  0.00     0.338 C 
ATOM     25  O   UNL A   1      34.019  29.202  27.774  1.00  0.00    -0.246 OA
BRANCH  24  26
ATOM     26  C   UNL A   1      36.263  29.808  28.290  1.00  0.00     0.060 A 
ATOM     27  C   UNL A   1      37.255  30.003  27.317  1.00  0.00     0.016 A 
ATOM     28  C   UNL A   1      36.623  29.455  29.593  1.00  0.00     0.016 A 
ATOM     29  C   UNL A   1      38.600  29.806  27.633  1.00  0.00     0.010 A 
ATOM     30  C   UNL A   1      37.968  29.258  29.910  1.00  0.00     0.010 A 
ATOM     31  C   UNL A   1      38.959  29.400  28.923  1.00  0.00    -0.014 A 
BRANCH  31  32
ATOM     32  C   UNL A   1      40.335  28.923  29.202  1.00  0.00     0.031 A 
ATOM     33  C   UNL A   1      41.265  29.847  29.938  1.00  0.00     0.074 A 
ATOM     34  C   UNL A   1      40.758  27.710  28.808  1.00  0.00     0.049 A 
ATOM     35  N   UNL A   1      42.531  29.700  30.230  1.00  0.00    -0.248 NA
ATOM     36  C   UNL A   1      40.684  31.119  30.400  1.00  0.00     0.031 C 
ATOM     37  C   UNL A   1      39.948  26.712  28.114  1.00  0.00     0.029 A 
ATOM     38  N   UNL A   1      41.993  27.120  28.926  1.00  0.00    -0.354 N 
ATOM     39  C   UNL A   1      42.898  30.861  30.897  1.00  0.00     0.074 A 
ATOM     40  C   UNL A   1      41.734  31.719  30.936  1.00  0.00     0.031 C 
ATOM     41  C   UNL A   1      40.711  25.636  27.853  1.00  0.00     0.029 A 
ATOM     42  C   UNL A   1      42.071  25.883  28.334  1.00  0.00     0.049 A 
ATOM     43  H   UNL A   1      42.750  27.543  29.391  1.00  0.00     0.167 HD
ATOM     44  C   UNL A   1      44.097  31.181  31.439  1.00  0.00     0.037 A 
ATOM     45  C   UNL A   1      43.127  25.060  28.181  1.00  0.00     0.037 A 
ATOM     46  C   UNL A   1      45.254  30.328  31.401  1.00  0.00     0.049 A 
ATOM     47  C   UNL A   1      44.471  25.468  28.735  1.00  0.00     0.074 A 
ATOM     48  C   UNL A   1      46.508  30.550  31.940  1.00  0.00     0.029 A 
ATOM     49  N   UNL A   1      45.298  29.089  30.779  1.00  0.00    -0.354 N 
ATOM     50  N   UNL A   1      44.804  26.551  29.394  1.00  0.00    -0.248 NA
ATOM     51  C   UNL A   1      45.586  24.532  28.525  1.00  0.00     0.031 C 
ATOM     52  C   UNL A   1      47.328  29.470  31.598  1.00  0.00     0.029 A 
ATOM     53  C   UNL A   1      46.567  28.547  30.898  1.00  0.00     0.049 A 
ATOM     54  H   UNL A   1      44.541  28.659  30.320  1.00  0.00     0.167 HD
ATOM     55  C   UNL A   1      46.151  26.413  29.705  1.00  0.00     0.074 A 
ATOM     56  C   UNL A   1      46.573  25.135  29.172  1.00  0.00     0.031 C 
ATOM     57  C   UNL A   1      46.968  27.267  30.372  1.00  0.00     0.037 A 
BRANCH  44  58
ATOM     58  C   UNL A   1      44.218  32.522  32.100  1.00  0.00     0.064 A 
ATOM     59  C   UNL A   1      44.058  32.680  33.484  1.00  0.00     0.173 A 
ATOM     60  C   UNL A   1      44.518  33.661  31.339  1.00  0.00     0.173 A 
ATOM     61  F   UNL A   1      43.751  31.625  34.254  1.00  0.00    -0.203 F 
ATOM     62  C   UNL A   1      44.166  33.935  34.079  1.00  0.00     0.198 A 
ATOM     63  C   UNL A   1      44.657  34.909  31.941  1.00  0.00     0.198 A 
ATOM     64  F   UNL A   1      44.681  33.565  30.011  1.00  0.00    -0.203 F 
ATOM     65  F   UNL A   1      43.956  34.071  35.396  1.00  0.00    -0.200 F 
ATOM     66  C   UNL A   1      44.472  35.046  33.308  1.00  0.00     0.200 A 
ATOM     67  F   UNL A   1      44.963  35.980  31.196  1.00  0.00    -0.200 F 
ATOM     68  F   UNL A   1      44.582  36.252  33.883  1.00  0.00    -0.200 F 
ENDBRANCH  44  58
BRANCH  45  69
ATOM     69  C   UNL A   1      42.969  23.767  27.463  1.00  0.00     0.064 A 
ATOM     70  C   UNL A   1      43.278  23.655  26.099  1.00  0.00     0.173 A 
ATOM     71  C   UNL A   1      42.471  22.628  28.113  1.00  0.00     0.173 A 
ATOM     72  F   UNL A   1      43.726  24.723  25.425  1.00  0.00    -0.203 F 
ATOM     73  C   UNL A   1      43.074  22.461  25.410  1.00  0.00     0.198 A 
ATOM     74  C   UNL A   1      42.296  21.427  27.430  1.00  0.00     0.198 A 
ATOM     75  F   UNL A   1      42.154  22.684  29.415  1.00  0.00    -0.203 F 
ATOM     76  F   UNL A   1      43.325  22.397  24.095  1.00  0.00    -0.200 F 
ATOM     77  C   UNL A   1      42.589  21.346  26.077  1.00  0.00     0.200 A 
ATOM     78  F   UNL A   1      41.834  20.351  28.081  1.00  0.00    -0.200 F 
ATOM     79  F   UNL A   1      42.391  20.199  25.414  1.00  0.00    -0.200 F 
ENDBRANCH  45  69
BRANCH  57  80
ATOM     80  C   UNL A   1      48.386  26.831  30.607  1.00  0.00     0.064 A 
ATOM     81  C   UNL A   1      49.428  27.208  29.747  1.00  0.00     0.173 A 
ATOM     82  C   UNL A   1      48.714  26.066  31.738  1.00  0.00     0.173 A 
ATOM     83  F   UNL A   1      49.167  27.929  28.646  1.00  0.00    -0.203 F 
ATOM     84  C   UNL A   1      50.741  26.813  29.996  1.00  0.00     0.198 A 
ATOM     85  C   UNL A   1      50.031  25.702  32.002  1.00  0.00     0.198 A 
ATOM     86  F   UNL A   1      47.757  25.688  32.599  1.00  0.00    -0.203 F 
ATOM     87  F   UNL A   1      51.712  27.145  29.135  1.00  0.00    -0.200 F 
ATOM     88  C   UNL A   1      51.042  26.068  31.126  1.00  0.00     0.200 A 
ATOM     89  F   UNL A   1      50.323  24.996  33.103  1.00  0.00    -0.200 F 
ATOM     90  F   UNL A   1      52.306  25.698  31.369  1.00  0.00    -0.200 F 
ENDBRANCH  57  80
ENDBRANCH  31  32
ENDBRANCH  24  26
ENDBRANCH  23  24
ENDBRANCH  22  23
ENDBRANCH  21  22
ENDBRANCH  20  21
ENDBRANCH  19  20
ENDBRANCH  18  19
ENDBRANCH   1  18
TORSDOF 22
ENDMDL
