MODEL 1
REMARK VINA RESULT:      -9.8      0.000      0.000
REMARK SMILES O=C(COCCNc1nncs1)OCCOCCOCCOC(=O)c1ccc(-c2c3nc(c(-c4c(F)c(F)c(F)c(F)c4F)c4ccc([nH]4)c(-c4c(F)c(F)c(F)c(F)c4F)c4nc(c(-c5c(F)c(F)c(F)c(F)c5F)c5ccc2[nH]5)C=C4)C=C3)cc1
REMARK SMILES IDX 16 1 15 2 14 3 13 4 2 5 1 6 3 7 4 8 5 9 6 10 7 11 8 13 9 14
REMARK SMILES IDX 12 15 10 16 11 17 17 18 18 19 19 20 20 21 21 22 22 23 23 24
REMARK SMILES IDX 24 25 25 26 26 27 87 28 27 29 86 30 28 31 29 32 30 33 80 34
REMARK SMILES IDX 31 35 85 36 79 37 81 38 32 39 84 40 78 41 77 42 33 44 65 45
REMARK SMILES IDX 45 46 64 47 46 48 49 49 63 50 82 51 47 52 48 53 62 55 83 56
REMARK SMILES IDX 50 57 34 58 35 59 43 60 36 61 37 62 41 63 44 64 38 65 39 66
REMARK SMILES IDX 42 67 40 68 66 69 67 70 75 71 68 72 69 73 73 74 76 75 70 76
REMARK SMILES IDX 71 77 74 78 72 79 51 80 52 81 60 82 53 83 54 84 58 85 61 86
REMARK SMILES IDX 55 87 56 88 59 89 57 90
REMARK H PARENT 7 12 81 43 49 54
REMARK Flexibility Score: inf
ROOT
ATOM      1  O   UNL A   1      33.497  23.126  24.515  1.00  0.00    -0.376 OA
ENDROOT
BRANCH   1   2
ATOM      2  C   UNL A   1      33.259  22.444  23.301  1.00  0.00     0.202 C 
BRANCH   2   3
ATOM      3  C   UNL A   1      33.057  23.386  22.109  1.00  0.00     0.261 C 
BRANCH   3   4
ATOM      4  O   UNL A   1      33.564  24.728  22.289  1.00  0.00    -0.462 OA
BRANCH   4   5
ATOM      5  C   UNL A   1      32.973  25.860  21.831  1.00  0.00     0.332 C 
ATOM      6  O   UNL A   1      33.646  26.691  21.228  1.00  0.00    -0.250 OA
BRANCH   5   7
ATOM      7  C   UNL A   1      31.508  26.101  22.226  1.00  0.00     0.282 C 
BRANCH   7   8
ATOM      8  O   UNL A   1      30.873  27.338  21.963  1.00  0.00    -0.368 OA
BRANCH   8   9
ATOM      9  C   UNL A   1      30.426  28.097  23.086  1.00  0.00     0.182 C 
BRANCH   9  10
ATOM     10  C   UNL A   1      28.933  27.920  23.396  1.00  0.00     0.143 C 
BRANCH  10  11
ATOM     11  N   UNL A   1      28.080  28.600  22.439  1.00  0.00    -0.358 N 
ATOM     12  H   UNL A   1      27.405  28.057  21.971  1.00  0.00     0.163 HD
BRANCH  11  13
ATOM     13  C   UNL A   1      28.137  29.918  22.134  1.00  0.00     0.205 A 
ATOM     14  N   UNL A   1      28.131  30.344  20.886  1.00  0.00    -0.121 NA
ATOM     15  S   UNL A   1      28.254  31.211  23.277  1.00  0.00    -0.083 S 
ATOM     16  N   UNL A   1      28.244  31.716  20.774  1.00  0.00    -0.145 NA
ATOM     17  C   UNL A   1      28.324  32.290  21.952  1.00  0.00     0.204 A 
ENDBRANCH  11  13
ENDBRANCH  10  11
ENDBRANCH   9  10
ENDBRANCH   8   9
ENDBRANCH   7   8
ENDBRANCH   5   7
ENDBRANCH   4   5
ENDBRANCH   3   4
ENDBRANCH   2   3
ENDBRANCH   1   2
BRANCH   1  18
ATOM     18  C   UNL A   1      33.002  22.536  25.704  1.00  0.00     0.188 C 
BRANCH  18  19
ATOM     19  C   UNL A   1      33.963  21.481  26.280  1.00  0.00     0.188 C 
BRANCH  19  20
ATOM     20  O   UNL A   1      35.333  21.512  25.897  1.00  0.00    -0.376 OA
BRANCH  20  21
ATOM     21  C   UNL A   1      35.815  20.534  24.978  1.00  0.00     0.202 C 
BRANCH  21  22
ATOM     22  C   UNL A   1      37.298  20.140  25.035  1.00  0.00     0.261 C 
BRANCH  22  23
ATOM     23  O   UNL A   1      38.213  21.248  25.175  1.00  0.00    -0.460 OA
BRANCH  23  24
ATOM     24  C   UNL A   1      39.266  21.019  25.997  1.00  0.00     0.338 C 
ATOM     25  O   UNL A   1      39.884  19.977  26.140  1.00  0.00    -0.246 OA
BRANCH  24  26
ATOM     26  C   UNL A   1      39.682  22.256  26.683  1.00  0.00     0.060 A 
ATOM     27  C   UNL A   1      39.135  23.473  26.256  1.00  0.00     0.016 A 
ATOM     28  C   UNL A   1      40.734  22.238  27.600  1.00  0.00     0.016 A 
ATOM     29  C   UNL A   1      39.670  24.680  26.712  1.00  0.00     0.010 A 
ATOM     30  C   UNL A   1      41.278  23.449  28.045  1.00  0.00     0.010 A 
ATOM     31  C   UNL A   1      40.777  24.676  27.572  1.00  0.00    -0.014 A 
BRANCH  31  32
ATOM     32  C   UNL A   1      41.513  25.937  27.849  1.00  0.00     0.031 A 
ATOM     33  C   UNL A   1      40.817  27.042  28.598  1.00  0.00     0.074 A 
ATOM     34  C   UNL A   1      42.785  26.105  27.447  1.00  0.00     0.049 A 
ATOM     35  N   UNL A   1      41.238  28.249  28.883  1.00  0.00    -0.248 NA
ATOM     36  C   UNL A   1      39.462  26.747  29.089  1.00  0.00     0.031 C 
ATOM     37  C   UNL A   1      43.591  25.102  26.756  1.00  0.00     0.029 A 
ATOM     38  N   UNL A   1      43.617  27.193  27.555  1.00  0.00    -0.354 N 
ATOM     39  C   UNL A   1      40.202  28.856  29.582  1.00  0.00     0.074 A 
ATOM     40  C   UNL A   1      39.122  27.896  29.657  1.00  0.00     0.031 C 
ATOM     41  C   UNL A   1      44.798  25.628  26.483  1.00  0.00     0.029 A 
ATOM     42  C   UNL A   1      44.837  27.014  26.952  1.00  0.00     0.049 A 
ATOM     43  H   UNL A   1      43.362  28.022  28.020  1.00  0.00     0.167 HD
ATOM     44  C   UNL A   1      40.158  30.100  30.119  1.00  0.00     0.037 A 
ATOM     45  C   UNL A   1      45.856  27.877  26.777  1.00  0.00     0.037 A 
ATOM     46  C   UNL A   1      41.229  31.059  30.055  1.00  0.00     0.049 A 
ATOM     47  C   UNL A   1      45.752  29.280  27.319  1.00  0.00     0.074 A 
ATOM     48  C   UNL A   1      41.278  32.334  30.590  1.00  0.00     0.029 A 
ATOM     49  N   UNL A   1      42.438  30.848  29.412  1.00  0.00    -0.354 N 
ATOM     50  N   UNL A   1      44.778  29.838  27.995  1.00  0.00    -0.248 NA
ATOM     51  C   UNL A   1      46.894  30.175  27.070  1.00  0.00     0.031 C 
ATOM     52  C   UNL A   1      42.500  32.913  30.232  1.00  0.00     0.029 A 
ATOM     53  C   UNL A   1      43.230  31.980  29.514  1.00  0.00     0.049 A 
ATOM     54  H   UNL A   1      42.696  30.017  28.951  1.00  0.00     0.167 HD
ATOM     55  C   UNL A   1      45.201  31.130  28.280  1.00  0.00     0.074 A 
ATOM     56  C   UNL A   1      46.523  31.274  27.711  1.00  0.00     0.031 C 
ATOM     57  C   UNL A   1      44.551  32.110  28.956  1.00  0.00     0.037 A 
BRANCH  44  58
ATOM     58  C   UNL A   1      38.892  30.510  30.813  1.00  0.00     0.064 A 
ATOM     59  C   UNL A   1      38.782  30.488  32.211  1.00  0.00     0.173 A 
ATOM     60  C   UNL A   1      37.799  30.982  30.072  1.00  0.00     0.173 A 
ATOM     61  F   UNL A   1      39.796  30.035  32.962  1.00  0.00    -0.203 F 
ATOM     62  C   UNL A   1      37.614  30.909  32.842  1.00  0.00     0.198 A 
ATOM     63  C   UNL A   1      36.642  31.426  30.707  1.00  0.00     0.198 A 
ATOM     64  F   UNL A   1      37.859  31.028  28.733  1.00  0.00    -0.203 F 
ATOM     65  F   UNL A   1      37.515  30.849  34.177  1.00  0.00    -0.200 F 
ATOM     66  C   UNL A   1      36.548  31.385  32.090  1.00  0.00     0.200 A 
ATOM     67  F   UNL A   1      35.619  31.896  29.980  1.00  0.00    -0.200 F 
ATOM     68  F   UNL A   1      35.429  31.800  32.699  1.00  0.00    -0.200 F 
ENDBRANCH  44  58
BRANCH  45  69
ATOM     69  C   UNL A   1      47.070  27.452  26.032  1.00  0.00     0.064 A 
ATOM     70  C   UNL A   1      48.184  26.928  26.702  1.00  0.00     0.173 A 
ATOM     71  C   UNL A   1      47.154  27.597  24.640  1.00  0.00     0.173 A 
ATOM     72  F   UNL A   1      48.163  26.798  28.036  1.00  0.00    -0.203 F 
ATOM     73  C   UNL A   1      49.343  26.584  26.010  1.00  0.00     0.198 A 
ATOM     74  C   UNL A   1      48.303  27.228  23.945  1.00  0.00     0.198 A 
ATOM     75  F   UNL A   1      46.116  28.098  23.953  1.00  0.00    -0.203 F 
ATOM     76  F   UNL A   1      50.412  26.132  26.679  1.00  0.00    -0.200 F 
ATOM     77  C   UNL A   1      49.400  26.730  24.632  1.00  0.00     0.200 A 
ATOM     78  F   UNL A   1      48.350  27.361  22.613  1.00  0.00    -0.200 F 
ATOM     79  F   UNL A   1      50.515  26.400  23.966  1.00  0.00    -0.200 F 
ENDBRANCH  45  69
BRANCH  57  80
ATOM     80  C   UNL A   1      45.271  33.411  29.155  1.00  0.00     0.064 A 
ATOM     81  C   UNL A   1      45.132  34.476  28.253  1.00  0.00     0.173 A 
ATOM     82  C   UNL A   1      46.074  33.613  30.288  1.00  0.00     0.173 A 
ATOM     83  F   UNL A   1      44.387  34.329  27.147  1.00  0.00    -0.203 F 
ATOM     84  C   UNL A   1      45.788  35.686  28.467  1.00  0.00     0.198 A 
ATOM     85  C   UNL A   1      46.707  34.832  30.513  1.00  0.00     0.198 A 
ATOM     86  F   UNL A   1      46.236  32.629  31.186  1.00  0.00    -0.203 F 
ATOM     87  F   UNL A   1      45.675  36.675  27.569  1.00  0.00    -0.200 F 
ATOM     88  C   UNL A   1      46.569  35.865  29.599  1.00  0.00     0.200 A 
ATOM     89  F   UNL A   1      47.452  35.008  31.614  1.00  0.00    -0.200 F 
ATOM     90  F   UNL A   1      47.194  37.033  29.805  1.00  0.00    -0.200 F 
ENDBRANCH  57  80
ENDBRANCH  31  32
ENDBRANCH  24  26
ENDBRANCH  23  24
ENDBRANCH  22  23
ENDBRANCH  21  22
ENDBRANCH  20  21
ENDBRANCH  19  20
ENDBRANCH  18  19
ENDBRANCH   1  18
TORSDOF 22
ENDMDL
MODEL 2
REMARK VINA RESULT:      -9.7      5.285     10.562
REMARK SMILES O=C(COCCNc1nncs1)OCCOCCOCCOC(=O)c1ccc(-c2c3nc(c(-c4c(F)c(F)c(F)c(F)c4F)c4ccc([nH]4)c(-c4c(F)c(F)c(F)c(F)c4F)c4nc(c(-c5c(F)c(F)c(F)c(F)c5F)c5ccc2[nH]5)C=C4)C=C3)cc1
REMARK SMILES IDX 16 1 15 2 14 3 13 4 2 5 1 6 3 7 4 8 5 9 6 10 7 11 8 13 9 14
REMARK SMILES IDX 12 15 10 16 11 17 17 18 18 19 19 20 20 21 21 22 22 23 23 24
REMARK SMILES IDX 24 25 25 26 26 27 87 28 27 29 86 30 28 31 29 32 30 33 80 34
REMARK SMILES IDX 31 35 85 36 79 37 81 38 32 39 84 40 78 41 77 42 33 44 65 45
REMARK SMILES IDX 45 46 64 47 46 48 49 49 63 50 82 51 47 52 48 53 62 55 83 56
REMARK SMILES IDX 50 57 34 58 35 59 43 60 36 61 37 62 41 63 44 64 38 65 39 66
REMARK SMILES IDX 42 67 40 68 66 69 67 70 75 71 68 72 69 73 73 74 76 75 70 76
REMARK SMILES IDX 71 77 74 78 72 79 51 80 52 81 60 82 53 83 54 84 58 85 61 86
REMARK SMILES IDX 55 87 56 88 59 89 57 90
REMARK H PARENT 7 12 81 43 49 54
REMARK Flexibility Score: inf
ROOT
ATOM      1  O   UNL A   1      34.243  25.242  25.716  1.00  0.00    -0.376 OA
ENDROOT
BRANCH   1   2
ATOM      2  C   UNL A   1      35.066  24.286  25.080  1.00  0.00     0.202 C 
BRANCH   2   3
ATOM      3  C   UNL A   1      36.422  24.104  25.771  1.00  0.00     0.261 C 
BRANCH   3   4
ATOM      4  O   UNL A   1      37.395  23.333  25.030  1.00  0.00    -0.462 OA
BRANCH   4   5
ATOM      5  C   UNL A   1      37.833  22.092  25.361  1.00  0.00     0.332 C 
ATOM      6  O   UNL A   1      38.987  21.943  25.750  1.00  0.00    -0.250 OA
BRANCH   5   7
ATOM      7  C   UNL A   1      36.886  20.913  25.088  1.00  0.00     0.282 C 
BRANCH   7   8
ATOM      8  O   UNL A   1      35.533  20.952  25.498  1.00  0.00    -0.368 OA
BRANCH   8   9
ATOM      9  C   UNL A   1      34.666  19.936  24.994  1.00  0.00     0.182 C 
BRANCH   9  10
ATOM     10  C   UNL A   1      35.389  18.634  24.625  1.00  0.00     0.143 C 
BRANCH  10  11
ATOM     11  N   UNL A   1      34.510  17.664  24.001  1.00  0.00    -0.358 N 
ATOM     12  H   UNL A   1      34.352  17.756  23.034  1.00  0.00     0.163 HD
BRANCH  11  13
ATOM     13  C   UNL A   1      33.886  16.645  24.639  1.00  0.00     0.205 A 
ATOM     14  N   UNL A   1      34.429  15.447  24.734  1.00  0.00    -0.121 NA
ATOM     15  S   UNL A   1      32.324  16.726  25.376  1.00  0.00    -0.083 S 
ATOM     16  N   UNL A   1      33.622  14.528  25.376  1.00  0.00    -0.145 NA
ATOM     17  C   UNL A   1      32.487  15.067  25.757  1.00  0.00     0.204 A 
ENDBRANCH  11  13
ENDBRANCH  10  11
ENDBRANCH   9  10
ENDBRANCH   8   9
ENDBRANCH   7   8
ENDBRANCH   5   7
ENDBRANCH   4   5
ENDBRANCH   3   4
ENDBRANCH   2   3
ENDBRANCH   1   2
BRANCH   1  18
ATOM     18  C   UNL A   1      33.706  26.278  24.913  1.00  0.00     0.188 C 
BRANCH  18  19
ATOM     19  C   UNL A   1      33.148  27.443  25.751  1.00  0.00     0.188 C 
BRANCH  19  20
ATOM     20  O   UNL A   1      33.329  28.775  25.286  1.00  0.00    -0.376 OA
BRANCH  20  21
ATOM     21  C   UNL A   1      32.179  29.574  25.013  1.00  0.00     0.202 C 
BRANCH  21  22
ATOM     22  C   UNL A   1      31.776  30.652  26.029  1.00  0.00     0.261 C 
BRANCH  22  23
ATOM     23  O   UNL A   1      32.545  30.651  27.249  1.00  0.00    -0.460 OA
BRANCH  23  24
ATOM     24  C   UNL A   1      33.344  31.732  27.422  1.00  0.00     0.338 C 
ATOM     25  O   UNL A   1      33.022  32.907  27.384  1.00  0.00    -0.246 OA
BRANCH  24  26
ATOM     26  C   UNL A   1      34.717  31.325  27.775  1.00  0.00     0.060 A 
ATOM     27  C   UNL A   1      34.962  29.975  28.058  1.00  0.00     0.016 A 
ATOM     28  C   UNL A   1      35.702  32.286  28.009  1.00  0.00     0.016 A 
ATOM     29  C   UNL A   1      36.181  29.587  28.621  1.00  0.00     0.010 A 
ATOM     30  C   UNL A   1      36.917  31.896  28.585  1.00  0.00     0.010 A 
ATOM     31  C   UNL A   1      37.147  30.552  28.932  1.00  0.00    -0.014 A 
BRANCH  31  32
ATOM     32  C   UNL A   1      38.324  30.190  29.765  1.00  0.00     0.031 A 
ATOM     33  C   UNL A   1      39.336  29.217  29.219  1.00  0.00     0.074 A 
ATOM     34  C   UNL A   1      38.501  30.716  30.989  1.00  0.00     0.049 A 
ATOM     35  N   UNL A   1      40.394  28.704  29.796  1.00  0.00    -0.248 NA
ATOM     36  C   UNL A   1      39.125  28.761  27.836  1.00  0.00     0.031 C 
ATOM     37  C   UNL A   1      37.627  31.702  31.619  1.00  0.00     0.029 A 
ATOM     38  N   UNL A   1      39.477  30.481  31.927  1.00  0.00    -0.354 N 
ATOM     39  C   UNL A   1      40.970  27.864  28.851  1.00  0.00     0.074 A 
ATOM     40  C   UNL A   1      40.133  27.916  27.672  1.00  0.00     0.031 C 
ATOM     41  C   UNL A   1      38.094  31.973  32.851  1.00  0.00     0.029 A 
ATOM     42  C   UNL A   1      39.282  31.157  33.105  1.00  0.00     0.049 A 
ATOM     43  H   UNL A   1      40.243  29.883  31.769  1.00  0.00     0.167 HD
ATOM     44  C   UNL A   1      42.099  27.122  28.954  1.00  0.00     0.037 A 
ATOM     45  C   UNL A   1      39.968  31.105  34.263  1.00  0.00     0.037 A 
ATOM     46  C   UNL A   1      42.941  27.069  30.121  1.00  0.00     0.049 A 
ATOM     47  C   UNL A   1      41.178  30.213  34.378  1.00  0.00     0.074 A 
ATOM     48  C   UNL A   1      44.115  26.360  30.306  1.00  0.00     0.029 A 
ATOM     49  N   UNL A   1      42.693  27.749  31.303  1.00  0.00    -0.354 N 
ATOM     50  N   UNL A   1      41.727  29.439  33.473  1.00  0.00    -0.248 NA
ATOM     51  C   UNL A   1      41.865  30.188  35.679  1.00  0.00     0.031 C 
ATOM     52  C   UNL A   1      44.556  26.575  31.615  1.00  0.00     0.029 A 
ATOM     53  C   UNL A   1      43.680  27.455  32.231  1.00  0.00     0.049 A 
ATOM     54  H   UNL A   1      41.931  28.350  31.460  1.00  0.00     0.167 HD
ATOM     55  C   UNL A   1      42.836  28.865  34.083  1.00  0.00     0.074 A 
ATOM     56  C   UNL A   1      42.889  29.383  35.432  1.00  0.00     0.031 C 
ATOM     57  C   UNL A   1      43.732  27.987  33.568  1.00  0.00     0.037 A 
BRANCH  44  58
ATOM     58  C   UNL A   1      42.487  26.281  27.774  1.00  0.00     0.064 A 
ATOM     59  C   UNL A   1      43.384  26.749  26.803  1.00  0.00     0.173 A 
ATOM     60  C   UNL A   1      41.997  24.974  27.643  1.00  0.00     0.173 A 
ATOM     61  F   UNL A   1      43.871  27.997  26.877  1.00  0.00    -0.203 F 
ATOM     62  C   UNL A   1      43.764  25.943  25.733  1.00  0.00     0.198 A 
ATOM     63  C   UNL A   1      42.399  24.161  26.587  1.00  0.00     0.198 A 
ATOM     64  F   UNL A   1      41.142  24.479  28.551  1.00  0.00    -0.203 F 
ATOM     65  F   UNL A   1      44.596  26.420  24.797  1.00  0.00    -0.200 F 
ATOM     66  C   UNL A   1      43.277  24.647  25.630  1.00  0.00     0.200 A 
ATOM     67  F   UNL A   1      41.937  22.906  26.496  1.00  0.00    -0.200 F 
ATOM     68  F   UNL A   1      43.652  23.868  24.607  1.00  0.00    -0.200 F 
ENDBRANCH  44  58
BRANCH  45  69
ATOM     69  C   UNL A   1      39.518  31.907  35.431  1.00  0.00     0.064 A 
ATOM     70  C   UNL A   1      38.586  31.395  36.344  1.00  0.00     0.173 A 
ATOM     71  C   UNL A   1      39.981  33.214  35.633  1.00  0.00     0.173 A 
ATOM     72  F   UNL A   1      38.092  30.160  36.176  1.00  0.00    -0.203 F 
ATOM     73  C   UNL A   1      38.121  32.169  37.406  1.00  0.00     0.198 A 
ATOM     74  C   UNL A   1      39.536  33.978  36.710  1.00  0.00     0.198 A 
ATOM     75  F   UNL A   1      40.871  33.752  34.784  1.00  0.00    -0.203 F 
ATOM     76  F   UNL A   1      37.193  31.674  38.237  1.00  0.00    -0.200 F 
ATOM     77  C   UNL A   1      38.599  33.458  37.590  1.00  0.00     0.200 A 
ATOM     78  F   UNL A   1      40.008  35.218  36.890  1.00  0.00    -0.200 F 
ATOM     79  F   UNL A   1      38.151  34.201  38.610  1.00  0.00    -0.200 F 
ENDBRANCH  45  69
BRANCH  57  80
ATOM     80  C   UNL A   1      44.870  27.560  34.447  1.00  0.00     0.064 A 
ATOM     81  C   UNL A   1      46.063  28.294  34.517  1.00  0.00     0.173 A 
ATOM     82  C   UNL A   1      44.748  26.427  35.267  1.00  0.00     0.173 A 
ATOM     83  F   UNL A   1      46.235  29.376  33.743  1.00  0.00    -0.203 F 
ATOM     84  C   UNL A   1      47.100  27.896  35.357  1.00  0.00     0.198 A 
ATOM     85  C   UNL A   1      45.776  26.048  36.125  1.00  0.00     0.198 A 
ATOM     86  F   UNL A   1      43.625  25.693  35.244  1.00  0.00    -0.203 F 
ATOM     87  F   UNL A   1      48.248  28.589  35.375  1.00  0.00    -0.200 F 
ATOM     88  C   UNL A   1      46.953  26.778  36.165  1.00  0.00     0.200 A 
ATOM     89  F   UNL A   1      45.628  24.974  36.915  1.00  0.00    -0.200 F 
ATOM     90  F   UNL A   1      47.951  26.402  36.978  1.00  0.00    -0.200 F 
ENDBRANCH  57  80
ENDBRANCH  31  32
ENDBRANCH  24  26
ENDBRANCH  23  24
ENDBRANCH  22  23
ENDBRANCH  21  22
ENDBRANCH  20  21
ENDBRANCH  19  20
ENDBRANCH  18  19
ENDBRANCH   1  18
TORSDOF 22
ENDMDL
MODEL 3
REMARK VINA RESULT:      -9.7      1.338      2.089
REMARK SMILES O=C(COCCNc1nncs1)OCCOCCOCCOC(=O)c1ccc(-c2c3nc(c(-c4c(F)c(F)c(F)c(F)c4F)c4ccc([nH]4)c(-c4c(F)c(F)c(F)c(F)c4F)c4nc(c(-c5c(F)c(F)c(F)c(F)c5F)c5ccc2[nH]5)C=C4)C=C3)cc1
REMARK SMILES IDX 16 1 15 2 14 3 13 4 2 5 1 6 3 7 4 8 5 9 6 10 7 11 8 13 9 14
REMARK SMILES IDX 12 15 10 16 11 17 17 18 18 19 19 20 20 21 21 22 22 23 23 24
REMARK SMILES IDX 24 25 25 26 26 27 87 28 27 29 86 30 28 31 29 32 30 33 80 34
REMARK SMILES IDX 31 35 85 36 79 37 81 38 32 39 84 40 78 41 77 42 33 44 65 45
REMARK SMILES IDX 45 46 64 47 46 48 49 49 63 50 82 51 47 52 48 53 62 55 83 56
REMARK SMILES IDX 50 57 34 58 35 59 43 60 36 61 37 62 41 63 44 64 38 65 39 66
REMARK SMILES IDX 42 67 40 68 66 69 67 70 75 71 68 72 69 73 73 74 76 75 70 76
REMARK SMILES IDX 71 77 74 78 72 79 51 80 52 81 60 82 53 83 54 84 58 85 61 86
REMARK SMILES IDX 55 87 56 88 59 89 57 90
REMARK H PARENT 7 12 81 43 49 54
REMARK Flexibility Score: inf
ROOT
ATOM      1  O   UNL A   1      33.501  23.194  24.504  1.00  0.00    -0.376 OA
ENDROOT
BRANCH   1   2
ATOM      2  C   UNL A   1      33.335  22.519  23.274  1.00  0.00     0.202 C 
BRANCH   2   3
ATOM      3  C   UNL A   1      33.122  23.468  22.089  1.00  0.00     0.261 C 
BRANCH   3   4
ATOM      4  O   UNL A   1      33.584  24.822  22.292  1.00  0.00    -0.462 OA
BRANCH   4   5
ATOM      5  C   UNL A   1      32.978  25.940  21.816  1.00  0.00     0.332 C 
ATOM      6  O   UNL A   1      33.653  26.805  21.267  1.00  0.00    -0.250 OA
BRANCH   5   7
ATOM      7  C   UNL A   1      31.484  26.119  22.126  1.00  0.00     0.282 C 
BRANCH   7   8
ATOM      8  O   UNL A   1      30.857  27.381  22.001  1.00  0.00    -0.368 OA
BRANCH   8   9
ATOM      9  C   UNL A   1      30.162  27.884  23.142  1.00  0.00     0.182 C 
BRANCH   9  10
ATOM     10  C   UNL A   1      30.343  29.392  23.361  1.00  0.00     0.143 C 
BRANCH  10  11
ATOM     11  N   UNL A   1      31.501  29.704  24.175  1.00  0.00    -0.358 N 
ATOM     12  H   UNL A   1      31.797  30.642  24.198  1.00  0.00     0.163 HD
BRANCH  11  13
ATOM     13  C   UNL A   1      32.211  28.811  24.906  1.00  0.00     0.205 A 
ATOM     14  N   UNL A   1      33.329  28.275  24.454  1.00  0.00    -0.121 NA
ATOM     15  S   UNL A   1      31.778  28.221  26.472  1.00  0.00    -0.083 S 
ATOM     16  N   UNL A   1      33.883  27.352  25.319  1.00  0.00    -0.145 NA
ATOM     17  C   UNL A   1      33.165  27.224  26.411  1.00  0.00     0.204 A 
ENDBRANCH  11  13
ENDBRANCH  10  11
ENDBRANCH   9  10
ENDBRANCH   8   9
ENDBRANCH   7   8
ENDBRANCH   5   7
ENDBRANCH   4   5
ENDBRANCH   3   4
ENDBRANCH   2   3
ENDBRANCH   1   2
BRANCH   1  18
ATOM     18  C   UNL A   1      32.979  22.574  25.665  1.00  0.00     0.188 C 
BRANCH  18  19
ATOM     19  C   UNL A   1      33.944  21.533  26.261  1.00  0.00     0.188 C 
BRANCH  19  20
ATOM     20  O   UNL A   1      35.322  21.590  25.909  1.00  0.00    -0.376 OA
BRANCH  20  21
ATOM     21  C   UNL A   1      35.844  20.621  25.002  1.00  0.00     0.202 C 
BRANCH  21  22
ATOM     22  C   UNL A   1      37.319  20.216  25.128  1.00  0.00     0.261 C 
BRANCH  22  23
ATOM     23  O   UNL A   1      38.244  21.320  25.221  1.00  0.00    -0.460 OA
BRANCH  23  24
ATOM     24  C   UNL A   1      39.290  21.121  26.059  1.00  0.00     0.338 C 
ATOM     25  O   UNL A   1      39.913  20.087  26.236  1.00  0.00    -0.246 OA
BRANCH  24  26
ATOM     26  C   UNL A   1      39.693  22.379  26.714  1.00  0.00     0.060 A 
ATOM     27  C   UNL A   1      39.132  23.579  26.257  1.00  0.00     0.016 A 
ATOM     28  C   UNL A   1      40.745  22.395  27.631  1.00  0.00     0.016 A 
ATOM     29  C   UNL A   1      39.654  24.803  26.683  1.00  0.00     0.010 A 
ATOM     30  C   UNL A   1      41.275  23.622  28.046  1.00  0.00     0.010 A 
ATOM     31  C   UNL A   1      40.761  24.832  27.542  1.00  0.00    -0.014 A 
BRANCH  31  32
ATOM     32  C   UNL A   1      41.483  26.107  27.788  1.00  0.00     0.031 A 
ATOM     33  C   UNL A   1      40.775  27.223  28.511  1.00  0.00     0.074 A 
ATOM     34  C   UNL A   1      42.754  26.279  27.382  1.00  0.00     0.049 A 
ATOM     35  N   UNL A   1      41.184  28.441  28.766  1.00  0.00    -0.248 NA
ATOM     36  C   UNL A   1      39.424  26.925  29.009  1.00  0.00     0.031 C 
ATOM     37  C   UNL A   1      43.570  25.269  26.715  1.00  0.00     0.029 A 
ATOM     38  N   UNL A   1      43.573  27.379  27.463  1.00  0.00    -0.354 N 
ATOM     39  C   UNL A   1      40.141  29.053  29.450  1.00  0.00     0.074 A 
ATOM     40  C   UNL A   1      39.072  28.084  29.549  1.00  0.00     0.031 C 
ATOM     41  C   UNL A   1      44.771  25.802  26.428  1.00  0.00     0.029 A 
ATOM     42  C   UNL A   1      44.795  27.199  26.863  1.00  0.00     0.049 A 
ATOM     43  H   UNL A   1      43.309  28.216  27.908  1.00  0.00     0.167 HD
ATOM     44  C   UNL A   1      40.083  30.309  29.958  1.00  0.00     0.037 A 
ATOM     45  C   UNL A   1      45.805  28.068  26.666  1.00  0.00     0.037 A 
ATOM     46  C   UNL A   1      41.144  31.278  29.869  1.00  0.00     0.049 A 
ATOM     47  C   UNL A   1      45.685  29.483  27.174  1.00  0.00     0.074 A 
ATOM     48  C   UNL A   1      41.179  32.567  30.373  1.00  0.00     0.029 A 
ATOM     49  N   UNL A   1      42.355  31.064  29.231  1.00  0.00    -0.354 N 
ATOM     50  N   UNL A   1      44.705  30.046  27.838  1.00  0.00    -0.248 NA
ATOM     51  C   UNL A   1      46.817  30.384  26.903  1.00  0.00     0.031 C 
ATOM     52  C   UNL A   1      42.394  33.150  30.001  1.00  0.00     0.029 A 
ATOM     53  C   UNL A   1      43.135  32.208  29.305  1.00  0.00     0.049 A 
ATOM     54  H   UNL A   1      42.622  30.226  28.790  1.00  0.00     0.167 HD
ATOM     55  C   UNL A   1      45.114  31.350  28.091  1.00  0.00     0.074 A 
ATOM     56  C   UNL A   1      46.434  31.494  27.517  1.00  0.00     0.031 C 
ATOM     57  C   UNL A   1      44.454  32.338  28.743  1.00  0.00     0.037 A 
BRANCH  44  58
ATOM     58  C   UNL A   1      38.814  30.722  30.642  1.00  0.00     0.064 A 
ATOM     59  C   UNL A   1      37.699  31.165  29.915  1.00  0.00     0.173 A 
ATOM     60  C   UNL A   1      38.694  30.620  32.035  1.00  0.00     0.173 A 
ATOM     61  F   UNL A   1      37.768  31.290  28.582  1.00  0.00    -0.203 F 
ATOM     62  C   UNL A   1      36.515  31.508  30.562  1.00  0.00     0.198 A 
ATOM     63  C   UNL A   1      37.500  30.939  32.677  1.00  0.00     0.198 A 
ATOM     64  F   UNL A   1      39.730  30.194  32.773  1.00  0.00    -0.203 F 
ATOM     65  F   UNL A   1      35.472  31.962  29.854  1.00  0.00    -0.200 F 
ATOM     66  C   UNL A   1      36.413  31.388  31.941  1.00  0.00     0.200 A 
ATOM     67  F   UNL A   1      37.401  30.810  34.008  1.00  0.00    -0.200 F 
ATOM     68  F   UNL A   1      35.270  31.707  32.561  1.00  0.00    -0.200 F 
ENDBRANCH  44  58
BRANCH  45  69
ATOM     69  C   UNL A   1      47.023  27.638  25.931  1.00  0.00     0.064 A 
ATOM     70  C   UNL A   1      48.149  27.160  26.614  1.00  0.00     0.173 A 
ATOM     71  C   UNL A   1      47.098  27.735  24.534  1.00  0.00     0.173 A 
ATOM     72  F   UNL A   1      48.136  27.077  27.952  1.00  0.00    -0.203 F 
ATOM     73  C   UNL A   1      49.311  26.811  25.929  1.00  0.00     0.198 A 
ATOM     74  C   UNL A   1      48.250  27.362  23.847  1.00  0.00     0.198 A 
ATOM     75  F   UNL A   1      46.048  28.192  23.835  1.00  0.00    -0.203 F 
ATOM     76  F   UNL A   1      50.391  26.403  26.609  1.00  0.00    -0.200 F 
ATOM     77  C   UNL A   1      49.359  26.909  24.546  1.00  0.00     0.200 A 
ATOM     78  F   UNL A   1      48.289  27.448  22.511  1.00  0.00    -0.200 F 
ATOM     79  F   UNL A   1      50.477  26.575  23.887  1.00  0.00    -0.200 F 
ENDBRANCH  45  69
BRANCH  57  80
ATOM     80  C   UNL A   1      45.159  33.652  28.910  1.00  0.00     0.064 A 
ATOM     81  C   UNL A   1      45.002  34.696  27.986  1.00  0.00     0.173 A 
ATOM     82  C   UNL A   1      45.967  33.887  30.034  1.00  0.00     0.173 A 
ATOM     83  F   UNL A   1      44.253  34.517  26.887  1.00  0.00    -0.203 F 
ATOM     84  C   UNL A   1      45.646  35.917  28.169  1.00  0.00     0.198 A 
ATOM     85  C   UNL A   1      46.586  35.118  30.228  1.00  0.00     0.198 A 
ATOM     86  F   UNL A   1      46.145  32.924  30.951  1.00  0.00    -0.203 F 
ATOM     87  F   UNL A   1      45.515  36.886  27.251  1.00  0.00    -0.200 F 
ATOM     88  C   UNL A   1      46.431  36.130  29.293  1.00  0.00     0.200 A 
ATOM     89  F   UNL A   1      47.335  35.326  31.321  1.00  0.00    -0.200 F 
ATOM     90  F   UNL A   1      47.043  37.309  29.471  1.00  0.00    -0.200 F 
ENDBRANCH  57  80
ENDBRANCH  31  32
ENDBRANCH  24  26
ENDBRANCH  23  24
ENDBRANCH  22  23
ENDBRANCH  21  22
ENDBRANCH  20  21
ENDBRANCH  19  20
ENDBRANCH  18  19
ENDBRANCH   1  18
TORSDOF 22
ENDMDL
