MODEL 1
REMARK VINA RESULT:     -11.1      0.000      0.000
REMARK SMILES O=C(COc1ccccc1/C=N/NC(=O)c1cc(-c2ccc(F)cc2)nc2ccccc12)OCCOCCOCCOC(=O)c1ccc(-c2c3nc(c(-c4c(F)c(F)c(F)c(F)c4F)c4ccc([nH]4)c(-c4c(F)c(F)c(F)c(F)c4F)c4nc(c(-c5c(F)c(F)c(F)c(F)c5F)c5ccc2[nH]5)C=C4)C=C3)cc1
REMARK SMILES IDX 35 1 34 2 33 3 2 4 1 5 3 6 4 7 5 8 6 9 10 10 7 11 9 12 8 13
REMARK SMILES IDX 11 14 12 15 13 16 14 17 15 19 16 20 17 21 32 22 18 23 27 24
REMARK SMILES IDX 31 25 26 26 28 27 30 28 29 29 19 30 20 31 25 32 21 33 24 34
REMARK SMILES IDX 22 35 23 36 36 37 37 38 38 39 39 40 40 41 41 42 42 43 43 44
REMARK SMILES IDX 44 45 45 46 46 47 107 48 47 49 106 50 48 51 49 52 50 53
REMARK SMILES IDX 100 54 51 55 105 56 99 57 101 58 52 59 104 60 98 61 97 62
REMARK SMILES IDX 53 64 85 65 65 66 84 67 66 68 69 69 83 70 102 71 67 72 68 73
REMARK SMILES IDX 82 75 103 76 70 77 54 78 55 79 63 80 56 81 57 82 61 83 64 84
REMARK SMILES IDX 58 85 59 86 62 87 60 88 86 89 87 90 95 91 88 92 89 93 93 94
REMARK SMILES IDX 96 95 90 96 91 97 94 98 92 99 71 100 72 101 80 102 73 103
REMARK SMILES IDX 74 104 78 105 81 106 75 107 76 108 79 109 77 110
REMARK H PARENT 13 18 101 63 69 74
REMARK Flexibility Score: inf
ROOT
ATOM      1  C   UNL A   1      31.035  26.686  26.640  1.00  0.00     0.202 C 
ENDROOT
BRANCH   1   2
ATOM      2  C   UNL A   1      31.933  25.427  26.151  1.00  0.00     0.261 C 
BRANCH   2   3
ATOM      3  O   UNL A   1      31.740  24.070  26.840  1.00  0.00    -0.461 OA
BRANCH   3   4
ATOM      4  C   UNL A   1      31.781  22.680  26.313  1.00  0.00     0.344 C 
ATOM      5  O   UNL A   1      30.777  22.075  25.937  1.00  0.00    -0.248 OA
BRANCH   4   6
ATOM      6  C   UNL A   1      33.213  22.021  26.504  1.00  0.00     0.352 C 
BRANCH   6   7
ATOM      7  O   UNL A   1      34.175  22.990  26.622  1.00  0.00    -0.481 OA
BRANCH   7   8
ATOM      8  C   UNL A   1      35.065  22.631  25.705  1.00  0.00     0.129 A 
ATOM      9  C   UNL A   1      35.924  21.710  26.250  1.00  0.00     0.047 A 
ATOM     10  C   UNL A   1      35.133  23.123  24.374  1.00  0.00     0.037 A 
ATOM     11  C   UNL A   1      37.010  21.427  25.482  1.00  0.00     0.004 A 
ATOM     12  C   UNL A   1      36.145  22.708  23.599  1.00  0.00     0.013 A 
ATOM     13  C   UNL A   1      37.081  21.869  24.155  1.00  0.00     0.001 A 
BRANCH  10  14
ATOM     14  C   UNL A   1      34.346  24.180  23.701  1.00  0.00     0.145 C 
ATOM     15  N   UNL A   1      34.366  24.666  22.500  1.00  0.00    -0.180 NA
BRANCH  15  16
ATOM     16  N   UNL A   1      33.302  25.509  22.075  1.00  0.00    -0.243 N 
ATOM     17  C   UNL A   1      32.155  26.102  22.575  1.00  0.00     0.272 C 
ATOM     18  H   UNL A   1      33.418  25.745  21.127  1.00  0.00     0.194 HD
ATOM     19  O   UNL A   1      31.742  26.342  21.370  1.00  0.00    -0.267 OA
BRANCH  17  20
ATOM     20  C   UNL A   1      30.899  26.780  22.853  1.00  0.00     0.053 A 
ATOM     21  C   UNL A   1      31.109  28.155  22.365  1.00  0.00     0.043 A 
ATOM     22  C   UNL A   1      29.208  26.469  23.504  1.00  0.00     0.013 A 
ATOM     23  C   UNL A   1      30.168  29.068  22.632  1.00  0.00     0.072 A 
ATOM     24  C   UNL A   1      28.530  27.544  23.124  1.00  0.00     0.072 A 
ATOM     25  C   UNL A   1      27.675  26.230  24.079  1.00  0.00     0.011 A 
ATOM     26  N   UNL A   1      29.519  28.112  22.866  1.00  0.00    -0.248 NA
ATOM     27  C   UNL A   1      27.491  28.479  23.008  1.00  0.00     0.029 A 
ATOM     28  C   UNL A   1      26.434  27.218  24.260  1.00  0.00     0.001 A 
ATOM     29  C   UNL A   1      26.533  28.502  23.896  1.00  0.00     0.002 A 
BRANCH  23  30
ATOM     30  C   UNL A   1      29.464  30.316  22.670  1.00  0.00     0.000 A 
ATOM     31  C   UNL A   1      29.032  30.829  21.454  1.00  0.00     0.013 A 
ATOM     32  C   UNL A   1      29.513  31.161  23.797  1.00  0.00     0.013 A 
ATOM     33  C   UNL A   1      28.827  32.190  21.449  1.00  0.00     0.040 A 
ATOM     34  C   UNL A   1      28.857  32.339  23.842  1.00  0.00     0.040 A 
ATOM     35  C   UNL A   1      28.588  32.883  22.635  1.00  0.00     0.123 A 
ATOM     36  F   UNL A   1      28.171  34.141  22.618  1.00  0.00    -0.207 F 
ENDBRANCH  23  30
ENDBRANCH  17  20
ENDBRANCH  15  16
ENDBRANCH  10  14
ENDBRANCH   7   8
ENDBRANCH   6   7
ENDBRANCH   4   6
ENDBRANCH   3   4
ENDBRANCH   2   3
ENDBRANCH   1   2
BRANCH   1  37
ATOM     37  O   UNL A   1      31.337  28.071  26.209  1.00  0.00    -0.376 OA
BRANCH  37  38
ATOM     38  C   UNL A   1      32.671  28.340  25.758  1.00  0.00     0.188 C 
BRANCH  38  39
ATOM     39  C   UNL A   1      33.727  29.275  26.153  1.00  0.00     0.188 C 
BRANCH  39  40
ATOM     40  O   UNL A   1      33.229  30.367  26.761  1.00  0.00    -0.376 OA
BRANCH  40  41
ATOM     41  C   UNL A   1      33.938  31.080  27.661  1.00  0.00     0.202 C 
BRANCH  41  42
ATOM     42  C   UNL A   1      33.282  32.414  27.329  1.00  0.00     0.261 C 
BRANCH  42  43
ATOM     43  O   UNL A   1      32.660  33.213  28.460  1.00  0.00    -0.460 OA
BRANCH  43  44
ATOM     44  C   UNL A   1      33.127  34.500  28.903  1.00  0.00     0.338 C 
ATOM     45  O   UNL A   1      32.544  35.473  29.359  1.00  0.00    -0.246 OA
BRANCH  44  46
ATOM     46  C   UNL A   1      34.578  34.366  29.318  1.00  0.00     0.060 A 
ATOM     47  C   UNL A   1      35.870  34.677  28.725  1.00  0.00     0.016 A 
ATOM     48  C   UNL A   1      34.445  33.610  30.417  1.00  0.00     0.016 A 
ATOM     49  C   UNL A   1      36.992  34.055  29.233  1.00  0.00     0.010 A 
ATOM     50  C   UNL A   1      35.550  33.016  30.903  1.00  0.00     0.010 A 
ATOM     51  C   UNL A   1      36.819  33.250  30.352  1.00  0.00    -0.014 A 
BRANCH  51  52
ATOM     52  C   UNL A   1      37.947  32.622  31.028  1.00  0.00     0.031 A 
ATOM     53  C   UNL A   1      38.574  31.437  30.405  1.00  0.00     0.074 A 
ATOM     54  C   UNL A   1      38.321  33.044  32.248  1.00  0.00     0.049 A 
ATOM     55  N   UNL A   1      39.506  30.690  30.919  1.00  0.00    -0.248 NA
ATOM     56  C   UNL A   1      38.118  31.035  29.064  1.00  0.00     0.031 C 
ATOM     57  C   UNL A   1      37.763  34.208  32.929  1.00  0.00     0.029 A 
ATOM     58  N   UNL A   1      39.244  32.545  33.136  1.00  0.00    -0.354 N 
ATOM     59  C   UNL A   1      39.766  29.735  29.966  1.00  0.00     0.074 A 
ATOM     60  C   UNL A   1      38.860  29.959  28.858  1.00  0.00     0.031 C 
ATOM     61  C   UNL A   1      38.358  34.342  34.120  1.00  0.00     0.029 A 
ATOM     62  C   UNL A   1      39.323  33.261  34.304  1.00  0.00     0.049 A 
ATOM     63  H   UNL A   1      39.796  31.751  32.951  1.00  0.00     0.167 HD
ATOM     64  C   UNL A   1      40.701  28.767  30.040  1.00  0.00     0.037 A 
ATOM     65  C   UNL A   1      40.062  33.090  35.418  1.00  0.00     0.037 A 
ATOM     66  C   UNL A   1      41.534  28.539  31.172  1.00  0.00     0.049 A 
ATOM     67  C   UNL A   1      40.990  31.931  35.526  1.00  0.00     0.074 A 
ATOM     68  C   UNL A   1      42.482  27.547  31.296  1.00  0.00     0.029 A 
ATOM     69  N   UNL A   1      41.513  29.249  32.357  1.00  0.00    -0.354 N 
ATOM     70  N   UNL A   1      41.229  31.036  34.607  1.00  0.00    -0.248 NA
ATOM     71  C   UNL A   1      41.735  31.729  36.781  1.00  0.00     0.031 C 
ATOM     72  C   UNL A   1      43.011  27.616  32.563  1.00  0.00     0.029 A 
ATOM     73  C   UNL A   1      42.426  28.680  33.221  1.00  0.00     0.049 A 
ATOM     74  H   UNL A   1      40.945  30.029  32.552  1.00  0.00     0.167 HD
ATOM     75  C   UNL A   1      42.168  30.186  35.148  1.00  0.00     0.074 A 
ATOM     76  C   UNL A   1      42.467  30.661  36.482  1.00  0.00     0.031 C 
ATOM     77  C   UNL A   1      42.727  29.118  34.545  1.00  0.00     0.037 A 
BRANCH  64  78
ATOM     78  C   UNL A   1      40.789  27.811  28.904  1.00  0.00     0.064 A 
ATOM     79  C   UNL A   1      40.023  26.647  28.852  1.00  0.00     0.173 A 
ATOM     80  C   UNL A   1      41.730  28.038  27.889  1.00  0.00     0.173 A 
ATOM     81  F   UNL A   1      39.006  26.459  29.707  1.00  0.00    -0.203 F 
ATOM     82  C   UNL A   1      40.371  25.640  27.967  1.00  0.00     0.198 A 
ATOM     83  C   UNL A   1      41.971  27.086  26.920  1.00  0.00     0.198 A 
ATOM     84  F   UNL A   1      42.399  29.198  27.814  1.00  0.00    -0.203 F 
ATOM     85  F   UNL A   1      39.895  24.403  28.150  1.00  0.00    -0.200 F 
ATOM     86  C   UNL A   1      41.298  25.880  26.966  1.00  0.00     0.200 A 
ATOM     87  F   UNL A   1      42.911  27.311  25.994  1.00  0.00    -0.200 F 
ATOM     88  F   UNL A   1      41.523  24.952  26.030  1.00  0.00    -0.200 F 
ENDBRANCH  64  78
BRANCH  65  89
ATOM     89  C   UNL A   1      39.865  34.008  36.555  1.00  0.00     0.064 A 
ATOM     90  C   UNL A   1      40.490  35.252  36.659  1.00  0.00     0.173 A 
ATOM     91  C   UNL A   1      39.004  33.610  37.585  1.00  0.00     0.173 A 
ATOM     92  F   UNL A   1      41.249  35.719  35.655  1.00  0.00    -0.203 F 
ATOM     93  C   UNL A   1      40.315  36.028  37.801  1.00  0.00     0.198 A 
ATOM     94  C   UNL A   1      38.739  34.439  38.659  1.00  0.00     0.198 A 
ATOM     95  F   UNL A   1      38.348  32.444  37.493  1.00  0.00    -0.203 F 
ATOM     96  F   UNL A   1      41.085  37.104  38.011  1.00  0.00    -0.200 F 
ATOM     97  C   UNL A   1      39.381  35.659  38.758  1.00  0.00     0.200 A 
ATOM     98  F   UNL A   1      37.877  34.040  39.602  1.00  0.00    -0.200 F 
ATOM     99  F   UNL A   1      39.081  36.493  39.760  1.00  0.00    -0.200 F 
ENDBRANCH  65  89
BRANCH  77 100
ATOM    100  C   UNL A   1      43.809  28.386  35.256  1.00  0.00     0.064 A 
ATOM    101  C   UNL A   1      43.577  27.237  36.009  1.00  0.00     0.173 A 
ATOM    102  C   UNL A   1      45.129  28.842  35.119  1.00  0.00     0.173 A 
ATOM    103  F   UNL A   1      42.357  26.680  36.049  1.00  0.00    -0.203 F 
ATOM    104  C   UNL A   1      44.616  26.666  36.731  1.00  0.00     0.198 A 
ATOM    105  C   UNL A   1      46.178  28.189  35.737  1.00  0.00     0.198 A 
ATOM    106  F   UNL A   1      45.410  29.879  34.314  1.00  0.00    -0.203 F 
ATOM    107  F   UNL A   1      44.350  25.753  37.673  1.00  0.00    -0.200 F 
ATOM    108  C   UNL A   1      45.922  27.095  36.540  1.00  0.00     0.200 A 
ATOM    109  F   UNL A   1      47.426  28.650  35.586  1.00  0.00    -0.200 F 
ATOM    110  F   UNL A   1      46.933  26.437  37.119  1.00  0.00    -0.200 F 
ENDBRANCH  77 100
ENDBRANCH  51  52
ENDBRANCH  44  46
ENDBRANCH  43  44
ENDBRANCH  42  43
ENDBRANCH  41  42
ENDBRANCH  40  41
ENDBRANCH  39  40
ENDBRANCH  38  39
ENDBRANCH  37  38
ENDBRANCH   1  37
TORSDOF 23
ENDMDL
MODEL 2
REMARK VINA RESULT:     -10.5      7.278     10.257
REMARK SMILES O=C(COc1ccccc1/C=N/NC(=O)c1cc(-c2ccc(F)cc2)nc2ccccc12)OCCOCCOCCOC(=O)c1ccc(-c2c3nc(c(-c4c(F)c(F)c(F)c(F)c4F)c4ccc([nH]4)c(-c4c(F)c(F)c(F)c(F)c4F)c4nc(c(-c5c(F)c(F)c(F)c(F)c5F)c5ccc2[nH]5)C=C4)C=C3)cc1
REMARK SMILES IDX 35 1 34 2 33 3 2 4 1 5 3 6 4 7 5 8 6 9 10 10 7 11 9 12 8 13
REMARK SMILES IDX 11 14 12 15 13 16 14 17 15 19 16 20 17 21 32 22 18 23 27 24
REMARK SMILES IDX 31 25 26 26 28 27 30 28 29 29 19 30 20 31 25 32 21 33 24 34
REMARK SMILES IDX 22 35 23 36 36 37 37 38 38 39 39 40 40 41 41 42 42 43 43 44
REMARK SMILES IDX 44 45 45 46 46 47 107 48 47 49 106 50 48 51 49 52 50 53
REMARK SMILES IDX 100 54 51 55 105 56 99 57 101 58 52 59 104 60 98 61 97 62
REMARK SMILES IDX 53 64 85 65 65 66 84 67 66 68 69 69 83 70 102 71 67 72 68 73
REMARK SMILES IDX 82 75 103 76 70 77 54 78 55 79 63 80 56 81 57 82 61 83 64 84
REMARK SMILES IDX 58 85 59 86 62 87 60 88 86 89 87 90 95 91 88 92 89 93 93 94
REMARK SMILES IDX 96 95 90 96 91 97 94 98 92 99 71 100 72 101 80 102 73 103
REMARK SMILES IDX 74 104 78 105 81 106 75 107 76 108 79 109 77 110
REMARK H PARENT 13 18 101 63 69 74
REMARK Flexibility Score: inf
ROOT
ATOM      1  C   UNL A   1      37.980  22.511  26.093  1.00  0.00     0.202 C 
ENDROOT
BRANCH   1   2
ATOM      2  C   UNL A   1      36.504  22.901  25.544  1.00  0.00     0.261 C 
BRANCH   2   3
ATOM      3  O   UNL A   1      35.339  22.961  26.541  1.00  0.00    -0.461 OA
BRANCH   3   4
ATOM      4  C   UNL A   1      34.006  22.303  26.542  1.00  0.00     0.344 C 
ATOM      5  O   UNL A   1      32.988  22.848  26.970  1.00  0.00    -0.248 OA
BRANCH   4   6
ATOM      6  C   UNL A   1      34.106  20.771  26.139  1.00  0.00     0.352 C 
BRANCH   6   7
ATOM      7  O   UNL A   1      32.915  20.135  26.370  1.00  0.00    -0.481 OA
BRANCH   7   8
ATOM      8  C   UNL A   1      32.803  19.332  25.318  1.00  0.00     0.129 A 
ATOM      9  C   UNL A   1      32.788  18.029  25.749  1.00  0.00     0.047 A 
ATOM     10  C   UNL A   1      32.723  19.744  23.962  1.00  0.00     0.037 A 
ATOM     11  C   UNL A   1      32.895  17.105  24.758  1.00  0.00     0.004 A 
ATOM     12  C   UNL A   1      32.689  18.795  23.015  1.00  0.00     0.013 A 
ATOM     13  C   UNL A   1      32.781  17.483  23.415  1.00  0.00     0.001 A 
BRANCH  10  14
ATOM     14  C   UNL A   1      32.833  21.091  23.360  1.00  0.00     0.145 C 
ATOM     15  N   UNL A   1      32.140  21.717  22.463  1.00  0.00    -0.180 NA
BRANCH  15  16
ATOM     16  N   UNL A   1      32.344  23.113  22.278  1.00  0.00    -0.243 N 
ATOM     17  C   UNL A   1      32.134  24.311  22.939  1.00  0.00     0.272 C 
ATOM     18  H   UNL A   1      32.767  23.279  21.405  1.00  0.00     0.194 HD
ATOM     19  O   UNL A   1      32.323  24.965  21.835  1.00  0.00    -0.267 OA
BRANCH  17  20
ATOM     20  C   UNL A   1      31.976  25.678  23.407  1.00  0.00     0.053 A 
ATOM     21  C   UNL A   1      30.706  26.127  22.808  1.00  0.00     0.043 A 
ATOM     22  C   UNL A   1      32.765  26.924  24.505  1.00  0.00     0.013 A 
ATOM     23  C   UNL A   1      30.371  27.416  22.935  1.00  0.00     0.072 A 
ATOM     24  C   UNL A   1      31.819  27.841  24.659  1.00  0.00     0.072 A 
ATOM     25  C   UNL A   1      33.441  28.072  25.486  1.00  0.00     0.011 A 
ATOM     26  N   UNL A   1      31.202  27.395  23.772  1.00  0.00    -0.248 NA
ATOM     27  C   UNL A   1      31.184  29.037  25.025  1.00  0.00     0.029 A 
ATOM     28  C   UNL A   1      33.009  29.568  25.839  1.00  0.00     0.001 A 
ATOM     29  C   UNL A   1      31.897  30.094  25.310  1.00  0.00     0.002 A 
BRANCH  23  30
ATOM     30  C   UNL A   1      29.633  28.640  22.830  1.00  0.00     0.000 A 
ATOM     31  C   UNL A   1      28.312  28.614  23.257  1.00  0.00     0.013 A 
ATOM     32  C   UNL A   1      30.076  29.707  22.020  1.00  0.00     0.013 A 
ATOM     33  C   UNL A   1      27.515  29.592  22.706  1.00  0.00     0.040 A 
ATOM     34  C   UNL A   1      29.387  30.861  21.911  1.00  0.00     0.040 A 
ATOM     35  C   UNL A   1      28.068  30.762  22.189  1.00  0.00     0.123 A 
ATOM     36  F   UNL A   1      27.302  31.794  21.865  1.00  0.00    -0.207 F 
ENDBRANCH  23  30
ENDBRANCH  17  20
ENDBRANCH  15  16
ENDBRANCH  10  14
ENDBRANCH   7   8
ENDBRANCH   6   7
ENDBRANCH   4   6
ENDBRANCH   3   4
ENDBRANCH   2   3
ENDBRANCH   1   2
BRANCH   1  37
ATOM     37  O   UNL A   1      38.795  21.456  25.447  1.00  0.00    -0.376 OA
BRANCH  37  38
ATOM     38  C   UNL A   1      39.932  20.971  26.175  1.00  0.00     0.188 C 
BRANCH  38  39
ATOM     39  C   UNL A   1      40.739  19.749  26.138  1.00  0.00     0.188 C 
BRANCH  39  40
ATOM     40  O   UNL A   1      42.046  20.016  25.963  1.00  0.00    -0.376 OA
BRANCH  40  41
ATOM     41  C   UNL A   1      42.692  20.964  26.675  1.00  0.00     0.202 C 
BRANCH  41  42
ATOM     42  C   UNL A   1      43.426  21.558  25.479  1.00  0.00     0.261 C 
BRANCH  42  43
ATOM     43  O   UNL A   1      43.060  22.962  25.033  1.00  0.00    -0.460 OA
BRANCH  43  44
ATOM     44  C   UNL A   1      42.505  23.973  25.893  1.00  0.00     0.338 C 
ATOM     45  O   UNL A   1      41.497  24.001  26.584  1.00  0.00    -0.246 OA
BRANCH  44  46
ATOM     46  C   UNL A   1      43.629  24.877  26.357  1.00  0.00     0.060 A 
ATOM     47  C   UNL A   1      44.185  25.284  27.639  1.00  0.00     0.016 A 
ATOM     48  C   UNL A   1      43.944  25.481  25.202  1.00  0.00     0.016 A 
ATOM     49  C   UNL A   1      44.957  26.427  27.686  1.00  0.00     0.010 A 
ATOM     50  C   UNL A   1      44.704  26.590  25.265  1.00  0.00     0.010 A 
ATOM     51  C   UNL A   1      45.238  27.052  26.477  1.00  0.00    -0.014 A 
BRANCH  51  52
ATOM     52  C   UNL A   1      46.122  28.209  26.399  1.00  0.00     0.031 A 
ATOM     53  C   UNL A   1      47.569  27.981  26.206  1.00  0.00     0.074 A 
ATOM     54  C   UNL A   1      45.637  29.443  26.620  1.00  0.00     0.049 A 
ATOM     55  N   UNL A   1      48.508  28.880  26.228  1.00  0.00    -0.248 NA
ATOM     56  C   UNL A   1      48.028  26.603  25.963  1.00  0.00     0.031 C 
ATOM     57  C   UNL A   1      44.225  29.756  26.809  1.00  0.00     0.029 A 
ATOM     58  N   UNL A   1      46.270  30.658  26.735  1.00  0.00    -0.354 N 
ATOM     59  C   UNL A   1      49.672  28.190  25.987  1.00  0.00     0.074 A 
ATOM     60  C   UNL A   1      49.336  26.786  25.872  1.00  0.00     0.031 C 
ATOM     61  C   UNL A   1      44.094  31.074  27.006  1.00  0.00     0.029 A 
ATOM     62  C   UNL A   1      45.413  31.700  26.984  1.00  0.00     0.049 A 
ATOM     63  H   UNL A   1      47.244  30.769  26.647  1.00  0.00     0.167 HD
ATOM     64  C   UNL A   1      50.905  28.720  25.869  1.00  0.00     0.037 A 
ATOM     65  C   UNL A   1      45.628  33.015  27.189  1.00  0.00     0.037 A 
ATOM     66  C   UNL A   1      51.206  30.101  26.048  1.00  0.00     0.049 A 
ATOM     67  C   UNL A   1      47.017  33.552  27.187  1.00  0.00     0.074 A 
ATOM     68  C   UNL A   1      52.455  30.677  25.961  1.00  0.00     0.029 A 
ATOM     69  N   UNL A   1      50.307  31.097  26.376  1.00  0.00    -0.354 N 
ATOM     70  N   UNL A   1      48.111  32.881  26.951  1.00  0.00    -0.248 NA
ATOM     71  C   UNL A   1      47.230  34.980  27.482  1.00  0.00     0.031 C 
ATOM     72  C   UNL A   1      52.334  32.010  26.276  1.00  0.00     0.029 A 
ATOM     73  C   UNL A   1      51.002  32.281  26.519  1.00  0.00     0.049 A 
ATOM     74  H   UNL A   1      49.335  30.982  26.488  1.00  0.00     0.167 HD
ATOM     75  C   UNL A   1      49.136  33.798  27.031  1.00  0.00     0.074 A 
ATOM     76  C   UNL A   1      48.546  35.083  27.342  1.00  0.00     0.031 C 
ATOM     77  C   UNL A   1      50.447  33.556  26.839  1.00  0.00     0.037 A 
BRANCH  64  78
ATOM     78  C   UNL A   1      52.036  27.782  25.643  1.00  0.00     0.064 A 
ATOM     79  C   UNL A   1      52.468  27.435  24.363  1.00  0.00     0.173 A 
ATOM     80  C   UNL A   1      52.641  27.160  26.745  1.00  0.00     0.173 A 
ATOM     81  F   UNL A   1      52.035  28.111  23.288  1.00  0.00    -0.203 F 
ATOM     82  C   UNL A   1      53.282  26.328  24.195  1.00  0.00     0.198 A 
ATOM     83  C   UNL A   1      53.564  26.149  26.569  1.00  0.00     0.198 A 
ATOM     84  F   UNL A   1      52.361  27.548  27.998  1.00  0.00    -0.203 F 
ATOM     85  F   UNL A   1      53.404  25.771  22.984  1.00  0.00    -0.200 F 
ATOM     86  C   UNL A   1      53.877  25.725  25.293  1.00  0.00     0.200 A 
ATOM     87  F   UNL A   1      54.085  25.539  27.641  1.00  0.00    -0.200 F 
ATOM     88  F   UNL A   1      54.773  24.749  25.112  1.00  0.00    -0.200 F 
ENDBRANCH  64  78
BRANCH  65  89
ATOM     89  C   UNL A   1      44.482  33.886  27.508  1.00  0.00     0.064 A 
ATOM     90  C   UNL A   1      43.810  34.655  26.555  1.00  0.00     0.173 A 
ATOM     91  C   UNL A   1      44.046  33.945  28.837  1.00  0.00     0.173 A 
ATOM     92  F   UNL A   1      44.129  34.561  25.256  1.00  0.00    -0.203 F 
ATOM     93  C   UNL A   1      42.787  35.513  26.947  1.00  0.00     0.198 A 
ATOM     94  C   UNL A   1      42.949  34.706  29.199  1.00  0.00     0.198 A 
ATOM     95  F   UNL A   1      44.636  33.181  29.768  1.00  0.00    -0.203 F 
ATOM     96  F   UNL A   1      42.297  36.417  26.089  1.00  0.00    -0.200 F 
ATOM     97  C   UNL A   1      42.307  35.478  28.248  1.00  0.00     0.200 A 
ATOM     98  F   UNL A   1      42.537  34.703  30.472  1.00  0.00    -0.200 F 
ATOM     99  F   UNL A   1      41.208  36.166  28.579  1.00  0.00    -0.200 F 
ENDBRANCH  65  89
BRANCH  77 100
ATOM    100  C   UNL A   1      51.393  34.703  26.862  1.00  0.00     0.064 A 
ATOM    101  C   UNL A   1      52.112  35.069  27.998  1.00  0.00     0.173 A 
ATOM    102  C   UNL A   1      51.612  35.416  25.673  1.00  0.00     0.173 A 
ATOM    103  F   UNL A   1      52.048  34.330  29.116  1.00  0.00    -0.203 F 
ATOM    104  C   UNL A   1      52.896  36.214  27.977  1.00  0.00     0.198 A 
ATOM    105  C   UNL A   1      52.496  36.476  25.627  1.00  0.00     0.198 A 
ATOM    106  F   UNL A   1      51.024  35.026  24.530  1.00  0.00    -0.203 F 
ATOM    107  F   UNL A   1      53.352  36.732  29.125  1.00  0.00    -0.200 F 
ATOM    108  C   UNL A   1      53.144  36.873  26.781  1.00  0.00     0.200 A 
ATOM    109  F   UNL A   1      52.681  37.135  24.477  1.00  0.00    -0.200 F 
ATOM    110  F   UNL A   1      54.025  37.879  26.742  1.00  0.00    -0.200 F 
ENDBRANCH  77 100
ENDBRANCH  51  52
ENDBRANCH  44  46
ENDBRANCH  43  44
ENDBRANCH  42  43
ENDBRANCH  41  42
ENDBRANCH  40  41
ENDBRANCH  39  40
ENDBRANCH  38  39
ENDBRANCH  37  38
ENDBRANCH   1  37
TORSDOF 23
ENDMDL
MODEL 3
REMARK VINA RESULT:     -10.3      4.670      9.858
REMARK SMILES O=C(COc1ccccc1/C=N/NC(=O)c1cc(-c2ccc(F)cc2)nc2ccccc12)OCCOCCOCCOC(=O)c1ccc(-c2c3nc(c(-c4c(F)c(F)c(F)c(F)c4F)c4ccc([nH]4)c(-c4c(F)c(F)c(F)c(F)c4F)c4nc(c(-c5c(F)c(F)c(F)c(F)c5F)c5ccc2[nH]5)C=C4)C=C3)cc1
REMARK SMILES IDX 35 1 34 2 33 3 2 4 1 5 3 6 4 7 5 8 6 9 10 10 7 11 9 12 8 13
REMARK SMILES IDX 11 14 12 15 13 16 14 17 15 19 16 20 17 21 32 22 18 23 27 24
REMARK SMILES IDX 31 25 26 26 28 27 30 28 29 29 19 30 20 31 25 32 21 33 24 34
REMARK SMILES IDX 22 35 23 36 36 37 37 38 38 39 39 40 40 41 41 42 42 43 43 44
REMARK SMILES IDX 44 45 45 46 46 47 107 48 47 49 106 50 48 51 49 52 50 53
REMARK SMILES IDX 100 54 51 55 105 56 99 57 101 58 52 59 104 60 98 61 97 62
REMARK SMILES IDX 53 64 85 65 65 66 84 67 66 68 69 69 83 70 102 71 67 72 68 73
REMARK SMILES IDX 82 75 103 76 70 77 54 78 55 79 63 80 56 81 57 82 61 83 64 84
REMARK SMILES IDX 58 85 59 86 62 87 60 88 86 89 87 90 95 91 88 92 89 93 93 94
REMARK SMILES IDX 96 95 90 96 91 97 94 98 92 99 71 100 72 101 80 102 73 103
REMARK SMILES IDX 74 104 78 105 81 106 75 107 76 108 79 109 77 110
REMARK H PARENT 13 18 101 63 69 74
REMARK Flexibility Score: inf
ROOT
ATOM      1  C   UNL A   1      34.543  31.019  27.640  1.00  0.00     0.202 C 
ENDROOT
BRANCH   1   2
ATOM      2  C   UNL A   1      33.267  30.152  27.140  1.00  0.00     0.261 C 
BRANCH   2   3
ATOM      3  O   UNL A   1      33.517  28.837  26.390  1.00  0.00    -0.461 OA
BRANCH   3   4
ATOM      4  C   UNL A   1      32.586  27.887  25.726  1.00  0.00     0.344 C 
ATOM      5  O   UNL A   1      31.397  28.139  25.528  1.00  0.00    -0.248 OA
BRANCH   4   6
ATOM      6  C   UNL A   1      33.251  26.461  25.515  1.00  0.00     0.352 C 
BRANCH   6   7
ATOM      7  O   UNL A   1      34.120  26.490  24.456  1.00  0.00    -0.481 OA
BRANCH   7   8
ATOM      8  C   UNL A   1      33.895  25.324  23.862  1.00  0.00     0.129 A 
ATOM      9  C   UNL A   1      32.827  25.455  23.009  1.00  0.00     0.047 A 
ATOM     10  C   UNL A   1      34.626  24.126  24.075  1.00  0.00     0.037 A 
ATOM     11  C   UNL A   1      32.360  24.282  22.504  1.00  0.00     0.004 A 
ATOM     12  C   UNL A   1      34.216  23.015  23.445  1.00  0.00     0.013 A 
ATOM     13  C   UNL A   1      33.084  23.095  22.669  1.00  0.00     0.001 A 
BRANCH  10  14
ATOM     14  C   UNL A   1      35.715  23.823  25.031  1.00  0.00     0.145 C 
ATOM     15  N   UNL A   1      36.332  22.730  25.349  1.00  0.00    -0.180 NA
BRANCH  15  16
ATOM     16  N   UNL A   1      37.521  22.805  26.126  1.00  0.00    -0.243 N 
ATOM     17  C   UNL A   1      38.351  23.750  26.704  1.00  0.00     0.272 C 
ATOM     18  H   UNL A   1      37.860  21.900  26.311  1.00  0.00     0.194 HD
ATOM     19  O   UNL A   1      39.277  22.857  26.860  1.00  0.00    -0.267 OA
BRANCH  17  20
ATOM     20  C   UNL A   1      39.383  24.544  27.351  1.00  0.00     0.053 A 
ATOM     21  C   UNL A   1      40.648  24.004  26.821  1.00  0.00     0.043 A 
ATOM     22  C   UNL A   1      39.600  25.973  28.488  1.00  0.00     0.013 A 
ATOM     23  C   UNL A   1      41.793  24.437  27.361  1.00  0.00     0.072 A 
ATOM     24  C   UNL A   1      40.876  26.299  28.332  1.00  0.00     0.072 A 
ATOM     25  C   UNL A   1      39.838  27.257  29.503  1.00  0.00     0.011 A 
ATOM     26  N   UNL A   1      41.097  25.290  27.783  1.00  0.00    -0.248 NA
ATOM     27  C   UNL A   1      42.116  26.921  28.537  1.00  0.00     0.029 A 
ATOM     28  C   UNL A   1      41.164  27.955  30.054  1.00  0.00     0.001 A 
ATOM     29  C   UNL A   1      42.369  27.511  29.675  1.00  0.00     0.002 A 
BRANCH  23  30
ATOM     30  C   UNL A   1      43.194  24.605  27.611  1.00  0.00     0.000 A 
ATOM     31  C   UNL A   1      43.969  25.063  26.552  1.00  0.00     0.013 A 
ATOM     32  C   UNL A   1      43.826  24.012  28.722  1.00  0.00     0.013 A 
ATOM     33  C   UNL A   1      45.305  24.747  26.645  1.00  0.00     0.040 A 
ATOM     34  C   UNL A   1      45.145  24.160  28.965  1.00  0.00     0.040 A 
ATOM     35  C   UNL A   1      45.890  24.457  27.877  1.00  0.00     0.123 A 
ATOM     36  F   UNL A   1      47.207  24.373  28.004  1.00  0.00    -0.207 F 
ENDBRANCH  23  30
ENDBRANCH  17  20
ENDBRANCH  15  16
ENDBRANCH  10  14
ENDBRANCH   7   8
ENDBRANCH   6   7
ENDBRANCH   4   6
ENDBRANCH   3   4
ENDBRANCH   2   3
ENDBRANCH   1   2
BRANCH   1  37
ATOM     37  O   UNL A   1      34.621  32.482  27.424  1.00  0.00    -0.376 OA
BRANCH  37  38
ATOM     38  C   UNL A   1      35.039  33.286  28.536  1.00  0.00     0.188 C 
BRANCH  38  39
ATOM     39  C   UNL A   1      34.348  34.051  29.576  1.00  0.00     0.188 C 
BRANCH  39  40
ATOM     40  O   UNL A   1      34.140  33.316  30.685  1.00  0.00    -0.376 OA
BRANCH  40  41
ATOM     41  C   UNL A   1      34.881  33.470  31.803  1.00  0.00     0.202 C 
BRANCH  41  42
ATOM     42  C   UNL A   1      35.236  31.994  31.937  1.00  0.00     0.261 C 
BRANCH  42  43
ATOM     43  O   UNL A   1      36.593  31.628  32.509  1.00  0.00    -0.460 OA
BRANCH  43  44
ATOM     44  C   UNL A   1      37.155  32.196  33.705  1.00  0.00     0.338 C 
ATOM     45  O   UNL A   1      36.653  32.543  34.765  1.00  0.00    -0.246 OA
BRANCH  44  46
ATOM     46  C   UNL A   1      38.615  31.797  33.783  1.00  0.00     0.060 A 
ATOM     47  C   UNL A   1      39.770  32.199  34.571  1.00  0.00     0.016 A 
ATOM     48  C   UNL A   1      38.712  31.025  32.691  1.00  0.00     0.016 A 
ATOM     49  C   UNL A   1      41.029  31.890  34.096  1.00  0.00     0.010 A 
ATOM     50  C   UNL A   1      39.946  30.728  32.246  1.00  0.00     0.010 A 
ATOM     51  C   UNL A   1      41.099  31.119  32.943  1.00  0.00    -0.014 A 
BRANCH  51  52
ATOM     52  C   UNL A   1      42.372  30.654  32.407  1.00  0.00     0.031 A 
ATOM     53  C   UNL A   1      43.005  31.427  31.318  1.00  0.00     0.074 A 
ATOM     54  C   UNL A   1      42.888  29.482  32.817  1.00  0.00     0.049 A 
ATOM     55  N   UNL A   1      44.071  31.099  30.650  1.00  0.00    -0.248 NA
ATOM     56  C   UNL A   1      42.387  32.704  30.924  1.00  0.00     0.031 C 
ATOM     57  C   UNL A   1      42.333  28.664  33.891  1.00  0.00     0.029 A 
ATOM     58  N   UNL A   1      43.980  28.771  32.380  1.00  0.00    -0.354 N 
ATOM     59  C   UNL A   1      44.271  32.130  29.764  1.00  0.00     0.074 A 
ATOM     60  C   UNL A   1      43.188  33.076  29.938  1.00  0.00     0.031 C 
ATOM     61  C   UNL A   1      43.090  27.570  34.038  1.00  0.00     0.029 A 
ATOM     62  C   UNL A   1      44.169  27.590  33.054  1.00  0.00     0.049 A 
ATOM     63  H   UNL A   1      44.569  29.078  31.655  1.00  0.00     0.167 HD
ATOM     64  C   UNL A   1      45.293  32.250  28.894  1.00  0.00     0.037 A 
ATOM     65  C   UNL A   1      45.084  26.610  32.917  1.00  0.00     0.037 A 
ATOM     66  C   UNL A   1      46.308  31.269  28.708  1.00  0.00     0.049 A 
ATOM     67  C   UNL A   1      46.123  26.705  31.854  1.00  0.00     0.074 A 
ATOM     68  C   UNL A   1      47.354  31.342  27.814  1.00  0.00     0.029 A 
ATOM     69  N   UNL A   1      46.403  30.057  29.366  1.00  0.00    -0.354 N 
ATOM     70  N   UNL A   1      46.301  27.696  31.025  1.00  0.00    -0.248 NA
ATOM     71  C   UNL A   1      47.068  25.588  31.680  1.00  0.00     0.031 C 
ATOM     72  C   UNL A   1      48.062  30.165  27.886  1.00  0.00     0.029 A 
ATOM     73  C   UNL A   1      47.488  29.371  28.859  1.00  0.00     0.049 A 
ATOM     74  H   UNL A   1      45.800  29.738  30.076  1.00  0.00     0.167 HD
ATOM     75  C   UNL A   1      47.389  27.349  30.255  1.00  0.00     0.074 A 
ATOM     76  C   UNL A   1      47.843  26.050  30.705  1.00  0.00     0.031 C 
ATOM     77  C   UNL A   1      47.947  28.085  29.274  1.00  0.00     0.037 A 
BRANCH  64  78
ATOM     78  C   UNL A   1      45.295  33.436  27.997  1.00  0.00     0.064 A 
ATOM     79  C   UNL A   1      44.718  33.408  26.729  1.00  0.00     0.173 A 
ATOM     80  C   UNL A   1      45.970  34.598  28.400  1.00  0.00     0.173 A 
ATOM     81  F   UNL A   1      43.932  32.386  26.357  1.00  0.00    -0.203 F 
ATOM     82  C   UNL A   1      45.029  34.402  25.816  1.00  0.00     0.198 A 
ATOM     83  C   UNL A   1      46.153  35.650  27.526  1.00  0.00     0.198 A 
ATOM     84  F   UNL A   1      46.429  34.731  29.653  1.00  0.00    -0.203 F 
ATOM     85  F   UNL A   1      44.791  34.205  24.513  1.00  0.00    -0.200 F 
ATOM     86  C   UNL A   1      45.692  35.547  26.228  1.00  0.00     0.200 A 
ATOM     87  F   UNL A   1      46.845  36.724  27.924  1.00  0.00    -0.200 F 
ATOM     88  F   UNL A   1      45.862  36.562  25.375  1.00  0.00    -0.200 F 
ENDBRANCH  64  78
BRANCH  65  89
ATOM     89  C   UNL A   1      44.978  25.408  33.764  1.00  0.00     0.064 A 
ATOM     90  C   UNL A   1      44.333  24.236  33.361  1.00  0.00     0.173 A 
ATOM     91  C   UNL A   1      45.556  25.444  35.038  1.00  0.00     0.173 A 
ATOM     92  F   UNL A   1      43.846  24.120  32.117  1.00  0.00    -0.203 F 
ATOM     93  C   UNL A   1      44.207  23.171  34.247  1.00  0.00     0.198 A 
ATOM     94  C   UNL A   1      45.534  24.337  35.868  1.00  0.00     0.198 A 
ATOM     95  F   UNL A   1      46.227  26.534  35.437  1.00  0.00    -0.203 F 
ATOM     96  F   UNL A   1      43.397  22.143  33.957  1.00  0.00    -0.200 F 
ATOM     97  C   UNL A   1      44.874  23.191  35.463  1.00  0.00     0.200 A 
ATOM     98  F   UNL A   1      46.134  24.397  37.062  1.00  0.00    -0.200 F 
ATOM     99  F   UNL A   1      44.903  22.097  36.233  1.00  0.00    -0.200 F 
ENDBRANCH  65  89
BRANCH  77 100
ATOM    100  C   UNL A   1      49.189  27.585  28.628  1.00  0.00     0.064 A 
ATOM    101  C   UNL A   1      49.192  26.926  27.400  1.00  0.00     0.173 A 
ATOM    102  C   UNL A   1      50.419  27.832  29.258  1.00  0.00     0.173 A 
ATOM    103  F   UNL A   1      48.060  26.796  26.691  1.00  0.00    -0.203 F 
ATOM    104  C   UNL A   1      50.375  26.393  26.907  1.00  0.00     0.198 A 
ATOM    105  C   UNL A   1      51.608  27.412  28.694  1.00  0.00     0.198 A 
ATOM    106  F   UNL A   1      50.470  28.560  30.386  1.00  0.00    -0.203 F 
ATOM    107  F   UNL A   1      50.342  25.521  25.892  1.00  0.00    -0.200 F 
ATOM    108  C   UNL A   1      51.586  26.696  27.513  1.00  0.00     0.200 A 
ATOM    109  F   UNL A   1      52.763  27.665  29.321  1.00  0.00    -0.200 F 
ATOM    110  F   UNL A   1      52.734  26.310  26.943  1.00  0.00    -0.200 F 
ENDBRANCH  77 100
ENDBRANCH  51  52
ENDBRANCH  44  46
ENDBRANCH  43  44
ENDBRANCH  42  43
ENDBRANCH  41  42
ENDBRANCH  40  41
ENDBRANCH  39  40
ENDBRANCH  38  39
ENDBRANCH  37  38
ENDBRANCH   1  37
TORSDOF 23
ENDMDL
