MODEL 1
REMARK VINA RESULT:     -10.9      0.000      0.000
REMARK SMILES C[C@@H](C(=O)OCCOCCOCCOC(=O)c1ccc(-c2c3nc(c(-c4c(F)c(F)c(F)c(F)c4F)c4ccc([nH]4)c(-c4c(F)c(F)c(F)c(F)c4F)c4nc(c(-c5c(F)c(F)c(F)c(F)c5F)c5ccc2[nH]5)C=C4)C=C3)cc1)c1ccc(C(=O)c2cccs2)cc1
REMARK SMILES IDX 9 1 8 2 7 3 6 4 5 5 3 6 4 7 2 8 1 9 80 10 81 11 92 12 82 13
REMARK SMILES IDX 91 14 83 15 84 16 85 17 86 18 87 19 90 20 88 21 89 22 10 23
REMARK SMILES IDX 11 24 12 25 13 26 14 27 15 28 16 29 17 30 18 31 79 32 19 33
REMARK SMILES IDX 78 34 20 35 21 36 22 37 72 38 23 39 77 40 71 41 73 42 24 43
REMARK SMILES IDX 76 44 70 45 69 46 25 48 57 49 37 50 56 51 38 52 41 53 55 54
REMARK SMILES IDX 74 55 39 56 40 57 54 59 75 60 42 61 26 62 27 63 35 64 28 65
REMARK SMILES IDX 29 66 33 67 36 68 30 69 31 70 34 71 32 72 58 73 59 74 67 75
REMARK SMILES IDX 60 76 61 77 65 78 68 79 62 80 63 81 66 82 64 83 43 84 44 85
REMARK SMILES IDX 52 86 45 87 46 88 50 89 53 90 47 91 48 92 51 93 49 94
REMARK H PARENT 73 47 41 58
REMARK Flexibility Score: inf
ROOT
ATOM      1  C   UNL A   1      34.866  21.617  25.278  1.00  0.00     0.188 C 
ENDROOT
BRANCH   1   2
ATOM      2  O   UNL A   1      33.764  21.509  26.152  1.00  0.00    -0.376 OA
BRANCH   2   3
ATOM      3  C   UNL A   1      32.459  21.440  25.588  1.00  0.00     0.202 C 
BRANCH   3   4
ATOM      4  C   UNL A   1      31.755  22.705  25.061  1.00  0.00     0.261 C 
BRANCH   4   5
ATOM      5  O   UNL A   1      31.171  23.560  26.071  1.00  0.00    -0.463 OA
BRANCH   5   6
ATOM      6  C   UNL A   1      31.538  24.873  26.034  1.00  0.00     0.313 C 
ATOM      7  O   UNL A   1      31.636  25.573  27.039  1.00  0.00    -0.252 OA
BRANCH   6   8
ATOM      8  C   UNL A   1      31.830  25.431  24.626  1.00  0.00     0.126 C 
ATOM      9  C   UNL A   1      33.207  26.044  24.349  1.00  0.00     0.025 C 
BRANCH   8  10
ATOM     10  C   UNL A   1      30.729  26.379  24.144  1.00  0.00    -0.034 A 
ATOM     11  C   UNL A   1      29.375  26.111  24.381  1.00  0.00     0.005 A 
ATOM     12  C   UNL A   1      31.053  27.568  23.477  1.00  0.00     0.005 A 
ATOM     13  C   UNL A   1      28.374  26.970  23.933  1.00  0.00     0.012 A 
ATOM     14  C   UNL A   1      30.050  28.445  23.039  1.00  0.00     0.012 A 
ATOM     15  C   UNL A   1      28.699  28.145  23.252  1.00  0.00     0.023 A 
BRANCH  15  16
ATOM     16  C   UNL A   1      27.580  29.058  22.871  1.00  0.00     0.202 C 
ATOM     17  O   UNL A   1      26.437  28.673  23.108  1.00  0.00    -0.288 OA
BRANCH  16  18
ATOM     18  C   UNL A   1      27.864  30.350  22.278  1.00  0.00     0.075 A 
ATOM     19  C   UNL A   1      27.920  30.730  20.951  1.00  0.00     0.024 A 
ATOM     20  S   UNL A   1      28.159  31.674  23.327  1.00  0.00    -0.140 S 
ATOM     21  C   UNL A   1      28.275  32.104  20.801  1.00  0.00     0.012 A 
ATOM     22  C   UNL A   1      28.449  32.727  22.015  1.00  0.00     0.065 A 
ENDBRANCH  16  18
ENDBRANCH  15  16
ENDBRANCH   8  10
ENDBRANCH   6   8
ENDBRANCH   5   6
ENDBRANCH   4   5
ENDBRANCH   3   4
ENDBRANCH   2   3
ENDBRANCH   1   2
BRANCH   1  23
ATOM     23  C   UNL A   1      35.687  20.360  24.969  1.00  0.00     0.188 C 
BRANCH  23  24
ATOM     24  O   UNL A   1      37.061  20.458  24.695  1.00  0.00    -0.376 OA
BRANCH  24  25
ATOM     25  C   UNL A   1      37.945  19.397  24.995  1.00  0.00     0.202 C 
BRANCH  25  26
ATOM     26  C   UNL A   1      39.373  19.559  25.550  1.00  0.00     0.261 C 
BRANCH  26  27
ATOM     27  O   UNL A   1      39.760  20.829  26.077  1.00  0.00    -0.460 OA
BRANCH  27  28
ATOM     28  C   UNL A   1      40.674  20.803  27.078  1.00  0.00     0.338 C 
ATOM     29  O   UNL A   1      41.281  19.841  27.501  1.00  0.00    -0.246 OA
BRANCH  28  30
ATOM     30  C   UNL A   1      40.965  22.207  27.452  1.00  0.00     0.060 A 
ATOM     31  C   UNL A   1      40.272  23.239  26.803  1.00  0.00     0.016 A 
ATOM     32  C   UNL A   1      41.908  22.500  28.438  1.00  0.00     0.016 A 
ATOM     33  C   UNL A   1      40.541  24.570  27.126  1.00  0.00     0.010 A 
ATOM     34  C   UNL A   1      42.195  23.834  28.742  1.00  0.00     0.010 A 
ATOM     35  C   UNL A   1      41.532  24.876  28.070  1.00  0.00    -0.014 A 
BRANCH  35  36
ATOM     36  C   UNL A   1      42.004  26.274  28.221  1.00  0.00     0.031 A 
ATOM     37  C   UNL A   1      43.310  26.662  27.588  1.00  0.00     0.074 A 
ATOM     38  C   UNL A   1      41.289  27.187  28.902  1.00  0.00     0.049 A 
ATOM     39  N   UNL A   1      43.945  27.806  27.616  1.00  0.00    -0.248 NA
ATOM     40  C   UNL A   1      44.009  25.603  26.843  1.00  0.00     0.031 C 
ATOM     41  C   UNL A   1      40.007  26.935  29.549  1.00  0.00     0.029 A 
ATOM     42  N   UNL A   1      41.535  28.517  29.140  1.00  0.00    -0.354 N 
ATOM     43  C   UNL A   1      45.125  27.599  26.917  1.00  0.00     0.074 A 
ATOM     44  C   UNL A   1      45.126  26.217  26.485  1.00  0.00     0.031 C 
ATOM     45  C   UNL A   1      39.544  28.090  30.058  1.00  0.00     0.029 A 
ATOM     46  C   UNL A   1      40.526  29.150  29.823  1.00  0.00     0.049 A 
ATOM     47  H   UNL A   1      42.358  28.973  28.849  1.00  0.00     0.167 HD
ATOM     48  C   UNL A   1      46.122  28.480  26.669  1.00  0.00     0.037 A 
ATOM     49  C   UNL A   1      40.415  30.435  30.217  1.00  0.00     0.037 A 
ATOM     50  C   UNL A   1      46.120  29.852  27.105  1.00  0.00     0.049 A 
ATOM     51  C   UNL A   1      41.548  31.392  29.935  1.00  0.00     0.074 A 
ATOM     52  C   UNL A   1      47.093  30.818  26.915  1.00  0.00     0.029 A 
ATOM     53  N   UNL A   1      45.095  30.452  27.823  1.00  0.00    -0.354 N 
ATOM     54  N   UNL A   1      42.667  31.192  29.280  1.00  0.00    -0.248 NA
ATOM     55  C   UNL A   1      41.413  32.754  30.475  1.00  0.00     0.031 C 
ATOM     56  C   UNL A   1      46.684  31.985  27.567  1.00  0.00     0.029 A 
ATOM     57  C   UNL A   1      45.426  31.769  28.105  1.00  0.00     0.049 A 
ATOM     58  H   UNL A   1      44.259  30.009  28.091  1.00  0.00     0.167 HD
ATOM     59  C   UNL A   1      43.358  32.396  29.318  1.00  0.00     0.074 A 
ATOM     60  C   UNL A   1      42.521  33.335  30.033  1.00  0.00     0.031 C 
ATOM     61  C   UNL A   1      44.583  32.695  28.819  1.00  0.00     0.037 A 
BRANCH  48  62
ATOM     62  C   UNL A   1      47.327  27.967  25.935  1.00  0.00     0.064 A 
ATOM     63  C   UNL A   1      47.355  27.860  24.536  1.00  0.00     0.173 A 
ATOM     64  C   UNL A   1      48.478  27.593  26.645  1.00  0.00     0.173 A 
ATOM     65  F   UNL A   1      46.275  28.186  23.811  1.00  0.00    -0.203 F 
ATOM     66  C   UNL A   1      48.482  27.372  23.879  1.00  0.00     0.198 A 
ATOM     67  C   UNL A   1      49.614  27.138  25.982  1.00  0.00     0.198 A 
ATOM     68  F   UNL A   1      48.505  27.676  27.984  1.00  0.00    -0.203 F 
ATOM     69  F   UNL A   1      48.468  27.227  22.546  1.00  0.00    -0.200 F 
ATOM     70  C   UNL A   1      49.613  27.020  24.601  1.00  0.00     0.200 A 
ATOM     71  F   UNL A   1      50.710  26.810  26.682  1.00  0.00    -0.200 F 
ATOM     72  F   UNL A   1      50.698  26.557  23.966  1.00  0.00    -0.200 F 
ENDBRANCH  48  62
BRANCH  49  73
ATOM     73  C   UNL A   1      39.200  30.898  30.942  1.00  0.00     0.064 A 
ATOM     74  C   UNL A   1      39.114  30.815  32.340  1.00  0.00     0.173 A 
ATOM     75  C   UNL A   1      38.082  31.395  30.254  1.00  0.00     0.173 A 
ATOM     76  F   UNL A   1      40.136  30.311  33.048  1.00  0.00    -0.203 F 
ATOM     77  C   UNL A   1      37.953  31.190  33.016  1.00  0.00     0.198 A 
ATOM     78  C   UNL A   1      36.937  31.806  30.934  1.00  0.00     0.198 A 
ATOM     79  F   UNL A   1      38.100  31.485  28.915  1.00  0.00    -0.203 F 
ATOM     80  F   UNL A   1      37.876  31.039  34.346  1.00  0.00    -0.200 F 
ATOM     81  C   UNL A   1      36.870  31.693  32.313  1.00  0.00     0.200 A 
ATOM     82  F   UNL A   1      35.898  32.304  30.252  1.00  0.00    -0.200 F 
ATOM     83  F   UNL A   1      35.756  32.056  32.964  1.00  0.00    -0.200 F 
ENDBRANCH  49  73
BRANCH  61  84
ATOM     84  C   UNL A   1      45.090  34.098  29.009  1.00  0.00     0.064 A 
ATOM     85  C   UNL A   1      45.754  34.490  30.181  1.00  0.00     0.173 A 
ATOM     86  C   UNL A   1      44.955  35.048  27.985  1.00  0.00     0.173 A 
ATOM     87  F   UNL A   1      45.903  33.625  31.196  1.00  0.00    -0.203 F 
ATOM     88  C   UNL A   1      46.238  35.788  30.331  1.00  0.00     0.198 A 
ATOM     89  C   UNL A   1      45.468  36.334  28.125  1.00  0.00     0.198 A 
ATOM     90  F   UNL A   1      44.339  34.725  26.837  1.00  0.00    -0.203 F 
ATOM     91  F   UNL A   1      46.825  36.153  31.480  1.00  0.00    -0.200 F 
ATOM     92  C   UNL A   1      46.102  36.706  29.301  1.00  0.00     0.200 A 
ATOM     93  F   UNL A   1      45.354  37.214  27.121  1.00  0.00    -0.200 F 
ATOM     94  F   UNL A   1      46.578  37.951  29.443  1.00  0.00    -0.200 F 
ENDBRANCH  61  84
ENDBRANCH  35  36
ENDBRANCH  28  30
ENDBRANCH  27  28
ENDBRANCH  26  27
ENDBRANCH  25  26
ENDBRANCH  24  25
ENDBRANCH  23  24
ENDBRANCH   1  23
TORSDOF 20
ENDMDL
MODEL 2
REMARK VINA RESULT:     -10.4      5.722     11.765
REMARK SMILES C[C@@H](C(=O)OCCOCCOCCOC(=O)c1ccc(-c2c3nc(c(-c4c(F)c(F)c(F)c(F)c4F)c4ccc([nH]4)c(-c4c(F)c(F)c(F)c(F)c4F)c4nc(c(-c5c(F)c(F)c(F)c(F)c5F)c5ccc2[nH]5)C=C4)C=C3)cc1)c1ccc(C(=O)c2cccs2)cc1
REMARK SMILES IDX 9 1 8 2 7 3 6 4 5 5 3 6 4 7 2 8 1 9 80 10 81 11 92 12 82 13
REMARK SMILES IDX 91 14 83 15 84 16 85 17 86 18 87 19 90 20 88 21 89 22 10 23
REMARK SMILES IDX 11 24 12 25 13 26 14 27 15 28 16 29 17 30 18 31 79 32 19 33
REMARK SMILES IDX 78 34 20 35 21 36 22 37 72 38 23 39 77 40 71 41 73 42 24 43
REMARK SMILES IDX 76 44 70 45 69 46 25 48 57 49 37 50 56 51 38 52 41 53 55 54
REMARK SMILES IDX 74 55 39 56 40 57 54 59 75 60 42 61 26 62 27 63 35 64 28 65
REMARK SMILES IDX 29 66 33 67 36 68 30 69 31 70 34 71 32 72 58 73 59 74 67 75
REMARK SMILES IDX 60 76 61 77 65 78 68 79 62 80 63 81 66 82 64 83 43 84 44 85
REMARK SMILES IDX 52 86 45 87 46 88 50 89 53 90 47 91 48 92 51 93 49 94
REMARK H PARENT 73 47 41 58
REMARK Flexibility Score: inf
ROOT
ATOM      1  C   UNL A   1      34.770  34.056  33.104  1.00  0.00     0.188 C 
ENDROOT
BRANCH   1   2
ATOM      2  O   UNL A   1      35.811  34.973  33.361  1.00  0.00    -0.376 OA
BRANCH   2   3
ATOM      3  C   UNL A   1      37.152  34.556  33.124  1.00  0.00     0.202 C 
BRANCH   3   4
ATOM      4  C   UNL A   1      37.998  33.927  34.248  1.00  0.00     0.261 C 
BRANCH   4   5
ATOM      5  O   UNL A   1      37.320  32.941  35.062  1.00  0.00    -0.463 OA
BRANCH   5   6
ATOM      6  C   UNL A   1      37.829  31.677  35.025  1.00  0.00     0.313 C 
ATOM      7  O   UNL A   1      38.037  31.005  36.033  1.00  0.00    -0.252 OA
BRANCH   6   8
ATOM      8  C   UNL A   1      38.127  31.133  33.613  1.00  0.00     0.126 C 
ATOM      9  C   UNL A   1      36.971  30.562  32.785  1.00  0.00     0.025 C 
BRANCH   8  10
ATOM     10  C   UNL A   1      39.305  30.155  33.612  1.00  0.00    -0.034 A 
ATOM     11  C   UNL A   1      39.226  28.912  32.973  1.00  0.00     0.005 A 
ATOM     12  C   UNL A   1      40.516  30.498  34.227  1.00  0.00     0.005 A 
ATOM     13  C   UNL A   1      40.296  28.020  32.983  1.00  0.00     0.012 A 
ATOM     14  C   UNL A   1      41.603  29.611  34.225  1.00  0.00     0.012 A 
ATOM     15  C   UNL A   1      41.495  28.357  33.613  1.00  0.00     0.023 A 
BRANCH  15  16
ATOM     16  C   UNL A   1      42.627  27.385  33.515  1.00  0.00     0.202 C 
ATOM     17  O   UNL A   1      43.360  27.477  32.532  1.00  0.00    -0.288 OA
BRANCH  16  18
ATOM     18  C   UNL A   1      42.843  26.411  34.566  1.00  0.00     0.075 A 
ATOM     19  C   UNL A   1      41.950  25.565  35.195  1.00  0.00     0.024 A 
ATOM     20  S   UNL A   1      44.439  26.196  35.154  1.00  0.00    -0.140 S 
ATOM     21  C   UNL A   1      42.576  24.786  36.212  1.00  0.00     0.012 A 
ATOM     22  C   UNL A   1      43.925  25.044  36.304  1.00  0.00     0.065 A 
ENDBRANCH  16  18
ENDBRANCH  15  16
ENDBRANCH   8  10
ENDBRANCH   6   8
ENDBRANCH   5   6
ENDBRANCH   4   5
ENDBRANCH   3   4
ENDBRANCH   2   3
ENDBRANCH   1   2
BRANCH   1  23
ATOM     23  C   UNL A   1      34.836  33.204  31.831  1.00  0.00     0.188 C 
BRANCH  23  24
ATOM     24  O   UNL A   1      35.031  33.811  30.580  1.00  0.00    -0.376 OA
BRANCH  24  25
ATOM     25  C   UNL A   1      34.018  33.800  29.594  1.00  0.00     0.202 C 
BRANCH  25  26
ATOM     26  C   UNL A   1      34.082  33.028  28.263  1.00  0.00     0.261 C 
BRANCH  26  27
ATOM     27  O   UNL A   1      35.224  32.212  28.001  1.00  0.00    -0.460 OA
BRANCH  27  28
ATOM     28  C   UNL A   1      35.035  30.873  28.106  1.00  0.00     0.338 C 
ATOM     29  O   UNL A   1      33.999  30.258  27.952  1.00  0.00    -0.246 OA
BRANCH  28  30
ATOM     30  C   UNL A   1      36.370  30.245  28.249  1.00  0.00     0.060 A 
ATOM     31  C   UNL A   1      36.658  29.524  29.416  1.00  0.00     0.016 A 
ATOM     32  C   UNL A   1      37.323  30.361  27.236  1.00  0.00     0.016 A 
ATOM     33  C   UNL A   1      37.915  28.939  29.582  1.00  0.00     0.010 A 
ATOM     34  C   UNL A   1      38.589  29.796  27.413  1.00  0.00     0.010 A 
ATOM     35  C   UNL A   1      38.900  29.105  28.598  1.00  0.00    -0.014 A 
BRANCH  35  36
ATOM     36  C   UNL A   1      40.303  28.716  28.882  1.00  0.00     0.031 A 
ATOM     37  C   UNL A   1      41.148  29.641  29.712  1.00  0.00     0.074 A 
ATOM     38  C   UNL A   1      40.821  27.565  28.420  1.00  0.00     0.049 A 
ATOM     39  N   UNL A   1      42.405  29.538  30.059  1.00  0.00    -0.248 NA
ATOM     40  C   UNL A   1      40.488  30.865  30.194  1.00  0.00     0.031 C 
ATOM     41  C   UNL A   1      40.100  26.584  27.617  1.00  0.00     0.029 A 
ATOM     42  N   UNL A   1      42.070  27.019  28.583  1.00  0.00    -0.354 N 
ATOM     43  C   UNL A   1      42.694  30.689  30.776  1.00  0.00     0.074 A 
ATOM     44  C   UNL A   1      41.485  31.485  30.806  1.00  0.00     0.031 C 
ATOM     45  C   UNL A   1      40.899  25.523  27.409  1.00  0.00     0.029 A 
ATOM     46  C   UNL A   1      42.207  25.777  28.015  1.00  0.00     0.049 A 
ATOM     47  H   UNL A   1      42.800  27.476  29.061  1.00  0.00     0.167 HD
ATOM     48  C   UNL A   1      43.865  31.055  31.347  1.00  0.00     0.037 A 
ATOM     49  C   UNL A   1      43.269  24.946  27.985  1.00  0.00     0.037 A 
ATOM     50  C   UNL A   1      45.068  30.264  31.310  1.00  0.00     0.049 A 
ATOM     51  C   UNL A   1      44.566  25.385  28.621  1.00  0.00     0.074 A 
ATOM     52  C   UNL A   1      46.309  30.558  31.845  1.00  0.00     0.029 A 
ATOM     53  N   UNL A   1      45.179  29.023  30.698  1.00  0.00    -0.354 N 
ATOM     54  N   UNL A   1      44.839  26.479  29.291  1.00  0.00    -0.248 NA
ATOM     55  C   UNL A   1      45.717  24.480  28.469  1.00  0.00     0.031 C 
ATOM     56  C   UNL A   1      47.187  29.522  31.509  1.00  0.00     0.029 A 
ATOM     57  C   UNL A   1      46.477  28.552  30.822  1.00  0.00     0.049 A 
ATOM     58  H   UNL A   1      44.446  28.550  30.243  1.00  0.00     0.167 HD
ATOM     59  C   UNL A   1      46.177  26.388  29.650  1.00  0.00     0.074 A 
ATOM     60  C   UNL A   1      46.658  25.118  29.152  1.00  0.00     0.031 C 
ATOM     61  C   UNL A   1      46.945  27.283  30.321  1.00  0.00     0.037 A 
BRANCH  48  62
ATOM     62  C   UNL A   1      43.916  32.399  32.014  1.00  0.00     0.064 A 
ATOM     63  C   UNL A   1      43.952  33.593  31.279  1.00  0.00     0.173 A 
ATOM     64  C   UNL A   1      43.910  32.490  33.415  1.00  0.00     0.173 A 
ATOM     65  F   UNL A   1      43.978  33.561  29.938  1.00  0.00    -0.203 F 
ATOM     66  C   UNL A   1      44.008  34.827  31.921  1.00  0.00     0.198 A 
ATOM     67  C   UNL A   1      43.931  33.727  34.053  1.00  0.00     0.198 A 
ATOM     68  F   UNL A   1      43.875  31.379  34.166  1.00  0.00    -0.203 F 
ATOM     69  F   UNL A   1      44.096  35.953  31.199  1.00  0.00    -0.200 F 
ATOM     70  C   UNL A   1      43.989  34.894  33.306  1.00  0.00     0.200 A 
ATOM     71  F   UNL A   1      43.900  33.789  35.392  1.00  0.00    -0.200 F 
ATOM     72  F   UNL A   1      44.036  36.082  33.922  1.00  0.00    -0.200 F 
ENDBRANCH  48  62
BRANCH  49  73
ATOM     73  C   UNL A   1      43.170  23.622  27.310  1.00  0.00     0.064 A 
ATOM     74  C   UNL A   1      43.691  23.423  26.022  1.00  0.00     0.173 A 
ATOM     75  C   UNL A   1      42.518  22.538  27.919  1.00  0.00     0.173 A 
ATOM     76  F   UNL A   1      44.289  24.435  25.376  1.00  0.00    -0.203 F 
ATOM     77  C   UNL A   1      43.545  22.202  25.365  1.00  0.00     0.198 A 
ATOM     78  C   UNL A   1      42.408  21.306  27.276  1.00  0.00     0.198 A 
ATOM     79  F   UNL A   1      41.989  22.671  29.144  1.00  0.00    -0.203 F 
ATOM     80  F   UNL A   1      43.995  22.060  24.110  1.00  0.00    -0.200 F 
ATOM     81  C   UNL A   1      42.912  21.143  25.995  1.00  0.00     0.200 A 
ATOM     82  F   UNL A   1      41.807  20.282  27.895  1.00  0.00    -0.200 F 
ATOM     83  F   UNL A   1      42.774  19.969  25.364  1.00  0.00    -0.200 F 
ENDBRANCH  49  73
BRANCH  61  84
ATOM     84  C   UNL A   1      48.381  26.919  30.573  1.00  0.00     0.064 A 
ATOM     85  C   UNL A   1      48.762  26.134  31.673  1.00  0.00     0.173 A 
ATOM     86  C   UNL A   1      49.385  27.316  29.676  1.00  0.00     0.173 A 
ATOM     87  F   UNL A   1      47.845  25.734  32.567  1.00  0.00    -0.203 F 
ATOM     88  C   UNL A   1      50.094  25.786  31.879  1.00  0.00     0.198 A 
ATOM     89  C   UNL A   1      50.711  26.939  29.867  1.00  0.00     0.198 A 
ATOM     90  F   UNL A   1      49.077  28.057  28.600  1.00  0.00    -0.203 F 
ATOM     91  F   UNL A   1      50.440  25.078  32.964  1.00  0.00    -0.200 F 
ATOM     92  C   UNL A   1      51.067  26.181  30.972  1.00  0.00     0.200 A 
ATOM     93  F   UNL A   1      51.646  27.305  28.979  1.00  0.00    -0.200 F 
ATOM     94  F   UNL A   1      52.347  25.837  31.167  1.00  0.00    -0.200 F 
ENDBRANCH  61  84
ENDBRANCH  35  36
ENDBRANCH  28  30
ENDBRANCH  27  28
ENDBRANCH  26  27
ENDBRANCH  25  26
ENDBRANCH  24  25
ENDBRANCH  23  24
ENDBRANCH   1  23
TORSDOF 20
ENDMDL
MODEL 3
REMARK VINA RESULT:     -10.4      3.921      9.202
REMARK SMILES C[C@@H](C(=O)OCCOCCOCCOC(=O)c1ccc(-c2c3nc(c(-c4c(F)c(F)c(F)c(F)c4F)c4ccc([nH]4)c(-c4c(F)c(F)c(F)c(F)c4F)c4nc(c(-c5c(F)c(F)c(F)c(F)c5F)c5ccc2[nH]5)C=C4)C=C3)cc1)c1ccc(C(=O)c2cccs2)cc1
REMARK SMILES IDX 9 1 8 2 7 3 6 4 5 5 3 6 4 7 2 8 1 9 80 10 81 11 92 12 82 13
REMARK SMILES IDX 91 14 83 15 84 16 85 17 86 18 87 19 90 20 88 21 89 22 10 23
REMARK SMILES IDX 11 24 12 25 13 26 14 27 15 28 16 29 17 30 18 31 79 32 19 33
REMARK SMILES IDX 78 34 20 35 21 36 22 37 72 38 23 39 77 40 71 41 73 42 24 43
REMARK SMILES IDX 76 44 70 45 69 46 25 48 57 49 37 50 56 51 38 52 41 53 55 54
REMARK SMILES IDX 74 55 39 56 40 57 54 59 75 60 42 61 26 62 27 63 35 64 28 65
REMARK SMILES IDX 29 66 33 67 36 68 30 69 31 70 34 71 32 72 58 73 59 74 67 75
REMARK SMILES IDX 60 76 61 77 65 78 68 79 62 80 63 81 66 82 64 83 43 84 44 85
REMARK SMILES IDX 52 86 45 87 46 88 50 89 53 90 47 91 48 92 51 93 49 94
REMARK H PARENT 73 47 41 58
REMARK Flexibility Score: inf
ROOT
ATOM      1  C   UNL A   1      35.847  34.051  30.651  1.00  0.00     0.188 C 
ENDROOT
BRANCH   1   2
ATOM      2  O   UNL A   1      35.352  34.056  29.330  1.00  0.00    -0.376 OA
BRANCH   2   3
ATOM      3  C   UNL A   1      33.953  33.881  29.133  1.00  0.00     0.202 C 
BRANCH   3   4
ATOM      4  C   UNL A   1      33.416  33.038  27.960  1.00  0.00     0.261 C 
BRANCH   4   5
ATOM      5  O   UNL A   1      34.211  31.883  27.606  1.00  0.00    -0.463 OA
BRANCH   5   6
ATOM      6  C   UNL A   1      33.522  30.752  27.284  1.00  0.00     0.313 C 
ATOM      7  O   UNL A   1      32.339  30.756  26.949  1.00  0.00    -0.252 OA
BRANCH   6   8
ATOM      8  C   UNL A   1      34.336  29.444  27.366  1.00  0.00     0.126 C 
ATOM      9  C   UNL A   1      35.843  29.531  27.627  1.00  0.00     0.025 C 
BRANCH   8  10
ATOM     10  C   UNL A   1      34.064  28.524  26.173  1.00  0.00    -0.034 A 
ATOM     11  C   UNL A   1      34.013  29.016  24.863  1.00  0.00     0.005 A 
ATOM     12  C   UNL A   1      33.890  27.146  26.361  1.00  0.00     0.005 A 
ATOM     13  C   UNL A   1      33.755  28.178  23.780  1.00  0.00     0.012 A 
ATOM     14  C   UNL A   1      33.647  26.295  25.272  1.00  0.00     0.012 A 
ATOM     15  C   UNL A   1      33.565  26.809  23.973  1.00  0.00     0.023 A 
BRANCH  15  16
ATOM     16  C   UNL A   1      33.372  25.958  22.759  1.00  0.00     0.202 C 
ATOM     17  O   UNL A   1      33.687  26.447  21.676  1.00  0.00    -0.288 OA
BRANCH  16  18
ATOM     18  C   UNL A   1      32.862  24.607  22.890  1.00  0.00     0.075 A 
ATOM     19  C   UNL A   1      31.567  24.154  23.054  1.00  0.00     0.024 A 
ATOM     20  S   UNL A   1      33.980  23.310  22.810  1.00  0.00    -0.140 S 
ATOM     21  C   UNL A   1      31.508  22.735  23.181  1.00  0.00     0.012 A 
ATOM     22  C   UNL A   1      32.753  22.155  23.083  1.00  0.00     0.065 A 
ENDBRANCH  16  18
ENDBRANCH  15  16
ENDBRANCH   8  10
ENDBRANCH   6   8
ENDBRANCH   5   6
ENDBRANCH   4   5
ENDBRANCH   3   4
ENDBRANCH   2   3
ENDBRANCH   1   2
BRANCH   1  23
ATOM     23  C   UNL A   1      37.352  34.236  30.874  1.00  0.00     0.188 C 
BRANCH  23  24
ATOM     24  O   UNL A   1      37.873  34.314  32.176  1.00  0.00    -0.376 OA
BRANCH  24  25
ATOM     25  C   UNL A   1      37.022  34.424  33.300  1.00  0.00     0.202 C 
BRANCH  25  26
ATOM     26  C   UNL A   1      36.566  33.250  34.187  1.00  0.00     0.261 C 
BRANCH  26  27
ATOM     27  O   UNL A   1      37.090  31.949  33.919  1.00  0.00    -0.460 OA
BRANCH  27  28
ATOM     28  C   UNL A   1      36.515  31.276  32.891  1.00  0.00     0.338 C 
ATOM     29  O   UNL A   1      35.338  31.246  32.593  1.00  0.00    -0.246 OA
BRANCH  28  30
ATOM     30  C   UNL A   1      37.606  30.726  32.053  1.00  0.00     0.060 A 
ATOM     31  C   UNL A   1      38.775  30.266  32.677  1.00  0.00     0.016 A 
ATOM     32  C   UNL A   1      37.472  30.659  30.665  1.00  0.00     0.016 A 
ATOM     33  C   UNL A   1      39.823  29.759  31.907  1.00  0.00     0.010 A 
ATOM     34  C   UNL A   1      38.532  30.175  29.893  1.00  0.00     0.010 A 
ATOM     35  C   UNL A   1      39.723  29.747  30.508  1.00  0.00    -0.014 A 
BRANCH  35  36
ATOM     36  C   UNL A   1      40.922  29.462  29.683  1.00  0.00     0.031 A 
ATOM     37  C   UNL A   1      41.042  28.111  29.036  1.00  0.00     0.074 A 
ATOM     38  C   UNL A   1      41.886  30.382  29.503  1.00  0.00     0.049 A 
ATOM     39  N   UNL A   1      42.009  27.618  28.306  1.00  0.00    -0.248 NA
ATOM     40  C   UNL A   1      39.926  27.180  29.268  1.00  0.00     0.031 C 
ATOM     41  C   UNL A   1      41.878  31.726  30.068  1.00  0.00     0.029 A 
ATOM     42  N   UNL A   1      43.048  30.326  28.774  1.00  0.00    -0.354 N 
ATOM     43  C   UNL A   1      41.633  26.315  28.014  1.00  0.00     0.074 A 
ATOM     44  C   UNL A   1      40.354  26.089  28.654  1.00  0.00     0.031 C 
ATOM     45  C   UNL A   1      42.952  32.394  29.612  1.00  0.00     0.029 A 
ATOM     46  C   UNL A   1      43.754  31.504  28.771  1.00  0.00     0.049 A 
ATOM     47  H   UNL A   1      43.348  29.517  28.298  1.00  0.00     0.167 HD
ATOM     48  C   UNL A   1      42.301  25.389  27.287  1.00  0.00     0.037 A 
ATOM     49  C   UNL A   1      44.915  31.821  28.164  1.00  0.00     0.037 A 
ATOM     50  C   UNL A   1      43.575  25.616  26.657  1.00  0.00     0.049 A 
ATOM     51  C   UNL A   1      45.643  30.764  27.369  1.00  0.00     0.074 A 
ATOM     52  C   UNL A   1      44.338  24.733  25.913  1.00  0.00     0.029 A 
ATOM     53  N   UNL A   1      44.277  26.812  26.701  1.00  0.00    -0.354 N 
ATOM     54  N   UNL A   1      45.289  29.530  27.100  1.00  0.00    -0.248 NA
ATOM     55  C   UNL A   1      46.953  31.139  26.812  1.00  0.00     0.031 C 
ATOM     56  C   UNL A   1      45.527  25.376  25.556  1.00  0.00     0.029 A 
ATOM     57  C   UNL A   1      45.476  26.680  26.018  1.00  0.00     0.049 A 
ATOM     58  H   UNL A   1      43.969  27.631  27.151  1.00  0.00     0.167 HD
ATOM     59  C   UNL A   1      46.318  28.990  26.339  1.00  0.00     0.074 A 
ATOM     60  C   UNL A   1      47.299  30.038  26.159  1.00  0.00     0.031 C 
ATOM     61  C   UNL A   1      46.447  27.733  25.845  1.00  0.00     0.037 A 
BRANCH  48  62
ATOM     62  C   UNL A   1      41.687  24.023  27.182  1.00  0.00     0.064 A 
ATOM     63  C   UNL A   1      42.262  22.901  27.796  1.00  0.00     0.173 A 
ATOM     64  C   UNL A   1      40.491  23.841  26.470  1.00  0.00     0.173 A 
ATOM     65  F   UNL A   1      43.414  23.016  28.472  1.00  0.00    -0.203 F 
ATOM     66  C   UNL A   1      41.678  21.642  27.676  1.00  0.00     0.198 A 
ATOM     67  C   UNL A   1      39.892  22.588  26.382  1.00  0.00     0.198 A 
ATOM     68  F   UNL A   1      39.897  24.881  25.865  1.00  0.00    -0.203 F 
ATOM     69  F   UNL A   1      42.274  20.573  28.224  1.00  0.00    -0.200 F 
ATOM     70  C   UNL A   1      40.490  21.488  26.978  1.00  0.00     0.200 A 
ATOM     71  F   UNL A   1      38.737  22.445  25.717  1.00  0.00    -0.200 F 
ATOM     72  F   UNL A   1      39.926  20.278  26.870  1.00  0.00    -0.200 F 
ENDBRANCH  48  62
BRANCH  49  73
ATOM     73  C   UNL A   1      45.485  33.190  28.296  1.00  0.00     0.064 A 
ATOM     74  C   UNL A   1      45.132  34.213  27.403  1.00  0.00     0.173 A 
ATOM     75  C   UNL A   1      46.426  33.498  29.292  1.00  0.00     0.173 A 
ATOM     76  F   UNL A   1      44.267  33.966  26.407  1.00  0.00    -0.203 F 
ATOM     77  C   UNL A   1      45.711  35.479  27.487  1.00  0.00     0.198 A 
ATOM     78  C   UNL A   1      46.975  34.774  29.399  1.00  0.00     0.198 A 
ATOM     79  F   UNL A   1      46.814  32.558  30.167  1.00  0.00    -0.203 F 
ATOM     80  F   UNL A   1      45.403  36.417  26.581  1.00  0.00    -0.200 F 
ATOM     81  C   UNL A   1      46.625  35.761  28.490  1.00  0.00     0.200 A 
ATOM     82  F   UNL A   1      47.848  35.046  30.378  1.00  0.00    -0.200 F 
ATOM     83  F   UNL A   1      47.180  36.977  28.572  1.00  0.00    -0.200 F 
ENDBRANCH  49  73
BRANCH  61  84
ATOM     84  C   UNL A   1      47.681  27.421  25.047  1.00  0.00     0.064 A 
ATOM     85  C   UNL A   1      47.763  27.700  23.673  1.00  0.00     0.173 A 
ATOM     86  C   UNL A   1      48.817  26.883  25.673  1.00  0.00     0.173 A 
ATOM     87  F   UNL A   1      46.704  28.207  23.023  1.00  0.00    -0.203 F 
ATOM     88  C   UNL A   1      48.923  27.426  22.954  1.00  0.00     0.198 A 
ATOM     89  C   UNL A   1      49.986  26.641  24.957  1.00  0.00     0.198 A 
ATOM     90  F   UNL A   1      48.800  26.607  26.985  1.00  0.00    -0.203 F 
ATOM     91  F   UNL A   1      48.960  27.655  21.633  1.00  0.00    -0.200 F 
ATOM     92  C   UNL A   1      50.036  26.904  23.596  1.00  0.00     0.200 A 
ATOM     93  F   UNL A   1      51.066  26.155  25.583  1.00  0.00    -0.200 F 
ATOM     94  F   UNL A   1      51.154  26.651  22.904  1.00  0.00    -0.200 F 
ENDBRANCH  61  84
ENDBRANCH  35  36
ENDBRANCH  28  30
ENDBRANCH  27  28
ENDBRANCH  26  27
ENDBRANCH  25  26
ENDBRANCH  24  25
ENDBRANCH  23  24
ENDBRANCH   1  23
TORSDOF 20
ENDMDL
