MODEL 1
REMARK VINA RESULT:     -15.1      0.000      0.000
REMARK SMILES Cc1ccccc1S(=O)(=O)Nc1ccc(N2CCOCC2)cc1C(=O)OCCOCCOCCOC(=O)c1ccc(-c2c3nc(c(-c4c(F)c(F)c(F)c(F)c4F)c4ccc([nH]4)c(-c4c(F)c(F)c(F)c(F)c4F)c4nc(c(-c5c(F)c(F)c(F)c(F)c5F)c5ccc2[nH]5)C=C4)C=C3)cc1
REMARK SMILES IDX 30 1 29 2 28 3 27 4 26 5 24 6 25 7 23 8 12 9 13 10 14 11
REMARK SMILES IDX 22 12 15 13 11 14 8 16 9 17 10 18 7 19 1 20 2 21 3 22 4 23
REMARK SMILES IDX 6 24 5 25 16 26 17 27 21 28 18 29 20 30 19 31 31 32 32 33
REMARK SMILES IDX 33 34 34 35 35 36 36 37 37 38 38 39 39 40 100 41 40 42 99 43
REMARK SMILES IDX 41 44 42 45 43 46 93 47 44 48 98 49 92 50 94 51 45 52 97 53
REMARK SMILES IDX 91 54 90 55 46 57 78 58 58 59 77 60 59 61 62 62 76 63 95 64
REMARK SMILES IDX 60 65 61 66 75 68 96 69 63 70 47 71 48 72 56 73 49 74 50 75
REMARK SMILES IDX 54 76 57 77 51 78 52 79 55 80 53 81 79 82 80 83 88 84 81 85
REMARK SMILES IDX 82 86 86 87 89 88 83 89 84 90 87 91 85 92 64 93 65 94 73 95
REMARK SMILES IDX 66 96 67 97 71 98 74 99 68 100 69 101 72 102 70 103
REMARK H PARENT 11 15 94 56 62 67
REMARK Flexibility Score: inf
ROOT
ATOM      1  C   UNL A   1      41.012  25.502  27.671  1.00  0.00     0.188 C 
ENDROOT
BRANCH   1   2
ATOM      2  O   UNL A   1      39.681  25.367  27.117  1.00  0.00    -0.376 OA
BRANCH   2   3
ATOM      3  C   UNL A   1      38.648  24.370  27.172  1.00  0.00     0.202 C 
BRANCH   3   4
ATOM      4  C   UNL A   1      37.669  23.534  25.855  1.00  0.00     0.261 C 
BRANCH   4   5
ATOM      5  O   UNL A   1      36.587  22.042  25.539  1.00  0.00    -0.460 OA
BRANCH   5   6
ATOM      6  C   UNL A   1      35.005  21.517  25.819  1.00  0.00     0.340 C 
ATOM      7  O   UNL A   1      34.409  21.248  26.868  1.00  0.00    -0.246 OA
BRANCH   6   8
ATOM      8  C   UNL A   1      34.009  21.497  24.751  1.00  0.00     0.086 A 
ATOM      9  C   UNL A   1      33.581  22.470  23.740  1.00  0.00     0.064 A 
ATOM     10  C   UNL A   1      32.502  21.947  23.015  1.00  0.00     0.030 A 
ATOM     11  C   UNL A   1      32.138  20.539  23.100  1.00  0.00     0.028 A 
ATOM     12  C   UNL A   1      33.483  20.220  24.954  1.00  0.00     0.043 A 
ATOM     13  C   UNL A   1      32.696  19.632  24.023  1.00  0.00     0.038 A 
BRANCH   9  14
ATOM     14  N   UNL A   1      34.133  23.958  23.414  1.00  0.00    -0.279 N 
ATOM     15  H   UNL A   1      35.113  24.045  23.460  1.00  0.00     0.180 HD
BRANCH  14  16
ATOM     16  S   UNL A   1      33.147  25.707  22.921  1.00  0.00     0.262 S 
ATOM     17  O   UNL A   1      31.719  25.451  22.903  1.00  0.00    -0.201 OA
ATOM     18  O   UNL A   1      33.758  26.239  21.719  1.00  0.00    -0.201 OA
BRANCH  16  19
ATOM     19  C   UNL A   1      33.469  26.956  24.310  1.00  0.00     0.090 A 
ATOM     20  C   UNL A   1      33.159  24.851  25.709  1.00  0.00     0.046 C 
ATOM     21  C   UNL A   1      32.335  26.401  25.472  1.00  0.00    -0.031 A 
ATOM     22  C   UNL A   1      31.540  27.685  26.837  1.00  0.00     0.005 A 
ATOM     23  C   UNL A   1      31.954  29.207  27.024  1.00  0.00     0.000 A 
ATOM     24  C   UNL A   1      33.968  28.662  24.546  1.00  0.00     0.022 A 
ATOM     25  C   UNL A   1      33.156  29.689  25.883  1.00  0.00     0.001 A 
ENDBRANCH  16  19
ENDBRANCH  14  16
ENDBRANCH   9  14
BRANCH  13  26
ATOM     26  N   UNL A   1      32.606  18.253  24.041  1.00  0.00    -0.367 N 
ATOM     27  C   UNL A   1      32.598  17.447  25.305  1.00  0.00     0.145 C 
ATOM     28  C   UNL A   1      33.029  17.487  22.858  1.00  0.00     0.145 C 
ATOM     29  C   UNL A   1      33.889  16.629  25.474  1.00  0.00     0.181 C 
ATOM     30  C   UNL A   1      34.222  16.541  23.156  1.00  0.00     0.181 C 
ATOM     31  O   UNL A   1      34.062  15.760  24.349  1.00  0.00    -0.378 OA
ENDBRANCH  13  26
ENDBRANCH   6   8
ENDBRANCH   5   6
ENDBRANCH   4   5
ENDBRANCH   3   4
ENDBRANCH   2   3
ENDBRANCH   1   2
BRANCH   1  32
ATOM     32  C   UNL A   1      42.355  26.298  27.327  1.00  0.00     0.188 C 
BRANCH  32  33
ATOM     33  O   UNL A   1      43.011  26.137  26.074  1.00  0.00    -0.376 OA
BRANCH  33  34
ATOM     34  C   UNL A   1      42.762  24.945  25.213  1.00  0.00     0.202 C 
BRANCH  34  35
ATOM     35  C   UNL A   1      43.862  23.553  24.975  1.00  0.00     0.261 C 
BRANCH  35  36
ATOM     36  O   UNL A   1      45.452  23.425  25.772  1.00  0.00    -0.460 OA
BRANCH  36  37
ATOM     37  C   UNL A   1      46.394  24.142  26.757  1.00  0.00     0.338 C 
ATOM     38  O   UNL A   1      47.601  23.928  26.613  1.00  0.00    -0.246 OA
BRANCH  37  39
ATOM     39  C   UNL A   1      45.965  25.218  28.129  1.00  0.00     0.060 A 
ATOM     40  C   UNL A   1      46.352  27.022  28.088  1.00  0.00     0.016 A 
ATOM     41  C   UNL A   1      44.797  24.748  29.721  1.00  0.00     0.016 A 
ATOM     42  C   UNL A   1      45.582  27.926  29.552  1.00  0.00     0.010 A 
ATOM     43  C   UNL A   1      44.231  25.634  30.875  1.00  0.00     0.010 A 
ATOM     44  C   UNL A   1      44.433  27.094  30.835  1.00  0.00    -0.014 A 
BRANCH  44  45
ATOM     45  C   UNL A   1      42.903  27.588  31.866  1.00  0.00     0.031 A 
ATOM     46  C   UNL A   1      41.527  28.593  31.239  1.00  0.00     0.074 A 
ATOM     47  C   UNL A   1      42.723  27.411  33.223  1.00  0.00     0.049 A 
ATOM     48  N   UNL A   1      41.335  29.826  31.649  1.00  0.00    -0.248 NA
ATOM     49  C   UNL A   1      40.711  28.461  29.923  1.00  0.00     0.031 C 
ATOM     50  C   UNL A   1      41.461  27.601  33.942  1.00  0.00     0.029 A 
ATOM     51  N   UNL A   1      43.551  26.892  34.249  1.00  0.00    -0.354 N 
ATOM     52  C   UNL A   1      40.431  30.419  30.777  1.00  0.00     0.074 A 
ATOM     53  C   UNL A   1      40.519  29.717  29.564  1.00  0.00     0.031 C 
ATOM     54  C   UNL A   1      41.645  27.418  35.263  1.00  0.00     0.029 A 
ATOM     55  C   UNL A   1      43.056  27.226  35.523  1.00  0.00     0.049 A 
ATOM     56  H   UNL A   1      44.366  26.365  34.090  1.00  0.00     0.167 HD
ATOM     57  C   UNL A   1      39.295  31.022  31.212  1.00  0.00     0.037 A 
ATOM     58  C   UNL A   1      43.814  27.849  36.480  1.00  0.00     0.037 A 
ATOM     59  C   UNL A   1      39.275  30.930  32.657  1.00  0.00     0.049 A 
ATOM     60  C   UNL A   1      43.438  29.317  36.509  1.00  0.00     0.074 A 
ATOM     61  C   UNL A   1      38.731  30.047  33.573  1.00  0.00     0.029 A 
ATOM     62  N   UNL A   1      40.350  31.486  33.307  1.00  0.00    -0.354 N 
ATOM     63  N   UNL A   1      42.298  29.787  36.085  1.00  0.00    -0.248 NA
ATOM     64  C   UNL A   1      44.373  30.372  36.901  1.00  0.00     0.031 C 
ATOM     65  C   UNL A   1      39.433  30.217  34.814  1.00  0.00     0.029 A 
ATOM     66  C   UNL A   1      40.379  31.212  34.646  1.00  0.00     0.049 A 
ATOM     67  H   UNL A   1      41.034  32.030  32.852  1.00  0.00     0.167 HD
ATOM     68  C   UNL A   1      42.388  31.146  35.971  1.00  0.00     0.074 A 
ATOM     69  C   UNL A   1      43.699  31.467  36.518  1.00  0.00     0.031 C 
ATOM     70  C   UNL A   1      41.415  31.908  35.388  1.00  0.00     0.037 A 
BRANCH  57  71
ATOM     71  C   UNL A   1      38.120  31.263  30.280  1.00  0.00     0.064 A 
ATOM     72  C   UNL A   1      37.266  30.205  29.940  1.00  0.00     0.173 A 
ATOM     73  C   UNL A   1      37.808  32.499  29.652  1.00  0.00     0.173 A 
ATOM     74  F   UNL A   1      37.390  29.006  30.523  1.00  0.00    -0.203 F 
ATOM     75  C   UNL A   1      36.255  30.338  28.983  1.00  0.00     0.198 A 
ATOM     76  C   UNL A   1      36.857  32.610  28.632  1.00  0.00     0.198 A 
ATOM     77  F   UNL A   1      38.402  33.646  30.022  1.00  0.00    -0.203 F 
ATOM     78  F   UNL A   1      35.458  29.295  28.718  1.00  0.00    -0.200 F 
ATOM     79  C   UNL A   1      36.075  31.526  28.300  1.00  0.00     0.200 A 
ATOM     80  F   UNL A   1      36.707  33.771  27.974  1.00  0.00    -0.200 F 
ATOM     81  F   UNL A   1      35.135  31.631  27.351  1.00  0.00    -0.200 F 
ENDBRANCH  57  71
BRANCH  58  82
ATOM     82  C   UNL A   1      45.233  27.345  36.563  1.00  0.00     0.064 A 
ATOM     83  C   UNL A   1      46.243  28.052  35.865  1.00  0.00     0.173 A 
ATOM     84  C   UNL A   1      45.575  26.801  37.784  1.00  0.00     0.173 A 
ATOM     85  F   UNL A   1      46.017  28.484  34.618  1.00  0.00    -0.203 F 
ATOM     86  C   UNL A   1      47.410  28.476  36.509  1.00  0.00     0.198 A 
ATOM     87  C   UNL A   1      46.589  27.439  38.461  1.00  0.00     0.198 A 
ATOM     88  F   UNL A   1      44.700  26.078  38.497  1.00  0.00    -0.203 F 
ATOM     89  F   UNL A   1      48.299  29.262  35.885  1.00  0.00    -0.200 F 
ATOM     90  C   UNL A   1      47.521  28.263  37.859  1.00  0.00     0.200 A 
ATOM     91  F   UNL A   1      46.415  27.518  39.771  1.00  0.00    -0.200 F 
ATOM     92  F   UNL A   1      48.393  28.967  38.599  1.00  0.00    -0.200 F 
ENDBRANCH  58  82
BRANCH  70  93
ATOM     93  C   UNL A   1      41.419  33.428  35.383  1.00  0.00     0.064 A 
ATOM     94  C   UNL A   1      40.516  34.152  36.171  1.00  0.00     0.173 A 
ATOM     95  C   UNL A   1      42.205  34.222  34.503  1.00  0.00     0.173 A 
ATOM     96  F   UNL A   1      39.587  33.530  36.910  1.00  0.00    -0.203 F 
ATOM     97  C   UNL A   1      40.495  35.548  36.180  1.00  0.00     0.198 A 
ATOM     98  C   UNL A   1      42.145  35.608  34.475  1.00  0.00     0.198 A 
ATOM     99  F   UNL A   1      43.070  33.720  33.616  1.00  0.00    -0.203 F 
ATOM    100  F   UNL A   1      39.657  36.187  37.005  1.00  0.00    -0.200 F 
ATOM    101  C   UNL A   1      41.311  36.275  35.335  1.00  0.00     0.200 A 
ATOM    102  F   UNL A   1      42.903  36.281  33.595  1.00  0.00    -0.200 F 
ATOM    103  F   UNL A   1      41.275  37.612  35.329  1.00  0.00    -0.200 F 
ENDBRANCH  70  93
ENDBRANCH  44  45
ENDBRANCH  37  39
ENDBRANCH  36  37
ENDBRANCH  35  36
ENDBRANCH  34  35
ENDBRANCH  33  34
ENDBRANCH  32  33
ENDBRANCH   1  32
TORSDOF 21
ENDMDL
MODEL 2
REMARK VINA RESULT:     -14.6      3.723      9.104
REMARK SMILES Cc1ccccc1S(=O)(=O)Nc1ccc(N2CCOCC2)cc1C(=O)OCCOCCOCCOC(=O)c1ccc(-c2c3nc(c(-c4c(F)c(F)c(F)c(F)c4F)c4ccc([nH]4)c(-c4c(F)c(F)c(F)c(F)c4F)c4nc(c(-c5c(F)c(F)c(F)c(F)c5F)c5ccc2[nH]5)C=C4)C=C3)cc1
REMARK SMILES IDX 30 1 29 2 28 3 27 4 26 5 24 6 25 7 23 8 12 9 13 10 14 11
REMARK SMILES IDX 22 12 15 13 11 14 8 16 9 17 10 18 7 19 1 20 2 21 3 22 4 23
REMARK SMILES IDX 6 24 5 25 16 26 17 27 21 28 18 29 20 30 19 31 31 32 32 33
REMARK SMILES IDX 33 34 34 35 35 36 36 37 37 38 38 39 39 40 100 41 40 42 99 43
REMARK SMILES IDX 41 44 42 45 43 46 93 47 44 48 98 49 92 50 94 51 45 52 97 53
REMARK SMILES IDX 91 54 90 55 46 57 78 58 58 59 77 60 59 61 62 62 76 63 95 64
REMARK SMILES IDX 60 65 61 66 75 68 96 69 63 70 47 71 48 72 56 73 49 74 50 75
REMARK SMILES IDX 54 76 57 77 51 78 52 79 55 80 53 81 79 82 80 83 88 84 81 85
REMARK SMILES IDX 82 86 86 87 89 88 83 89 84 90 87 91 85 92 64 93 65 94 73 95
REMARK SMILES IDX 66 96 67 97 71 98 74 99 68 100 69 101 72 102 70 103
REMARK H PARENT 11 15 94 56 62 67
REMARK Flexibility Score: inf
ROOT
ATOM      1  C   UNL A   1      41.387  21.156  26.750  1.00  0.00     0.188 C 
ENDROOT
BRANCH   1   2
ATOM      2  O   UNL A   1      41.211  22.521  26.302  1.00  0.00    -0.376 OA
BRANCH   2   3
ATOM      3  C   UNL A   1      40.227  23.546  26.513  1.00  0.00     0.202 C 
BRANCH   3   4
ATOM      4  C   UNL A   1      38.394  23.554  26.327  1.00  0.00     0.261 C 
BRANCH   4   5
ATOM      5  O   UNL A   1      36.917  22.414  26.200  1.00  0.00    -0.460 OA
BRANCH   5   6
ATOM      6  C   UNL A   1      36.346  21.149  25.234  1.00  0.00     0.340 C 
ATOM      7  O   UNL A   1      36.820  20.036  24.986  1.00  0.00    -0.246 OA
BRANCH   6   8
ATOM      8  C   UNL A   1      34.999  21.170  24.672  1.00  0.00     0.086 A 
ATOM      9  C   UNL A   1      34.156  22.218  24.085  1.00  0.00     0.064 A 
ATOM     10  C   UNL A   1      32.892  21.691  23.790  1.00  0.00     0.030 A 
ATOM     11  C   UNL A   1      32.645  20.255  23.795  1.00  0.00     0.028 A 
ATOM     12  C   UNL A   1      34.648  19.833  24.871  1.00  0.00     0.043 A 
ATOM     13  C   UNL A   1      33.567  19.295  24.260  1.00  0.00     0.038 A 
BRANCH   9  14
ATOM     14  N   UNL A   1      34.472  23.781  23.798  1.00  0.00    -0.279 N 
ATOM     15  H   UNL A   1      35.404  24.044  23.974  1.00  0.00     0.180 HD
BRANCH  14  16
ATOM     16  S   UNL A   1      33.266  25.320  23.129  1.00  0.00     0.262 S 
ATOM     17  O   UNL A   1      31.878  24.912  23.239  1.00  0.00    -0.201 OA
ATOM     18  O   UNL A   1      33.751  25.733  21.827  1.00  0.00    -0.201 OA
BRANCH  16  19
ATOM     19  C   UNL A   1      33.506  26.788  24.305  1.00  0.00     0.090 A 
ATOM     20  C   UNL A   1      33.507  24.890  26.004  1.00  0.00     0.046 C 
ATOM     21  C   UNL A   1      32.500  26.291  25.603  1.00  0.00    -0.031 A 
ATOM     22  C   UNL A   1      31.628  27.669  26.821  1.00  0.00     0.005 A 
ATOM     23  C   UNL A   1      31.872  29.237  26.765  1.00  0.00     0.000 A 
ATOM     24  C   UNL A   1      33.816  28.553  24.266  1.00  0.00     0.022 A 
ATOM     25  C   UNL A   1      32.954  29.672  25.494  1.00  0.00     0.001 A 
ENDBRANCH  16  19
ENDBRANCH  14  16
ENDBRANCH   9  14
BRANCH  13  26
ATOM     26  N   UNL A   1      33.540  17.923  24.101  1.00  0.00    -0.367 N 
ATOM     27  C   UNL A   1      32.389  17.067  24.534  1.00  0.00     0.145 C 
ATOM     28  C   UNL A   1      34.809  17.186  23.982  1.00  0.00     0.145 C 
ATOM     29  C   UNL A   1      32.752  16.180  25.737  1.00  0.00     0.181 C 
ATOM     30  C   UNL A   1      35.018  16.172  25.137  1.00  0.00     0.181 C 
ATOM     31  O   UNL A   1      33.872  15.351  25.406  1.00  0.00    -0.378 OA
ENDBRANCH  13  26
ENDBRANCH   6   8
ENDBRANCH   5   6
ENDBRANCH   4   5
ENDBRANCH   3   4
ENDBRANCH   2   3
ENDBRANCH   1   2
BRANCH   1  32
ATOM     32  C   UNL A   1      42.451  19.980  26.550  1.00  0.00     0.188 C 
BRANCH  32  33
ATOM     33  O   UNL A   1      42.546  19.269  25.320  1.00  0.00    -0.376 OA
BRANCH  33  34
ATOM     34  C   UNL A   1      43.845  18.712  24.843  1.00  0.00     0.202 C 
BRANCH  34  35
ATOM     35  C   UNL A   1      45.138  19.607  23.987  1.00  0.00     0.261 C 
BRANCH  35  36
ATOM     36  O   UNL A   1      45.424  21.352  24.212  1.00  0.00    -0.460 OA
BRANCH  36  37
ATOM     37  C   UNL A   1      44.704  22.705  24.365  1.00  0.00     0.338 C 
ATOM     38  O   UNL A   1      43.583  22.789  23.855  1.00  0.00    -0.246 OA
BRANCH  37  39
ATOM     39  C   UNL A   1      45.304  24.205  25.148  1.00  0.00     0.060 A 
ATOM     40  C   UNL A   1      44.317  25.765  25.109  1.00  0.00     0.016 A 
ATOM     41  C   UNL A   1      46.906  24.373  26.382  1.00  0.00     0.016 A 
ATOM     42  C   UNL A   1      45.086  27.094  26.203  1.00  0.00     0.010 A 
ATOM     43  C   UNL A   1      47.420  25.574  27.237  1.00  0.00     0.010 A 
ATOM     44  C   UNL A   1      46.617  26.808  27.314  1.00  0.00    -0.014 A 
BRANCH  44  45
ATOM     45  C   UNL A   1      47.234  27.405  29.019  1.00  0.00     0.031 A 
ATOM     46  C   UNL A   1      48.615  26.656  29.929  1.00  0.00     0.074 A 
ATOM     47  C   UNL A   1      46.629  28.332  29.845  1.00  0.00     0.049 A 
ATOM     48  N   UNL A   1      48.418  25.956  31.023  1.00  0.00    -0.248 NA
ATOM     49  C   UNL A   1      50.042  26.276  29.444  1.00  0.00     0.031 C 
ATOM     50  C   UNL A   1      47.234  28.926  31.039  1.00  0.00     0.029 A 
ATOM     51  N   UNL A   1      45.422  29.067  29.751  1.00  0.00    -0.354 N 
ATOM     52  C   UNL A   1      49.593  25.266  31.294  1.00  0.00     0.074 A 
ATOM     53  C   UNL A   1      50.278  25.140  30.075  1.00  0.00     0.031 C 
ATOM     54  C   UNL A   1      46.352  29.735  31.654  1.00  0.00     0.029 A 
ATOM     55  C   UNL A   1      45.070  29.632  30.990  1.00  0.00     0.049 A 
ATOM     56  H   UNL A   1      44.897  29.169  28.925  1.00  0.00     0.167 HD
ATOM     57  C   UNL A   1      50.216  25.344  32.498  1.00  0.00     0.037 A 
ATOM     58  C   UNL A   1      43.845  29.446  31.578  1.00  0.00     0.037 A 
ATOM     59  C   UNL A   1      49.421  26.206  33.348  1.00  0.00     0.049 A 
ATOM     60  C   UNL A   1      43.992  28.405  32.670  1.00  0.00     0.074 A 
ATOM     61  C   UNL A   1      49.433  27.555  33.657  1.00  0.00     0.029 A 
ATOM     62  N   UNL A   1      48.119  25.817  33.545  1.00  0.00    -0.354 N 
ATOM     63  N   UNL A   1      45.118  28.123  33.263  1.00  0.00    -0.248 NA
ATOM     64  C   UNL A   1      42.901  27.520  33.078  1.00  0.00     0.031 C 
ATOM     65  C   UNL A   1      48.139  27.897  34.175  1.00  0.00     0.029 A 
ATOM     66  C   UNL A   1      47.362  26.752  34.196  1.00  0.00     0.049 A 
ATOM     67  H   UNL A   1      47.763  24.948  33.247  1.00  0.00     0.167 HD
ATOM     68  C   UNL A   1      44.974  26.959  33.967  1.00  0.00     0.074 A 
ATOM     69  C   UNL A   1      43.561  26.634  33.840  1.00  0.00     0.031 C 
ATOM     70  C   UNL A   1      46.026  26.312  34.554  1.00  0.00     0.037 A 
BRANCH  57  71
ATOM     71  C   UNL A   1      51.681  24.978  32.657  1.00  0.00     0.064 A 
ATOM     72  C   UNL A   1      52.044  23.663  32.980  1.00  0.00     0.173 A 
ATOM     73  C   UNL A   1      52.771  25.883  32.551  1.00  0.00     0.173 A 
ATOM     74  F   UNL A   1      51.128  22.688  33.026  1.00  0.00    -0.203 F 
ATOM     75  C   UNL A   1      53.363  23.302  33.271  1.00  0.00     0.198 A 
ATOM     76  C   UNL A   1      54.075  25.544  32.929  1.00  0.00     0.198 A 
ATOM     77  F   UNL A   1      52.612  27.122  32.058  1.00  0.00    -0.203 F 
ATOM     78  F   UNL A   1      53.650  22.024  33.552  1.00  0.00    -0.200 F 
ATOM     79  C   UNL A   1      54.372  24.247  33.286  1.00  0.00     0.200 A 
ATOM     80  F   UNL A   1      55.037  26.480  32.947  1.00  0.00    -0.200 F 
ATOM     81  F   UNL A   1      55.625  23.902  33.613  1.00  0.00    -0.200 F 
ENDBRANCH  57  71
BRANCH  58  82
ATOM     82  C   UNL A   1      42.689  29.491  30.612  1.00  0.00     0.064 A 
ATOM     83  C   UNL A   1      42.273  28.284  29.997  1.00  0.00     0.173 A 
ATOM     84  C   UNL A   1      41.704  30.400  30.944  1.00  0.00     0.173 A 
ATOM     85  F   UNL A   1      43.187  27.425  29.527  1.00  0.00    -0.203 F 
ATOM     86  C   UNL A   1      40.938  27.874  30.031  1.00  0.00     0.198 A 
ATOM     87  C   UNL A   1      40.460  29.868  31.195  1.00  0.00     0.198 A 
ATOM     88  F   UNL A   1      42.003  31.587  31.489  1.00  0.00    -0.203 F 
ATOM     89  F   UNL A   1      40.570  26.670  29.571  1.00  0.00    -0.200 F 
ATOM     90  C   UNL A   1      40.044  28.628  30.747  1.00  0.00     0.200 A 
ATOM     91  F   UNL A   1      39.805  30.442  32.192  1.00  0.00    -0.200 F 
ATOM     92  F   UNL A   1      38.871  28.112  31.150  1.00  0.00    -0.200 F 
ENDBRANCH  58  82
BRANCH  70  93
ATOM     93  C   UNL A   1      45.875  25.106  35.465  1.00  0.00     0.064 A 
ATOM     94  C   UNL A   1      46.193  25.187  36.826  1.00  0.00     0.173 A 
ATOM     95  C   UNL A   1      45.554  23.797  35.010  1.00  0.00     0.173 A 
ATOM     96  F   UNL A   1      46.690  26.314  37.355  1.00  0.00    -0.203 F 
ATOM     97  C   UNL A   1      46.069  24.092  37.682  1.00  0.00     0.198 A 
ATOM     98  C   UNL A   1      45.483  22.697  35.854  1.00  0.00     0.198 A 
ATOM     99  F   UNL A   1      45.296  23.492  33.734  1.00  0.00    -0.203 F 
ATOM    100  F   UNL A   1      46.321  24.248  38.988  1.00  0.00    -0.200 F 
ATOM    101  C   UNL A   1      45.712  22.849  37.197  1.00  0.00     0.200 A 
ATOM    102  F   UNL A   1      45.199  21.491  35.339  1.00  0.00    -0.200 F 
ATOM    103  F   UNL A   1      45.614  21.795  38.015  1.00  0.00    -0.200 F 
ENDBRANCH  70  93
ENDBRANCH  44  45
ENDBRANCH  37  39
ENDBRANCH  36  37
ENDBRANCH  35  36
ENDBRANCH  34  35
ENDBRANCH  33  34
ENDBRANCH  32  33
ENDBRANCH   1  32
TORSDOF 21
ENDMDL
MODEL 3
REMARK VINA RESULT:     -14.3      0.967      2.005
REMARK SMILES Cc1ccccc1S(=O)(=O)Nc1ccc(N2CCOCC2)cc1C(=O)OCCOCCOCCOC(=O)c1ccc(-c2c3nc(c(-c4c(F)c(F)c(F)c(F)c4F)c4ccc([nH]4)c(-c4c(F)c(F)c(F)c(F)c4F)c4nc(c(-c5c(F)c(F)c(F)c(F)c5F)c5ccc2[nH]5)C=C4)C=C3)cc1
REMARK SMILES IDX 30 1 29 2 28 3 27 4 26 5 24 6 25 7 23 8 12 9 13 10 14 11
REMARK SMILES IDX 22 12 15 13 11 14 8 16 9 17 10 18 7 19 1 20 2 21 3 22 4 23
REMARK SMILES IDX 6 24 5 25 16 26 17 27 21 28 18 29 20 30 19 31 31 32 32 33
REMARK SMILES IDX 33 34 34 35 35 36 36 37 37 38 38 39 39 40 100 41 40 42 99 43
REMARK SMILES IDX 41 44 42 45 43 46 93 47 44 48 98 49 92 50 94 51 45 52 97 53
REMARK SMILES IDX 91 54 90 55 46 57 78 58 58 59 77 60 59 61 62 62 76 63 95 64
REMARK SMILES IDX 60 65 61 66 75 68 96 69 63 70 47 71 48 72 56 73 49 74 50 75
REMARK SMILES IDX 54 76 57 77 51 78 52 79 55 80 53 81 79 82 80 83 88 84 81 85
REMARK SMILES IDX 82 86 86 87 89 88 83 89 84 90 87 91 85 92 64 93 65 94 73 95
REMARK SMILES IDX 66 96 67 97 71 98 74 99 68 100 69 101 72 102 70 103
REMARK H PARENT 11 15 94 56 62 67
REMARK Flexibility Score: inf
ROOT
ATOM      1  C   UNL A   1      41.408  25.462  28.058  1.00  0.00     0.188 C 
ENDROOT
BRANCH   1   2
ATOM      2  O   UNL A   1      40.250  24.605  27.911  1.00  0.00    -0.376 OA
BRANCH   2   3
ATOM      3  C   UNL A   1      39.177  24.492  26.963  1.00  0.00     0.202 C 
BRANCH   3   4
ATOM      4  C   UNL A   1      38.464  23.045  26.075  1.00  0.00     0.261 C 
BRANCH   4   5
ATOM      5  O   UNL A   1      37.009  22.530  25.018  1.00  0.00    -0.460 OA
BRANCH   5   6
ATOM      6  C   UNL A   1      35.986  21.203  24.796  1.00  0.00     0.340 C 
ATOM      7  O   UNL A   1      36.201  19.988  24.866  1.00  0.00    -0.246 OA
BRANCH   6   8
ATOM      8  C   UNL A   1      34.541  21.370  24.661  1.00  0.00     0.086 A 
ATOM      9  C   UNL A   1      33.671  22.517  24.379  1.00  0.00     0.064 A 
ATOM     10  C   UNL A   1      32.331  22.117  24.459  1.00  0.00     0.030 A 
ATOM     11  C   UNL A   1      31.956  20.709  24.501  1.00  0.00     0.028 A 
ATOM     12  C   UNL A   1      34.135  20.059  24.920  1.00  0.00     0.043 A 
ATOM     13  C   UNL A   1      32.875  19.650  24.646  1.00  0.00     0.038 A 
BRANCH   9  14
ATOM     14  N   UNL A   1      34.041  24.059  24.051  1.00  0.00    -0.279 N 
ATOM     15  H   UNL A   1      34.881  24.370  24.460  1.00  0.00     0.180 HD
BRANCH  14  16
ATOM     16  S   UNL A   1      33.061  25.492  22.928  1.00  0.00     0.262 S 
ATOM     17  O   UNL A   1      31.904  24.885  22.298  1.00  0.00    -0.201 OA
ATOM     18  O   UNL A   1      34.040  26.136  22.076  1.00  0.00    -0.201 OA
BRANCH  16  19
ATOM     19  C   UNL A   1      32.411  26.811  24.125  1.00  0.00     0.090 A 
ATOM     20  C   UNL A   1      33.982  28.253  22.732  1.00  0.00     0.046 C 
ATOM     21  C   UNL A   1      33.858  27.690  24.407  1.00  0.00    -0.031 A 
ATOM     22  C   UNL A   1      34.130  28.701  26.153  1.00  0.00     0.005 A 
ATOM     23  C   UNL A   1      33.050  28.862  27.305  1.00  0.00     0.000 A 
ATOM     24  C   UNL A   1      31.174  27.027  25.405  1.00  0.00     0.022 A 
ATOM     25  C   UNL A   1      31.586  28.027  26.933  1.00  0.00     0.001 A 
ENDBRANCH  16  19
ENDBRANCH  14  16
ENDBRANCH   9  14
BRANCH  13  26
ATOM     26  N   UNL A   1      32.667  18.296  24.465  1.00  0.00    -0.367 N 
ATOM     27  C   UNL A   1      32.621  17.314  25.596  1.00  0.00     0.145 C 
ATOM     28  C   UNL A   1      32.993  17.683  23.167  1.00  0.00     0.145 C 
ATOM     29  C   UNL A   1      33.841  16.378  25.596  1.00  0.00     0.181 C 
ATOM     30  C   UNL A   1      34.108  16.610  23.279  1.00  0.00     0.181 C 
ATOM     31  O   UNL A   1      33.911  15.675  24.350  1.00  0.00    -0.378 OA
ENDBRANCH  13  26
ENDBRANCH   6   8
ENDBRANCH   5   6
ENDBRANCH   4   5
ENDBRANCH   3   4
ENDBRANCH   2   3
ENDBRANCH   1   2
BRANCH   1  32
ATOM     32  C   UNL A   1      42.091  26.665  27.257  1.00  0.00     0.188 C 
BRANCH  32  33
ATOM     33  O   UNL A   1      42.783  26.442  26.033  1.00  0.00    -0.376 OA
BRANCH  33  34
ATOM     34  C   UNL A   1      42.705  25.133  25.324  1.00  0.00     0.202 C 
BRANCH  34  35
ATOM     35  C   UNL A   1      44.080  24.078  24.878  1.00  0.00     0.261 C 
BRANCH  35  36
ATOM     36  O   UNL A   1      45.377  23.640  26.019  1.00  0.00    -0.460 OA
BRANCH  36  37
ATOM     37  C   UNL A   1      46.374  24.232  27.033  1.00  0.00     0.338 C 
ATOM     38  O   UNL A   1      47.570  24.034  26.803  1.00  0.00    -0.246 OA
BRANCH  37  39
ATOM     39  C   UNL A   1      46.024  25.138  28.543  1.00  0.00     0.060 A 
ATOM     40  C   UNL A   1      46.785  26.788  28.868  1.00  0.00     0.016 A 
ATOM     41  C   UNL A   1      44.606  24.691  29.925  1.00  0.00     0.016 A 
ATOM     42  C   UNL A   1      46.056  27.591  30.410  1.00  0.00     0.010 A 
ATOM     43  C   UNL A   1      44.108  25.482  31.176  1.00  0.00     0.010 A 
ATOM     44  C   UNL A   1      44.616  26.844  31.424  1.00  0.00    -0.014 A 
BRANCH  44  45
ATOM     45  C   UNL A   1      43.115  27.497  32.406  1.00  0.00     0.031 A 
ATOM     46  C   UNL A   1      41.773  28.488  31.689  1.00  0.00     0.074 A 
ATOM     47  C   UNL A   1      42.939  27.465  33.776  1.00  0.00     0.049 A 
ATOM     48  N   UNL A   1      41.632  29.762  31.974  1.00  0.00    -0.248 NA
ATOM     49  C   UNL A   1      40.942  28.257  30.396  1.00  0.00     0.031 C 
ATOM     50  C   UNL A   1      41.692  27.774  34.477  1.00  0.00     0.029 A 
ATOM     51  N   UNL A   1      43.755  27.019  34.844  1.00  0.00    -0.354 N 
ATOM     52  C   UNL A   1      40.745  30.300  31.051  1.00  0.00     0.074 A 
ATOM     53  C   UNL A   1      40.796  29.478  29.914  1.00  0.00     0.031 C 
ATOM     54  C   UNL A   1      41.880  27.717  35.809  1.00  0.00     0.029 A 
ATOM     55  C   UNL A   1      43.285  27.497  36.081  1.00  0.00     0.049 A 
ATOM     56  H   UNL A   1      44.549  26.446  34.735  1.00  0.00     0.167 HD
ATOM     57  C   UNL A   1      39.636  30.987  31.428  1.00  0.00     0.037 A 
ATOM     58  C   UNL A   1      44.075  28.183  36.968  1.00  0.00     0.037 A 
ATOM     59  C   UNL A   1      39.625  31.041  32.875  1.00  0.00     0.049 A 
ATOM     60  C   UNL A   1      43.755  29.659  36.851  1.00  0.00     0.074 A 
ATOM     61  C   UNL A   1      39.055  30.276  33.878  1.00  0.00     0.029 A 
ATOM     62  N   UNL A   1      40.726  31.617  33.462  1.00  0.00    -0.354 N 
ATOM     63  N   UNL A   1      42.631  30.129  36.387  1.00  0.00    -0.248 NA
ATOM     64  C   UNL A   1      44.733  30.711  37.131  1.00  0.00     0.031 C 
ATOM     65  C   UNL A   1      39.774  30.541  35.093  1.00  0.00     0.029 A 
ATOM     66  C   UNL A   1      40.756  31.477  34.821  1.00  0.00     0.049 A 
ATOM     67  H   UNL A   1      41.427  32.085  32.952  1.00  0.00     0.167 HD
ATOM     68  C   UNL A   1      42.772  31.465  36.137  1.00  0.00     0.074 A 
ATOM     69  C   UNL A   1      44.098  31.788  36.644  1.00  0.00     0.031 C 
ATOM     70  C   UNL A   1      41.824  32.203  35.485  1.00  0.00     0.037 A 
BRANCH  57  71
ATOM     71  C   UNL A   1      38.463  31.180  30.482  1.00  0.00     0.064 A 
ATOM     72  C   UNL A   1      37.596  30.112  30.214  1.00  0.00     0.173 A 
ATOM     73  C   UNL A   1      38.167  32.374  29.773  1.00  0.00     0.173 A 
ATOM     74  F   UNL A   1      37.705  28.954  30.877  1.00  0.00    -0.203 F 
ATOM     75  C   UNL A   1      36.586  30.193  29.251  1.00  0.00     0.198 A 
ATOM     76  C   UNL A   1      37.216  32.428  28.747  1.00  0.00     0.198 A 
ATOM     77  F   UNL A   1      38.775  33.536  30.064  1.00  0.00    -0.203 F 
ATOM     78  F   UNL A   1      35.775  29.145  29.056  1.00  0.00    -0.200 F 
ATOM     79  C   UNL A   1      36.420  31.335  28.489  1.00  0.00     0.200 A 
ATOM     80  F   UNL A   1      37.080  33.544  28.013  1.00  0.00    -0.200 F 
ATOM     81  F   UNL A   1      35.481  31.387  27.535  1.00  0.00    -0.200 F 
ENDBRANCH  57  71
BRANCH  58  82
ATOM     82  C   UNL A   1      45.473  27.634  37.094  1.00  0.00     0.064 A 
ATOM     83  C   UNL A   1      45.666  26.436  37.825  1.00  0.00     0.173 A 
ATOM     84  C   UNL A   1      46.263  27.824  35.978  1.00  0.00     0.173 A 
ATOM     85  F   UNL A   1      45.032  26.255  38.990  1.00  0.00    -0.203 F 
ATOM     86  C   UNL A   1      46.359  25.353  37.275  1.00  0.00     0.198 A 
ATOM     87  C   UNL A   1      46.708  26.680  35.357  1.00  0.00     0.198 A 
ATOM     88  F   UNL A   1      46.183  28.946  35.248  1.00  0.00    -0.203 F 
ATOM     89  F   UNL A   1      46.422  24.175  37.912  1.00  0.00    -0.200 F 
ATOM     90  C   UNL A   1      46.781  25.445  35.973  1.00  0.00     0.200 A 
ATOM     91  F   UNL A   1      46.722  26.738  34.035  1.00  0.00    -0.200 F 
ATOM     92  F   UNL A   1      47.088  24.344  35.268  1.00  0.00    -0.200 F 
ENDBRANCH  58  82
BRANCH  70  93
ATOM     93  C   UNL A   1      41.886  33.713  35.328  1.00  0.00     0.064 A 
ATOM     94  C   UNL A   1      42.719  34.304  34.371  1.00  0.00     0.173 A 
ATOM     95  C   UNL A   1      41.244  34.634  36.203  1.00  0.00     0.173 A 
ATOM     96  F   UNL A   1      43.526  33.560  33.601  1.00  0.00    -0.203 F 
ATOM     97  C   UNL A   1      42.799  35.688  34.212  1.00  0.00     0.198 A 
ATOM     98  C   UNL A   1      41.367  36.010  36.077  1.00  0.00     0.198 A 
ATOM     99  F   UNL A   1      40.470  34.272  37.231  1.00  0.00    -0.203 F 
ATOM    100  F   UNL A   1      43.560  36.194  33.233  1.00  0.00    -0.200 F 
ATOM    101  C   UNL A   1      42.121  36.540  35.062  1.00  0.00     0.200 A 
ATOM    102  F   UNL A   1      40.749  36.808  36.960  1.00  0.00    -0.200 F 
ATOM    103  F   UNL A   1      42.215  37.867  34.922  1.00  0.00    -0.200 F 
ENDBRANCH  70  93
ENDBRANCH  44  45
ENDBRANCH  37  39
ENDBRANCH  36  37
ENDBRANCH  35  36
ENDBRANCH  34  35
ENDBRANCH  33  34
ENDBRANCH  32  33
ENDBRANCH   1  32
TORSDOF 21
ENDMDL
