MODEL 1
REMARK VINA RESULT:     -11.5      0.000      0.000
REMARK SMILES COc1ccc2c(c1)OC[C@]1(C(=O)OCCOCCOCCOC(=O)c3ccc(-c4c5nc(c(-c6c(F)c(F)c(F)c(F)c6F)c6ccc([nH]6)c(-c6c(F)c(F)c(F)c(F)c6F)c6nc(c(-c7c(F)c(F)c(F)c(F)c7F)c7ccc4[nH]7)C=C6)C=C5)cc3)C[N@@H+](Cc3cc(C(C)(C)C)n[nH]3)C[C@H]21
REMARK SMILES IDX 18 1 17 2 16 3 15 4 14 5 12 6 13 7 11 8 3 9 4 10 8 11 5 12
REMARK SMILES IDX 7 13 6 14 9 15 102 16 10 17 101 18 89 19 90 20 2 22 1 23
REMARK SMILES IDX 91 24 92 25 93 26 100 27 94 28 99 29 95 31 96 32 97 33 98 34
REMARK SMILES IDX 19 35 20 36 21 37 22 38 23 39 24 40 25 41 26 42 27 43 88 44
REMARK SMILES IDX 28 45 87 46 29 47 30 48 31 49 81 50 32 51 86 52 80 53 82 54
REMARK SMILES IDX 33 55 85 56 79 57 78 58 34 60 66 61 46 62 65 63 47 64 50 65
REMARK SMILES IDX 64 66 83 67 48 68 49 69 63 71 84 72 51 73 35 74 36 75 44 76
REMARK SMILES IDX 37 77 38 78 42 79 45 80 39 81 40 82 43 83 41 84 67 85 68 86
REMARK SMILES IDX 76 87 69 88 70 89 74 90 77 91 71 92 72 93 75 94 73 95 52 96
REMARK SMILES IDX 53 97 61 98 54 99 55 100 59 101 62 102 56 103 57 104 60 105
REMARK SMILES IDX 58 106
REMARK H PARENT 90 21 100 30 82 59 50 70
REMARK Flexibility Score: inf
ROOT
ATOM      1  C   UNL A   1      33.897  31.440  27.616  1.00  0.00     0.188 C 
ENDROOT
BRANCH   1   2
ATOM      2  O   UNL A   1      33.958  30.022  27.513  1.00  0.00    -0.376 OA
BRANCH   2   3
ATOM      3  C   UNL A   1      32.832  29.379  26.927  1.00  0.00     0.202 C 
BRANCH   3   4
ATOM      4  C   UNL A   1      32.654  27.889  27.307  1.00  0.00     0.261 C 
BRANCH   4   5
ATOM      5  O   UNL A   1      32.317  27.083  26.160  1.00  0.00    -0.463 OA
BRANCH   5   6
ATOM      6  C   UNL A   1      31.796  25.793  26.147  1.00  0.00     0.322 C 
ATOM      7  O   UNL A   1      30.943  25.378  26.926  1.00  0.00    -0.251 OA
BRANCH   6   8
ATOM      8  C   UNL A   1      32.628  25.031  25.084  1.00  0.00     0.162 C 
ATOM      9  C   UNL A   1      36.692  21.881  24.904  1.00  0.00     0.122 A 
ATOM     10  C   UNL A   1      36.764  22.602  23.718  1.00  0.00     0.047 A 
ATOM     11  C   UNL A   1      35.913  22.346  25.953  1.00  0.00     0.093 A 
ATOM     12  C   UNL A   1      35.995  23.760  23.561  1.00  0.00     0.012 A 
ATOM     13  C   UNL A   1      35.051  23.412  25.721  1.00  0.00     0.126 A 
ATOM     14  C   UNL A   1      35.067  24.145  24.545  1.00  0.00     0.005 A 
ATOM     15  O   UNL A   1      34.050  23.656  26.608  1.00  0.00    -0.492 OA
ATOM     16  C   UNL A   1      34.008  25.245  24.372  1.00  0.00     0.105 C 
ATOM     17  C   UNL A   1      32.811  23.695  25.854  1.00  0.00     0.255 C 
ATOM     18  C   UNL A   1      33.659  25.202  22.862  1.00  0.00     0.272 C 
ATOM     19  C   UNL A   1      31.632  25.333  23.886  1.00  0.00     0.286 C 
ATOM     20  N   UNL A   1      32.365  25.807  22.709  1.00  0.00    -0.328 N 
ATOM     21  H   UNL A   1      31.850  25.528  21.874  1.00  0.00     0.348 HD
BRANCH   9  22
ATOM     22  O   UNL A   1      37.404  20.723  25.049  1.00  0.00    -0.497 OA
ATOM     23  C   UNL A   1      38.658  20.971  25.693  1.00  0.00     0.278 C 
ENDBRANCH   9  22
BRANCH  20  24
ATOM     24  C   UNL A   1      32.401  27.243  22.382  1.00  0.00     0.319 C 
BRANCH  24  25
ATOM     25  C   UNL A   1      31.267  28.070  22.883  1.00  0.00     0.090 A 
ATOM     26  C   UNL A   1      29.897  27.994  22.698  1.00  0.00     0.055 A 
ATOM     27  N   UNL A   1      31.444  29.154  23.695  1.00  0.00    -0.277 N 
ATOM     28  C   UNL A   1      29.400  29.246  23.137  1.00  0.00     0.068 A 
ATOM     29  N   UNL A   1      30.330  29.882  23.862  1.00  0.00    -0.180 NA
ATOM     30  H   UNL A   1      32.305  29.379  24.115  1.00  0.00     0.190 HD
BRANCH  28  31
ATOM     31  C   UNL A   1      28.066  29.909  22.821  1.00  0.00     0.006 C 
ATOM     32  C   UNL A   1      28.012  30.327  21.345  1.00  0.00     0.017 C 
ATOM     33  C   UNL A   1      26.900  28.935  23.120  1.00  0.00     0.017 C 
ATOM     34  C   UNL A   1      27.826  31.163  23.694  1.00  0.00     0.017 C 
ENDBRANCH  28  31
ENDBRANCH  24  25
ENDBRANCH  20  24
ENDBRANCH   6   8
ENDBRANCH   5   6
ENDBRANCH   4   5
ENDBRANCH   3   4
ENDBRANCH   2   3
ENDBRANCH   1   2
BRANCH   1  35
ATOM     35  C   UNL A   1      34.808  31.902  28.763  1.00  0.00     0.188 C 
BRANCH  35  36
ATOM     36  O   UNL A   1      34.536  33.157  29.372  1.00  0.00    -0.376 OA
BRANCH  36  37
ATOM     37  C   UNL A   1      33.978  34.164  28.540  1.00  0.00     0.202 C 
BRANCH  37  38
ATOM     38  C   UNL A   1      33.313  35.330  29.278  1.00  0.00     0.261 C 
BRANCH  38  39
ATOM     39  O   UNL A   1      32.522  34.922  30.420  1.00  0.00    -0.460 OA
BRANCH  39  40
ATOM     40  C   UNL A   1      32.743  35.589  31.572  1.00  0.00     0.338 C 
ATOM     41  O   UNL A   1      32.065  36.501  32.045  1.00  0.00    -0.246 OA
BRANCH  40  42
ATOM     42  C   UNL A   1      33.852  34.975  32.328  1.00  0.00     0.060 A 
ATOM     43  C   UNL A   1      33.729  33.721  32.934  1.00  0.00     0.016 A 
ATOM     44  C   UNL A   1      35.093  35.616  32.318  1.00  0.00     0.016 A 
ATOM     45  C   UNL A   1      34.860  33.106  33.508  1.00  0.00     0.010 A 
ATOM     46  C   UNL A   1      36.199  35.008  32.916  1.00  0.00     0.010 A 
ATOM     47  C   UNL A   1      36.116  33.738  33.492  1.00  0.00    -0.014 A 
BRANCH  47  48
ATOM     48  C   UNL A   1      37.373  33.039  33.901  1.00  0.00     0.031 A 
ATOM     49  C   UNL A   1      38.030  31.981  33.052  1.00  0.00     0.074 A 
ATOM     50  C   UNL A   1      37.869  33.256  35.137  1.00  0.00     0.049 A 
ATOM     51  N   UNL A   1      39.177  31.370  33.238  1.00  0.00    -0.248 NA
ATOM     52  C   UNL A   1      37.295  31.520  31.867  1.00  0.00     0.031 C 
ATOM     53  C   UNL A   1      37.255  34.117  36.148  1.00  0.00     0.029 A 
ATOM     54  N   UNL A   1      38.987  32.755  35.762  1.00  0.00    -0.354 N 
ATOM     55  C   UNL A   1      39.316  30.479  32.181  1.00  0.00     0.074 A 
ATOM     56  C   UNL A   1      38.098  30.571  31.401  1.00  0.00     0.031 C 
ATOM     57  C   UNL A   1      38.017  34.106  37.254  1.00  0.00     0.029 A 
ATOM     58  C   UNL A   1      39.177  33.245  37.032  1.00  0.00     0.049 A 
ATOM     59  H   UNL A   1      39.596  32.106  35.339  1.00  0.00     0.167 HD
ATOM     60  C   UNL A   1      40.374  29.690  31.868  1.00  0.00     0.037 A 
ATOM     61  C   UNL A   1      40.183  33.057  37.910  1.00  0.00     0.037 A 
ATOM     62  C   UNL A   1      41.580  29.580  32.654  1.00  0.00     0.049 A 
ATOM     63  C   UNL A   1      41.369  32.212  37.530  1.00  0.00     0.074 A 
ATOM     64  C   UNL A   1      42.752  28.905  32.348  1.00  0.00     0.029 A 
ATOM     65  N   UNL A   1      41.762  30.134  33.911  1.00  0.00    -0.354 N 
ATOM     66  N   UNL A   1      41.590  31.546  36.424  1.00  0.00    -0.248 NA
ATOM     67  C   UNL A   1      42.463  32.119  38.511  1.00  0.00     0.031 C 
ATOM     68  C   UNL A   1      43.618  29.002  33.442  1.00  0.00     0.029 A 
ATOM     69  C   UNL A   1      43.013  29.790  34.405  1.00  0.00     0.049 A 
ATOM     70  H   UNL A   1      41.100  30.688  34.385  1.00  0.00     0.167 HD
ATOM     71  C   UNL A   1      42.854  30.985  36.561  1.00  0.00     0.074 A 
ATOM     72  C   UNL A   1      43.361  31.400  37.851  1.00  0.00     0.031 C 
ATOM     73  C   UNL A   1      43.529  30.200  35.686  1.00  0.00     0.037 A 
BRANCH  60  74
ATOM     74  C   UNL A   1      40.329  28.920  30.576  1.00  0.00     0.064 A 
ATOM     75  C   UNL A   1      39.649  27.694  30.495  1.00  0.00     0.173 A 
ATOM     76  C   UNL A   1      40.830  29.467  29.384  1.00  0.00     0.173 A 
ATOM     77  F   UNL A   1      39.139  27.131  31.601  1.00  0.00    -0.203 F 
ATOM     78  C   UNL A   1      39.482  27.041  29.277  1.00  0.00     0.198 A 
ATOM     79  C   UNL A   1      40.635  28.825  28.162  1.00  0.00     0.198 A 
ATOM     80  F   UNL A   1      41.468  30.647  29.395  1.00  0.00    -0.203 F 
ATOM     81  F   UNL A   1      38.842  25.865  29.232  1.00  0.00    -0.200 F 
ATOM     82  C   UNL A   1      39.964  27.613  28.110  1.00  0.00     0.200 A 
ATOM     83  F   UNL A   1      41.076  29.392  27.029  1.00  0.00    -0.200 F 
ATOM     84  F   UNL A   1      39.771  27.001  26.934  1.00  0.00    -0.200 F 
ENDBRANCH  60  74
BRANCH  61  85
ATOM     85  C   UNL A   1      40.161  33.785  39.205  1.00  0.00     0.064 A 
ATOM     86  C   UNL A   1      40.822  35.015  39.338  1.00  0.00     0.173 A 
ATOM     87  C   UNL A   1      39.463  33.293  40.316  1.00  0.00     0.173 A 
ATOM     88  F   UNL A   1      41.517  35.515  38.305  1.00  0.00    -0.203 F 
ATOM     89  C   UNL A   1      40.796  35.720  40.537  1.00  0.00     0.198 A 
ATOM     90  C   UNL A   1      39.417  34.012  41.509  1.00  0.00     0.198 A 
ATOM     91  F   UNL A   1      38.807  32.126  40.236  1.00  0.00    -0.203 F 
ATOM     92  F   UNL A   1      41.464  36.876  40.646  1.00  0.00    -0.200 F 
ATOM     93  C   UNL A   1      40.087  35.223  41.620  1.00  0.00     0.200 A 
ATOM     94  F   UNL A   1      38.717  33.538  42.548  1.00  0.00    -0.200 F 
ATOM     95  F   UNL A   1      40.050  35.908  42.770  1.00  0.00    -0.200 F 
ENDBRANCH  61  85
BRANCH  73  96
ATOM     96  C   UNL A   1      44.910  29.742  36.069  1.00  0.00     0.064 A 
ATOM     97  C   UNL A   1      46.041  30.539  35.844  1.00  0.00     0.173 A 
ATOM     98  C   UNL A   1      45.095  28.518  36.733  1.00  0.00     0.173 A 
ATOM     99  F   UNL A   1      45.924  31.712  35.203  1.00  0.00    -0.203 F 
ATOM    100  C   UNL A   1      47.307  30.121  36.250  1.00  0.00     0.198 A 
ATOM    101  C   UNL A   1      46.357  28.118  37.165  1.00  0.00     0.198 A 
ATOM    102  F   UNL A   1      44.049  27.717  36.981  1.00  0.00    -0.203 F 
ATOM    103  F   UNL A   1      48.378  30.883  35.987  1.00  0.00    -0.200 F 
ATOM    104  C   UNL A   1      47.463  28.917  36.919  1.00  0.00     0.200 A 
ATOM    105  F   UNL A   1      46.503  26.960  37.825  1.00  0.00    -0.200 F 
ATOM    106  F   UNL A   1      48.679  28.524  37.323  1.00  0.00    -0.200 F 
ENDBRANCH  73  96
ENDBRANCH  47  48
ENDBRANCH  40  42
ENDBRANCH  39  40
ENDBRANCH  38  39
ENDBRANCH  37  38
ENDBRANCH  36  37
ENDBRANCH  35  36
ENDBRANCH   1  35
TORSDOF 21
ENDMDL
MODEL 2
REMARK VINA RESULT:     -11.2      1.075      7.043
REMARK SMILES COc1ccc2c(c1)OC[C@]1(C(=O)OCCOCCOCCOC(=O)c3ccc(-c4c5nc(c(-c6c(F)c(F)c(F)c(F)c6F)c6ccc([nH]6)c(-c6c(F)c(F)c(F)c(F)c6F)c6nc(c(-c7c(F)c(F)c(F)c(F)c7F)c7ccc4[nH]7)C=C6)C=C5)cc3)C[N@@H+](Cc3cc(C(C)(C)C)n[nH]3)C[C@H]21
REMARK SMILES IDX 18 1 17 2 16 3 15 4 14 5 12 6 13 7 11 8 3 9 4 10 8 11 5 12
REMARK SMILES IDX 7 13 6 14 9 15 102 16 10 17 101 18 89 19 90 20 2 22 1 23
REMARK SMILES IDX 91 24 92 25 93 26 100 27 94 28 99 29 95 31 96 32 97 33 98 34
REMARK SMILES IDX 19 35 20 36 21 37 22 38 23 39 24 40 25 41 26 42 27 43 88 44
REMARK SMILES IDX 28 45 87 46 29 47 30 48 31 49 81 50 32 51 86 52 80 53 82 54
REMARK SMILES IDX 33 55 85 56 79 57 78 58 34 60 66 61 46 62 65 63 47 64 50 65
REMARK SMILES IDX 64 66 83 67 48 68 49 69 63 71 84 72 51 73 35 74 36 75 44 76
REMARK SMILES IDX 37 77 38 78 42 79 45 80 39 81 40 82 43 83 41 84 67 85 68 86
REMARK SMILES IDX 76 87 69 88 70 89 74 90 77 91 71 92 72 93 75 94 73 95 52 96
REMARK SMILES IDX 53 97 61 98 54 99 55 100 59 101 62 102 56 103 57 104 60 105
REMARK SMILES IDX 58 106
REMARK H PARENT 90 21 100 30 82 59 50 70
REMARK Flexibility Score: inf
ROOT
ATOM      1  C   UNL A   1      33.737  31.486  27.707  1.00  0.00     0.188 C 
ENDROOT
BRANCH   1   2
ATOM      2  O   UNL A   1      33.408  30.108  27.847  1.00  0.00    -0.376 OA
BRANCH   2   3
ATOM      3  C   UNL A   1      32.556  29.555  26.851  1.00  0.00     0.202 C 
BRANCH   3   4
ATOM      4  C   UNL A   1      31.887  28.211  27.231  1.00  0.00     0.261 C 
BRANCH   4   5
ATOM      5  O   UNL A   1      31.849  27.301  26.114  1.00  0.00    -0.463 OA
BRANCH   5   6
ATOM      6  C   UNL A   1      31.281  26.032  26.067  1.00  0.00     0.322 C 
ATOM      7  O   UNL A   1      30.318  25.674  26.738  1.00  0.00    -0.251 OA
BRANCH   6   8
ATOM      8  C   UNL A   1      32.211  25.206  25.141  1.00  0.00     0.162 C 
ATOM      9  C   UNL A   1      36.272  22.075  25.563  1.00  0.00     0.122 A 
ATOM     10  C   UNL A   1      36.459  22.717  24.344  1.00  0.00     0.047 A 
ATOM     11  C   UNL A   1      35.396  22.604  26.499  1.00  0.00     0.093 A 
ATOM     12  C   UNL A   1      35.709  23.857  24.037  1.00  0.00     0.012 A 
ATOM     13  C   UNL A   1      34.561  23.647  26.115  1.00  0.00     0.126 A 
ATOM     14  C   UNL A   1      34.691  24.301  24.900  1.00  0.00     0.005 A 
ATOM     15  O   UNL A   1      33.479  23.943  26.884  1.00  0.00    -0.492 OA
ATOM     16  C   UNL A   1      33.654  25.380  24.553  1.00  0.00     0.105 C 
ATOM     17  C   UNL A   1      32.319  23.925  26.013  1.00  0.00     0.255 C 
ATOM     18  C   UNL A   1      33.452  25.235  23.023  1.00  0.00     0.272 C 
ATOM     19  C   UNL A   1      31.335  25.421  23.835  1.00  0.00     0.286 C 
ATOM     20  N   UNL A   1      32.179  25.821  22.705  1.00  0.00    -0.328 N 
ATOM     21  H   UNL A   1      31.746  25.484  21.845  1.00  0.00     0.348 HD
BRANCH   9  22
ATOM     22  O   UNL A   1      36.967  20.934  25.853  1.00  0.00    -0.497 OA
ATOM     23  C   UNL A   1      37.814  20.559  24.762  1.00  0.00     0.278 C 
ENDBRANCH   9  22
BRANCH  20  24
ATOM     24  C   UNL A   1      32.246  27.232  22.289  1.00  0.00     0.319 C 
BRANCH  24  25
ATOM     25  C   UNL A   1      31.171  28.131  22.796  1.00  0.00     0.090 A 
ATOM     26  C   UNL A   1      29.794  28.118  22.654  1.00  0.00     0.055 A 
ATOM     27  N   UNL A   1      31.426  29.228  23.567  1.00  0.00    -0.277 N 
ATOM     28  C   UNL A   1      29.373  29.407  23.068  1.00  0.00     0.068 A 
ATOM     29  N   UNL A   1      30.356  30.017  23.744  1.00  0.00    -0.180 NA
ATOM     30  H   UNL A   1      32.311  29.422  23.955  1.00  0.00     0.190 HD
BRANCH  28  31
ATOM     31  C   UNL A   1      28.065  30.126  22.770  1.00  0.00     0.006 C 
ATOM     32  C   UNL A   1      26.872  29.196  23.030  1.00  0.00     0.017 C 
ATOM     33  C   UNL A   1      27.933  31.387  23.658  1.00  0.00     0.017 C 
ATOM     34  C   UNL A   1      27.997  30.612  21.304  1.00  0.00     0.017 C 
ENDBRANCH  28  31
ENDBRANCH  24  25
ENDBRANCH  20  24
ENDBRANCH   6   8
ENDBRANCH   5   6
ENDBRANCH   4   5
ENDBRANCH   3   4
ENDBRANCH   2   3
ENDBRANCH   1   2
BRANCH   1  35
ATOM     35  C   UNL A   1      34.917  31.819  28.633  1.00  0.00     0.188 C 
BRANCH  35  36
ATOM     36  O   UNL A   1      35.220  33.188  28.865  1.00  0.00    -0.376 OA
BRANCH  36  37
ATOM     37  C   UNL A   1      34.485  34.144  28.113  1.00  0.00     0.202 C 
BRANCH  37  38
ATOM     38  C   UNL A   1      33.799  35.239  28.936  1.00  0.00     0.261 C 
BRANCH  38  39
ATOM     39  O   UNL A   1      32.914  34.729  29.961  1.00  0.00    -0.460 OA
BRANCH  39  40
ATOM     40  C   UNL A   1      33.069  35.246  31.199  1.00  0.00     0.338 C 
ATOM     41  O   UNL A   1      32.317  36.028  31.778  1.00  0.00    -0.246 OA
BRANCH  40  42
ATOM     42  C   UNL A   1      34.216  34.620  31.886  1.00  0.00     0.060 A 
ATOM     43  C   UNL A   1      34.162  33.311  32.374  1.00  0.00     0.016 A 
ATOM     44  C   UNL A   1      35.424  35.320  31.927  1.00  0.00     0.016 A 
ATOM     45  C   UNL A   1      35.328  32.702  32.880  1.00  0.00     0.010 A 
ATOM     46  C   UNL A   1      36.565  34.715  32.457  1.00  0.00     0.010 A 
ATOM     47  C   UNL A   1      36.552  33.395  32.914  1.00  0.00    -0.014 A 
BRANCH  47  48
ATOM     48  C   UNL A   1      37.846  32.724  33.247  1.00  0.00     0.031 A 
ATOM     49  C   UNL A   1      38.637  33.051  34.488  1.00  0.00     0.074 A 
ATOM     50  C   UNL A   1      38.405  31.896  32.341  1.00  0.00     0.049 A 
ATOM     51  N   UNL A   1      39.720  32.472  34.951  1.00  0.00    -0.248 NA
ATOM     52  C   UNL A   1      38.182  34.194  35.292  1.00  0.00     0.031 C 
ATOM     53  C   UNL A   1      37.856  31.608  31.016  1.00  0.00     0.029 A 
ATOM     54  N   UNL A   1      39.567  31.161  32.385  1.00  0.00    -0.354 N 
ATOM     55  C   UNL A   1      40.057  33.156  36.113  1.00  0.00     0.074 A 
ATOM     56  C   UNL A   1      39.110  34.245  36.240  1.00  0.00     0.031 C 
ATOM     57  C   UNL A   1      38.663  30.740  30.386  1.00  0.00     0.029 A 
ATOM     58  C   UNL A   1      39.784  30.401  31.261  1.00  0.00     0.049 A 
ATOM     59  H   UNL A   1      40.186  31.178  33.151  1.00  0.00     0.167 HD
ATOM     60  C   UNL A   1      41.038  32.878  37.008  1.00  0.00     0.037 A 
ATOM     61  C   UNL A   1      40.751  29.507  30.973  1.00  0.00     0.037 A 
ATOM     62  C   UNL A   1      41.997  31.807  36.874  1.00  0.00     0.049 A 
ATOM     63  C   UNL A   1      41.807  29.180  31.994  1.00  0.00     0.074 A 
ATOM     64  C   UNL A   1      42.942  31.374  37.790  1.00  0.00     0.029 A 
ATOM     65  N   UNL A   1      42.155  31.020  35.744  1.00  0.00    -0.354 N 
ATOM     66  N   UNL A   1      41.984  29.682  33.191  1.00  0.00    -0.248 NA
ATOM     67  C   UNL A   1      42.781  28.136  31.637  1.00  0.00     0.031 C 
ATOM     68  C   UNL A   1      43.708  30.366  37.196  1.00  0.00     0.029 A 
ATOM     69  C   UNL A   1      43.200  30.126  35.931  1.00  0.00     0.049 A 
ATOM     70  H   UNL A   1      41.606  31.086  34.929  1.00  0.00     0.167 HD
ATOM     71  C   UNL A   1      43.061  28.997  33.738  1.00  0.00     0.074 A 
ATOM     72  C   UNL A   1      43.491  28.031  32.751  1.00  0.00     0.031 C 
ATOM     73  C   UNL A   1      43.634  29.158  34.956  1.00  0.00     0.037 A 
BRANCH  60  74
ATOM     74  C   UNL A   1      41.100  33.695  38.271  1.00  0.00     0.064 A 
ATOM     75  C   UNL A   1      42.013  34.755  38.396  1.00  0.00     0.173 A 
ATOM     76  C   UNL A   1      40.155  33.524  39.295  1.00  0.00     0.173 A 
ATOM     77  F   UNL A   1      42.929  34.972  37.440  1.00  0.00    -0.203 F 
ATOM     78  C   UNL A   1      41.986  35.603  39.499  1.00  0.00     0.198 A 
ATOM     79  C   UNL A   1      40.113  34.393  40.384  1.00  0.00     0.198 A 
ATOM     80  F   UNL A   1      39.243  32.544  39.220  1.00  0.00    -0.203 F 
ATOM     81  F   UNL A   1      42.879  36.596  39.599  1.00  0.00    -0.200 F 
ATOM     82  C   UNL A   1      41.028  35.430  40.487  1.00  0.00     0.200 A 
ATOM     83  F   UNL A   1      39.168  34.244  41.325  1.00  0.00    -0.200 F 
ATOM     84  F   UNL A   1      40.981  36.269  41.530  1.00  0.00    -0.200 F 
ENDBRANCH  60  74
BRANCH  61  85
ATOM     85  C   UNL A   1      40.693  28.766  29.687  1.00  0.00     0.064 A 
ATOM     86  C   UNL A   1      39.885  27.627  29.561  1.00  0.00     0.173 A 
ATOM     87  C   UNL A   1      41.409  29.189  28.558  1.00  0.00     0.173 A 
ATOM     88  F   UNL A   1      39.196  27.176  30.620  1.00  0.00    -0.203 F 
ATOM     89  C   UNL A   1      39.803  26.931  28.358  1.00  0.00     0.198 A 
ATOM     90  C   UNL A   1      41.307  28.506  27.347  1.00  0.00     0.198 A 
ATOM     91  F   UNL A   1      42.188  30.278  28.626  1.00  0.00    -0.203 F 
ATOM     92  F   UNL A   1      39.048  25.827  28.275  1.00  0.00    -0.200 F 
ATOM     93  C   UNL A   1      40.508  27.376  27.249  1.00  0.00     0.200 A 
ATOM     94  F   UNL A   1      41.975  28.947  26.274  1.00  0.00    -0.200 F 
ATOM     95  F   UNL A   1      40.418  26.715  26.088  1.00  0.00    -0.200 F 
ENDBRANCH  61  85
BRANCH  73  96
ATOM     96  C   UNL A   1      44.784  28.259  35.320  1.00  0.00     0.064 A 
ATOM     97  C   UNL A   1      44.582  27.010  35.925  1.00  0.00     0.173 A 
ATOM     98  C   UNL A   1      46.102  28.622  34.996  1.00  0.00     0.173 A 
ATOM     99  F   UNL A   1      43.346  26.618  36.267  1.00  0.00    -0.203 F 
ATOM    100  C   UNL A   1      45.655  26.168  36.210  1.00  0.00     0.198 A 
ATOM    101  C   UNL A   1      47.169  27.765  35.254  1.00  0.00     0.198 A 
ATOM    102  F   UNL A   1      46.354  29.802  34.411  1.00  0.00    -0.203 F 
ATOM    103  F   UNL A   1      45.440  24.997  36.825  1.00  0.00    -0.200 F 
ATOM    104  C   UNL A   1      46.946  26.541  35.865  1.00  0.00     0.200 A 
ATOM    105  F   UNL A   1      48.414  28.121  34.906  1.00  0.00    -0.200 F 
ATOM    106  F   UNL A   1      47.974  25.722  36.125  1.00  0.00    -0.200 F 
ENDBRANCH  73  96
ENDBRANCH  47  48
ENDBRANCH  40  42
ENDBRANCH  39  40
ENDBRANCH  38  39
ENDBRANCH  37  38
ENDBRANCH  36  37
ENDBRANCH  35  36
ENDBRANCH   1  35
TORSDOF 21
ENDMDL
MODEL 3
REMARK VINA RESULT:     -11.1      3.572      9.237
REMARK SMILES COc1ccc2c(c1)OC[C@]1(C(=O)OCCOCCOCCOC(=O)c3ccc(-c4c5nc(c(-c6c(F)c(F)c(F)c(F)c6F)c6ccc([nH]6)c(-c6c(F)c(F)c(F)c(F)c6F)c6nc(c(-c7c(F)c(F)c(F)c(F)c7F)c7ccc4[nH]7)C=C6)C=C5)cc3)C[N@@H+](Cc3cc(C(C)(C)C)n[nH]3)C[C@H]21
REMARK SMILES IDX 18 1 17 2 16 3 15 4 14 5 12 6 13 7 11 8 3 9 4 10 8 11 5 12
REMARK SMILES IDX 7 13 6 14 9 15 102 16 10 17 101 18 89 19 90 20 2 22 1 23
REMARK SMILES IDX 91 24 92 25 93 26 100 27 94 28 99 29 95 31 96 32 97 33 98 34
REMARK SMILES IDX 19 35 20 36 21 37 22 38 23 39 24 40 25 41 26 42 27 43 88 44
REMARK SMILES IDX 28 45 87 46 29 47 30 48 31 49 81 50 32 51 86 52 80 53 82 54
REMARK SMILES IDX 33 55 85 56 79 57 78 58 34 60 66 61 46 62 65 63 47 64 50 65
REMARK SMILES IDX 64 66 83 67 48 68 49 69 63 71 84 72 51 73 35 74 36 75 44 76
REMARK SMILES IDX 37 77 38 78 42 79 45 80 39 81 40 82 43 83 41 84 67 85 68 86
REMARK SMILES IDX 76 87 69 88 70 89 74 90 77 91 71 92 72 93 75 94 73 95 52 96
REMARK SMILES IDX 53 97 61 98 54 99 55 100 59 101 62 102 56 103 57 104 60 105
REMARK SMILES IDX 58 106
REMARK H PARENT 90 21 100 30 82 59 50 70
REMARK Flexibility Score: inf
ROOT
ATOM      1  C   UNL A   1      40.007  22.455  26.905  1.00  0.00     0.188 C 
ENDROOT
BRANCH   1   2
ATOM      2  O   UNL A   1      38.786  22.622  26.194  1.00  0.00    -0.376 OA
BRANCH   2   3
ATOM      3  C   UNL A   1      38.305  23.954  26.064  1.00  0.00     0.202 C 
BRANCH   3   4
ATOM      4  C   UNL A   1      36.763  24.095  26.020  1.00  0.00     0.261 C 
BRANCH   4   5
ATOM      5  O   UNL A   1      36.126  22.855  25.653  1.00  0.00    -0.463 OA
BRANCH   5   6
ATOM      6  C   UNL A   1      35.516  22.535  24.444  1.00  0.00     0.322 C 
ATOM      7  O   UNL A   1      35.774  23.070  23.370  1.00  0.00    -0.251 OA
BRANCH   6   8
ATOM      8  C   UNL A   1      34.399  21.524  24.809  1.00  0.00     0.162 C 
ATOM      9  C   UNL A   1      33.687  16.429  24.886  1.00  0.00     0.122 A 
ATOM     10  C   UNL A   1      32.432  16.946  24.589  1.00  0.00     0.047 A 
ATOM     11  C   UNL A   1      34.818  17.215  24.722  1.00  0.00     0.093 A 
ATOM     12  C   UNL A   1      32.307  18.282  24.192  1.00  0.00     0.012 A 
ATOM     13  C   UNL A   1      34.656  18.572  24.468  1.00  0.00     0.126 A 
ATOM     14  C   UNL A   1      33.422  19.139  24.192  1.00  0.00     0.005 A 
ATOM     15  O   UNL A   1      35.714  19.407  24.645  1.00  0.00    -0.492 OA
ATOM     16  C   UNL A   1      33.358  20.664  24.014  1.00  0.00     0.105 C 
ATOM     17  C   UNL A   1      35.277  20.468  25.534  1.00  0.00     0.255 C 
ATOM     18  C   UNL A   1      31.994  21.062  24.634  1.00  0.00     0.272 C 
ATOM     19  C   UNL A   1      33.441  22.607  25.466  1.00  0.00     0.286 C 
ATOM     20  N   UNL A   1      32.071  22.457  24.968  1.00  0.00    -0.328 N 
ATOM     21  H   UNL A   1      31.428  22.767  25.696  1.00  0.00     0.348 HD
BRANCH   9  22
ATOM     22  O   UNL A   1      33.814  15.140  25.321  1.00  0.00    -0.497 OA
ATOM     23  C   UNL A   1      32.538  14.583  25.654  1.00  0.00     0.278 C 
ENDBRANCH   9  22
BRANCH  20  24
ATOM     24  C   UNL A   1      31.555  23.361  23.927  1.00  0.00     0.319 C 
BRANCH  24  25
ATOM     25  C   UNL A   1      31.243  24.757  24.348  1.00  0.00     0.090 A 
ATOM     26  C   UNL A   1      31.131  25.945  23.645  1.00  0.00     0.055 A 
ATOM     27  N   UNL A   1      30.996  25.101  25.645  1.00  0.00    -0.277 N 
ATOM     28  C   UNL A   1      31.164  26.958  24.635  1.00  0.00     0.068 A 
ATOM     29  N   UNL A   1      30.946  26.426  25.845  1.00  0.00    -0.180 NA
ATOM     30  H   UNL A   1      30.868  24.441  26.364  1.00  0.00     0.190 HD
BRANCH  28  31
ATOM     31  C   UNL A   1      31.478  28.439  24.476  1.00  0.00     0.006 C 
ATOM     32  C   UNL A   1      31.774  29.073  25.842  1.00  0.00     0.017 C 
ATOM     33  C   UNL A   1      32.701  28.631  23.546  1.00  0.00     0.017 C 
ATOM     34  C   UNL A   1      30.305  29.209  23.824  1.00  0.00     0.017 C 
ENDBRANCH  28  31
ENDBRANCH  24  25
ENDBRANCH  20  24
ENDBRANCH   6   8
ENDBRANCH   5   6
ENDBRANCH   4   5
ENDBRANCH   3   4
ENDBRANCH   2   3
ENDBRANCH   1   2
BRANCH   1  35
ATOM     35  C   UNL A   1      40.666  21.136  26.472  1.00  0.00     0.188 C 
BRANCH  35  36
ATOM     36  O   UNL A   1      41.604  21.174  25.405  1.00  0.00    -0.376 OA
BRANCH  36  37
ATOM     37  C   UNL A   1      42.979  21.204  25.761  1.00  0.00     0.202 C 
BRANCH  37  38
ATOM     38  C   UNL A   1      43.535  22.587  26.117  1.00  0.00     0.261 C 
BRANCH  38  39
ATOM     39  O   UNL A   1      43.240  23.605  25.131  1.00  0.00    -0.460 OA
BRANCH  39  40
ATOM     40  C   UNL A   1      43.893  24.779  25.268  1.00  0.00     0.338 C 
ATOM     41  O   UNL A   1      44.862  25.170  24.620  1.00  0.00    -0.246 OA
BRANCH  40  42
ATOM     42  C   UNL A   1      43.188  25.660  26.220  1.00  0.00     0.060 A 
ATOM     43  C   UNL A   1      41.949  25.316  26.768  1.00  0.00     0.016 A 
ATOM     44  C   UNL A   1      43.849  26.803  26.676  1.00  0.00     0.016 A 
ATOM     45  C   UNL A   1      41.390  26.111  27.790  1.00  0.00     0.010 A 
ATOM     46  C   UNL A   1      43.270  27.597  27.667  1.00  0.00     0.010 A 
ATOM     47  C   UNL A   1      42.053  27.257  28.264  1.00  0.00    -0.014 A 
BRANCH  47  48
ATOM     48  C   UNL A   1      41.600  28.005  29.477  1.00  0.00     0.031 A 
ATOM     49  C   UNL A   1      42.237  27.823  30.830  1.00  0.00     0.074 A 
ATOM     50  C   UNL A   1      40.490  28.767  29.396  1.00  0.00     0.049 A 
ATOM     51  N   UNL A   1      42.012  28.484  31.942  1.00  0.00    -0.248 NA
ATOM     52  C   UNL A   1      43.222  26.743  30.969  1.00  0.00     0.031 C 
ATOM     53  C   UNL A   1      39.655  28.912  28.204  1.00  0.00     0.029 A 
ATOM     54  N   UNL A   1      39.861  29.548  30.339  1.00  0.00    -0.354 N 
ATOM     55  C   UNL A   1      42.846  27.923  32.901  1.00  0.00     0.074 A 
ATOM     56  C   UNL A   1      43.524  26.814  32.260  1.00  0.00     0.031 C 
ATOM     57  C   UNL A   1      38.641  29.749  28.478  1.00  0.00     0.029 A 
ATOM     58  C   UNL A   1      38.756  30.209  29.860  1.00  0.00     0.049 A 
ATOM     59  H   UNL A   1      40.174  29.625  31.270  1.00  0.00     0.167 HD
ATOM     60  C   UNL A   1      43.057  28.319  34.182  1.00  0.00     0.037 A 
ATOM     61  C   UNL A   1      37.944  31.111  30.448  1.00  0.00     0.037 A 
ATOM     62  C   UNL A   1      42.368  29.410  34.830  1.00  0.00     0.049 A 
ATOM     63  C   UNL A   1      38.217  31.570  31.855  1.00  0.00     0.074 A 
ATOM     64  C   UNL A   1      42.607  29.962  36.079  1.00  0.00     0.029 A 
ATOM     65  N   UNL A   1      41.288  30.096  34.296  1.00  0.00    -0.354 N 
ATOM     66  N   UNL A   1      39.156  31.187  32.683  1.00  0.00    -0.248 NA
ATOM     67  C   UNL A   1      37.333  32.614  32.399  1.00  0.00     0.031 C 
ATOM     68  C   UNL A   1      41.638  30.940  36.324  1.00  0.00     0.029 A 
ATOM     69  C   UNL A   1      40.833  31.043  35.203  1.00  0.00     0.049 A 
ATOM     70  H   UNL A   1      40.901  29.934  33.406  1.00  0.00     0.167 HD
ATOM     71  C   UNL A   1      38.999  31.961  33.826  1.00  0.00     0.074 A 
ATOM     72  C   UNL A   1      37.883  32.848  33.582  1.00  0.00     0.031 C 
ATOM     73  C   UNL A   1      39.725  31.934  34.970  1.00  0.00     0.037 A 
BRANCH  60  74
ATOM     74  C   UNL A   1      44.132  27.625  34.973  1.00  0.00     0.064 A 
ATOM     75  C   UNL A   1      45.442  28.129  34.998  1.00  0.00     0.173 A 
ATOM     76  C   UNL A   1      43.831  26.549  35.824  1.00  0.00     0.173 A 
ATOM     77  F   UNL A   1      45.782  29.164  34.215  1.00  0.00    -0.203 F 
ATOM     78  C   UNL A   1      46.410  27.578  35.833  1.00  0.00     0.198 A 
ATOM     79  C   UNL A   1      44.795  26.019  36.679  1.00  0.00     0.198 A 
ATOM     80  F   UNL A   1      42.590  26.041  35.860  1.00  0.00    -0.203 F 
ATOM     81  F   UNL A   1      47.657  28.070  35.825  1.00  0.00    -0.200 F 
ATOM     82  C   UNL A   1      46.083  26.533  36.683  1.00  0.00     0.200 A 
ATOM     83  F   UNL A   1      44.471  25.027  37.521  1.00  0.00    -0.200 F 
ATOM     84  F   UNL A   1      47.007  26.027  37.511  1.00  0.00    -0.200 F 
ENDBRANCH  60  74
BRANCH  61  85
ATOM     85  C   UNL A   1      36.851  31.728  29.653  1.00  0.00     0.064 A 
ATOM     86  C   UNL A   1      35.759  30.956  29.231  1.00  0.00     0.173 A 
ATOM     87  C   UNL A   1      36.854  33.091  29.326  1.00  0.00     0.173 A 
ATOM     88  F   UNL A   1      35.722  29.643  29.507  1.00  0.00    -0.203 F 
ATOM     89  C   UNL A   1      34.717  31.520  28.502  1.00  0.00     0.198 A 
ATOM     90  C   UNL A   1      35.798  33.660  28.617  1.00  0.00     0.198 A 
ATOM     91  F   UNL A   1      37.872  33.873  29.715  1.00  0.00    -0.203 F 
ATOM     92  F   UNL A   1      33.701  30.753  28.084  1.00  0.00    -0.200 F 
ATOM     93  C   UNL A   1      34.732  32.874  28.203  1.00  0.00     0.200 A 
ATOM     94  F   UNL A   1      35.808  34.972  28.344  1.00  0.00    -0.200 F 
ATOM     95  F   UNL A   1      33.723  33.421  27.513  1.00  0.00    -0.200 F 
ENDBRANCH  61  85
BRANCH  73  96
ATOM     96  C   UNL A   1      39.362  32.907  36.059  1.00  0.00     0.064 A 
ATOM     97  C   UNL A   1      38.478  32.562  37.092  1.00  0.00     0.173 A 
ATOM     98  C   UNL A   1      39.958  34.177  36.107  1.00  0.00     0.173 A 
ATOM     99  F   UNL A   1      37.870  31.366  37.090  1.00  0.00    -0.203 F 
ATOM    100  C   UNL A   1      38.191  33.457  38.121  1.00  0.00     0.198 A 
ATOM    101  C   UNL A   1      39.693  35.058  37.153  1.00  0.00     0.198 A 
ATOM    102  F   UNL A   1      40.816  34.559  35.149  1.00  0.00    -0.203 F 
ATOM    103  F   UNL A   1      37.313  33.119  39.075  1.00  0.00    -0.200 F 
ATOM    104  C   UNL A   1      38.806  34.700  38.156  1.00  0.00     0.200 A 
ATOM    105  F   UNL A   1      40.300  36.252  37.193  1.00  0.00    -0.200 F 
ATOM    106  F   UNL A   1      38.540  35.553  39.155  1.00  0.00    -0.200 F 
ENDBRANCH  73  96
ENDBRANCH  47  48
ENDBRANCH  40  42
ENDBRANCH  39  40
ENDBRANCH  38  39
ENDBRANCH  37  38
ENDBRANCH  36  37
ENDBRANCH  35  36
ENDBRANCH   1  35
TORSDOF 21
ENDMDL
