MODEL 1
REMARK VINA RESULT:     -10.2      0.000      0.000
REMARK SMILES O=C(OCCOCCOCCOC(=O)c1cnc(OCC2CC2)c(Cl)c1)c1ccc(-c2c3nc(c(-c4c(F)c(F)c(F)c(F)c4F)c4ccc([nH]4)c(-c4c(F)c(F)c(F)c(F)c4F)c4nc(c(-c5c(F)c(F)c(F)c(F)c5F)c5ccc2[nH]5)C=C4)C=C3)cc1
REMARK SMILES IDX 8 1 7 2 6 3 5 4 4 5 3 6 2 7 1 8 27 9 28 10 89 11 29 12 88 13
REMARK SMILES IDX 30 14 31 15 32 16 82 17 33 18 87 19 81 20 83 21 34 22 86 23
REMARK SMILES IDX 80 24 79 25 35 27 67 28 47 29 66 30 48 31 51 32 65 33 84 34
REMARK SMILES IDX 49 35 50 36 64 38 85 39 52 40 36 41 37 42 45 43 38 44 39 45
REMARK SMILES IDX 43 46 46 47 40 48 41 49 44 50 42 51 68 52 69 53 77 54 70 55
REMARK SMILES IDX 71 56 75 57 78 58 72 59 73 60 76 61 74 62 53 63 54 64 62 65
REMARK SMILES IDX 55 66 56 67 60 68 63 69 57 70 58 71 61 72 59 73 9 74 10 75
REMARK SMILES IDX 11 76 12 77 13 78 14 79 15 80 16 81 26 82 17 83 24 84 18 85
REMARK SMILES IDX 25 86 19 87 20 88 21 89 22 90 23 91
REMARK H PARENT 83 26 51 37
REMARK Flexibility Score: inf
ROOT
ATOM      1  C   UNL A   1      32.099  25.673  26.476  1.00  0.00     0.188 C 
ENDROOT
BRANCH   1   2
ATOM      2  C   UNL A   1      30.968  26.692  26.316  1.00  0.00     0.188 C 
BRANCH   2   3
ATOM      3  O   UNL A   1      31.359  27.989  26.794  1.00  0.00    -0.376 OA
BRANCH   3   4
ATOM      4  C   UNL A   1      32.354  28.615  25.974  1.00  0.00     0.202 C 
BRANCH   4   5
ATOM      5  C   UNL A   1      32.089  30.095  25.661  1.00  0.00     0.261 C 
BRANCH   5   6
ATOM      6  O   UNL A   1      32.128  30.925  26.833  1.00  0.00    -0.460 OA
BRANCH   6   7
ATOM      7  C   UNL A   1      33.129  31.734  27.264  1.00  0.00     0.338 C 
ATOM      8  O   UNL A   1      32.939  32.949  27.255  1.00  0.00    -0.246 OA
BRANCH   7   9
ATOM      9  C   UNL A   1      34.440  31.237  27.792  1.00  0.00     0.060 A 
ATOM     10  C   UNL A   1      34.757  29.906  28.058  1.00  0.00     0.016 A 
ATOM     11  C   UNL A   1      35.444  32.199  28.013  1.00  0.00     0.016 A 
ATOM     12  C   UNL A   1      35.954  29.549  28.672  1.00  0.00     0.010 A 
ATOM     13  C   UNL A   1      36.678  31.842  28.573  1.00  0.00     0.010 A 
ATOM     14  C   UNL A   1      36.909  30.518  28.967  1.00  0.00    -0.014 A 
BRANCH  14  15
ATOM     15  C   UNL A   1      38.028  30.157  29.865  1.00  0.00     0.031 A 
ATOM     16  C   UNL A   1      39.093  29.235  29.338  1.00  0.00     0.074 A 
ATOM     17  C   UNL A   1      38.198  30.763  31.053  1.00  0.00     0.049 A 
ATOM     18  N   UNL A   1      40.164  28.775  29.932  1.00  0.00    -0.248 NA
ATOM     19  C   UNL A   1      38.949  28.803  27.938  1.00  0.00     0.031 C 
ATOM     20  C   UNL A   1      37.339  31.810  31.605  1.00  0.00     0.029 A 
ATOM     21  N   UNL A   1      39.177  30.601  32.000  1.00  0.00    -0.354 N 
ATOM     22  C   UNL A   1      40.815  28.001  28.982  1.00  0.00     0.074 A 
ATOM     23  C   UNL A   1      40.006  28.024  27.783  1.00  0.00     0.031 C 
ATOM     24  C   UNL A   1      37.840  32.198  32.790  1.00  0.00     0.029 A 
ATOM     25  C   UNL A   1      38.978  31.363  33.124  1.00  0.00     0.049 A 
ATOM     26  H   UNL A   1      39.947  29.999  31.885  1.00  0.00     0.167 HD
ATOM     27  C   UNL A   1      41.992  27.343  29.093  1.00  0.00     0.037 A 
ATOM     28  C   UNL A   1      39.610  31.344  34.309  1.00  0.00     0.037 A 
ATOM     29  C   UNL A   1      42.794  27.326  30.286  1.00  0.00     0.049 A 
ATOM     30  C   UNL A   1      40.804  30.460  34.475  1.00  0.00     0.074 A 
ATOM     31  C   UNL A   1      43.995  26.678  30.516  1.00  0.00     0.029 A 
ATOM     32  N   UNL A   1      42.466  27.988  31.460  1.00  0.00    -0.354 N 
ATOM     33  N   UNL A   1      41.368  29.662  33.605  1.00  0.00    -0.248 NA
ATOM     34  C   UNL A   1      41.468  30.508  35.784  1.00  0.00     0.031 C 
ATOM     35  C   UNL A   1      44.367  26.907  31.847  1.00  0.00     0.029 A 
ATOM     36  C   UNL A   1      43.426  27.741  32.428  1.00  0.00     0.049 A 
ATOM     37  H   UNL A   1      41.667  28.550  31.587  1.00  0.00     0.167 HD
ATOM     38  C   UNL A   1      42.472  29.132  34.247  1.00  0.00     0.074 A 
ATOM     39  C   UNL A   1      42.492  29.694  35.584  1.00  0.00     0.031 C 
ATOM     40  C   UNL A   1      43.406  28.280  33.762  1.00  0.00     0.037 A 
BRANCH  27  41
ATOM     41  C   UNL A   1      42.432  26.541  27.905  1.00  0.00     0.064 A 
ATOM     42  C   UNL A   1      43.286  27.068  26.924  1.00  0.00     0.173 A 
ATOM     43  C   UNL A   1      41.948  25.237  27.723  1.00  0.00     0.173 A 
ATOM     44  F   UNL A   1      43.752  28.322  27.037  1.00  0.00    -0.203 F 
ATOM     45  C   UNL A   1      43.607  26.333  25.785  1.00  0.00     0.198 A 
ATOM     46  C   UNL A   1      42.294  24.495  26.598  1.00  0.00     0.198 A 
ATOM     47  F   UNL A   1      41.123  24.690  28.629  1.00  0.00    -0.203 F 
ATOM     48  F   UNL A   1      44.368  26.882  24.827  1.00  0.00    -0.200 F 
ATOM     49  C   UNL A   1      43.113  25.047  25.625  1.00  0.00     0.200 A 
ATOM     50  F   UNL A   1      41.818  23.252  26.446  1.00  0.00    -0.200 F 
ATOM     51  F   UNL A   1      43.411  24.346  24.523  1.00  0.00    -0.200 F 
ENDBRANCH  27  41
BRANCH  28  52
ATOM     52  C   UNL A   1      39.111  32.117  35.470  1.00  0.00     0.064 A 
ATOM     53  C   UNL A   1      39.507  33.440  35.698  1.00  0.00     0.173 A 
ATOM     54  C   UNL A   1      38.300  31.494  36.430  1.00  0.00     0.173 A 
ATOM     55  F   UNL A   1      40.304  34.061  34.818  1.00  0.00    -0.203 F 
ATOM     56  C   UNL A   1      39.112  34.113  36.852  1.00  0.00     0.198 A 
ATOM     57  C   UNL A   1      37.910  32.166  37.587  1.00  0.00     0.198 A 
ATOM     58  F   UNL A   1      37.898  30.227  36.248  1.00  0.00    -0.203 F 
ATOM     59  F   UNL A   1      39.510  35.376  37.058  1.00  0.00    -0.200 F 
ATOM     60  C   UNL A   1      38.317  33.475  37.797  1.00  0.00     0.200 A 
ATOM     61  F   UNL A   1      37.123  31.556  38.484  1.00  0.00    -0.200 F 
ATOM     62  F   UNL A   1      37.933  34.129  38.902  1.00  0.00    -0.200 F 
ENDBRANCH  28  52
BRANCH  40  63
ATOM     63  C   UNL A   1      44.535  27.948  34.684  1.00  0.00     0.064 A 
ATOM     64  C   UNL A   1      44.487  26.837  35.539  1.00  0.00     0.173 A 
ATOM     65  C   UNL A   1      45.658  28.784  34.744  1.00  0.00     0.173 A 
ATOM     66  F   UNL A   1      43.413  26.033  35.539  1.00  0.00    -0.203 F 
ATOM     67  C   UNL A   1      45.511  26.597  36.448  1.00  0.00     0.198 A 
ATOM     68  C   UNL A   1      46.693  28.523  35.634  1.00  0.00     0.198 A 
ATOM     69  F   UNL A   1      45.740  29.865  33.952  1.00  0.00    -0.203 F 
ATOM     70  F   UNL A   1      45.413  25.572  37.307  1.00  0.00    -0.200 F 
ATOM     71  C   UNL A   1      46.614  27.436  36.492  1.00  0.00     0.200 A 
ATOM     72  F   UNL A   1      47.759  29.335  35.675  1.00  0.00    -0.200 F 
ATOM     73  F   UNL A   1      47.594  27.210  37.378  1.00  0.00    -0.200 F 
ENDBRANCH  40  63
ENDBRANCH  14  15
ENDBRANCH   7   9
ENDBRANCH   6   7
ENDBRANCH   5   6
ENDBRANCH   4   5
ENDBRANCH   3   4
ENDBRANCH   2   3
ENDBRANCH   1   2
BRANCH   1  74
ATOM     74  O   UNL A   1      31.713  24.350  26.851  1.00  0.00    -0.376 OA
BRANCH  74  75
ATOM     75  C   UNL A   1      32.663  23.309  26.668  1.00  0.00     0.202 C 
BRANCH  75  76
ATOM     76  C   UNL A   1      33.575  23.383  25.435  1.00  0.00     0.261 C 
BRANCH  76  77
ATOM     77  O   UNL A   1      33.004  22.902  24.210  1.00  0.00    -0.460 OA
BRANCH  77  78
ATOM     78  C   UNL A   1      33.461  23.541  23.104  1.00  0.00     0.339 C 
ATOM     79  O   UNL A   1      34.360  23.162  22.371  1.00  0.00    -0.246 OA
BRANCH  78  80
ATOM     80  C   UNL A   1      32.795  24.843  22.900  1.00  0.00     0.080 A 
ATOM     81  C   UNL A   1      31.421  25.018  22.844  1.00  0.00     0.131 A 
ATOM     82  C   UNL A   1      33.604  25.973  22.760  1.00  0.00     0.043 A 
ATOM     83  N   UNL A   1      30.827  26.237  22.755  1.00  0.00    -0.220 NA
ATOM     84  C   UNL A   1      33.029  27.230  22.610  1.00  0.00     0.104 A 
ATOM     85  C   UNL A   1      31.640  27.326  22.681  1.00  0.00     0.232 A 
ATOM     86  Cl  UNL A   1      34.085  28.574  22.390  1.00  0.00    -0.078 Cl
BRANCH  85  87
ATOM     87  O   UNL A   1      30.967  28.518  22.723  1.00  0.00    -0.476 OA
BRANCH  87  88
ATOM     88  C   UNL A   1      29.538  28.395  22.862  1.00  0.00     0.235 C 
BRANCH  88  89
ATOM     89  C   UNL A   1      28.781  29.579  22.345  1.00  0.00     0.027 C 
ATOM     90  C   UNL A   1      27.581  30.167  23.063  1.00  0.00     0.007 C 
ATOM     91  C   UNL A   1      28.868  30.923  23.023  1.00  0.00     0.007 C 
ENDBRANCH  88  89
ENDBRANCH  87  88
ENDBRANCH  85  87
ENDBRANCH  78  80
ENDBRANCH  77  78
ENDBRANCH  76  77
ENDBRANCH  75  76
ENDBRANCH  74  75
ENDBRANCH   1  74
TORSDOF 20
ENDMDL
MODEL 2
REMARK VINA RESULT:     -10.0      2.225      4.170
REMARK SMILES O=C(OCCOCCOCCOC(=O)c1cnc(OCC2CC2)c(Cl)c1)c1ccc(-c2c3nc(c(-c4c(F)c(F)c(F)c(F)c4F)c4ccc([nH]4)c(-c4c(F)c(F)c(F)c(F)c4F)c4nc(c(-c5c(F)c(F)c(F)c(F)c5F)c5ccc2[nH]5)C=C4)C=C3)cc1
REMARK SMILES IDX 8 1 7 2 6 3 5 4 4 5 3 6 2 7 1 8 27 9 28 10 89 11 29 12 88 13
REMARK SMILES IDX 30 14 31 15 32 16 82 17 33 18 87 19 81 20 83 21 34 22 86 23
REMARK SMILES IDX 80 24 79 25 35 27 67 28 47 29 66 30 48 31 51 32 65 33 84 34
REMARK SMILES IDX 49 35 50 36 64 38 85 39 52 40 36 41 37 42 45 43 38 44 39 45
REMARK SMILES IDX 43 46 46 47 40 48 41 49 44 50 42 51 68 52 69 53 77 54 70 55
REMARK SMILES IDX 71 56 75 57 78 58 72 59 73 60 76 61 74 62 53 63 54 64 62 65
REMARK SMILES IDX 55 66 56 67 60 68 63 69 57 70 58 71 61 72 59 73 9 74 10 75
REMARK SMILES IDX 11 76 12 77 13 78 14 79 15 80 16 81 26 82 17 83 24 84 18 85
REMARK SMILES IDX 25 86 19 87 20 88 21 89 22 90 23 91
REMARK H PARENT 83 26 51 37
REMARK Flexibility Score: inf
ROOT
ATOM      1  C   UNL A   1      32.192  25.665  26.040  1.00  0.00     0.188 C 
ENDROOT
BRANCH   1   2
ATOM      2  C   UNL A   1      31.894  27.123  26.397  1.00  0.00     0.188 C 
BRANCH   2   3
ATOM      3  O   UNL A   1      31.492  27.875  25.241  1.00  0.00    -0.376 OA
BRANCH   3   4
ATOM      4  C   UNL A   1      32.002  29.215  25.236  1.00  0.00     0.202 C 
BRANCH   4   5
ATOM      5  C   UNL A   1      31.858  29.962  26.570  1.00  0.00     0.261 C 
BRANCH   5   6
ATOM      6  O   UNL A   1      32.229  31.346  26.474  1.00  0.00    -0.460 OA
BRANCH   6   7
ATOM      7  C   UNL A   1      33.084  32.050  27.257  1.00  0.00     0.338 C 
ATOM      8  O   UNL A   1      32.759  33.186  27.599  1.00  0.00    -0.246 OA
BRANCH   7   9
ATOM      9  C   UNL A   1      34.384  31.512  27.773  1.00  0.00     0.060 A 
ATOM     10  C   UNL A   1      34.666  30.169  28.021  1.00  0.00     0.016 A 
ATOM     11  C   UNL A   1      35.414  32.443  28.000  1.00  0.00     0.016 A 
ATOM     12  C   UNL A   1      35.857  29.773  28.623  1.00  0.00     0.010 A 
ATOM     13  C   UNL A   1      36.641  32.047  28.549  1.00  0.00     0.010 A 
ATOM     14  C   UNL A   1      36.839  30.712  28.925  1.00  0.00    -0.014 A 
BRANCH  14  15
ATOM     15  C   UNL A   1      37.952  30.310  29.813  1.00  0.00     0.031 A 
ATOM     16  C   UNL A   1      39.001  29.383  29.263  1.00  0.00     0.074 A 
ATOM     17  C   UNL A   1      38.133  30.884  31.015  1.00  0.00     0.049 A 
ATOM     18  N   UNL A   1      40.064  28.890  29.844  1.00  0.00    -0.248 NA
ATOM     19  C   UNL A   1      38.847  28.987  27.853  1.00  0.00     0.031 C 
ATOM     20  C   UNL A   1      37.293  31.932  31.594  1.00  0.00     0.029 A 
ATOM     21  N   UNL A   1      39.111  30.683  31.957  1.00  0.00    -0.354 N 
ATOM     22  C   UNL A   1      40.701  28.129  28.874  1.00  0.00     0.074 A 
ATOM     23  C   UNL A   1      39.891  28.194  27.678  1.00  0.00     0.031 C 
ATOM     24  C   UNL A   1      37.802  32.283  32.786  1.00  0.00     0.029 A 
ATOM     25  C   UNL A   1      38.926  31.420  33.099  1.00  0.00     0.049 A 
ATOM     26  H   UNL A   1      39.870  30.070  31.826  1.00  0.00     0.167 HD
ATOM     27  C   UNL A   1      41.866  27.448  28.968  1.00  0.00     0.037 A 
ATOM     28  C   UNL A   1      39.559  31.362  34.282  1.00  0.00     0.037 A 
ATOM     29  C   UNL A   1      42.669  27.388  30.159  1.00  0.00     0.049 A 
ATOM     30  C   UNL A   1      40.738  30.454  34.426  1.00  0.00     0.074 A 
ATOM     31  C   UNL A   1      43.858  26.714  30.372  1.00  0.00     0.029 A 
ATOM     32  N   UNL A   1      42.353  28.027  31.350  1.00  0.00    -0.354 N 
ATOM     33  N   UNL A   1      41.286  29.668  33.536  1.00  0.00    -0.248 NA
ATOM     34  C   UNL A   1      41.403  30.459  35.734  1.00  0.00     0.031 C 
ATOM     35  C   UNL A   1      44.236  26.905  31.707  1.00  0.00     0.029 A 
ATOM     36  C   UNL A   1      43.310  27.740  32.309  1.00  0.00     0.049 A 
ATOM     37  H   UNL A   1      41.564  28.600  31.491  1.00  0.00     0.167 HD
ATOM     38  C   UNL A   1      42.382  29.103  34.163  1.00  0.00     0.074 A 
ATOM     39  C   UNL A   1      42.413  29.632  35.513  1.00  0.00     0.031 C 
ATOM     40  C   UNL A   1      43.300  28.247  33.656  1.00  0.00     0.037 A 
BRANCH  27  41
ATOM     41  C   UNL A   1      42.290  26.667  27.760  1.00  0.00     0.064 A 
ATOM     42  C   UNL A   1      41.839  25.359  27.522  1.00  0.00     0.173 A 
ATOM     43  C   UNL A   1      43.204  27.222  26.853  1.00  0.00     0.173 A 
ATOM     44  F   UNL A   1      40.986  24.772  28.377  1.00  0.00    -0.203 F 
ATOM     45  C   UNL A   1      42.317  24.624  26.440  1.00  0.00     0.198 A 
ATOM     46  C   UNL A   1      43.659  26.494  25.758  1.00  0.00     0.198 A 
ATOM     47  F   UNL A   1      43.672  28.466  27.041  1.00  0.00    -0.203 F 
ATOM     48  F   UNL A   1      41.926  23.353  26.270  1.00  0.00    -0.200 F 
ATOM     49  C   UNL A   1      43.224  25.193  25.559  1.00  0.00     0.200 A 
ATOM     50  F   UNL A   1      44.533  27.046  24.906  1.00  0.00    -0.200 F 
ATOM     51  F   UNL A   1      43.695  24.479  24.526  1.00  0.00    -0.200 F 
ENDBRANCH  27  41
BRANCH  28  52
ATOM     52  C   UNL A   1      39.074  32.116  35.462  1.00  0.00     0.064 A 
ATOM     53  C   UNL A   1      39.456  33.441  35.696  1.00  0.00     0.173 A 
ATOM     54  C   UNL A   1      38.293  31.470  36.433  1.00  0.00     0.173 A 
ATOM     55  F   UNL A   1      40.225  34.084  34.805  1.00  0.00    -0.203 F 
ATOM     56  C   UNL A   1      39.077  34.096  36.866  1.00  0.00     0.198 A 
ATOM     57  C   UNL A   1      37.919  32.124  37.605  1.00  0.00     0.198 A 
ATOM     58  F   UNL A   1      37.905  30.199  36.246  1.00  0.00    -0.203 F 
ATOM     59  F   UNL A   1      39.461  35.363  37.077  1.00  0.00    -0.200 F 
ATOM     60  C   UNL A   1      38.312  33.437  37.821  1.00  0.00     0.200 A 
ATOM     61  F   UNL A   1      37.161  31.494  38.512  1.00  0.00    -0.200 F 
ATOM     62  F   UNL A   1      37.942  34.073  38.941  1.00  0.00    -0.200 F 
ENDBRANCH  28  52
BRANCH  40  63
ATOM     63  C   UNL A   1      44.424  27.874  34.568  1.00  0.00     0.064 A 
ATOM     64  C   UNL A   1      45.617  28.611  34.608  1.00  0.00     0.173 A 
ATOM     65  C   UNL A   1      44.320  26.734  35.378  1.00  0.00     0.173 A 
ATOM     66  F   UNL A   1      45.771  29.687  33.822  1.00  0.00    -0.203 F 
ATOM     67  C   UNL A   1      46.680  28.196  35.402  1.00  0.00     0.198 A 
ATOM     68  C   UNL A   1      45.375  26.340  36.192  1.00  0.00     0.198 A 
ATOM     69  F   UNL A   1      43.201  25.993  35.362  1.00  0.00    -0.203 F 
ATOM     70  F   UNL A   1      47.838  28.872  35.372  1.00  0.00    -0.200 F 
ATOM     71  C   UNL A   1      46.558  27.066  36.196  1.00  0.00     0.200 A 
ATOM     72  F   UNL A   1      45.255  25.247  36.959  1.00  0.00    -0.200 F 
ATOM     73  F   UNL A   1      47.589  26.661  36.950  1.00  0.00    -0.200 F 
ENDBRANCH  40  63
ENDBRANCH  14  15
ENDBRANCH   7   9
ENDBRANCH   6   7
ENDBRANCH   5   6
ENDBRANCH   4   5
ENDBRANCH   3   4
ENDBRANCH   2   3
ENDBRANCH   1   2
BRANCH   1  74
ATOM     74  O   UNL A   1      33.554  25.250  26.148  1.00  0.00    -0.376 OA
BRANCH  74  75
ATOM     75  C   UNL A   1      34.304  25.131  24.948  1.00  0.00     0.202 C 
BRANCH  75  76
ATOM     76  C   UNL A   1      33.560  25.320  23.618  1.00  0.00     0.261 C 
BRANCH  76  77
ATOM     77  O   UNL A   1      33.304  24.121  22.873  1.00  0.00    -0.460 OA
BRANCH  77  78
ATOM     78  C   UNL A   1      32.082  23.580  23.108  1.00  0.00     0.339 C 
ATOM     79  O   UNL A   1      31.010  24.156  23.028  1.00  0.00    -0.246 OA
BRANCH  78  80
ATOM     80  C   UNL A   1      32.175  22.181  23.572  1.00  0.00     0.080 A 
ATOM     81  C   UNL A   1      32.279  21.803  24.901  1.00  0.00     0.131 A 
ATOM     82  C   UNL A   1      32.148  21.172  22.605  1.00  0.00     0.043 A 
ATOM     83  N   UNL A   1      32.264  20.508  25.312  1.00  0.00    -0.220 NA
ATOM     84  C   UNL A   1      32.188  19.837  22.989  1.00  0.00     0.104 A 
ATOM     85  C   UNL A   1      32.177  19.547  24.353  1.00  0.00     0.232 A 
ATOM     86  Cl  UNL A   1      32.205  18.646  21.744  1.00  0.00    -0.078 Cl
BRANCH  85  87
ATOM     87  O   UNL A   1      32.037  18.281  24.854  1.00  0.00    -0.476 OA
BRANCH  87  88
ATOM     88  C   UNL A   1      33.214  17.759  25.501  1.00  0.00     0.235 C 
BRANCH  88  89
ATOM     89  C   UNL A   1      33.615  16.401  25.013  1.00  0.00     0.027 C 
ATOM     90  C   UNL A   1      34.555  16.190  23.842  1.00  0.00     0.007 C 
ATOM     91  C   UNL A   1      35.010  15.871  25.227  1.00  0.00     0.007 C 
ENDBRANCH  88  89
ENDBRANCH  87  88
ENDBRANCH  85  87
ENDBRANCH  78  80
ENDBRANCH  77  78
ENDBRANCH  76  77
ENDBRANCH  75  76
ENDBRANCH  74  75
ENDBRANCH   1  74
TORSDOF 20
ENDMDL
MODEL 3
REMARK VINA RESULT:     -10.0      0.511      2.027
REMARK SMILES O=C(OCCOCCOCCOC(=O)c1cnc(OCC2CC2)c(Cl)c1)c1ccc(-c2c3nc(c(-c4c(F)c(F)c(F)c(F)c4F)c4ccc([nH]4)c(-c4c(F)c(F)c(F)c(F)c4F)c4nc(c(-c5c(F)c(F)c(F)c(F)c5F)c5ccc2[nH]5)C=C4)C=C3)cc1
REMARK SMILES IDX 8 1 7 2 6 3 5 4 4 5 3 6 2 7 1 8 27 9 28 10 89 11 29 12 88 13
REMARK SMILES IDX 30 14 31 15 32 16 82 17 33 18 87 19 81 20 83 21 34 22 86 23
REMARK SMILES IDX 80 24 79 25 35 27 67 28 47 29 66 30 48 31 51 32 65 33 84 34
REMARK SMILES IDX 49 35 50 36 64 38 85 39 52 40 36 41 37 42 45 43 38 44 39 45
REMARK SMILES IDX 43 46 46 47 40 48 41 49 44 50 42 51 68 52 69 53 77 54 70 55
REMARK SMILES IDX 71 56 75 57 78 58 72 59 73 60 76 61 74 62 53 63 54 64 62 65
REMARK SMILES IDX 55 66 56 67 60 68 63 69 57 70 58 71 61 72 59 73 9 74 10 75
REMARK SMILES IDX 11 76 12 77 13 78 14 79 15 80 16 81 26 82 17 83 24 84 18 85
REMARK SMILES IDX 25 86 19 87 20 88 21 89 22 90 23 91
REMARK H PARENT 83 26 51 37
REMARK Flexibility Score: inf
ROOT
ATOM      1  C   UNL A   1      31.945  25.659  26.742  1.00  0.00     0.188 C 
ENDROOT
BRANCH   1   2
ATOM      2  C   UNL A   1      30.981  26.658  26.099  1.00  0.00     0.188 C 
BRANCH   2   3
ATOM      3  O   UNL A   1      31.179  27.984  26.614  1.00  0.00    -0.376 OA
BRANCH   3   4
ATOM      4  C   UNL A   1      32.324  28.641  26.054  1.00  0.00     0.202 C 
BRANCH   4   5
ATOM      5  C   UNL A   1      32.156  30.151  25.835  1.00  0.00     0.261 C 
BRANCH   5   6
ATOM      6  O   UNL A   1      32.306  30.908  27.047  1.00  0.00    -0.460 OA
BRANCH   6   7
ATOM      7  C   UNL A   1      33.339  31.701  27.425  1.00  0.00     0.338 C 
ATOM      8  O   UNL A   1      33.172  32.920  27.410  1.00  0.00    -0.246 OA
BRANCH   7   9
ATOM      9  C   UNL A   1      34.662  31.185  27.905  1.00  0.00     0.060 A 
ATOM     10  C   UNL A   1      34.969  29.848  28.155  1.00  0.00     0.016 A 
ATOM     11  C   UNL A   1      35.685  32.132  28.093  1.00  0.00     0.016 A 
ATOM     12  C   UNL A   1      36.183  29.473  28.724  1.00  0.00     0.010 A 
ATOM     13  C   UNL A   1      36.934  31.756  28.607  1.00  0.00     0.010 A 
ATOM     14  C   UNL A   1      37.161  30.428  28.988  1.00  0.00    -0.014 A 
BRANCH  14  15
ATOM     15  C   UNL A   1      38.306  30.048  29.845  1.00  0.00     0.031 A 
ATOM     16  C   UNL A   1      39.341  29.117  29.276  1.00  0.00     0.074 A 
ATOM     17  C   UNL A   1      38.524  30.645  31.030  1.00  0.00     0.049 A 
ATOM     18  N   UNL A   1      40.427  28.640  29.829  1.00  0.00    -0.248 NA
ATOM     19  C   UNL A   1      39.143  28.695  27.879  1.00  0.00     0.031 C 
ATOM     20  C   UNL A   1      37.699  31.698  31.617  1.00  0.00     0.029 A 
ATOM     21  N   UNL A   1      39.535  30.466  31.941  1.00  0.00    -0.354 N 
ATOM     22  C   UNL A   1      41.035  27.865  28.852  1.00  0.00     0.074 A 
ATOM     23  C   UNL A   1      40.184  27.904  27.683  1.00  0.00     0.031 C 
ATOM     24  C   UNL A   1      38.246  32.074  32.785  1.00  0.00     0.029 A 
ATOM     25  C   UNL A   1      39.384  31.223  33.075  1.00  0.00     0.049 A 
ATOM     26  H   UNL A   1      40.293  29.855  31.796  1.00  0.00     0.167 HD
ATOM     27  C   UNL A   1      42.207  27.192  28.919  1.00  0.00     0.037 A 
ATOM     28  C   UNL A   1      40.057  31.190  34.237  1.00  0.00     0.037 A 
ATOM     29  C   UNL A   1      43.050  27.158  30.083  1.00  0.00     0.049 A 
ATOM     30  C   UNL A   1      41.246  30.291  34.357  1.00  0.00     0.074 A 
ATOM     31  C   UNL A   1      44.249  26.495  30.267  1.00  0.00     0.029 A 
ATOM     32  N   UNL A   1      42.770  27.817  31.271  1.00  0.00    -0.354 N 
ATOM     33  N   UNL A   1      41.769  29.491  33.463  1.00  0.00    -0.248 NA
ATOM     34  C   UNL A   1      41.955  30.323  35.641  1.00  0.00     0.031 C 
ATOM     35  C   UNL A   1      44.671  26.712  31.585  1.00  0.00     0.029 A 
ATOM     36  C   UNL A   1      43.761  27.553  32.203  1.00  0.00     0.049 A 
ATOM     37  H   UNL A   1      41.984  28.388  31.429  1.00  0.00     0.167 HD
ATOM     38  C   UNL A   1      42.888  28.944  34.062  1.00  0.00     0.074 A 
ATOM     39  C   UNL A   1      42.961  29.498  35.401  1.00  0.00     0.031 C 
ATOM     40  C   UNL A   1      43.794  28.084  33.540  1.00  0.00     0.037 A 
BRANCH  27  41
ATOM     41  C   UNL A   1      42.594  26.392  27.711  1.00  0.00     0.064 A 
ATOM     42  C   UNL A   1      42.110  25.092  27.492  1.00  0.00     0.173 A 
ATOM     43  C   UNL A   1      43.506  26.919  26.785  1.00  0.00     0.173 A 
ATOM     44  F   UNL A   1      41.259  24.531  28.365  1.00  0.00    -0.203 F 
ATOM     45  C   UNL A   1      42.556  24.337  26.410  1.00  0.00     0.198 A 
ATOM     46  C   UNL A   1      43.927  26.171  25.689  1.00  0.00     0.198 A 
ATOM     47  F   UNL A   1      44.003  28.153  26.954  1.00  0.00    -0.203 F 
ATOM     48  F   UNL A   1      42.134  23.074  26.257  1.00  0.00    -0.200 F 
ATOM     49  C   UNL A   1      43.460  24.879  25.508  1.00  0.00     0.200 A 
ATOM     50  F   UNL A   1      44.799  26.697  24.818  1.00  0.00    -0.200 F 
ATOM     51  F   UNL A   1      43.899  24.146  24.475  1.00  0.00    -0.200 F 
ENDBRANCH  27  41
BRANCH  28  52
ATOM     52  C   UNL A   1      39.608  31.962  35.419  1.00  0.00     0.064 A 
ATOM     53  C   UNL A   1      38.644  31.461  36.302  1.00  0.00     0.173 A 
ATOM     54  C   UNL A   1      40.073  33.270  35.620  1.00  0.00     0.173 A 
ATOM     55  F   UNL A   1      38.154  30.226  36.127  1.00  0.00    -0.203 F 
ATOM     56  C   UNL A   1      38.157  32.246  37.344  1.00  0.00     0.198 A 
ATOM     57  C   UNL A   1      39.581  34.056  36.659  1.00  0.00     0.198 A 
ATOM     58  F   UNL A   1      40.998  33.786  34.796  1.00  0.00    -0.203 F 
ATOM     59  F   UNL A   1      37.226  31.753  38.174  1.00  0.00    -0.200 F 
ATOM     60  C   UNL A   1      38.622  33.543  37.521  1.00  0.00     0.200 A 
ATOM     61  F   UNL A   1      40.051  35.297  36.841  1.00  0.00    -0.200 F 
ATOM     62  F   UNL A   1      38.157  34.293  38.530  1.00  0.00    -0.200 F 
ENDBRANCH  28  52
BRANCH  40  63
ATOM     63  C   UNL A   1      44.950  27.734  34.420  1.00  0.00     0.064 A 
ATOM     64  C   UNL A   1      46.122  28.504  34.439  1.00  0.00     0.173 A 
ATOM     65  C   UNL A   1      44.899  26.583  35.220  1.00  0.00     0.173 A 
ATOM     66  F   UNL A   1      46.227  29.592  33.661  1.00  0.00    -0.203 F 
ATOM     67  C   UNL A   1      47.217  28.111  35.202  1.00  0.00     0.198 A 
ATOM     68  C   UNL A   1      45.984  26.211  36.003  1.00  0.00     0.198 A 
ATOM     69  F   UNL A   1      43.801  25.811  35.224  1.00  0.00    -0.203 F 
ATOM     70  F   UNL A   1      48.354  28.820  35.150  1.00  0.00    -0.200 F 
ATOM     71  C   UNL A   1      47.146  26.970  35.985  1.00  0.00     0.200 A 
ATOM     72  F   UNL A   1      45.914  25.108  36.761  1.00  0.00    -0.200 F 
ATOM     73  F   UNL A   1      48.207  26.586  36.710  1.00  0.00    -0.200 F 
ENDBRANCH  40  63
ENDBRANCH  14  15
ENDBRANCH   7   9
ENDBRANCH   6   7
ENDBRANCH   5   6
ENDBRANCH   4   5
ENDBRANCH   3   4
ENDBRANCH   2   3
ENDBRANCH   1   2
BRANCH   1  74
ATOM     74  O   UNL A   1      31.502  24.303  26.810  1.00  0.00    -0.376 OA
BRANCH  74  75
ATOM     75  C   UNL A   1      32.491  23.283  26.778  1.00  0.00     0.202 C 
BRANCH  75  76
ATOM     76  C   UNL A   1      33.162  22.981  25.430  1.00  0.00     0.261 C 
BRANCH  76  77
ATOM     77  O   UNL A   1      32.410  23.350  24.265  1.00  0.00    -0.460 OA
BRANCH  77  78
ATOM     78  C   UNL A   1      33.144  23.988  23.318  1.00  0.00     0.339 C 
ATOM     79  O   UNL A   1      34.182  23.586  22.817  1.00  0.00    -0.246 OA
BRANCH  78  80
ATOM     80  C   UNL A   1      32.590  25.315  22.988  1.00  0.00     0.080 A 
ATOM     81  C   UNL A   1      31.265  25.550  22.654  1.00  0.00     0.131 A 
ATOM     82  C   UNL A   1      33.459  26.410  23.022  1.00  0.00     0.043 A 
ATOM     83  N   UNL A   1      30.755  26.793  22.450  1.00  0.00    -0.220 NA
ATOM     84  C   UNL A   1      32.981  27.689  22.763  1.00  0.00     0.104 A 
ATOM     85  C   UNL A   1      31.612  27.845  22.548  1.00  0.00     0.232 A 
ATOM     86  Cl  UNL A   1      34.116  28.985  22.770  1.00  0.00    -0.078 Cl
BRANCH  85  87
ATOM     87  O   UNL A   1      30.996  29.065  22.458  1.00  0.00    -0.476 OA
BRANCH  87  88
ATOM     88  C   UNL A   1      29.690  29.124  23.063  1.00  0.00     0.235 C 
BRANCH  88  89
ATOM     89  C   UNL A   1      29.270  30.508  23.451  1.00  0.00     0.027 C 
ATOM     90  C   UNL A   1      28.737  31.517  22.452  1.00  0.00     0.007 C 
ATOM     91  C   UNL A   1      27.817  30.912  23.460  1.00  0.00     0.007 C 
ENDBRANCH  88  89
ENDBRANCH  87  88
ENDBRANCH  85  87
ENDBRANCH  78  80
ENDBRANCH  77  78
ENDBRANCH  76  77
ENDBRANCH  75  76
ENDBRANCH  74  75
ENDBRANCH   1  74
TORSDOF 20
ENDMDL
