MODEL 1
REMARK VINA RESULT:      -9.6      0.000      0.000
REMARK SMILES Cc1cc(OCC(=O)OCCOCCOCCOC(=O)c2ccc(-c3c4nc(c(-c5c(F)c(F)c(F)c(F)c5F)c5ccc([nH]5)c(-c5c(F)c(F)c(F)c(F)c5F)c5nc(c(-c6c(F)c(F)c(F)c(F)c6F)c6ccc3[nH]6)C=C5)C=C4)cc2)ccc1NC(=O)c1ccc(N2C(=O)[C@@H]3[C@H](C2=O)[C@H]2C=C[C@@H]3C2)cc1
REMARK SMILES IDX 12 1 11 2 10 3 9 4 7 5 8 6 6 7 5 8 4 9 1 10 2 11 3 12 86 13
REMARK SMILES IDX 85 14 84 15 87 16 88 17 89 19 90 20 91 21 107 22 92 23
REMARK SMILES IDX 106 24 93 25 94 26 95 27 99 28 96 29 97 30 98 31 100 32
REMARK SMILES IDX 104 33 101 34 103 35 105 36 102 37 13 38 14 39 15 40 16 41
REMARK SMILES IDX 17 42 18 43 19 44 20 45 21 46 22 47 83 48 23 49 82 50 24 51
REMARK SMILES IDX 25 52 26 53 76 54 27 55 81 56 75 57 77 58 28 59 80 60 74 61
REMARK SMILES IDX 73 62 29 64 61 65 41 66 60 67 42 68 45 69 59 70 78 71 43 72
REMARK SMILES IDX 44 73 58 75 79 76 46 77 30 78 31 79 39 80 32 81 33 82 37 83
REMARK SMILES IDX 40 84 34 85 35 86 38 87 36 88 62 89 63 90 71 91 64 92 65 93
REMARK SMILES IDX 69 94 72 95 66 96 67 97 70 98 68 99 47 100 48 101 56 102
REMARK SMILES IDX 49 103 50 104 54 105 57 106 51 107 52 108 55 109 53 110
REMARK H PARENT 87 18 77 63 45 74
REMARK Flexibility Score: inf
ROOT
ATOM      1  O   UNL A   1      36.950  32.082  28.491  1.00  0.00    -0.376 OA
ENDROOT
BRANCH   1   2
ATOM      2  C   UNL A   1      36.653  30.771  27.959  1.00  0.00     0.202 C 
BRANCH   2   3
ATOM      3  C   UNL A   1      37.085  29.312  28.876  1.00  0.00     0.261 C 
BRANCH   3   4
ATOM      4  O   UNL A   1      38.719  28.639  29.170  1.00  0.00    -0.461 OA
BRANCH   4   5
ATOM      5  C   UNL A   1      40.138  28.458  28.623  1.00  0.00     0.344 C 
ATOM      6  O   UNL A   1      40.933  29.261  28.106  1.00  0.00    -0.248 OA
BRANCH   5   7
ATOM      7  C   UNL A   1      40.783  27.159  28.847  1.00  0.00     0.351 C 
BRANCH   7   8
ATOM      8  O   UNL A   1      39.844  26.285  28.331  1.00  0.00    -0.482 OA
BRANCH   8   9
ATOM      9  C   UNL A   1      40.305  25.683  27.125  1.00  0.00     0.120 A 
ATOM     10  C   UNL A   1      41.072  21.608  27.830  1.00  0.00     0.047 C 
ATOM     11  C   UNL A   1      40.970  22.738  26.804  1.00  0.00    -0.024 A 
ATOM     12  C   UNL A   1      39.926  23.977  27.489  1.00  0.00     0.052 A 
ATOM     13  C   UNL A   1      42.308  23.070  25.653  1.00  0.00     0.044 A 
ATOM     14  C   UNL A   1      42.744  24.679  25.161  1.00  0.00     0.030 A 
ATOM     15  C   UNL A   1      41.863  26.049  25.876  1.00  0.00     0.048 A 
BRANCH  13  16
ATOM     16  N   UNL A   1      43.225  22.028  25.363  1.00  0.00    -0.322 N 
ATOM     17  C   UNL A   1      44.611  21.922  25.526  1.00  0.00     0.255 C 
ATOM     18  H   UNL A   1      42.808  21.226  24.973  1.00  0.00     0.170 HD
ATOM     19  O   UNL A   1      45.158  20.853  25.245  1.00  0.00    -0.269 OA
BRANCH  17  20
ATOM     20  C   UNL A   1      45.505  23.004  26.055  1.00  0.00     0.040 A 
ATOM     21  C   UNL A   1      45.464  23.372  27.399  1.00  0.00     0.016 A 
ATOM     22  C   UNL A   1      46.313  23.780  25.221  1.00  0.00     0.016 A 
ATOM     23  C   UNL A   1      46.370  24.337  27.927  1.00  0.00     0.027 A 
ATOM     24  C   UNL A   1      47.198  24.762  25.754  1.00  0.00     0.027 A 
ATOM     25  C   UNL A   1      47.333  24.994  27.138  1.00  0.00     0.052 A 
BRANCH  25  26
ATOM     26  N   UNL A   1      48.391  25.830  27.708  1.00  0.00    -0.250 N 
ATOM     27  C   UNL A   1      49.673  25.391  28.010  1.00  0.00     0.238 C 
ATOM     28  C   UNL A   1      48.297  27.198  27.915  1.00  0.00     0.238 C 
ATOM     29  O   UNL A   1      50.168  24.288  27.824  1.00  0.00    -0.274 OA
ATOM     30  C   UNL A   1      50.481  26.501  28.647  1.00  0.00     0.099 C 
ATOM     31  C   UNL A   1      49.542  27.709  28.606  1.00  0.00     0.099 C 
ATOM     32  O   UNL A   1      47.399  27.962  27.592  1.00  0.00    -0.274 OA
ATOM     33  C   UNL A   1      51.740  26.994  27.883  1.00  0.00     0.025 C 
ATOM     34  C   UNL A   1      50.363  28.762  27.826  1.00  0.00     0.025 C 
ATOM     35  C   UNL A   1      52.384  28.088  28.711  1.00  0.00    -0.027 C 
ATOM     36  C   UNL A   1      51.139  27.906  26.815  1.00  0.00     0.017 C 
ATOM     37  C   UNL A   1      51.553  29.144  28.690  1.00  0.00    -0.027 C 
ENDBRANCH  25  26
ENDBRANCH  17  20
ENDBRANCH  13  16
ENDBRANCH   8   9
ENDBRANCH   7   8
ENDBRANCH   5   7
ENDBRANCH   4   5
ENDBRANCH   3   4
ENDBRANCH   2   3
ENDBRANCH   1   2
BRANCH   1  38
ATOM     38  C   UNL A   1      35.993  33.157  28.416  1.00  0.00     0.188 C 
BRANCH  38  39
ATOM     39  C   UNL A   1      35.613  33.826  29.723  1.00  0.00     0.188 C 
BRANCH  39  40
ATOM     40  O   UNL A   1      34.449  33.314  30.329  1.00  0.00    -0.376 OA
BRANCH  40  41
ATOM     41  C   UNL A   1      34.700  32.519  31.503  1.00  0.00     0.202 C 
BRANCH  41  42
ATOM     42  C   UNL A   1      35.618  33.143  32.618  1.00  0.00     0.261 C 
BRANCH  42  43
ATOM     43  O   UNL A   1      35.904  32.225  33.734  1.00  0.00    -0.460 OA
BRANCH  43  44
ATOM     44  C   UNL A   1      37.195  32.031  34.221  1.00  0.00     0.338 C 
ATOM     45  O   UNL A   1      37.583  32.785  35.090  1.00  0.00    -0.246 OA
BRANCH  44  46
ATOM     46  C   UNL A   1      37.981  30.822  33.331  1.00  0.00     0.060 A 
ATOM     47  C   UNL A   1      37.945  28.899  32.660  1.00  0.00     0.016 A 
ATOM     48  C   UNL A   1      39.532  31.557  33.522  1.00  0.00     0.016 A 
ATOM     49  C   UNL A   1      39.607  28.076  32.414  1.00  0.00     0.010 A 
ATOM     50  C   UNL A   1      40.885  30.612  33.396  1.00  0.00     0.010 A 
ATOM     51  C   UNL A   1      41.119  28.959  32.820  1.00  0.00    -0.014 A 
BRANCH  51  52
ATOM     52  C   UNL A   1      42.844  28.571  32.806  1.00  0.00     0.031 A 
ATOM     53  C   UNL A   1      43.860  27.562  33.935  1.00  0.00     0.074 A 
ATOM     54  C   UNL A   1      43.387  28.673  31.561  1.00  0.00     0.049 A 
ATOM     55  N   UNL A   1      45.171  27.590  34.096  1.00  0.00    -0.248 NA
ATOM     56  C   UNL A   1      43.454  26.473  35.045  1.00  0.00     0.031 C 
ATOM     57  C   UNL A   1      44.415  27.796  30.971  1.00  0.00     0.029 A 
ATOM     58  N   UNL A   1      43.003  29.463  30.456  1.00  0.00    -0.354 N 
ATOM     59  C   UNL A   1      45.453  26.496  34.989  1.00  0.00     0.074 A 
ATOM     60  C   UNL A   1      44.429  26.462  35.936  1.00  0.00     0.031 C 
ATOM     61  C   UNL A   1      44.745  28.228  29.737  1.00  0.00     0.029 A 
ATOM     62  C   UNL A   1      44.137  29.532  29.600  1.00  0.00     0.049 A 
ATOM     63  H   UNL A   1      42.124  29.882  30.309  1.00  0.00     0.167 HD
ATOM     64  C   UNL A   1      46.077  25.332  34.579  1.00  0.00     0.037 A 
ATOM     65  C   UNL A   1      44.855  30.695  29.521  1.00  0.00     0.037 A 
ATOM     66  C   UNL A   1      46.774  25.631  33.358  1.00  0.00     0.049 A 
ATOM     67  C   UNL A   1      46.223  30.531  30.173  1.00  0.00     0.074 A 
ATOM     68  C   UNL A   1      46.787  25.196  32.053  1.00  0.00     0.029 A 
ATOM     69  N   UNL A   1      47.447  26.830  33.379  1.00  0.00    -0.354 N 
ATOM     70  N   UNL A   1      46.492  29.579  31.033  1.00  0.00    -0.248 NA
ATOM     71  C   UNL A   1      47.421  31.294  29.832  1.00  0.00     0.031 C 
ATOM     72  C   UNL A   1      47.396  26.248  31.279  1.00  0.00     0.029 A 
ATOM     73  C   UNL A   1      47.764  27.280  32.135  1.00  0.00     0.049 A 
ATOM     74  H   UNL A   1      47.675  27.313  34.206  1.00  0.00     0.167 HD
ATOM     75  C   UNL A   1      47.826  29.541  31.301  1.00  0.00     0.074 A 
ATOM     76  C   UNL A   1      48.362  30.660  30.558  1.00  0.00     0.031 C 
ATOM     77  C   UNL A   1      48.408  28.585  32.083  1.00  0.00     0.037 A 
BRANCH  64  78
ATOM     78  C   UNL A   1      45.946  23.902  35.194  1.00  0.00     0.064 A 
ATOM     79  C   UNL A   1      46.566  23.648  36.436  1.00  0.00     0.173 A 
ATOM     80  C   UNL A   1      45.310  22.744  34.650  1.00  0.00     0.173 A 
ATOM     81  F   UNL A   1      47.256  24.611  37.057  1.00  0.00    -0.203 F 
ATOM     82  C   UNL A   1      46.513  22.400  37.087  1.00  0.00     0.198 A 
ATOM     83  C   UNL A   1      45.209  21.514  35.328  1.00  0.00     0.198 A 
ATOM     84  F   UNL A   1      44.814  22.695  33.408  1.00  0.00    -0.203 F 
ATOM     85  F   UNL A   1      47.160  22.231  38.249  1.00  0.00    -0.200 F 
ATOM     86  C   UNL A   1      45.812  21.341  36.550  1.00  0.00     0.200 A 
ATOM     87  F   UNL A   1      44.545  20.491  34.765  1.00  0.00    -0.200 F 
ATOM     88  F   UNL A   1      45.743  20.162  37.184  1.00  0.00    -0.200 F 
ENDBRANCH  64  78
BRANCH  65  89
ATOM     89  C   UNL A   1      43.911  31.861  29.503  1.00  0.00     0.064 A 
ATOM     90  C   UNL A   1      43.845  32.600  30.711  1.00  0.00     0.173 A 
ATOM     91  C   UNL A   1      43.673  32.567  28.313  1.00  0.00     0.173 A 
ATOM     92  F   UNL A   1      44.046  31.977  31.885  1.00  0.00    -0.203 F 
ATOM     93  C   UNL A   1      43.789  33.994  30.706  1.00  0.00     0.198 A 
ATOM     94  C   UNL A   1      43.589  33.967  28.320  1.00  0.00     0.198 A 
ATOM     95  F   UNL A   1      43.695  31.929  27.135  1.00  0.00    -0.203 F 
ATOM     96  F   UNL A   1      43.929  34.678  31.849  1.00  0.00    -0.200 F 
ATOM     97  C   UNL A   1      43.712  34.678  29.506  1.00  0.00     0.200 A 
ATOM     98  F   UNL A   1      43.488  34.638  27.165  1.00  0.00    -0.200 F 
ATOM     99  F   UNL A   1      43.805  36.017  29.492  1.00  0.00    -0.200 F 
ENDBRANCH  65  89
BRANCH  77 100
ATOM    100  C   UNL A   1      49.590  28.861  33.013  1.00  0.00     0.064 A 
ATOM    101  C   UNL A   1      49.458  29.479  34.267  1.00  0.00     0.173 A 
ATOM    102  C   UNL A   1      50.883  28.315  32.761  1.00  0.00     0.173 A 
ATOM    103  F   UNL A   1      48.273  29.901  34.726  1.00  0.00    -0.203 F 
ATOM    104  C   UNL A   1      50.538  29.639  35.137  1.00  0.00     0.198 A 
ATOM    105  C   UNL A   1      51.923  28.370  33.685  1.00  0.00     0.198 A 
ATOM    106  F   UNL A   1      51.182  27.671  31.623  1.00  0.00    -0.203 F 
ATOM    107  F   UNL A   1      50.371  30.331  36.271  1.00  0.00    -0.200 F 
ATOM    108  C   UNL A   1      51.765  29.073  34.855  1.00  0.00     0.200 A 
ATOM    109  F   UNL A   1      53.071  27.724  33.434  1.00  0.00    -0.200 F 
ATOM    110  F   UNL A   1      52.786  29.198  35.711  1.00  0.00    -0.200 F 
ENDBRANCH  77 100
ENDBRANCH  51  52
ENDBRANCH  44  46
ENDBRANCH  43  44
ENDBRANCH  42  43
ENDBRANCH  41  42
ENDBRANCH  40  41
ENDBRANCH  39  40
ENDBRANCH  38  39
ENDBRANCH   1  38
TORSDOF 22
ENDMDL
MODEL 2
REMARK VINA RESULT:      -9.4      3.770      6.331
REMARK SMILES Cc1cc(OCC(=O)OCCOCCOCCOC(=O)c2ccc(-c3c4nc(c(-c5c(F)c(F)c(F)c(F)c5F)c5ccc([nH]5)c(-c5c(F)c(F)c(F)c(F)c5F)c5nc(c(-c6c(F)c(F)c(F)c(F)c6F)c6ccc3[nH]6)C=C5)C=C4)cc2)ccc1NC(=O)c1ccc(N2C(=O)[C@@H]3[C@H](C2=O)[C@H]2C=C[C@@H]3C2)cc1
REMARK SMILES IDX 12 1 11 2 10 3 9 4 7 5 8 6 6 7 5 8 4 9 1 10 2 11 3 12 86 13
REMARK SMILES IDX 85 14 84 15 87 16 88 17 89 19 90 20 91 21 107 22 92 23
REMARK SMILES IDX 106 24 93 25 94 26 95 27 99 28 96 29 97 30 98 31 100 32
REMARK SMILES IDX 104 33 101 34 103 35 105 36 102 37 13 38 14 39 15 40 16 41
REMARK SMILES IDX 17 42 18 43 19 44 20 45 21 46 22 47 83 48 23 49 82 50 24 51
REMARK SMILES IDX 25 52 26 53 76 54 27 55 81 56 75 57 77 58 28 59 80 60 74 61
REMARK SMILES IDX 73 62 29 64 61 65 41 66 60 67 42 68 45 69 59 70 78 71 43 72
REMARK SMILES IDX 44 73 58 75 79 76 46 77 30 78 31 79 39 80 32 81 33 82 37 83
REMARK SMILES IDX 40 84 34 85 35 86 38 87 36 88 62 89 63 90 71 91 64 92 65 93
REMARK SMILES IDX 69 94 72 95 66 96 67 97 70 98 68 99 47 100 48 101 56 102
REMARK SMILES IDX 49 103 50 104 54 105 57 106 51 107 52 108 55 109 53 110
REMARK H PARENT 87 18 77 63 45 74
REMARK Flexibility Score: inf
ROOT
ATOM      1  O   UNL A   1      39.509  30.367  35.839  1.00  0.00    -0.376 OA
ENDROOT
BRANCH   1   2
ATOM      2  C   UNL A   1      40.224  31.471  35.240  1.00  0.00     0.202 C 
BRANCH   2   3
ATOM      3  C   UNL A   1      41.212  31.216  33.785  1.00  0.00     0.261 C 
BRANCH   3   4
ATOM      4  O   UNL A   1      40.962  30.014  32.481  1.00  0.00    -0.461 OA
BRANCH   4   5
ATOM      5  C   UNL A   1      41.593  28.908  31.631  1.00  0.00     0.344 C 
ATOM      6  O   UNL A   1      42.450  28.048  31.897  1.00  0.00    -0.248 OA
BRANCH   5   7
ATOM      7  C   UNL A   1      41.028  28.682  30.295  1.00  0.00     0.351 C 
BRANCH   7   8
ATOM      8  O   UNL A   1      41.972  27.846  29.727  1.00  0.00    -0.482 OA
BRANCH   8   9
ATOM      9  C   UNL A   1      41.474  27.232  28.542  1.00  0.00     0.120 A 
ATOM     10  C   UNL A   1      42.344  23.119  28.656  1.00  0.00     0.047 C 
ATOM     11  C   UNL A   1      41.624  24.261  27.937  1.00  0.00    -0.024 A 
ATOM     12  C   UNL A   1      41.369  25.544  29.113  1.00  0.00     0.052 A 
ATOM     13  C   UNL A   1      41.848  24.537  26.176  1.00  0.00     0.044 A 
ATOM     14  C   UNL A   1      41.905  26.126  25.476  1.00  0.00     0.030 A 
ATOM     15  C   UNL A   1      41.795  27.532  26.561  1.00  0.00     0.048 A 
BRANCH  13  16
ATOM     16  N   UNL A   1      42.285  23.454  25.372  1.00  0.00    -0.322 N 
ATOM     17  C   UNL A   1      43.560  22.969  25.058  1.00  0.00     0.255 C 
ATOM     18  H   UNL A   1      41.552  22.945  24.954  1.00  0.00     0.170 HD
ATOM     19  O   UNL A   1      43.651  21.948  24.372  1.00  0.00    -0.269 OA
BRANCH  17  20
ATOM     20  C   UNL A   1      44.853  23.575  25.519  1.00  0.00     0.040 A 
ATOM     21  C   UNL A   1      45.718  24.187  24.614  1.00  0.00     0.016 A 
ATOM     22  C   UNL A   1      45.315  23.441  26.830  1.00  0.00     0.016 A 
ATOM     23  C   UNL A   1      46.905  24.840  25.055  1.00  0.00     0.027 A 
ATOM     24  C   UNL A   1      46.517  24.076  27.258  1.00  0.00     0.027 A 
ATOM     25  C   UNL A   1      47.293  24.888  26.408  1.00  0.00     0.052 A 
BRANCH  25  26
ATOM     26  N   UNL A   1      48.396  25.724  26.888  1.00  0.00    -0.250 N 
ATOM     27  C   UNL A   1      49.563  25.242  27.464  1.00  0.00     0.238 C 
ATOM     28  C   UNL A   1      48.478  27.099  26.728  1.00  0.00     0.238 C 
ATOM     29  O   UNL A   1      49.912  24.081  27.632  1.00  0.00    -0.274 OA
ATOM     30  C   UNL A   1      50.452  26.385  27.905  1.00  0.00     0.099 C 
ATOM     31  C   UNL A   1      49.705  27.635  27.431  1.00  0.00     0.099 C 
ATOM     32  O   UNL A   1      47.737  27.843  26.102  1.00  0.00    -0.274 OA
ATOM     33  C   UNL A   1      51.841  26.512  27.221  1.00  0.00     0.025 C 
ATOM     34  C   UNL A   1      50.745  28.342  26.532  1.00  0.00     0.025 C 
ATOM     35  C   UNL A   1      52.546  27.709  27.826  1.00  0.00    -0.027 C 
ATOM     36  C   UNL A   1      51.490  27.165  25.886  1.00  0.00     0.017 C 
ATOM     37  C   UNL A   1      51.882  28.807  27.425  1.00  0.00    -0.027 C 
ENDBRANCH  25  26
ENDBRANCH  17  20
ENDBRANCH  13  16
ENDBRANCH   8   9
ENDBRANCH   7   8
ENDBRANCH   5   7
ENDBRANCH   4   5
ENDBRANCH   3   4
ENDBRANCH   2   3
ENDBRANCH   1   2
BRANCH   1  38
ATOM     38  C   UNL A   1      38.157  30.519  36.316  1.00  0.00     0.188 C 
BRANCH  38  39
ATOM     39  C   UNL A   1      37.816  31.831  36.996  1.00  0.00     0.188 C 
BRANCH  39  40
ATOM     40  O   UNL A   1      38.473  32.044  38.224  1.00  0.00    -0.376 OA
BRANCH  40  41
ATOM     41  C   UNL A   1      38.319  33.375  38.749  1.00  0.00     0.202 C 
BRANCH  41  42
ATOM     42  C   UNL A   1      39.454  34.417  38.430  1.00  0.00     0.261 C 
BRANCH  42  43
ATOM     43  O   UNL A   1      39.834  34.464  37.008  1.00  0.00    -0.460 OA
BRANCH  43  44
ATOM     44  C   UNL A   1      39.864  35.656  36.288  1.00  0.00     0.338 C 
ATOM     45  O   UNL A   1      39.763  36.691  36.916  1.00  0.00    -0.246 OA
BRANCH  44  46
ATOM     46  C   UNL A   1      39.890  35.335  34.625  1.00  0.00     0.060 A 
ATOM     47  C   UNL A   1      39.052  34.323  33.068  1.00  0.00     0.016 A 
ATOM     48  C   UNL A   1      41.552  35.778  34.468  1.00  0.00     0.016 A 
ATOM     49  C   UNL A   1      40.197  33.879  31.657  1.00  0.00     0.010 A 
ATOM     50  C   UNL A   1      42.428  35.161  33.208  1.00  0.00     0.010 A 
ATOM     51  C   UNL A   1      41.943  34.292  31.748  1.00  0.00    -0.014 A 
BRANCH  51  52
ATOM     52  C   UNL A   1      43.354  34.025  30.717  1.00  0.00     0.031 A 
ATOM     53  C   UNL A   1      44.726  32.830  30.840  1.00  0.00     0.074 A 
ATOM     54  C   UNL A   1      43.157  34.467  29.444  1.00  0.00     0.049 A 
ATOM     55  N   UNL A   1      45.918  32.895  30.274  1.00  0.00    -0.248 NA
ATOM     56  C   UNL A   1      44.883  31.475  31.692  1.00  0.00     0.031 C 
ATOM     57  C   UNL A   1      43.633  33.829  28.203  1.00  0.00     0.029 A 
ATOM     58  N   UNL A   1      42.312  35.483  28.949  1.00  0.00    -0.354 N 
ATOM     59  C   UNL A   1      46.538  31.631  30.580  1.00  0.00     0.074 A 
ATOM     60  C   UNL A   1      46.177  31.300  31.886  1.00  0.00     0.031 C 
ATOM     61  C   UNL A   1      43.290  34.574  27.133  1.00  0.00     0.029 A 
ATOM     62  C   UNL A   1      42.816  35.833  27.665  1.00  0.00     0.049 A 
ATOM     63  H   UNL A   1      41.529  35.873  29.402  1.00  0.00     0.167 HD
ATOM     64  C   UNL A   1      46.745  30.647  29.631  1.00  0.00     0.037 A 
ATOM     65  C   UNL A   1      43.478  37.019  27.498  1.00  0.00     0.037 A 
ATOM     66  C   UNL A   1      46.706  31.283  28.343  1.00  0.00     0.049 A 
ATOM     67  C   UNL A   1      44.963  36.780  27.250  1.00  0.00     0.074 A 
ATOM     68  C   UNL A   1      45.985  31.189  27.175  1.00  0.00     0.029 A 
ATOM     69  N   UNL A   1      47.386  32.477  28.289  1.00  0.00    -0.354 N 
ATOM     70  N   UNL A   1      45.567  35.662  27.571  1.00  0.00    -0.248 NA
ATOM     71  C   UNL A   1      45.854  37.676  26.517  1.00  0.00     0.031 C 
ATOM     72  C   UNL A   1      46.175  32.436  26.478  1.00  0.00     0.029 A 
ATOM     73  C   UNL A   1      47.028  33.241  27.222  1.00  0.00     0.049 A 
ATOM     74  H   UNL A   1      48.061  32.751  28.952  1.00  0.00     0.167 HD
ATOM     75  C   UNL A   1      46.829  35.638  27.063  1.00  0.00     0.074 A 
ATOM     76  C   UNL A   1      46.980  36.937  26.446  1.00  0.00     0.031 C 
ATOM     77  C   UNL A   1      47.655  34.554  27.151  1.00  0.00     0.037 A 
BRANCH  64  78
ATOM     78  C   UNL A   1      46.841  29.103  29.852  1.00  0.00     0.064 A 
ATOM     79  C   UNL A   1      45.751  28.301  29.453  1.00  0.00     0.173 A 
ATOM     80  C   UNL A   1      47.884  28.346  30.467  1.00  0.00     0.173 A 
ATOM     81  F   UNL A   1      44.662  28.860  28.910  1.00  0.00    -0.203 F 
ATOM     82  C   UNL A   1      45.724  26.900  29.600  1.00  0.00     0.198 A 
ATOM     83  C   UNL A   1      47.881  26.940  30.561  1.00  0.00     0.198 A 
ATOM     84  F   UNL A   1      48.931  28.906  31.083  1.00  0.00    -0.203 F 
ATOM     85  F   UNL A   1      44.633  26.215  29.227  1.00  0.00    -0.200 F 
ATOM     86  C   UNL A   1      46.799  26.215  30.127  1.00  0.00     0.200 A 
ATOM     87  F   UNL A   1      48.930  26.304  31.108  1.00  0.00    -0.200 F 
ATOM     88  F   UNL A   1      46.781  24.880  30.243  1.00  0.00    -0.200 F 
ENDBRANCH  64  78
BRANCH  65  89
ATOM     89  C   UNL A   1      42.773  38.094  28.271  1.00  0.00     0.064 A 
ATOM     90  C   UNL A   1      43.430  38.511  29.456  1.00  0.00     0.173 A 
ATOM     91  C   UNL A   1      41.990  39.052  27.610  1.00  0.00     0.173 A 
ATOM     92  F   UNL A   1      44.182  37.635  30.145  1.00  0.00    -0.203 F 
ATOM     93  C   UNL A   1      43.495  39.859  29.813  1.00  0.00     0.198 A 
ATOM     94  C   UNL A   1      42.038  40.400  27.993  1.00  0.00     0.198 A 
ATOM     95  F   UNL A   1      41.319  38.722  26.497  1.00  0.00    -0.203 F 
ATOM     96  F   UNL A   1      44.286  40.251  30.821  1.00  0.00    -0.200 F 
ATOM     97  C   UNL A   1      42.840  40.808  29.051  1.00  0.00     0.200 A 
ATOM     98  F   UNL A   1      41.384  41.324  27.276  1.00  0.00    -0.200 F 
ATOM     99  F   UNL A   1      43.020  42.113  29.306  1.00  0.00    -0.200 F 
ENDBRANCH  65  89
BRANCH  77 100
ATOM    100  C   UNL A   1      49.169  34.660  27.336  1.00  0.00     0.064 A 
ATOM    101  C   UNL A   1      50.077  34.696  26.265  1.00  0.00     0.173 A 
ATOM    102  C   UNL A   1      49.747  34.948  28.607  1.00  0.00     0.173 A 
ATOM    103  F   UNL A   1      49.674  34.605  24.992  1.00  0.00    -0.203 F 
ATOM    104  C   UNL A   1      51.447  34.884  26.456  1.00  0.00     0.198 A 
ATOM    105  C   UNL A   1      51.094  35.258  28.775  1.00  0.00     0.198 A 
ATOM    106  F   UNL A   1      49.025  34.979  29.736  1.00  0.00    -0.203 F 
ATOM    107  F   UNL A   1      52.274  34.801  25.406  1.00  0.00    -0.200 F 
ATOM    108  C   UNL A   1      51.954  35.180  27.706  1.00  0.00     0.200 A 
ATOM    109  F   UNL A   1      51.545  35.643  29.978  1.00  0.00    -0.200 F 
ATOM    110  F   UNL A   1      53.264  35.397  27.875  1.00  0.00    -0.200 F 
ENDBRANCH  77 100
ENDBRANCH  51  52
ENDBRANCH  44  46
ENDBRANCH  43  44
ENDBRANCH  42  43
ENDBRANCH  41  42
ENDBRANCH  40  41
ENDBRANCH  39  40
ENDBRANCH  38  39
ENDBRANCH   1  38
TORSDOF 22
ENDMDL
MODEL 3
REMARK VINA RESULT:      -9.4      4.475      9.636
REMARK SMILES Cc1cc(OCC(=O)OCCOCCOCCOC(=O)c2ccc(-c3c4nc(c(-c5c(F)c(F)c(F)c(F)c5F)c5ccc([nH]5)c(-c5c(F)c(F)c(F)c(F)c5F)c5nc(c(-c6c(F)c(F)c(F)c(F)c6F)c6ccc3[nH]6)C=C5)C=C4)cc2)ccc1NC(=O)c1ccc(N2C(=O)[C@@H]3[C@H](C2=O)[C@H]2C=C[C@@H]3C2)cc1
REMARK SMILES IDX 12 1 11 2 10 3 9 4 7 5 8 6 6 7 5 8 4 9 1 10 2 11 3 12 86 13
REMARK SMILES IDX 85 14 84 15 87 16 88 17 89 19 90 20 91 21 107 22 92 23
REMARK SMILES IDX 106 24 93 25 94 26 95 27 99 28 96 29 97 30 98 31 100 32
REMARK SMILES IDX 104 33 101 34 103 35 105 36 102 37 13 38 14 39 15 40 16 41
REMARK SMILES IDX 17 42 18 43 19 44 20 45 21 46 22 47 83 48 23 49 82 50 24 51
REMARK SMILES IDX 25 52 26 53 76 54 27 55 81 56 75 57 77 58 28 59 80 60 74 61
REMARK SMILES IDX 73 62 29 64 61 65 41 66 60 67 42 68 45 69 59 70 78 71 43 72
REMARK SMILES IDX 44 73 58 75 79 76 46 77 30 78 31 79 39 80 32 81 33 82 37 83
REMARK SMILES IDX 40 84 34 85 35 86 38 87 36 88 62 89 63 90 71 91 64 92 65 93
REMARK SMILES IDX 69 94 72 95 66 96 67 97 70 98 68 99 47 100 48 101 56 102
REMARK SMILES IDX 49 103 50 104 54 105 57 106 51 107 52 108 55 109 53 110
REMARK H PARENT 87 18 77 63 45 74
REMARK Flexibility Score: inf
ROOT
ATOM      1  O   UNL A   1      36.503  21.532  25.713  1.00  0.00    -0.376 OA
ENDROOT
BRANCH   1   2
ATOM      2  C   UNL A   1      36.495  20.226  25.093  1.00  0.00     0.202 C 
BRANCH   2   3
ATOM      3  C   UNL A   1      34.959  19.465  24.624  1.00  0.00     0.261 C 
BRANCH   3   4
ATOM      4  O   UNL A   1      33.297  20.003  25.022  1.00  0.00    -0.461 OA
BRANCH   4   5
ATOM      5  C   UNL A   1      32.427  21.109  25.626  1.00  0.00     0.344 C 
ATOM      6  O   UNL A   1      31.195  21.219  25.746  1.00  0.00    -0.248 OA
BRANCH   5   7
ATOM      7  C   UNL A   1      33.118  22.196  26.329  1.00  0.00     0.351 C 
BRANCH   7   8
ATOM      8  O   UNL A   1      33.255  23.139  25.326  1.00  0.00    -0.482 OA
BRANCH   8   9
ATOM      9  C   UNL A   1      32.008  23.760  25.027  1.00  0.00     0.120 A 
ATOM     10  C   UNL A   1      32.580  26.570  21.949  1.00  0.00     0.047 C 
ATOM     11  C   UNL A   1      31.586  25.828  22.844  1.00  0.00    -0.024 A 
ATOM     12  C   UNL A   1      32.365  24.344  23.378  1.00  0.00     0.052 A 
ATOM     13  C   UNL A   1      30.351  26.718  23.798  1.00  0.00     0.044 A 
ATOM     14  C   UNL A   1      29.862  26.225  25.391  1.00  0.00     0.030 A 
ATOM     15  C   UNL A   1      30.662  24.814  26.121  1.00  0.00     0.048 A 
BRANCH  13  16
ATOM     16  N   UNL A   1      29.979  28.020  23.375  1.00  0.00    -0.322 N 
ATOM     17  C   UNL A   1      30.452  29.292  23.717  1.00  0.00     0.255 C 
ATOM     18  H   UNL A   1      29.248  28.031  22.715  1.00  0.00     0.170 HD
ATOM     19  O   UNL A   1      29.982  30.272  23.135  1.00  0.00    -0.269 OA
BRANCH  17  20
ATOM     20  C   UNL A   1      31.527  29.572  24.726  1.00  0.00     0.040 A 
ATOM     21  C   UNL A   1      32.827  29.108  24.533  1.00  0.00     0.016 A 
ATOM     22  C   UNL A   1      31.259  30.183  25.952  1.00  0.00     0.016 A 
ATOM     23  C   UNL A   1      33.872  29.444  25.441  1.00  0.00     0.027 A 
ATOM     24  C   UNL A   1      32.306  30.493  26.868  1.00  0.00     0.027 A 
ATOM     25  C   UNL A   1      33.663  30.230  26.590  1.00  0.00     0.052 A 
BRANCH  25  26
ATOM     26  N   UNL A   1      34.761  30.744  27.412  1.00  0.00    -0.250 N 
ATOM     27  C   UNL A   1      34.784  31.995  28.012  1.00  0.00     0.238 C 
ATOM     28  C   UNL A   1      35.872  30.010  27.800  1.00  0.00     0.238 C 
ATOM     29  O   UNL A   1      33.917  32.858  28.018  1.00  0.00    -0.274 OA
ATOM     30  C   UNL A   1      36.099  32.218  28.728  1.00  0.00     0.099 C 
ATOM     31  C   UNL A   1      36.840  30.889  28.560  1.00  0.00     0.099 C 
ATOM     32  O   UNL A   1      36.103  28.822  27.628  1.00  0.00    -0.274 OA
ATOM     33  C   UNL A   1      36.047  32.412  30.268  1.00  0.00     0.025 C 
ATOM     34  C   UNL A   1      37.133  30.468  30.018  1.00  0.00     0.025 C 
ATOM     35  C   UNL A   1      37.467  32.628  30.754  1.00  0.00    -0.027 C 
ATOM     36  C   UNL A   1      35.899  30.979  30.774  1.00  0.00     0.017 C 
ATOM     37  C   UNL A   1      38.124  31.466  30.592  1.00  0.00    -0.027 C 
ENDBRANCH  25  26
ENDBRANCH  17  20
ENDBRANCH  13  16
ENDBRANCH   8   9
ENDBRANCH   7   8
ENDBRANCH   5   7
ENDBRANCH   4   5
ENDBRANCH   3   4
ENDBRANCH   2   3
ENDBRANCH   1   2
BRANCH   1  38
ATOM     38  C   UNL A   1      37.697  22.339  25.746  1.00  0.00     0.188 C 
BRANCH  38  39
ATOM     39  C   UNL A   1      39.021  21.599  25.759  1.00  0.00     0.188 C 
BRANCH  39  40
ATOM     40  O   UNL A   1      39.830  21.862  26.882  1.00  0.00    -0.376 OA
BRANCH  40  41
ATOM     41  C   UNL A   1      40.732  20.791  27.219  1.00  0.00     0.202 C 
BRANCH  41  42
ATOM     42  C   UNL A   1      41.752  20.328  26.115  1.00  0.00     0.261 C 
BRANCH  42  43
ATOM     43  O   UNL A   1      42.323  21.436  25.331  1.00  0.00    -0.460 OA
BRANCH  43  44
ATOM     44  C   UNL A   1      43.548  22.016  25.653  1.00  0.00     0.338 C 
ATOM     45  O   UNL A   1      44.552  21.438  25.291  1.00  0.00    -0.246 OA
BRANCH  44  46
ATOM     46  C   UNL A   1      43.312  23.373  26.641  1.00  0.00     0.060 A 
ATOM     47  C   UNL A   1      43.101  25.396  26.741  1.00  0.00     0.016 A 
ATOM     48  C   UNL A   1      43.935  22.580  28.043  1.00  0.00     0.016 A 
ATOM     49  C   UNL A   1      43.702  26.216  28.311  1.00  0.00     0.010 A 
ATOM     50  C   UNL A   1      44.549  23.498  29.275  1.00  0.00     0.010 A 
ATOM     51  C   UNL A   1      44.472  25.232  29.603  1.00  0.00    -0.014 A 
BRANCH  51  52
ATOM     52  C   UNL A   1      45.215  25.575  31.171  1.00  0.00     0.031 A 
ATOM     53  C   UNL A   1      44.987  24.800  32.806  1.00  0.00     0.074 A 
ATOM     54  C   UNL A   1      46.421  26.194  31.047  1.00  0.00     0.049 A 
ATOM     55  N   UNL A   1      45.277  25.301  33.993  1.00  0.00    -0.248 NA
ATOM     56  C   UNL A   1      44.331  23.397  33.236  1.00  0.00     0.031 C 
ATOM     57  C   UNL A   1      47.617  25.975  31.883  1.00  0.00     0.029 A 
ATOM     58  N   UNL A   1      46.926  27.019  30.020  1.00  0.00    -0.354 N 
ATOM     59  C   UNL A   1      45.039  24.220  34.915  1.00  0.00     0.074 A 
ATOM     60  C   UNL A   1      43.900  23.547  34.474  1.00  0.00     0.031 C 
ATOM     61  C   UNL A   1      48.612  26.799  31.499  1.00  0.00     0.029 A 
ATOM     62  C   UNL A   1      48.011  27.745  30.586  1.00  0.00     0.049 A 
ATOM     63  H   UNL A   1      46.593  27.080  29.095  1.00  0.00     0.167 HD
ATOM     64  C   UNL A   1      46.059  23.544  35.558  1.00  0.00     0.037 A 
ATOM     65  C   UNL A   1      47.860  29.076  30.870  1.00  0.00     0.037 A 
ATOM     66  C   UNL A   1      47.218  24.392  35.527  1.00  0.00     0.049 A 
ATOM     67  C   UNL A   1      47.826  29.307  32.376  1.00  0.00     0.074 A 
ATOM     68  C   UNL A   1      48.511  24.342  35.060  1.00  0.00     0.029 A 
ATOM     69  N   UNL A   1      46.953  25.711  35.808  1.00  0.00    -0.354 N 
ATOM     70  N   UNL A   1      47.555  28.355  33.236  1.00  0.00    -0.248 NA
ATOM     71  C   UNL A   1      48.217  30.540  33.053  1.00  0.00     0.031 C 
ATOM     72  C   UNL A   1      48.962  25.708  34.964  1.00  0.00     0.029 A 
ATOM     73  C   UNL A   1      47.945  26.548  35.404  1.00  0.00     0.049 A 
ATOM     74  H   UNL A   1      46.131  26.018  36.255  1.00  0.00     0.167 HD
ATOM     75  C   UNL A   1      47.787  28.780  34.508  1.00  0.00     0.074 A 
ATOM     76  C   UNL A   1      48.161  30.168  34.348  1.00  0.00     0.031 C 
ATOM     77  C   UNL A   1      47.691  27.968  35.602  1.00  0.00     0.037 A 
BRANCH  64  78
ATOM     78  C   UNL A   1      46.053  22.073  36.086  1.00  0.00     0.064 A 
ATOM     79  C   UNL A   1      46.103  21.862  37.480  1.00  0.00     0.173 A 
ATOM     80  C   UNL A   1      46.054  20.851  35.345  1.00  0.00     0.173 A 
ATOM     81  F   UNL A   1      46.166  22.902  38.321  1.00  0.00    -0.203 F 
ATOM     82  C   UNL A   1      46.101  20.583  38.071  1.00  0.00     0.198 A 
ATOM     83  C   UNL A   1      45.993  19.575  35.937  1.00  0.00     0.198 A 
ATOM     84  F   UNL A   1      46.190  20.802  34.015  1.00  0.00    -0.203 F 
ATOM     85  F   UNL A   1      46.187  20.468  39.404  1.00  0.00    -0.200 F 
ATOM     86  C   UNL A   1      46.017  19.440  37.304  1.00  0.00     0.200 A 
ATOM     87  F   UNL A   1      45.944  18.479  35.163  1.00  0.00    -0.200 F 
ATOM     88  F   UNL A   1      45.990  18.225  37.870  1.00  0.00    -0.200 F 
ENDBRANCH  64  78
BRANCH  65  89
ATOM     89  C   UNL A   1      47.100  29.738  29.759  1.00  0.00     0.064 A 
ATOM     90  C   UNL A   1      47.719  29.672  28.485  1.00  0.00     0.173 A 
ATOM     91  C   UNL A   1      45.697  29.781  29.781  1.00  0.00     0.173 A 
ATOM     92  F   UNL A   1      49.059  29.645  28.396  1.00  0.00    -0.203 F 
ATOM     93  C   UNL A   1      46.977  29.418  27.331  1.00  0.00     0.198 A 
ATOM     94  C   UNL A   1      44.959  29.554  28.611  1.00  0.00     0.198 A 
ATOM     95  F   UNL A   1      45.045  29.869  30.948  1.00  0.00    -0.203 F 
ATOM     96  F   UNL A   1      47.600  29.161  26.173  1.00  0.00    -0.200 F 
ATOM     97  C   UNL A   1      45.600  29.309  27.405  1.00  0.00     0.200 A 
ATOM     98  F   UNL A   1      43.622  29.472  28.668  1.00  0.00    -0.200 F 
ATOM     99  F   UNL A   1      44.900  28.922  26.326  1.00  0.00    -0.200 F 
ENDBRANCH  65  89
BRANCH  77 100
ATOM    100  C   UNL A   1      47.181  28.444  36.963  1.00  0.00     0.064 A 
ATOM    101  C   UNL A   1      45.922  29.036  37.151  1.00  0.00     0.173 A 
ATOM    102  C   UNL A   1      47.866  28.122  38.170  1.00  0.00     0.173 A 
ATOM    103  F   UNL A   1      45.083  29.256  36.132  1.00  0.00    -0.203 F 
ATOM    104  C   UNL A   1      45.442  29.380  38.417  1.00  0.00     0.198 A 
ATOM    105  C   UNL A   1      47.328  28.355  39.433  1.00  0.00     0.198 A 
ATOM    106  F   UNL A   1      49.071  27.532  38.179  1.00  0.00    -0.203 F 
ATOM    107  F   UNL A   1      44.282  30.040  38.522  1.00  0.00    -0.200 F 
ATOM    108  C   UNL A   1      46.136  29.027  39.557  1.00  0.00     0.200 A 
ATOM    109  F   UNL A   1      47.970  27.910  40.524  1.00  0.00    -0.200 F 
ATOM    110  F   UNL A   1      45.652  29.326  40.769  1.00  0.00    -0.200 F 
ENDBRANCH  77 100
ENDBRANCH  51  52
ENDBRANCH  44  46
ENDBRANCH  43  44
ENDBRANCH  42  43
ENDBRANCH  41  42
ENDBRANCH  40  41
ENDBRANCH  39  40
ENDBRANCH  38  39
ENDBRANCH   1  38
TORSDOF 22
ENDMDL
