MODEL 1
REMARK VINA RESULT:     -12.4      0.000      0.000
REMARK SMILES O=C(OCCOCCOCCOC(=O)c1ccc(-c2c3nc(c(-c4c(F)c(F)c(F)c(F)c4F)c4ccc([nH]4)c(-c4c(F)c(F)c(F)c(F)c4F)c4nc(c(-c5c(F)c(F)c(F)c(F)c5F)c5ccc2[nH]5)C=C4)C=C3)cc1)C1=Cc2cc(Cl)cc(Cl)c2O[C@@H]1C(F)(F)F
REMARK SMILES IDX 8 1 7 2 6 3 5 4 4 5 3 6 2 7 1 8 78 9 79 10 89 11 80 12 88 13
REMARK SMILES IDX 81 14 87 15 82 16 85 17 83 18 84 19 86 20 90 21 91 22 92 23
REMARK SMILES IDX 93 24 9 25 10 26 11 27 12 28 13 29 14 30 15 31 16 32 77 33
REMARK SMILES IDX 17 34 76 35 18 36 19 37 20 38 70 39 21 40 75 41 69 42 71 43
REMARK SMILES IDX 22 44 74 45 68 46 67 47 23 49 55 50 35 51 54 52 36 53 39 54
REMARK SMILES IDX 53 55 72 56 37 57 38 58 52 60 73 61 40 62 24 63 25 64 33 65
REMARK SMILES IDX 26 66 27 67 31 68 34 69 28 70 29 71 32 72 30 73 56 74 57 75
REMARK SMILES IDX 65 76 58 77 59 78 63 79 66 80 60 81 61 82 64 83 62 84 41 85
REMARK SMILES IDX 42 86 50 87 43 88 44 89 48 90 51 91 45 92 46 93 49 94 47 95
REMARK H PARENT 71 48 39 59
REMARK Flexibility Score: inf
ROOT
ATOM      1  C   UNL A   1      34.393  18.886  24.902  1.00  0.00     0.188 C 
ENDROOT
BRANCH   1   2
ATOM      2  C   UNL A   1      33.046  19.242  24.250  1.00  0.00     0.188 C 
BRANCH   2   3
ATOM      3  O   UNL A   1      32.699  20.546  23.644  1.00  0.00    -0.376 OA
BRANCH   3   4
ATOM      4  C   UNL A   1      33.177  22.114  24.099  1.00  0.00     0.202 C 
BRANCH   4   5
ATOM      5  C   UNL A   1      32.807  23.956  23.003  1.00  0.00     0.261 C 
BRANCH   5   6
ATOM      6  O   UNL A   1      33.657  25.238  23.070  1.00  0.00    -0.460 OA
BRANCH   6   7
ATOM      7  C   UNL A   1      32.914  26.353  23.012  1.00  0.00     0.338 C 
ATOM      8  O   UNL A   1      32.948  27.255  22.215  1.00  0.00    -0.246 OA
BRANCH   7   9
ATOM      9  C   UNL A   1      32.480  26.306  24.391  1.00  0.00     0.087 C 
ATOM     10  C   UNL A   1      33.505  26.722  25.355  1.00  0.00     0.027 C 
ATOM     11  C   UNL A   1      30.818  27.228  24.069  1.00  0.00     0.316 C 
ATOM     12  C   UNL A   1      33.479  28.303  26.219  1.00  0.00     0.020 A 
ATOM     13  O   UNL A   1      30.840  28.998  24.883  1.00  0.00    -0.474 OA
ATOM     14  C   UNL A   1      34.550  28.651  26.997  1.00  0.00     0.032 A 
ATOM     15  C   UNL A   1      32.235  29.480  25.959  1.00  0.00     0.146 A 
ATOM     16  C   UNL A   1      34.500  29.947  27.539  1.00  0.00     0.043 A 
ATOM     17  C   UNL A   1      32.286  30.727  26.523  1.00  0.00     0.085 A 
ATOM     18  Cl  UNL A   1      35.849  30.432  28.518  1.00  0.00    -0.084 Cl
ATOM     19  C   UNL A   1      33.437  30.920  27.326  1.00  0.00     0.045 A 
ATOM     20  Cl  UNL A   1      31.173  31.982  26.269  1.00  0.00    -0.080 Cl
BRANCH  11  21
ATOM     21  C   UNL A   1      29.904  25.880  24.325  1.00  0.00     0.430 C 
ATOM     22  F   UNL A   1      30.091  25.114  25.396  1.00  0.00    -0.167 F 
ATOM     23  F   UNL A   1      28.608  26.299  24.435  1.00  0.00    -0.167 F 
ATOM     24  F   UNL A   1      29.889  25.035  23.255  1.00  0.00    -0.167 F 
ENDBRANCH  11  21
ENDBRANCH   7   9
ENDBRANCH   6   7
ENDBRANCH   5   6
ENDBRANCH   4   5
ENDBRANCH   3   4
ENDBRANCH   2   3
ENDBRANCH   1   2
BRANCH   1  25
ATOM     25  O   UNL A   1      35.588  19.364  24.350  1.00  0.00    -0.376 OA
BRANCH  25  26
ATOM     26  C   UNL A   1      36.266  20.362  25.097  1.00  0.00     0.202 C 
BRANCH  26  27
ATOM     27  C   UNL A   1      37.800  20.340  25.081  1.00  0.00     0.261 C 
BRANCH  27  28
ATOM     28  O   UNL A   1      38.395  21.563  25.567  1.00  0.00    -0.460 OA
BRANCH  28  29
ATOM     29  C   UNL A   1      39.533  21.443  26.293  1.00  0.00     0.338 C 
ATOM     30  O   UNL A   1      40.282  20.483  26.345  1.00  0.00    -0.246 OA
BRANCH  29  31
ATOM     31  C   UNL A   1      39.845  22.730  26.944  1.00  0.00     0.060 A 
ATOM     32  C   UNL A   1      39.172  23.887  26.523  1.00  0.00     0.016 A 
ATOM     33  C   UNL A   1      40.854  22.807  27.903  1.00  0.00     0.016 A 
ATOM     34  C   UNL A   1      39.507  25.128  27.064  1.00  0.00     0.010 A 
ATOM     35  C   UNL A   1      41.221  24.056  28.412  1.00  0.00     0.010 A 
ATOM     36  C   UNL A   1      40.571  25.223  27.970  1.00  0.00    -0.014 A 
BRANCH  36  37
ATOM     37  C   UNL A   1      41.183  26.548  28.226  1.00  0.00     0.031 A 
ATOM     38  C   UNL A   1      42.600  26.757  27.766  1.00  0.00     0.074 A 
ATOM     39  C   UNL A   1      40.508  27.542  28.828  1.00  0.00     0.049 A 
ATOM     40  N   UNL A   1      43.369  27.808  27.870  1.00  0.00    -0.248 NA
ATOM     41  C   UNL A   1      43.236  25.610  27.096  1.00  0.00     0.031 C 
ATOM     42  C   UNL A   1      39.121  27.472  29.279  1.00  0.00     0.029 A 
ATOM     43  N   UNL A   1      40.913  28.809  29.167  1.00  0.00    -0.354 N 
ATOM     44  C   UNL A   1      44.574  27.450  27.279  1.00  0.00     0.074 A 
ATOM     45  C   UNL A   1      44.451  26.074  26.856  1.00  0.00     0.031 C 
ATOM     46  C   UNL A   1      38.789  28.647  29.844  1.00  0.00     0.029 A 
ATOM     47  C   UNL A   1      39.949  29.539  29.817  1.00  0.00     0.049 A 
ATOM     48  H   UNL A   1      41.809  29.161  28.963  1.00  0.00     0.167 HD
ATOM     49  C   UNL A   1      45.682  28.206  27.096  1.00  0.00     0.037 A 
ATOM     50  C   UNL A   1      40.012  30.780  30.341  1.00  0.00     0.037 A 
ATOM     51  C   UNL A   1      45.808  29.566  27.548  1.00  0.00     0.049 A 
ATOM     52  C   UNL A   1      41.293  31.569  30.210  1.00  0.00     0.074 A 
ATOM     53  C   UNL A   1      46.882  30.425  27.411  1.00  0.00     0.029 A 
ATOM     54  N   UNL A   1      44.827  30.257  28.246  1.00  0.00    -0.354 N 
ATOM     55  N   UNL A   1      42.415  31.245  29.612  1.00  0.00    -0.248 NA
ATOM     56  C   UNL A   1      41.312  32.905  30.823  1.00  0.00     0.031 C 
ATOM     57  C   UNL A   1      46.581  31.609  28.092  1.00  0.00     0.029 A 
ATOM     58  C   UNL A   1      45.286  31.521  28.579  1.00  0.00     0.049 A 
ATOM     59  H   UNL A   1      43.937  29.902  28.471  1.00  0.00     0.167 HD
ATOM     60  C   UNL A   1      43.253  32.348  29.737  1.00  0.00     0.074 A 
ATOM     61  C   UNL A   1      42.504  33.355  30.459  1.00  0.00     0.031 C 
ATOM     62  C   UNL A   1      44.524  32.516  29.291  1.00  0.00     0.037 A 
BRANCH  49  63
ATOM     63  C   UNL A   1      46.857  27.553  26.425  1.00  0.00     0.064 A 
ATOM     64  C   UNL A   1      47.811  26.816  27.147  1.00  0.00     0.173 A 
ATOM     65  C   UNL A   1      47.034  27.667  25.038  1.00  0.00     0.173 A 
ATOM     66  F   UNL A   1      47.699  26.689  28.478  1.00  0.00    -0.203 F 
ATOM     67  C   UNL A   1      48.916  26.257  26.511  1.00  0.00     0.198 A 
ATOM     68  C   UNL A   1      48.120  27.074  24.400  1.00  0.00     0.198 A 
ATOM     69  F   UNL A   1      46.154  28.358  24.297  1.00  0.00    -0.203 F 
ATOM     70  F   UNL A   1      49.849  25.619  27.232  1.00  0.00    -0.200 F 
ATOM     71  C   UNL A   1      49.067  26.380  25.138  1.00  0.00     0.200 A 
ATOM     72  F   UNL A   1      48.255  27.182  23.072  1.00  0.00    -0.200 F 
ATOM     73  F   UNL A   1      50.131  25.840  24.528  1.00  0.00    -0.200 F 
ENDBRANCH  49  63
BRANCH  50  74
ATOM     74  C   UNL A   1      38.830  31.366  31.033  1.00  0.00     0.064 A 
ATOM     75  C   UNL A   1      37.966  32.247  30.366  1.00  0.00     0.173 A 
ATOM     76  C   UNL A   1      38.562  31.091  32.382  1.00  0.00     0.173 A 
ATOM     77  F   UNL A   1      38.194  32.568  29.084  1.00  0.00    -0.203 F 
ATOM     78  C   UNL A   1      36.897  32.850  31.028  1.00  0.00     0.198 A 
ATOM     79  C   UNL A   1      37.473  31.669  33.034  1.00  0.00     0.198 A 
ATOM     80  F   UNL A   1      39.360  30.263  33.071  1.00  0.00    -0.203 F 
ATOM     81  F   UNL A   1      36.127  33.737  30.383  1.00  0.00    -0.200 F 
ATOM     82  C   UNL A   1      36.648  32.556  32.360  1.00  0.00     0.200 A 
ATOM     83  F   UNL A   1      37.231  31.374  34.318  1.00  0.00    -0.200 F 
ATOM     84  F   UNL A   1      35.623  33.139  32.997  1.00  0.00    -0.200 F 
ENDBRANCH  50  74
BRANCH  62  85
ATOM     85  C   UNL A   1      45.168  33.858  29.518  1.00  0.00     0.064 A 
ATOM     86  C   UNL A   1      45.938  34.133  30.657  1.00  0.00     0.173 A 
ATOM     87  C   UNL A   1      45.038  34.874  28.556  1.00  0.00     0.173 A 
ATOM     88  F   UNL A   1      46.090  33.203  31.612  1.00  0.00    -0.203 F 
ATOM     89  C   UNL A   1      46.518  35.386  30.844  1.00  0.00     0.198 A 
ATOM     90  C   UNL A   1      45.655  36.110  28.726  1.00  0.00     0.198 A 
ATOM     91  F   UNL A   1      44.325  34.662  27.439  1.00  0.00    -0.203 F 
ATOM     92  F   UNL A   1      47.194  35.647  31.972  1.00  0.00    -0.200 F 
ATOM     93  C   UNL A   1      46.383  36.369  29.876  1.00  0.00     0.200 A 
ATOM     94  F   UNL A   1      45.542  37.049  27.777  1.00  0.00    -0.200 F 
ATOM     95  F   UNL A   1      46.948  37.571  30.055  1.00  0.00    -0.200 F 
ENDBRANCH  62  85
ENDBRANCH  36  37
ENDBRANCH  29  31
ENDBRANCH  28  29
ENDBRANCH  27  28
ENDBRANCH  26  27
ENDBRANCH  25  26
ENDBRANCH   1  25
TORSDOF 18
ENDMDL
MODEL 2
REMARK VINA RESULT:     -12.3      1.447      7.485
REMARK SMILES O=C(OCCOCCOCCOC(=O)c1ccc(-c2c3nc(c(-c4c(F)c(F)c(F)c(F)c4F)c4ccc([nH]4)c(-c4c(F)c(F)c(F)c(F)c4F)c4nc(c(-c5c(F)c(F)c(F)c(F)c5F)c5ccc2[nH]5)C=C4)C=C3)cc1)C1=Cc2cc(Cl)cc(Cl)c2O[C@@H]1C(F)(F)F
REMARK SMILES IDX 8 1 7 2 6 3 5 4 4 5 3 6 2 7 1 8 78 9 79 10 89 11 80 12 88 13
REMARK SMILES IDX 81 14 87 15 82 16 85 17 83 18 84 19 86 20 90 21 91 22 92 23
REMARK SMILES IDX 93 24 9 25 10 26 11 27 12 28 13 29 14 30 15 31 16 32 77 33
REMARK SMILES IDX 17 34 76 35 18 36 19 37 20 38 70 39 21 40 75 41 69 42 71 43
REMARK SMILES IDX 22 44 74 45 68 46 67 47 23 49 55 50 35 51 54 52 36 53 39 54
REMARK SMILES IDX 53 55 72 56 37 57 38 58 52 60 73 61 40 62 24 63 25 64 33 65
REMARK SMILES IDX 26 66 27 67 31 68 34 69 28 70 29 71 32 72 30 73 56 74 57 75
REMARK SMILES IDX 65 76 58 77 59 78 63 79 66 80 60 81 61 82 64 83 62 84 41 85
REMARK SMILES IDX 42 86 50 87 43 88 44 89 48 90 51 91 45 92 46 93 49 94 47 95
REMARK H PARENT 71 48 39 59
REMARK Flexibility Score: inf
ROOT
ATOM      1  C   UNL A   1      35.690  21.433  24.617  1.00  0.00     0.188 C 
ENDROOT
BRANCH   1   2
ATOM      2  C   UNL A   1      34.178  21.403  24.895  1.00  0.00     0.188 C 
BRANCH   2   3
ATOM      3  O   UNL A   1      33.289  22.583  24.961  1.00  0.00    -0.376 OA
BRANCH   3   4
ATOM      4  C   UNL A   1      31.589  22.659  24.988  1.00  0.00     0.202 C 
BRANCH   4   5
ATOM      5  C   UNL A   1      30.326  23.955  23.782  1.00  0.00     0.261 C 
BRANCH   5   6
ATOM      6  O   UNL A   1      30.180  25.480  23.937  1.00  0.00    -0.460 OA
BRANCH   6   7
ATOM      7  C   UNL A   1      30.803  25.950  25.026  1.00  0.00     0.338 C 
ATOM      8  O   UNL A   1      30.490  25.860  26.186  1.00  0.00    -0.246 OA
BRANCH   7   9
ATOM      9  C   UNL A   1      31.607  26.924  24.321  1.00  0.00     0.087 C 
ATOM     10  C   UNL A   1      31.212  28.316  24.568  1.00  0.00     0.027 C 
ATOM     11  C   UNL A   1      33.293  26.141  24.826  1.00  0.00     0.316 C 
ATOM     12  C   UNL A   1      32.152  29.450  25.606  1.00  0.00     0.020 A 
ATOM     13  O   UNL A   1      34.252  27.302  26.063  1.00  0.00    -0.474 OA
ATOM     14  C   UNL A   1      31.630  30.685  25.881  1.00  0.00     0.032 A 
ATOM     15  C   UNL A   1      33.604  28.973  26.420  1.00  0.00     0.146 A 
ATOM     16  C   UNL A   1      32.371  31.459  26.790  1.00  0.00     0.043 A 
ATOM     17  C   UNL A   1      34.246  29.798  27.304  1.00  0.00     0.085 A 
ATOM     18  Cl  UNL A   1      31.732  33.027  27.178  1.00  0.00    -0.084 Cl
ATOM     19  C   UNL A   1      33.602  31.051  27.453  1.00  0.00     0.045 A 
ATOM     20  Cl  UNL A   1      35.620  29.404  28.218  1.00  0.00    -0.080 Cl
BRANCH  11  21
ATOM     21  C   UNL A   1      33.616  25.606  23.301  1.00  0.00     0.430 C 
ATOM     22  F   UNL A   1      32.676  25.028  22.560  1.00  0.00    -0.167 F 
ATOM     23  F   UNL A   1      33.993  26.699  22.572  1.00  0.00    -0.167 F 
ATOM     24  F   UNL A   1      34.700  24.780  23.244  1.00  0.00    -0.167 F 
ENDBRANCH  11  21
ENDBRANCH   7   9
ENDBRANCH   6   7
ENDBRANCH   5   6
ENDBRANCH   4   5
ENDBRANCH   3   4
ENDBRANCH   2   3
ENDBRANCH   1   2
BRANCH   1  25
ATOM     25  O   UNL A   1      36.566  20.690  25.418  1.00  0.00    -0.376 OA
BRANCH  25  26
ATOM     26  C   UNL A   1      37.519  19.896  24.731  1.00  0.00     0.202 C 
BRANCH  26  27
ATOM     27  C   UNL A   1      38.826  19.564  25.464  1.00  0.00     0.261 C 
BRANCH  27  28
ATOM     28  O   UNL A   1      39.625  20.730  25.764  1.00  0.00    -0.460 OA
BRANCH  28  29
ATOM     29  C   UNL A   1      40.347  20.697  26.910  1.00  0.00     0.338 C 
ATOM     30  O   UNL A   1      40.788  19.715  27.483  1.00  0.00    -0.246 OA
BRANCH  29  31
ATOM     31  C   UNL A   1      40.668  22.073  27.335  1.00  0.00     0.060 A 
ATOM     32  C   UNL A   1      40.114  23.151  26.627  1.00  0.00     0.016 A 
ATOM     33  C   UNL A   1      41.573  22.298  28.372  1.00  0.00     0.016 A 
ATOM     34  C   UNL A   1      40.466  24.460  26.956  1.00  0.00     0.010 A 
ATOM     35  C   UNL A   1      41.961  23.606  28.671  1.00  0.00     0.010 A 
ATOM     36  C   UNL A   1      41.433  24.689  27.943  1.00  0.00    -0.014 A 
BRANCH  36  37
ATOM     37  C   UNL A   1      42.095  26.013  28.010  1.00  0.00     0.031 A 
ATOM     38  C   UNL A   1      41.362  27.119  28.716  1.00  0.00     0.074 A 
ATOM     39  C   UNL A   1      43.311  26.229  27.479  1.00  0.00     0.049 A 
ATOM     40  N   UNL A   1      41.708  28.365  28.910  1.00  0.00    -0.248 NA
ATOM     41  C   UNL A   1      40.049  26.765  29.281  1.00  0.00     0.031 C 
ATOM     42  C   UNL A   1      44.134  25.227  26.809  1.00  0.00     0.029 A 
ATOM     43  N   UNL A   1      44.060  27.378  27.423  1.00  0.00    -0.354 N 
ATOM     44  C   UNL A   1      40.660  28.939  29.618  1.00  0.00     0.074 A 
ATOM     45  C   UNL A   1      39.647  27.922  29.783  1.00  0.00     0.031 C 
ATOM     46  C   UNL A   1      45.277  25.807  26.400  1.00  0.00     0.029 A 
ATOM     47  C   UNL A   1      45.251  27.226  26.757  1.00  0.00     0.049 A 
ATOM     48  H   UNL A   1      43.771  28.230  27.821  1.00  0.00     0.167 HD
ATOM     49  C   UNL A   1      40.555  30.201  30.095  1.00  0.00     0.037 A 
ATOM     50  C   UNL A   1      46.199  28.139  26.461  1.00  0.00     0.037 A 
ATOM     51  C   UNL A   1      41.554  31.218  29.899  1.00  0.00     0.049 A 
ATOM     52  C   UNL A   1      46.013  29.566  26.921  1.00  0.00     0.074 A 
ATOM     53  C   UNL A   1      41.553  32.527  30.344  1.00  0.00     0.029 A 
ATOM     54  N   UNL A   1      42.726  31.040  29.178  1.00  0.00    -0.354 N 
ATOM     55  N   UNL A   1      45.043  30.096  27.628  1.00  0.00    -0.248 NA
ATOM     56  C   UNL A   1      47.065  30.523  26.547  1.00  0.00     0.031 C 
ATOM     57  C   UNL A   1      42.686  33.162  29.828  1.00  0.00     0.029 A 
ATOM     58  C   UNL A   1      43.439  32.227  29.135  1.00  0.00     0.049 A 
ATOM     59  H   UNL A   1      43.010  30.196  28.760  1.00  0.00     0.167 HD
ATOM     60  C   UNL A   1      45.387  31.429  27.821  1.00  0.00     0.074 A 
ATOM     61  C   UNL A   1      46.663  31.624  27.165  1.00  0.00     0.031 C 
ATOM     62  C   UNL A   1      44.714  32.403  28.484  1.00  0.00     0.037 A 
BRANCH  49  63
ATOM     63  C   UNL A   1      39.293  30.557  30.828  1.00  0.00     0.064 A 
ATOM     64  C   UNL A   1      38.195  31.142  30.176  1.00  0.00     0.173 A 
ATOM     65  C   UNL A   1      39.179  30.311  32.204  1.00  0.00     0.173 A 
ATOM     66  F   UNL A   1      38.255  31.414  28.863  1.00  0.00    -0.203 F 
ATOM     67  C   UNL A   1      37.051  31.505  30.882  1.00  0.00     0.198 A 
ATOM     68  C   UNL A   1      38.018  30.640  32.900  1.00  0.00     0.198 A 
ATOM     69  F   UNL A   1      40.195  29.753  32.879  1.00  0.00    -0.203 F 
ATOM     70  F   UNL A   1      36.044  32.126  30.250  1.00  0.00    -0.200 F 
ATOM     71  C   UNL A   1      36.960  31.248  32.242  1.00  0.00     0.200 A 
ATOM     72  F   UNL A   1      37.928  30.376  34.210  1.00  0.00    -0.200 F 
ATOM     73  F   UNL A   1      35.858  31.596  32.920  1.00  0.00    -0.200 F 
ENDBRANCH  49  63
BRANCH  50  74
ATOM     74  C   UNL A   1      47.414  27.743  25.697  1.00  0.00     0.064 A 
ATOM     75  C   UNL A   1      48.596  27.377  26.358  1.00  0.00     0.173 A 
ATOM     76  C   UNL A   1      47.433  27.759  24.294  1.00  0.00     0.173 A 
ATOM     77  F   UNL A   1      48.641  27.374  27.698  1.00  0.00    -0.203 F 
ATOM     78  C   UNL A   1      49.755  27.070  25.647  1.00  0.00     0.198 A 
ATOM     79  C   UNL A   1      48.584  27.419  23.584  1.00  0.00     0.198 A 
ATOM     80  F   UNL A   1      46.334  28.109  23.610  1.00  0.00    -0.203 F 
ATOM     81  F   UNL A   1      50.887  26.787  26.307  1.00  0.00    -0.200 F 
ATOM     82  C   UNL A   1      49.747  27.086  24.260  1.00  0.00     0.200 A 
ATOM     83  F   UNL A   1      48.568  27.426  22.244  1.00  0.00    -0.200 F 
ATOM     84  F   UNL A   1      50.863  26.794  23.578  1.00  0.00    -0.200 F 
ENDBRANCH  50  74
BRANCH  62  85
ATOM     85  C   UNL A   1      45.368  33.755  28.587  1.00  0.00     0.064 A 
ATOM     86  C   UNL A   1      46.252  34.079  29.626  1.00  0.00     0.173 A 
ATOM     87  C   UNL A   1      45.130  34.730  27.605  1.00  0.00     0.173 A 
ATOM     88  F   UNL A   1      46.511  33.189  30.597  1.00  0.00    -0.203 F 
ATOM     89  C   UNL A   1      46.839  35.340  29.701  1.00  0.00     0.198 A 
ATOM     90  C   UNL A   1      45.751  35.974  27.659  1.00  0.00     0.198 A 
ATOM     91  F   UNL A   1      44.304  34.471  26.579  1.00  0.00    -0.203 F 
ATOM     92  F   UNL A   1      47.628  35.650  30.740  1.00  0.00    -0.200 F 
ATOM     93  C   UNL A   1      46.594  36.283  28.714  1.00  0.00     0.200 A 
ATOM     94  F   UNL A   1      45.531  36.874  26.691  1.00  0.00    -0.200 F 
ATOM     95  F   UNL A   1      47.165  37.494  28.784  1.00  0.00    -0.200 F 
ENDBRANCH  62  85
ENDBRANCH  36  37
ENDBRANCH  29  31
ENDBRANCH  28  29
ENDBRANCH  27  28
ENDBRANCH  26  27
ENDBRANCH  25  26
ENDBRANCH   1  25
TORSDOF 18
ENDMDL
MODEL 3
REMARK VINA RESULT:     -11.9      4.567      9.040
REMARK SMILES O=C(OCCOCCOCCOC(=O)c1ccc(-c2c3nc(c(-c4c(F)c(F)c(F)c(F)c4F)c4ccc([nH]4)c(-c4c(F)c(F)c(F)c(F)c4F)c4nc(c(-c5c(F)c(F)c(F)c(F)c5F)c5ccc2[nH]5)C=C4)C=C3)cc1)C1=Cc2cc(Cl)cc(Cl)c2O[C@@H]1C(F)(F)F
REMARK SMILES IDX 8 1 7 2 6 3 5 4 4 5 3 6 2 7 1 8 78 9 79 10 89 11 80 12 88 13
REMARK SMILES IDX 81 14 87 15 82 16 85 17 83 18 84 19 86 20 90 21 91 22 92 23
REMARK SMILES IDX 93 24 9 25 10 26 11 27 12 28 13 29 14 30 15 31 16 32 77 33
REMARK SMILES IDX 17 34 76 35 18 36 19 37 20 38 70 39 21 40 75 41 69 42 71 43
REMARK SMILES IDX 22 44 74 45 68 46 67 47 23 49 55 50 35 51 54 52 36 53 39 54
REMARK SMILES IDX 53 55 72 56 37 57 38 58 52 60 73 61 40 62 24 63 25 64 33 65
REMARK SMILES IDX 26 66 27 67 31 68 34 69 28 70 29 71 32 72 30 73 56 74 57 75
REMARK SMILES IDX 65 76 58 77 59 78 63 79 66 80 60 81 61 82 64 83 62 84 41 85
REMARK SMILES IDX 42 86 50 87 43 88 44 89 48 90 51 91 45 92 46 93 49 94 47 95
REMARK H PARENT 71 48 39 59
REMARK Flexibility Score: inf
ROOT
ATOM      1  C   UNL A   1      42.790  20.628  26.276  1.00  0.00     0.188 C 
ENDROOT
BRANCH   1   2
ATOM      2  C   UNL A   1      41.286  20.309  26.294  1.00  0.00     0.188 C 
BRANCH   2   3
ATOM      3  O   UNL A   1      40.199  21.290  26.500  1.00  0.00    -0.376 OA
BRANCH   3   4
ATOM      4  C   UNL A   1      38.734  21.477  25.655  1.00  0.00     0.202 C 
BRANCH   4   5
ATOM      5  C   UNL A   1      37.354  23.153  25.796  1.00  0.00     0.261 C 
BRANCH   5   6
ATOM      6  O   UNL A   1      35.831  23.060  25.994  1.00  0.00    -0.460 OA
BRANCH   6   7
ATOM      7  C   UNL A   1      35.344  21.848  25.695  1.00  0.00     0.338 C 
ATOM      8  O   UNL A   1      35.903  20.895  25.213  1.00  0.00    -0.246 OA
BRANCH   7   9
ATOM      9  C   UNL A   1      33.955  22.250  25.688  1.00  0.00     0.087 C 
ATOM     10  C   UNL A   1      33.728  23.623  26.151  1.00  0.00     0.027 C 
ATOM     11  C   UNL A   1      33.608  21.606  23.905  1.00  0.00     0.316 C 
ATOM     12  C   UNL A   1      33.315  24.991  25.051  1.00  0.00     0.020 A 
ATOM     13  O   UNL A   1      33.302  23.090  22.681  1.00  0.00    -0.474 OA
ATOM     14  C   UNL A   1      33.255  26.258  25.564  1.00  0.00     0.032 A 
ATOM     15  C   UNL A   1      33.174  24.790  23.337  1.00  0.00     0.146 A 
ATOM     16  C   UNL A   1      33.043  27.277  24.618  1.00  0.00     0.043 A 
ATOM     17  C   UNL A   1      32.984  25.853  22.494  1.00  0.00     0.085 A 
ATOM     18  Cl  UNL A   1      32.977  28.901  25.228  1.00  0.00    -0.084 Cl
ATOM     19  C   UNL A   1      32.907  27.091  23.180  1.00  0.00     0.045 A 
ATOM     20  Cl  UNL A   1      32.918  25.784  20.801  1.00  0.00    -0.080 Cl
BRANCH  11  21
ATOM     21  C   UNL A   1      32.661  20.363  24.429  1.00  0.00     0.430 C 
ATOM     22  F   UNL A   1      31.746  20.545  25.377  1.00  0.00    -0.167 F 
ATOM     23  F   UNL A   1      31.942  19.933  23.349  1.00  0.00    -0.167 F 
ATOM     24  F   UNL A   1      33.380  19.266  24.806  1.00  0.00    -0.167 F 
ENDBRANCH  11  21
ENDBRANCH   7   9
ENDBRANCH   6   7
ENDBRANCH   5   6
ENDBRANCH   4   5
ENDBRANCH   3   4
ENDBRANCH   2   3
ENDBRANCH   1   2
BRANCH   1  25
ATOM     25  O   UNL A   1      43.489  20.650  25.062  1.00  0.00    -0.376 OA
BRANCH  25  26
ATOM     26  C   UNL A   1      44.224  21.831  24.786  1.00  0.00     0.202 C 
BRANCH  26  27
ATOM     27  C   UNL A   1      44.091  22.996  25.775  1.00  0.00     0.261 C 
BRANCH  27  28
ATOM     28  O   UNL A   1      43.241  24.061  25.296  1.00  0.00    -0.460 OA
BRANCH  28  29
ATOM     29  C   UNL A   1      43.753  25.315  25.329  1.00  0.00     0.338 C 
ATOM     30  O   UNL A   1      44.619  25.782  24.609  1.00  0.00    -0.246 OA
BRANCH  29  31
ATOM     31  C   UNL A   1      43.007  26.132  26.304  1.00  0.00     0.060 A 
ATOM     32  C   UNL A   1      43.477  27.418  26.616  1.00  0.00     0.016 A 
ATOM     33  C   UNL A   1      41.900  25.604  26.966  1.00  0.00     0.016 A 
ATOM     34  C   UNL A   1      42.837  28.179  27.594  1.00  0.00     0.010 A 
ATOM     35  C   UNL A   1      41.287  26.348  27.978  1.00  0.00     0.010 A 
ATOM     36  C   UNL A   1      41.774  27.624  28.317  1.00  0.00    -0.014 A 
BRANCH  36  37
ATOM     37  C   UNL A   1      41.369  28.249  29.598  1.00  0.00     0.031 A 
ATOM     38  C   UNL A   1      40.155  29.136  29.583  1.00  0.00     0.074 A 
ATOM     39  C   UNL A   1      42.041  28.030  30.741  1.00  0.00     0.049 A 
ATOM     40  N   UNL A   1      39.594  29.806  30.555  1.00  0.00    -0.248 NA
ATOM     41  C   UNL A   1      39.482  29.287  28.282  1.00  0.00     0.031 C 
ATOM     42  C   UNL A   1      43.204  27.160  30.888  1.00  0.00     0.029 A 
ATOM     43  N   UNL A   1      41.832  28.534  32.001  1.00  0.00    -0.354 N 
ATOM     44  C   UNL A   1      38.506  30.454  29.984  1.00  0.00     0.074 A 
ATOM     45  C   UNL A   1      38.508  30.132  28.575  1.00  0.00     0.031 C 
ATOM     46  C   UNL A   1      43.613  27.196  32.169  1.00  0.00     0.029 A 
ATOM     47  C   UNL A   1      42.757  28.112  32.923  1.00  0.00     0.049 A 
ATOM     48  H   UNL A   1      41.090  29.142  32.222  1.00  0.00     0.167 HD
ATOM     49  C   UNL A   1      37.581  31.240  30.583  1.00  0.00     0.037 A 
ATOM     50  C   UNL A   1      42.896  28.445  34.223  1.00  0.00     0.037 A 
ATOM     51  C   UNL A   1      37.604  31.581  31.980  1.00  0.00     0.049 A 
ATOM     52  C   UNL A   1      41.908  29.402  34.846  1.00  0.00     0.074 A 
ATOM     53  C   UNL A   1      36.715  32.364  32.692  1.00  0.00     0.029 A 
ATOM     54  N   UNL A   1      38.584  31.172  32.873  1.00  0.00    -0.354 N 
ATOM     55  N   UNL A   1      40.854  29.977  34.315  1.00  0.00    -0.248 NA
ATOM     56  C   UNL A   1      42.125  29.749  36.258  1.00  0.00     0.031 C 
ATOM     57  C   UNL A   1      37.198  32.493  33.998  1.00  0.00     0.029 A 
ATOM     58  C   UNL A   1      38.341  31.718  34.124  1.00  0.00     0.049 A 
ATOM     59  H   UNL A   1      39.340  30.582  32.653  1.00  0.00     0.167 HD
ATOM     60  C   UNL A   1      40.261  30.715  35.334  1.00  0.00     0.074 A 
ATOM     61  C   UNL A   1      41.067  30.504  36.518  1.00  0.00     0.031 C 
ATOM     62  C   UNL A   1      39.149  31.491  35.297  1.00  0.00     0.037 A 
BRANCH  49  63
ATOM     63  C   UNL A   1      36.504  31.821  29.712  1.00  0.00     0.064 A 
ATOM     64  C   UNL A   1      35.483  31.028  29.164  1.00  0.00     0.173 A 
ATOM     65  C   UNL A   1      36.493  33.193  29.418  1.00  0.00     0.173 A 
ATOM     66  F   UNL A   1      35.453  29.707  29.399  1.00  0.00    -0.203 F 
ATOM     67  C   UNL A   1      34.520  31.579  28.322  1.00  0.00     0.198 A 
ATOM     68  C   UNL A   1      35.506  33.747  28.607  1.00  0.00     0.198 A 
ATOM     69  F   UNL A   1      37.443  34.000  29.914  1.00  0.00    -0.203 F 
ATOM     70  F   UNL A   1      33.597  30.789  27.755  1.00  0.00    -0.200 F 
ATOM     71  C   UNL A   1      34.528  32.939  28.050  1.00  0.00     0.200 A 
ATOM     72  F   UNL A   1      35.508  35.064  28.359  1.00  0.00    -0.200 F 
ATOM     73  F   UNL A   1      33.599  33.468  27.242  1.00  0.00    -0.200 F 
ENDBRANCH  49  63
BRANCH  50  74
ATOM     74  C   UNL A   1      44.007  27.871  35.032  1.00  0.00     0.064 A 
ATOM     75  C   UNL A   1      43.857  26.644  35.696  1.00  0.00     0.173 A 
ATOM     76  C   UNL A   1      45.223  28.551  35.192  1.00  0.00     0.173 A 
ATOM     77  F   UNL A   1      42.704  25.967  35.601  1.00  0.00    -0.203 F 
ATOM     78  C   UNL A   1      44.869  26.135  36.509  1.00  0.00     0.198 A 
ATOM     79  C   UNL A   1      46.247  28.024  35.979  1.00  0.00     0.198 A 
ATOM     80  F   UNL A   1      45.417  29.732  34.587  1.00  0.00    -0.203 F 
ATOM     81  F   UNL A   1      44.673  24.993  37.182  1.00  0.00    -0.200 F 
ATOM     82  C   UNL A   1      46.065  26.823  36.645  1.00  0.00     0.200 A 
ATOM     83  F   UNL A   1      47.404  28.688  36.099  1.00  0.00    -0.200 F 
ATOM     84  F   UNL A   1      47.036  26.334  37.430  1.00  0.00    -0.200 F 
ENDBRANCH  50  74
BRANCH  62  85
ATOM     85  C   UNL A   1      38.700  32.125  36.586  1.00  0.00     0.064 A 
ATOM     86  C   UNL A   1      39.059  33.434  36.938  1.00  0.00     0.173 A 
ATOM     87  C   UNL A   1      37.865  31.418  37.467  1.00  0.00     0.173 A 
ATOM     88  F   UNL A   1      39.861  34.155  36.139  1.00  0.00    -0.203 F 
ATOM     89  C   UNL A   1      38.635  33.995  38.141  1.00  0.00     0.198 A 
ATOM     90  C   UNL A   1      37.408  31.996  38.647  1.00  0.00     0.198 A 
ATOM     91  F   UNL A   1      37.478  30.166  37.174  1.00  0.00    -0.203 F 
ATOM     92  F   UNL A   1      39.046  35.223  38.488  1.00  0.00    -0.200 F 
ATOM     93  C   UNL A   1      37.804  33.278  38.990  1.00  0.00     0.200 A 
ATOM     94  F   UNL A   1      36.586  31.310  39.453  1.00  0.00    -0.200 F 
ATOM     95  F   UNL A   1      37.391  33.822  40.143  1.00  0.00    -0.200 F 
ENDBRANCH  62  85
ENDBRANCH  36  37
ENDBRANCH  29  31
ENDBRANCH  28  29
ENDBRANCH  27  28
ENDBRANCH  26  27
ENDBRANCH  25  26
ENDBRANCH   1  25
TORSDOF 18
ENDMDL
