MODEL 1
REMARK VINA RESULT:     -11.8      0.000      0.000
REMARK SMILES O=C(OCCOCCOCCOC(=O)c1ccc(-n2cc(CSc3nc4ccccc4c(=O)n3-c3ccc(Cl)cc3)nn2)cc1)c1ccc(-c2c3nc(c(-c4c(F)c(F)c(F)c(F)c4F)c4ccc([nH]4)c(-c4c(F)c(F)c(F)c(F)c4F)c4nc(c(-c5c(F)c(F)c(F)c(F)c5F)c5ccc2[nH]5)C=C4)C=C3)cc1
REMARK SMILES IDX 9 1 8 2 7 3 6 4 5 5 4 6 3 7 2 8 1 9 46 10 47 11 108 12 48 13
REMARK SMILES IDX 107 14 49 15 50 16 51 17 101 18 52 19 106 20 100 21 102 22
REMARK SMILES IDX 53 23 105 24 99 25 98 26 54 28 86 29 66 30 85 31 67 32 70 33
REMARK SMILES IDX 84 34 103 35 68 36 69 37 83 39 104 40 71 41 55 42 56 43
REMARK SMILES IDX 64 44 57 45 58 46 62 47 65 48 59 49 60 50 63 51 61 52 87 53
REMARK SMILES IDX 88 54 96 55 89 56 90 57 94 58 97 59 91 60 92 61 95 62 93 63
REMARK SMILES IDX 72 64 73 65 81 66 74 67 75 68 79 69 82 70 76 71 77 72 80 73
REMARK SMILES IDX 78 74 10 75 11 76 12 77 13 78 14 79 15 80 16 81 45 82 17 83
REMARK SMILES IDX 44 84 18 85 19 86 20 87 43 88 21 89 42 90 22 91 23 92 24 93
REMARK SMILES IDX 25 94 34 95 26 96 32 97 27 98 31 99 33 100 28 101 30 102
REMARK SMILES IDX 29 103 35 104 36 105 41 106 37 107 40 108 38 109 39 110
REMARK H PARENT 102 27 70 38
REMARK Flexibility Score: inf
ROOT
ATOM      1  O   UNL A   1      44.290  18.404  25.733  1.00  0.00    -0.376 OA
ENDROOT
BRANCH   1   2
ATOM      2  C   UNL A   1      44.754  19.209  24.662  1.00  0.00     0.188 C 
BRANCH   2   3
ATOM      3  C   UNL A   1      46.046  20.049  24.780  1.00  0.00     0.188 C 
BRANCH   3   4
ATOM      4  O   UNL A   1      46.106  21.052  25.761  1.00  0.00    -0.376 OA
BRANCH   4   5
ATOM      5  C   UNL A   1      45.264  22.187  25.756  1.00  0.00     0.202 C 
BRANCH   5   6
ATOM      6  C   UNL A   1      45.516  23.485  24.981  1.00  0.00     0.261 C 
BRANCH   6   7
ATOM      7  O   UNL A   1      44.373  24.231  24.576  1.00  0.00    -0.460 OA
BRANCH   7   8
ATOM      8  C   UNL A   1      43.377  24.761  25.314  1.00  0.00     0.338 C 
ATOM      9  O   UNL A   1      42.313  24.144  25.384  1.00  0.00    -0.246 OA
BRANCH   8  10
ATOM     10  C   UNL A   1      43.406  26.125  25.921  1.00  0.00     0.060 A 
ATOM     11  C   UNL A   1      44.159  26.539  27.020  1.00  0.00     0.016 A 
ATOM     12  C   UNL A   1      42.526  27.053  25.323  1.00  0.00     0.016 A 
ATOM     13  C   UNL A   1      43.880  27.753  27.632  1.00  0.00     0.010 A 
ATOM     14  C   UNL A   1      42.267  28.280  25.910  1.00  0.00     0.010 A 
ATOM     15  C   UNL A   1      42.873  28.575  27.121  1.00  0.00    -0.014 A 
BRANCH  15  16
ATOM     16  C   UNL A   1      42.465  29.724  27.916  1.00  0.00     0.031 A 
ATOM     17  C   UNL A   1      43.372  30.900  27.841  1.00  0.00     0.074 A 
ATOM     18  C   UNL A   1      41.335  29.712  28.652  1.00  0.00     0.049 A 
ATOM     19  N   UNL A   1      44.073  31.424  28.794  1.00  0.00    -0.248 NA
ATOM     20  C   UNL A   1      43.619  31.492  26.519  1.00  0.00     0.031 C 
ATOM     21  C   UNL A   1      40.244  28.733  28.637  1.00  0.00     0.029 A 
ATOM     22  N   UNL A   1      40.889  30.641  29.541  1.00  0.00    -0.354 N 
ATOM     23  C   UNL A   1      44.726  32.520  28.233  1.00  0.00     0.074 A 
ATOM     24  C   UNL A   1      44.511  32.440  26.812  1.00  0.00     0.031 C 
ATOM     25  C   UNL A   1      39.174  29.240  29.292  1.00  0.00     0.029 A 
ATOM     26  C   UNL A   1      39.554  30.502  29.898  1.00  0.00     0.049 A 
ATOM     27  H   UNL A   1      41.466  31.353  29.902  1.00  0.00     0.167 HD
ATOM     28  C   UNL A   1      45.226  33.520  29.010  1.00  0.00     0.037 A 
ATOM     29  C   UNL A   1      38.809  31.400  30.589  1.00  0.00     0.037 A 
ATOM     30  C   UNL A   1      45.412  33.087  30.369  1.00  0.00     0.049 A 
ATOM     31  C   UNL A   1      39.749  32.288  31.317  1.00  0.00     0.074 A 
ATOM     32  C   UNL A   1      46.206  32.137  30.982  1.00  0.00     0.029 A 
ATOM     33  N   UNL A   1      44.459  33.427  31.295  1.00  0.00    -0.354 N 
ATOM     34  N   UNL A   1      40.502  31.889  32.305  1.00  0.00    -0.248 NA
ATOM     35  C   UNL A   1      40.194  33.496  30.639  1.00  0.00     0.031 C 
ATOM     36  C   UNL A   1      45.398  31.603  32.027  1.00  0.00     0.029 A 
ATOM     37  C   UNL A   1      44.190  32.301  32.028  1.00  0.00     0.049 A 
ATOM     38  H   UNL A   1      44.046  34.313  31.410  1.00  0.00     0.167 HD
ATOM     39  C   UNL A   1      41.716  32.529  32.103  1.00  0.00     0.074 A 
ATOM     40  C   UNL A   1      41.445  33.559  31.103  1.00  0.00     0.031 C 
ATOM     41  C   UNL A   1      42.883  31.983  32.549  1.00  0.00     0.037 A 
BRANCH  28  42
ATOM     42  C   UNL A   1      45.208  34.981  28.634  1.00  0.00     0.064 A 
ATOM     43  C   UNL A   1      44.013  35.555  28.155  1.00  0.00     0.173 A 
ATOM     44  C   UNL A   1      46.377  35.743  28.419  1.00  0.00     0.173 A 
ATOM     45  F   UNL A   1      42.842  34.915  28.294  1.00  0.00    -0.203 F 
ATOM     46  C   UNL A   1      44.007  36.752  27.432  1.00  0.00     0.198 A 
ATOM     47  C   UNL A   1      46.360  36.960  27.741  1.00  0.00     0.198 A 
ATOM     48  F   UNL A   1      47.593  35.287  28.745  1.00  0.00    -0.203 F 
ATOM     49  F   UNL A   1      42.867  37.188  26.879  1.00  0.00    -0.200 F 
ATOM     50  C   UNL A   1      45.182  37.447  27.217  1.00  0.00     0.200 A 
ATOM     51  F   UNL A   1      47.513  37.610  27.526  1.00  0.00    -0.200 F 
ATOM     52  F   UNL A   1      45.190  38.554  26.463  1.00  0.00    -0.200 F 
ENDBRANCH  28  42
BRANCH  29  53
ATOM     53  C   UNL A   1      37.390  31.765  30.353  1.00  0.00     0.064 A 
ATOM     54  C   UNL A   1      36.527  32.069  31.417  1.00  0.00     0.173 A 
ATOM     55  C   UNL A   1      36.930  32.096  29.062  1.00  0.00     0.173 A 
ATOM     56  F   UNL A   1      36.908  31.835  32.682  1.00  0.00    -0.203 F 
ATOM     57  C   UNL A   1      35.288  32.685  31.205  1.00  0.00     0.198 A 
ATOM     58  C   UNL A   1      35.692  32.705  28.851  1.00  0.00     0.198 A 
ATOM     59  F   UNL A   1      37.713  31.925  27.988  1.00  0.00    -0.203 F 
ATOM     60  F   UNL A   1      34.515  33.014  32.251  1.00  0.00    -0.200 F 
ATOM     61  C   UNL A   1      34.875  33.011  29.924  1.00  0.00     0.200 A 
ATOM     62  F   UNL A   1      35.325  33.051  27.609  1.00  0.00    -0.200 F 
ATOM     63  F   UNL A   1      33.717  33.654  29.724  1.00  0.00    -0.200 F 
ENDBRANCH  29  53
BRANCH  41  64
ATOM     64  C   UNL A   1      42.803  30.799  33.469  1.00  0.00     0.064 A 
ATOM     65  C   UNL A   1      42.617  30.899  34.858  1.00  0.00     0.173 A 
ATOM     66  C   UNL A   1      42.727  29.522  32.897  1.00  0.00     0.173 A 
ATOM     67  F   UNL A   1      42.581  32.092  35.465  1.00  0.00    -0.203 F 
ATOM     68  C   UNL A   1      42.390  29.766  35.640  1.00  0.00     0.198 A 
ATOM     69  C   UNL A   1      42.465  28.398  33.673  1.00  0.00     0.198 A 
ATOM     70  F   UNL A   1      42.840  29.375  31.567  1.00  0.00    -0.203 F 
ATOM     71  F   UNL A   1      42.207  29.886  36.963  1.00  0.00    -0.200 F 
ATOM     72  C   UNL A   1      42.303  28.519  35.044  1.00  0.00     0.200 A 
ATOM     73  F   UNL A   1      42.330  27.201  33.086  1.00  0.00    -0.200 F 
ATOM     74  F   UNL A   1      42.028  27.437  35.786  1.00  0.00    -0.200 F 
ENDBRANCH  41  64
ENDBRANCH  15  16
ENDBRANCH   8  10
ENDBRANCH   7   8
ENDBRANCH   6   7
ENDBRANCH   5   6
ENDBRANCH   4   5
ENDBRANCH   3   4
ENDBRANCH   2   3
ENDBRANCH   1   2
BRANCH   1  75
ATOM     75  C   UNL A   1      42.985  18.601  26.246  1.00  0.00     0.202 C 
BRANCH  75  76
ATOM     76  C   UNL A   1      42.160  19.817  25.793  1.00  0.00     0.261 C 
BRANCH  76  77
ATOM     77  O   UNL A   1      40.970  20.079  26.556  1.00  0.00    -0.460 OA
BRANCH  77  78
ATOM     78  C   UNL A   1      40.787  21.350  26.973  1.00  0.00     0.338 C 
ATOM     79  O   UNL A   1      41.567  22.044  27.624  1.00  0.00    -0.246 OA
BRANCH  78  80
ATOM     80  C   UNL A   1      39.522  21.878  26.433  1.00  0.00     0.060 A 
ATOM     81  C   UNL A   1      39.156  23.204  26.722  1.00  0.00     0.018 A 
ATOM     82  C   UNL A   1      38.659  21.050  25.709  1.00  0.00     0.018 A 
ATOM     83  C   UNL A   1      37.950  23.724  26.259  1.00  0.00     0.029 A 
ATOM     84  C   UNL A   1      37.417  21.550  25.298  1.00  0.00     0.029 A 
ATOM     85  C   UNL A   1      37.080  22.891  25.555  1.00  0.00     0.066 A 
BRANCH  85  86
ATOM     86  N   UNL A   1      35.737  23.285  25.479  1.00  0.00    -0.220 N 
ATOM     87  C   UNL A   1      35.156  23.774  24.345  1.00  0.00     0.141 A 
ATOM     88  N   UNL A   1      34.849  23.265  26.486  1.00  0.00    -0.062 NA
ATOM     89  C   UNL A   1      33.886  24.148  24.696  1.00  0.00     0.093 A 
ATOM     90  N   UNL A   1      33.720  23.817  26.029  1.00  0.00    -0.134 NA
BRANCH  89  91
ATOM     91  C   UNL A   1      32.941  25.062  24.004  1.00  0.00     0.138 C 
BRANCH  91  92
ATOM     92  S   UNL A   1      31.329  25.555  24.599  1.00  0.00    -0.081 SA
BRANCH  92  93
ATOM     93  C   UNL A   1      30.801  27.144  24.126  1.00  0.00     0.176 A 
ATOM     94  N   UNL A   1      29.544  27.152  23.785  1.00  0.00    -0.223 NA
ATOM     95  N   UNL A   1      31.563  28.300  24.081  1.00  0.00    -0.255 N 
ATOM     96  C   UNL A   1      29.009  28.315  23.224  1.00  0.00     0.079 A 
ATOM     97  C   UNL A   1      31.277  29.114  22.976  1.00  0.00     0.266 A 
ATOM     98  C   UNL A   1      27.631  28.504  23.124  1.00  0.00     0.029 A 
ATOM     99  C   UNL A   1      29.853  29.242  22.632  1.00  0.00     0.066 A 
ATOM    100  O   UNL A   1      32.104  29.690  22.272  1.00  0.00    -0.268 OA
ATOM    101  C   UNL A   1      27.121  29.569  22.370  1.00  0.00     0.002 A 
ATOM    102  C   UNL A   1      29.364  30.272  21.825  1.00  0.00     0.016 A 
ATOM    103  C   UNL A   1      27.986  30.426  21.686  1.00  0.00     0.001 A 
BRANCH  95 104
ATOM    104  C   UNL A   1      32.626  28.702  24.982  1.00  0.00     0.051 A 
ATOM    105  C   UNL A   1      33.647  27.786  25.323  1.00  0.00     0.028 A 
ATOM    106  C   UNL A   1      32.698  29.953  25.606  1.00  0.00     0.028 A 
ATOM    107  C   UNL A   1      34.504  27.997  26.407  1.00  0.00     0.022 A 
ATOM    108  C   UNL A   1      33.511  30.152  26.734  1.00  0.00     0.022 A 
ATOM    109  C   UNL A   1      34.378  29.152  27.157  1.00  0.00     0.041 A 
ATOM    110  Cl  UNL A   1      35.271  29.339  28.612  1.00  0.00    -0.084 Cl
ENDBRANCH  95 104
ENDBRANCH  92  93
ENDBRANCH  91  92
ENDBRANCH  89  91
ENDBRANCH  85  86
ENDBRANCH  78  80
ENDBRANCH  77  78
ENDBRANCH  76  77
ENDBRANCH  75  76
ENDBRANCH   1  75
TORSDOF 22
ENDMDL
MODEL 2
REMARK VINA RESULT:     -11.7      3.255     10.250
REMARK SMILES O=C(OCCOCCOCCOC(=O)c1ccc(-n2cc(CSc3nc4ccccc4c(=O)n3-c3ccc(Cl)cc3)nn2)cc1)c1ccc(-c2c3nc(c(-c4c(F)c(F)c(F)c(F)c4F)c4ccc([nH]4)c(-c4c(F)c(F)c(F)c(F)c4F)c4nc(c(-c5c(F)c(F)c(F)c(F)c5F)c5ccc2[nH]5)C=C4)C=C3)cc1
REMARK SMILES IDX 9 1 8 2 7 3 6 4 5 5 4 6 3 7 2 8 1 9 46 10 47 11 108 12 48 13
REMARK SMILES IDX 107 14 49 15 50 16 51 17 101 18 52 19 106 20 100 21 102 22
REMARK SMILES IDX 53 23 105 24 99 25 98 26 54 28 86 29 66 30 85 31 67 32 70 33
REMARK SMILES IDX 84 34 103 35 68 36 69 37 83 39 104 40 71 41 55 42 56 43
REMARK SMILES IDX 64 44 57 45 58 46 62 47 65 48 59 49 60 50 63 51 61 52 87 53
REMARK SMILES IDX 88 54 96 55 89 56 90 57 94 58 97 59 91 60 92 61 95 62 93 63
REMARK SMILES IDX 72 64 73 65 81 66 74 67 75 68 79 69 82 70 76 71 77 72 80 73
REMARK SMILES IDX 78 74 10 75 11 76 12 77 13 78 14 79 15 80 16 81 45 82 17 83
REMARK SMILES IDX 44 84 18 85 19 86 20 87 43 88 21 89 42 90 22 91 23 92 24 93
REMARK SMILES IDX 25 94 34 95 26 96 32 97 27 98 31 99 33 100 28 101 30 102
REMARK SMILES IDX 29 103 35 104 36 105 41 106 37 107 40 108 38 109 39 110
REMARK H PARENT 102 27 70 38
REMARK Flexibility Score: inf
ROOT
ATOM      1  O   UNL A   1      33.565  29.645  26.826  1.00  0.00    -0.376 OA
ENDROOT
BRANCH   1   2
ATOM      2  C   UNL A   1      33.414  30.976  27.290  1.00  0.00     0.188 C 
BRANCH   2   3
ATOM      3  C   UNL A   1      34.634  31.846  27.670  1.00  0.00     0.188 C 
BRANCH   3   4
ATOM      4  O   UNL A   1      34.465  33.239  27.747  1.00  0.00    -0.376 OA
BRANCH   4   5
ATOM      5  C   UNL A   1      33.247  33.848  28.123  1.00  0.00     0.202 C 
BRANCH   5   6
ATOM      6  C   UNL A   1      33.095  35.014  29.105  1.00  0.00     0.261 C 
BRANCH   6   7
ATOM      7  O   UNL A   1      34.071  35.126  30.136  1.00  0.00    -0.460 OA
BRANCH   7   8
ATOM      8  C   UNL A   1      34.252  34.379  31.243  1.00  0.00     0.338 C 
ATOM      9  O   UNL A   1      33.366  34.382  32.098  1.00  0.00    -0.246 OA
BRANCH   8  10
ATOM     10  C   UNL A   1      35.523  33.675  31.592  1.00  0.00     0.060 A 
ATOM     11  C   UNL A   1      36.289  33.849  32.745  1.00  0.00     0.016 A 
ATOM     12  C   UNL A   1      35.992  32.786  30.601  1.00  0.00     0.016 A 
ATOM     13  C   UNL A   1      37.575  33.328  32.804  1.00  0.00     0.010 A 
ATOM     14  C   UNL A   1      37.262  32.236  30.671  1.00  0.00     0.010 A 
ATOM     15  C   UNL A   1      38.082  32.599  31.727  1.00  0.00    -0.014 A 
BRANCH  15  16
ATOM     16  C   UNL A   1      39.499  32.266  31.739  1.00  0.00     0.031 A 
ATOM     17  C   UNL A   1      39.841  30.976  32.393  1.00  0.00     0.074 A 
ATOM     18  C   UNL A   1      40.423  33.074  31.179  1.00  0.00     0.049 A 
ATOM     19  N   UNL A   1      40.546  30.789  33.461  1.00  0.00    -0.248 NA
ATOM     20  C   UNL A   1      39.225  29.752  31.860  1.00  0.00     0.031 C 
ATOM     21  C   UNL A   1      40.214  34.236  30.309  1.00  0.00     0.029 A 
ATOM     22  N   UNL A   1      41.779  32.974  31.222  1.00  0.00    -0.354 N 
ATOM     23  C   UNL A   1      40.606  29.410  33.648  1.00  0.00     0.074 A 
ATOM     24  C   UNL A   1      39.677  28.831  32.712  1.00  0.00     0.031 C 
ATOM     25  C   UNL A   1      41.387  34.579  29.726  1.00  0.00     0.029 A 
ATOM     26  C   UNL A   1      42.445  33.765  30.295  1.00  0.00     0.049 A 
ATOM     27  H   UNL A   1      42.250  32.388  31.858  1.00  0.00     0.167 HD
ATOM     28  C   UNL A   1      41.568  28.841  34.424  1.00  0.00     0.037 A 
ATOM     29  C   UNL A   1      43.763  33.701  29.982  1.00  0.00     0.037 A 
ATOM     30  C   UNL A   1      42.144  29.797  35.333  1.00  0.00     0.049 A 
ATOM     31  C   UNL A   1      44.453  33.029  31.111  1.00  0.00     0.074 A 
ATOM     32  C   UNL A   1      41.656  30.545  36.386  1.00  0.00     0.029 A 
ATOM     33  N   UNL A   1      43.349  30.362  35.003  1.00  0.00    -0.354 N 
ATOM     34  N   UNL A   1      44.581  33.556  32.297  1.00  0.00    -0.248 NA
ATOM     35  C   UNL A   1      44.584  31.581  31.051  1.00  0.00     0.031 C 
ATOM     36  C   UNL A   1      42.336  31.794  36.295  1.00  0.00     0.029 A 
ATOM     37  C   UNL A   1      43.239  31.708  35.235  1.00  0.00     0.049 A 
ATOM     38  H   UNL A   1      44.143  29.889  34.663  1.00  0.00     0.167 HD
ATOM     39  C   UNL A   1      44.382  32.500  33.175  1.00  0.00     0.074 A 
ATOM     40  C   UNL A   1      44.458  31.297  32.351  1.00  0.00     0.031 C 
ATOM     41  C   UNL A   1      43.893  32.711  34.430  1.00  0.00     0.037 A 
BRANCH  28  42
ATOM     42  C   UNL A   1      42.241  27.524  34.121  1.00  0.00     0.064 A 
ATOM     43  C   UNL A   1      42.212  26.497  35.087  1.00  0.00     0.173 A 
ATOM     44  C   UNL A   1      43.175  27.351  33.077  1.00  0.00     0.173 A 
ATOM     45  F   UNL A   1      41.371  26.561  36.130  1.00  0.00    -0.203 F 
ATOM     46  C   UNL A   1      43.116  25.431  35.058  1.00  0.00     0.198 A 
ATOM     47  C   UNL A   1      44.040  26.261  33.025  1.00  0.00     0.198 A 
ATOM     48  F   UNL A   1      43.372  28.283  32.138  1.00  0.00    -0.203 F 
ATOM     49  F   UNL A   1      43.140  24.553  36.070  1.00  0.00    -0.200 F 
ATOM     50  C   UNL A   1      44.036  25.320  34.032  1.00  0.00     0.200 A 
ATOM     51  F   UNL A   1      44.939  26.180  32.033  1.00  0.00    -0.200 F 
ATOM     52  F   UNL A   1      44.950  24.341  34.041  1.00  0.00    -0.200 F 
ENDBRANCH  28  42
BRANCH  29  53
ATOM     53  C   UNL A   1      44.377  33.833  28.637  1.00  0.00     0.064 A 
ATOM     54  C   UNL A   1      44.135  32.886  27.629  1.00  0.00     0.173 A 
ATOM     55  C   UNL A   1      44.983  35.037  28.230  1.00  0.00     0.173 A 
ATOM     56  F   UNL A   1      43.514  31.733  27.921  1.00  0.00    -0.203 F 
ATOM     57  C   UNL A   1      44.464  33.138  26.291  1.00  0.00     0.198 A 
ATOM     58  C   UNL A   1      45.315  35.286  26.896  1.00  0.00     0.198 A 
ATOM     59  F   UNL A   1      45.177  36.038  29.100  1.00  0.00    -0.203 F 
ATOM     60  F   UNL A   1      44.165  32.235  25.346  1.00  0.00    -0.200 F 
ATOM     61  C   UNL A   1      45.044  34.341  25.925  1.00  0.00     0.200 A 
ATOM     62  F   UNL A   1      45.839  36.471  26.552  1.00  0.00    -0.200 F 
ATOM     63  F   UNL A   1      45.304  34.608  24.638  1.00  0.00    -0.200 F 
ENDBRANCH  29  53
BRANCH  41  64
ATOM     64  C   UNL A   1      43.800  34.126  34.925  1.00  0.00     0.064 A 
ATOM     65  C   UNL A   1      42.686  34.956  34.715  1.00  0.00     0.173 A 
ATOM     66  C   UNL A   1      44.795  34.587  35.797  1.00  0.00     0.173 A 
ATOM     67  F   UNL A   1      41.651  34.546  33.972  1.00  0.00    -0.203 F 
ATOM     68  C   UNL A   1      42.589  36.203  35.333  1.00  0.00     0.198 A 
ATOM     69  C   UNL A   1      44.679  35.815  36.440  1.00  0.00     0.198 A 
ATOM     70  F   UNL A   1      45.854  33.810  36.077  1.00  0.00    -0.203 F 
ATOM     71  F   UNL A   1      41.513  36.976  35.125  1.00  0.00    -0.200 F 
ATOM     72  C   UNL A   1      43.580  36.625  36.203  1.00  0.00     0.200 A 
ATOM     73  F   UNL A   1      45.615  36.196  37.320  1.00  0.00    -0.200 F 
ATOM     74  F   UNL A   1      43.461  37.798  36.841  1.00  0.00    -0.200 F 
ENDBRANCH  41  64
ENDBRANCH  15  16
ENDBRANCH   8  10
ENDBRANCH   7   8
ENDBRANCH   6   7
ENDBRANCH   5   6
ENDBRANCH   4   5
ENDBRANCH   3   4
ENDBRANCH   2   3
ENDBRANCH   1   2
BRANCH   1  75
ATOM     75  C   UNL A   1      32.665  29.129  25.863  1.00  0.00     0.202 C 
BRANCH  75  76
ATOM     76  C   UNL A   1      33.028  29.182  24.370  1.00  0.00     0.261 C 
BRANCH  76  77
ATOM     77  O   UNL A   1      33.711  28.025  23.856  1.00  0.00    -0.460 OA
BRANCH  77  78
ATOM     78  C   UNL A   1      32.939  26.971  23.512  1.00  0.00     0.338 C 
ATOM     79  O   UNL A   1      31.889  26.990  22.870  1.00  0.00    -0.246 OA
BRANCH  78  80
ATOM     80  C   UNL A   1      33.593  25.716  23.921  1.00  0.00     0.060 A 
ATOM     81  C   UNL A   1      34.098  25.604  25.228  1.00  0.00     0.018 A 
ATOM     82  C   UNL A   1      33.781  24.681  23.001  1.00  0.00     0.018 A 
ATOM     83  C   UNL A   1      34.756  24.446  25.637  1.00  0.00     0.029 A 
ATOM     84  C   UNL A   1      34.498  23.543  23.390  1.00  0.00     0.029 A 
ATOM     85  C   UNL A   1      34.961  23.422  24.713  1.00  0.00     0.066 A 
BRANCH  85  86
ATOM     86  N   UNL A   1      35.965  22.489  25.003  1.00  0.00    -0.220 N 
ATOM     87  C   UNL A   1      37.092  22.788  25.712  1.00  0.00     0.141 A 
ATOM     88  N   UNL A   1      35.986  21.203  24.618  1.00  0.00    -0.062 NA
ATOM     89  C   UNL A   1      37.871  21.662  25.687  1.00  0.00     0.093 A 
ATOM     90  N   UNL A   1      37.159  20.691  25.006  1.00  0.00    -0.134 NA
BRANCH  89  91
ATOM     91  C   UNL A   1      39.325  21.508  25.954  1.00  0.00     0.138 C 
BRANCH  91  92
ATOM     92  S   UNL A   1      40.272  22.417  27.167  1.00  0.00    -0.081 SA
BRANCH  92  93
ATOM     93  C   UNL A   1      41.629  23.314  26.550  1.00  0.00     0.176 A 
ATOM     94  N   UNL A   1      42.354  22.595  25.742  1.00  0.00    -0.223 NA
ATOM     95  N   UNL A   1      41.967  24.625  26.842  1.00  0.00    -0.255 N 
ATOM     96  C   UNL A   1      43.570  23.116  25.288  1.00  0.00     0.079 A 
ATOM     97  C   UNL A   1      43.348  24.827  26.982  1.00  0.00     0.266 A 
ATOM     98  C   UNL A   1      44.239  22.555  24.202  1.00  0.00     0.029 A 
ATOM     99  C   UNL A   1      44.195  24.123  26.009  1.00  0.00     0.066 A 
ATOM    100  O   UNL A   1      43.892  25.506  27.850  1.00  0.00    -0.268 OA
ATOM    101  C   UNL A   1      45.549  22.951  23.902  1.00  0.00     0.002 A 
ATOM    102  C   UNL A   1      45.522  24.487  25.765  1.00  0.00     0.016 A 
ATOM    103  C   UNL A   1      46.204  23.885  24.709  1.00  0.00     0.001 A 
BRANCH  95 104
ATOM    104  C   UNL A   1      41.076  25.745  27.074  1.00  0.00     0.051 A 
ATOM    105  C   UNL A   1      41.166  26.899  26.264  1.00  0.00     0.028 A 
ATOM    106  C   UNL A   1      40.132  25.799  28.107  1.00  0.00     0.028 A 
ATOM    107  C   UNL A   1      40.570  28.111  26.626  1.00  0.00     0.022 A 
ATOM    108  C   UNL A   1      39.578  27.023  28.516  1.00  0.00     0.022 A 
ATOM    109  C   UNL A   1      39.839  28.185  27.798  1.00  0.00     0.041 A 
ATOM    110  Cl  UNL A   1      39.276  29.702  28.371  1.00  0.00    -0.084 Cl
ENDBRANCH  95 104
ENDBRANCH  92  93
ENDBRANCH  91  92
ENDBRANCH  89  91
ENDBRANCH  85  86
ENDBRANCH  78  80
ENDBRANCH  77  78
ENDBRANCH  76  77
ENDBRANCH  75  76
ENDBRANCH   1  75
TORSDOF 22
ENDMDL
MODEL 3
REMARK VINA RESULT:     -11.6      3.457     10.139
REMARK SMILES O=C(OCCOCCOCCOC(=O)c1ccc(-n2cc(CSc3nc4ccccc4c(=O)n3-c3ccc(Cl)cc3)nn2)cc1)c1ccc(-c2c3nc(c(-c4c(F)c(F)c(F)c(F)c4F)c4ccc([nH]4)c(-c4c(F)c(F)c(F)c(F)c4F)c4nc(c(-c5c(F)c(F)c(F)c(F)c5F)c5ccc2[nH]5)C=C4)C=C3)cc1
REMARK SMILES IDX 9 1 8 2 7 3 6 4 5 5 4 6 3 7 2 8 1 9 46 10 47 11 108 12 48 13
REMARK SMILES IDX 107 14 49 15 50 16 51 17 101 18 52 19 106 20 100 21 102 22
REMARK SMILES IDX 53 23 105 24 99 25 98 26 54 28 86 29 66 30 85 31 67 32 70 33
REMARK SMILES IDX 84 34 103 35 68 36 69 37 83 39 104 40 71 41 55 42 56 43
REMARK SMILES IDX 64 44 57 45 58 46 62 47 65 48 59 49 60 50 63 51 61 52 87 53
REMARK SMILES IDX 88 54 96 55 89 56 90 57 94 58 97 59 91 60 92 61 95 62 93 63
REMARK SMILES IDX 72 64 73 65 81 66 74 67 75 68 79 69 82 70 76 71 77 72 80 73
REMARK SMILES IDX 78 74 10 75 11 76 12 77 13 78 14 79 15 80 16 81 45 82 17 83
REMARK SMILES IDX 44 84 18 85 19 86 20 87 43 88 21 89 42 90 22 91 23 92 24 93
REMARK SMILES IDX 25 94 34 95 26 96 32 97 27 98 31 99 33 100 28 101 30 102
REMARK SMILES IDX 29 103 35 104 36 105 41 106 37 107 40 108 38 109 39 110
REMARK H PARENT 102 27 70 38
REMARK Flexibility Score: inf
ROOT
ATOM      1  O   UNL A   1      33.162  30.053  26.152  1.00  0.00    -0.376 OA
ENDROOT
BRANCH   1   2
ATOM      2  C   UNL A   1      33.236  30.878  27.303  1.00  0.00     0.188 C 
BRANCH   2   3
ATOM      3  C   UNL A   1      34.497  31.715  27.621  1.00  0.00     0.188 C 
BRANCH   3   4
ATOM      4  O   UNL A   1      34.376  33.113  27.676  1.00  0.00    -0.376 OA
BRANCH   4   5
ATOM      5  C   UNL A   1      33.195  33.770  28.086  1.00  0.00     0.202 C 
BRANCH   5   6
ATOM      6  C   UNL A   1      33.128  35.070  28.894  1.00  0.00     0.261 C 
BRANCH   6   7
ATOM      7  O   UNL A   1      34.101  35.248  29.918  1.00  0.00    -0.460 OA
BRANCH   7   8
ATOM      8  C   UNL A   1      34.275  34.580  31.076  1.00  0.00     0.338 C 
ATOM      9  O   UNL A   1      33.387  34.648  31.926  1.00  0.00    -0.246 OA
BRANCH   8  10
ATOM     10  C   UNL A   1      35.540  33.895  31.477  1.00  0.00     0.060 A 
ATOM     11  C   UNL A   1      36.325  34.171  32.597  1.00  0.00     0.016 A 
ATOM     12  C   UNL A   1      35.983  32.904  30.575  1.00  0.00     0.016 A 
ATOM     13  C   UNL A   1      37.605  33.639  32.692  1.00  0.00     0.010 A 
ATOM     14  C   UNL A   1      37.245  32.345  30.683  1.00  0.00     0.010 A 
ATOM     15  C   UNL A   1      38.086  32.799  31.687  1.00  0.00    -0.014 A 
BRANCH  15  16
ATOM     16  C   UNL A   1      39.498  32.446  31.714  1.00  0.00     0.031 A 
ATOM     17  C   UNL A   1      39.815  31.153  32.375  1.00  0.00     0.074 A 
ATOM     18  C   UNL A   1      40.438  33.240  31.161  1.00  0.00     0.049 A 
ATOM     19  N   UNL A   1      40.508  30.961  33.451  1.00  0.00    -0.248 NA
ATOM     20  C   UNL A   1      39.189  29.937  31.839  1.00  0.00     0.031 C 
ATOM     21  C   UNL A   1      40.254  34.402  30.286  1.00  0.00     0.029 A 
ATOM     22  N   UNL A   1      41.792  33.122  31.218  1.00  0.00    -0.354 N 
ATOM     23  C   UNL A   1      40.547  29.581  33.642  1.00  0.00     0.074 A 
ATOM     24  C   UNL A   1      39.619  29.012  32.699  1.00  0.00     0.031 C 
ATOM     25  C   UNL A   1      41.437  34.728  29.714  1.00  0.00     0.029 A 
ATOM     26  C   UNL A   1      42.478  33.901  30.296  1.00  0.00     0.049 A 
ATOM     27  H   UNL A   1      42.249  32.532  31.861  1.00  0.00     0.167 HD
ATOM     28  C   UNL A   1      41.494  29.001  34.430  1.00  0.00     0.037 A 
ATOM     29  C   UNL A   1      43.798  33.818  29.996  1.00  0.00     0.037 A 
ATOM     30  C   UNL A   1      42.072  29.952  35.342  1.00  0.00     0.049 A 
ATOM     31  C   UNL A   1      44.468  33.140  31.134  1.00  0.00     0.074 A 
ATOM     32  C   UNL A   1      41.584  30.710  36.388  1.00  0.00     0.029 A 
ATOM     33  N   UNL A   1      43.288  30.500  35.022  1.00  0.00    -0.354 N 
ATOM     34  N   UNL A   1      44.591  33.670  32.320  1.00  0.00    -0.248 NA
ATOM     35  C   UNL A   1      44.580  31.690  31.080  1.00  0.00     0.031 C 
ATOM     36  C   UNL A   1      42.282  31.950  36.300  1.00  0.00     0.029 A 
ATOM     37  C   UNL A   1      43.195  31.848  35.249  1.00  0.00     0.049 A 
ATOM     38  H   UNL A   1      44.079  30.016  34.692  1.00  0.00     0.167 HD
ATOM     39  C   UNL A   1      44.369  32.619  33.198  1.00  0.00     0.074 A 
ATOM     40  C   UNL A   1      44.437  31.412  32.379  1.00  0.00     0.031 C 
ATOM     41  C   UNL A   1      43.870  32.840  34.448  1.00  0.00     0.037 A 
BRANCH  28  42
ATOM     42  C   UNL A   1      42.151  27.675  34.138  1.00  0.00     0.064 A 
ATOM     43  C   UNL A   1      42.158  26.675  35.132  1.00  0.00     0.173 A 
ATOM     44  C   UNL A   1      43.043  27.471  33.063  1.00  0.00     0.173 A 
ATOM     45  F   UNL A   1      41.359  26.771  36.205  1.00  0.00    -0.203 F 
ATOM     46  C   UNL A   1      43.059  25.607  35.097  1.00  0.00     0.198 A 
ATOM     47  C   UNL A   1      43.904  26.377  33.007  1.00  0.00     0.198 A 
ATOM     48  F   UNL A   1      43.205  28.375  32.091  1.00  0.00    -0.203 F 
ATOM     49  F   UNL A   1      43.122  24.757  36.132  1.00  0.00    -0.200 F 
ATOM     50  C   UNL A   1      43.938  25.464  34.039  1.00  0.00     0.200 A 
ATOM     51  F   UNL A   1      44.762  26.266  31.983  1.00  0.00    -0.200 F 
ATOM     52  F   UNL A   1      44.849  24.483  34.039  1.00  0.00    -0.200 F 
ENDBRANCH  28  42
BRANCH  29  53
ATOM     53  C   UNL A   1      44.427  33.938  28.657  1.00  0.00     0.064 A 
ATOM     54  C   UNL A   1      44.150  33.015  27.635  1.00  0.00     0.173 A 
ATOM     55  C   UNL A   1      45.092  35.118  28.269  1.00  0.00     0.173 A 
ATOM     56  F   UNL A   1      43.474  31.889  27.909  1.00  0.00    -0.203 F 
ATOM     57  C   UNL A   1      44.499  33.268  26.304  1.00  0.00     0.198 A 
ATOM     58  C   UNL A   1      45.445  35.367  26.941  1.00  0.00     0.198 A 
ATOM     59  F   UNL A   1      45.325  36.098  29.153  1.00  0.00    -0.203 F 
ATOM     60  F   UNL A   1      44.166  32.391  25.345  1.00  0.00    -0.200 F 
ATOM     61  C   UNL A   1      45.138  34.447  25.956  1.00  0.00     0.200 A 
ATOM     62  F   UNL A   1      46.026  36.530  26.615  1.00  0.00    -0.200 F 
ATOM     63  F   UNL A   1      45.419  34.717  24.674  1.00  0.00    -0.200 F 
ENDBRANCH  29  53
BRANCH  41  64
ATOM     64  C   UNL A   1      43.791  34.258  34.938  1.00  0.00     0.064 A 
ATOM     65  C   UNL A   1      42.685  35.098  34.726  1.00  0.00     0.173 A 
ATOM     66  C   UNL A   1      44.791  34.712  35.808  1.00  0.00     0.173 A 
ATOM     67  F   UNL A   1      41.645  34.696  33.985  1.00  0.00    -0.203 F 
ATOM     68  C   UNL A   1      42.601  36.348  35.339  1.00  0.00     0.198 A 
ATOM     69  C   UNL A   1      44.688  35.943  36.446  1.00  0.00     0.198 A 
ATOM     70  F   UNL A   1      45.842  33.926  36.090  1.00  0.00    -0.203 F 
ATOM     71  F   UNL A   1      41.532  37.131  35.129  1.00  0.00    -0.200 F 
ATOM     72  C   UNL A   1      43.596  36.764  36.207  1.00  0.00     0.200 A 
ATOM     73  F   UNL A   1      45.627  36.318  37.324  1.00  0.00    -0.200 F 
ATOM     74  F   UNL A   1      43.489  37.939  36.841  1.00  0.00    -0.200 F 
ENDBRANCH  41  64
ENDBRANCH  15  16
ENDBRANCH   8  10
ENDBRANCH   7   8
ENDBRANCH   6   7
ENDBRANCH   5   6
ENDBRANCH   4   5
ENDBRANCH   3   4
ENDBRANCH   2   3
ENDBRANCH   1   2
BRANCH   1  75
ATOM     75  C   UNL A   1      31.962  29.999  25.403  1.00  0.00     0.202 C 
BRANCH  75  76
ATOM     76  C   UNL A   1      31.844  29.029  24.216  1.00  0.00     0.261 C 
BRANCH  76  77
ATOM     77  O   UNL A   1      32.830  27.983  24.168  1.00  0.00    -0.460 OA
BRANCH  77  78
ATOM     78  C   UNL A   1      32.563  26.938  23.356  1.00  0.00     0.338 C 
ATOM     79  O   UNL A   1      31.897  26.944  22.321  1.00  0.00    -0.246 OA
BRANCH  78  80
ATOM     80  C   UNL A   1      33.296  25.745  23.817  1.00  0.00     0.060 A 
ATOM     81  C   UNL A   1      34.008  25.808  25.027  1.00  0.00     0.018 A 
ATOM     82  C   UNL A   1      33.348  24.594  23.027  1.00  0.00     0.018 A 
ATOM     83  C   UNL A   1      34.742  24.712  25.476  1.00  0.00     0.029 A 
ATOM     84  C   UNL A   1      34.137  23.514  23.442  1.00  0.00     0.029 A 
ATOM     85  C   UNL A   1      34.810  23.571  24.676  1.00  0.00     0.066 A 
BRANCH  85  86
ATOM     86  N   UNL A   1      35.863  22.679  24.921  1.00  0.00    -0.220 N 
ATOM     87  C   UNL A   1      36.966  22.997  25.660  1.00  0.00     0.141 A 
ATOM     88  N   UNL A   1      35.960  21.422  24.460  1.00  0.00    -0.062 NA
ATOM     89  C   UNL A   1      37.807  21.920  25.576  1.00  0.00     0.093 A 
ATOM     90  N   UNL A   1      37.156  20.954  24.829  1.00  0.00    -0.134 NA
BRANCH  89  91
ATOM     91  C   UNL A   1      39.265  21.831  25.849  1.00  0.00     0.138 C 
BRANCH  91  92
ATOM     92  S   UNL A   1      40.095  22.408  27.324  1.00  0.00    -0.081 SA
BRANCH  92  93
ATOM     93  C   UNL A   1      40.608  24.071  27.301  1.00  0.00     0.176 A 
ATOM     94  N   UNL A   1      39.888  24.808  28.097  1.00  0.00    -0.223 NA
ATOM     95  N   UNL A   1      41.637  24.618  26.553  1.00  0.00    -0.255 N 
ATOM     96  C   UNL A   1      40.067  26.195  28.071  1.00  0.00     0.079 A 
ATOM     97  C   UNL A   1      41.337  25.888  26.038  1.00  0.00     0.266 A 
ATOM     98  C   UNL A   1      39.571  27.009  29.089  1.00  0.00     0.029 A 
ATOM     99  C   UNL A   1      40.626  26.793  26.953  1.00  0.00     0.066 A 
ATOM    100  O   UNL A   1      41.591  26.283  24.902  1.00  0.00    -0.268 OA
ATOM    101  C   UNL A   1      39.570  28.401  28.937  1.00  0.00     0.002 A 
ATOM    102  C   UNL A   1      40.579  28.175  26.756  1.00  0.00     0.016 A 
ATOM    103  C   UNL A   1      40.034  28.981  27.754  1.00  0.00     0.001 A 
BRANCH  95 104
ATOM    104  C   UNL A   1      42.907  24.011  26.205  1.00  0.00     0.051 A 
ATOM    105  C   UNL A   1      43.087  23.435  24.926  1.00  0.00     0.028 A 
ATOM    106  C   UNL A   1      43.992  23.898  27.081  1.00  0.00     0.028 A 
ATOM    107  C   UNL A   1      44.150  22.572  24.642  1.00  0.00     0.022 A 
ATOM    108  C   UNL A   1      45.032  22.986  26.831  1.00  0.00     0.022 A 
ATOM    109  C   UNL A   1      45.079  22.292  25.628  1.00  0.00     0.041 A 
ATOM    110  Cl  UNL A   1      46.268  21.079  25.375  1.00  0.00    -0.084 Cl
ENDBRANCH  95 104
ENDBRANCH  92  93
ENDBRANCH  91  92
ENDBRANCH  89  91
ENDBRANCH  85  86
ENDBRANCH  78  80
ENDBRANCH  77  78
ENDBRANCH  76  77
ENDBRANCH  75  76
ENDBRANCH   1  75
TORSDOF 22
ENDMDL
