MODEL 1
REMARK VINA RESULT:     -11.4      0.000      0.000
REMARK SMILES Cc1cc(C)c(C(=O)OCCOCCOCCOC(=O)c2ccc(-c3c4nc(c(-c5c(F)c(F)c(F)c(F)c5F)c5ccc([nH]5)c(-c5c(F)c(F)c(F)c(F)c5F)c5nc(c(-c6c(F)c(F)c(F)c(F)c6F)c6ccc3[nH]6)C=C5)C=C4)cc2)c(Sc2cccc(F)c2)n1
REMARK SMILES IDX 13 1 12 2 11 3 10 4 9 5 7 6 8 7 6 8 1 9 2 10 3 11 93 12 4 13
REMARK SMILES IDX 84 14 5 15 85 16 86 17 87 18 92 19 88 20 90 21 89 22 91 23
REMARK SMILES IDX 14 24 15 25 16 26 17 27 18 28 19 29 20 30 21 31 22 32 83 33
REMARK SMILES IDX 23 34 82 35 24 36 25 37 26 38 76 39 27 40 81 41 75 42 77 43
REMARK SMILES IDX 28 44 80 45 74 46 73 47 29 49 61 50 41 51 60 52 42 53 45 54
REMARK SMILES IDX 59 55 78 56 43 57 44 58 58 60 79 61 46 62 30 63 31 64 39 65
REMARK SMILES IDX 32 66 33 67 37 68 40 69 34 70 35 71 38 72 36 73 62 74 63 75
REMARK SMILES IDX 71 76 64 77 65 78 69 79 72 80 66 81 67 82 70 83 68 84 47 85
REMARK SMILES IDX 48 86 56 87 49 88 50 89 54 90 57 91 51 92 52 93 55 94 53 95
REMARK H PARENT 77 48 45 59
REMARK Flexibility Score: inf
ROOT
ATOM      1  C   UNL A   1      39.666  21.574  26.122  1.00  0.00     0.188 C 
ENDROOT
BRANCH   1   2
ATOM      2  O   UNL A   1      39.073  22.624  26.881  1.00  0.00    -0.376 OA
BRANCH   2   3
ATOM      3  C   UNL A   1      38.621  23.772  26.142  1.00  0.00     0.202 C 
BRANCH   3   4
ATOM      4  C   UNL A   1      37.147  23.885  25.693  1.00  0.00     0.261 C 
BRANCH   4   5
ATOM      5  O   UNL A   1      36.727  22.717  24.994  1.00  0.00    -0.460 OA
BRANCH   5   6
ATOM      6  C   UNL A   1      35.997  22.827  23.874  1.00  0.00     0.341 C 
ATOM      7  O   UNL A   1      36.416  22.944  22.739  1.00  0.00    -0.246 OA
BRANCH   6   8
ATOM      8  C   UNL A   1      34.579  22.686  24.277  1.00  0.00     0.095 A 
ATOM      9  C   UNL A   1      30.647  22.580  25.879  1.00  0.00     0.067 C 
ATOM     10  C   UNL A   1      31.985  22.558  25.205  1.00  0.00     0.039 A 
ATOM     11  C   UNL A   1      32.754  21.411  25.245  1.00  0.00     0.028 A 
ATOM     12  N   UNL A   1      32.427  23.699  24.634  1.00  0.00    -0.246 NA
ATOM     13  C   UNL A   1      34.066  21.446  24.761  1.00  0.00    -0.032 A 
ATOM     14  C   UNL A   1      33.707  23.777  24.160  1.00  0.00     0.116 A 
ATOM     15  C   UNL A   1      34.842  20.154  24.847  1.00  0.00     0.045 C 
BRANCH  14  16
ATOM     16  S   UNL A   1      34.012  25.417  23.528  1.00  0.00    -0.069 SA
BRANCH  16  17
ATOM     17  C   UNL A   1      33.172  26.636  24.514  1.00  0.00     0.017 A 
ATOM     18  C   UNL A   1      33.372  26.601  25.903  1.00  0.00     0.015 A 
ATOM     19  C   UNL A   1      32.186  27.487  24.010  1.00  0.00     0.054 A 
ATOM     20  C   UNL A   1      32.649  27.427  26.768  1.00  0.00     0.004 A 
ATOM     21  C   UNL A   1      31.453  28.297  24.883  1.00  0.00     0.124 A 
ATOM     22  C   UNL A   1      31.681  28.280  26.254  1.00  0.00     0.039 A 
ATOM     23  F   UNL A   1      30.501  29.107  24.397  1.00  0.00    -0.207 F 
ENDBRANCH  16  17
ENDBRANCH  14  16
ENDBRANCH   6   8
ENDBRANCH   5   6
ENDBRANCH   4   5
ENDBRANCH   3   4
ENDBRANCH   2   3
ENDBRANCH   1   2
BRANCH   1  24
ATOM     24  C   UNL A   1      40.708  20.701  26.807  1.00  0.00     0.188 C 
BRANCH  24  25
ATOM     25  O   UNL A   1      41.996  21.289  26.925  1.00  0.00    -0.376 OA
BRANCH  25  26
ATOM     26  C   UNL A   1      42.986  20.799  26.027  1.00  0.00     0.202 C 
BRANCH  26  27
ATOM     27  C   UNL A   1      43.785  21.859  25.260  1.00  0.00     0.261 C 
BRANCH  27  28
ATOM     28  O   UNL A   1      43.039  23.045  24.915  1.00  0.00    -0.460 OA
BRANCH  28  29
ATOM     29  C   UNL A   1      43.725  24.211  24.995  1.00  0.00     0.338 C 
ATOM     30  O   UNL A   1      44.772  24.496  24.436  1.00  0.00    -0.246 OA
BRANCH  29  31
ATOM     31  C   UNL A   1      43.007  25.190  25.831  1.00  0.00     0.060 A 
ATOM     32  C   UNL A   1      43.425  26.528  25.854  1.00  0.00     0.016 A 
ATOM     33  C   UNL A   1      42.043  24.737  26.731  1.00  0.00     0.016 A 
ATOM     34  C   UNL A   1      42.893  27.411  26.803  1.00  0.00     0.010 A 
ATOM     35  C   UNL A   1      41.521  25.617  27.682  1.00  0.00     0.010 A 
ATOM     36  C   UNL A   1      41.967  26.950  27.748  1.00  0.00    -0.014 A 
BRANCH  36  37
ATOM     37  C   UNL A   1      41.558  27.797  28.899  1.00  0.00     0.031 A 
ATOM     38  C   UNL A   1      42.306  27.682  30.200  1.00  0.00     0.074 A 
ATOM     39  C   UNL A   1      40.508  28.632  28.809  1.00  0.00     0.049 A 
ATOM     40  N   UNL A   1      42.071  28.258  31.353  1.00  0.00    -0.248 NA
ATOM     41  C   UNL A   1      43.475  26.789  30.201  1.00  0.00     0.031 C 
ATOM     42  C   UNL A   1      39.710  28.858  27.608  1.00  0.00     0.029 A 
ATOM     43  N   UNL A   1      39.921  29.429  29.762  1.00  0.00    -0.354 N 
ATOM     44  C   UNL A   1      43.055  27.795  32.216  1.00  0.00     0.074 A 
ATOM     45  C   UNL A   1      43.871  26.864  31.462  1.00  0.00     0.031 C 
ATOM     46  C   UNL A   1      38.726  29.725  27.898  1.00  0.00     0.029 A 
ATOM     47  C   UNL A   1      38.805  30.090  29.312  1.00  0.00     0.049 A 
ATOM     48  H   UNL A   1      40.268  29.519  30.679  1.00  0.00     0.167 HD
ATOM     49  C   UNL A   1      43.268  28.119  33.514  1.00  0.00     0.037 A 
ATOM     50  C   UNL A   1      37.934  30.878  29.972  1.00  0.00     0.037 A 
ATOM     51  C   UNL A   1      42.452  29.036  34.270  1.00  0.00     0.049 A 
ATOM     52  C   UNL A   1      38.144  31.165  31.438  1.00  0.00     0.074 A 
ATOM     53  C   UNL A   1      42.609  29.451  35.582  1.00  0.00     0.029 A 
ATOM     54  N   UNL A   1      41.315  29.666  33.787  1.00  0.00    -0.354 N 
ATOM     55  N   UNL A   1      39.103  30.762  32.235  1.00  0.00    -0.248 NA
ATOM     56  C   UNL A   1      37.145  32.021  32.096  1.00  0.00     0.031 C 
ATOM     57  C   UNL A   1      41.534  30.284  35.910  1.00  0.00     0.029 A 
ATOM     58  C   UNL A   1      40.742  30.441  34.785  1.00  0.00     0.049 A 
ATOM     59  H   UNL A   1      40.967  29.578  32.870  1.00  0.00     0.167 HD
ATOM     60  C   UNL A   1      38.845  31.342  33.471  1.00  0.00     0.074 A 
ATOM     61  C   UNL A   1      37.641  32.131  33.320  1.00  0.00     0.031 C 
ATOM     62  C   UNL A   1      39.546  31.231  34.627  1.00  0.00     0.037 A 
BRANCH  49  63
ATOM     63  C   UNL A   1      44.418  27.454  34.213  1.00  0.00     0.064 A 
ATOM     64  C   UNL A   1      44.307  26.163  34.752  1.00  0.00     0.173 A 
ATOM     65  C   UNL A   1      45.657  28.104  34.322  1.00  0.00     0.173 A 
ATOM     66  F   UNL A   1      43.143  25.498  34.682  1.00  0.00    -0.203 F 
ATOM     67  C   UNL A   1      45.381  25.564  35.407  1.00  0.00     0.198 A 
ATOM     68  C   UNL A   1      46.738  27.490  34.948  1.00  0.00     0.198 A 
ATOM     69  F   UNL A   1      45.821  29.336  33.815  1.00  0.00    -0.203 F 
ATOM     70  F   UNL A   1      45.236  24.353  35.962  1.00  0.00    -0.200 F 
ATOM     71  C   UNL A   1      46.597  26.226  35.499  1.00  0.00     0.200 A 
ATOM     72  F   UNL A   1      47.917  28.124  35.023  1.00  0.00    -0.200 F 
ATOM     73  F   UNL A   1      47.630  25.646  36.125  1.00  0.00    -0.200 F 
ENDBRANCH  49  63
BRANCH  50  74
ATOM     74  C   UNL A   1      36.773  31.461  29.251  1.00  0.00     0.064 A 
ATOM     75  C   UNL A   1      36.728  32.829  28.947  1.00  0.00     0.173 A 
ATOM     76  C   UNL A   1      35.679  30.672  28.868  1.00  0.00     0.173 A 
ATOM     77  F   UNL A   1      37.735  33.632  29.323  1.00  0.00    -0.203 F 
ATOM     78  C   UNL A   1      35.626  33.388  28.303  1.00  0.00     0.198 A 
ATOM     79  C   UNL A   1      34.591  31.225  28.198  1.00  0.00     0.198 A 
ATOM     80  F   UNL A   1      35.669  29.360  29.144  1.00  0.00    -0.203 F 
ATOM     81  F   UNL A   1      35.586  34.707  28.071  1.00  0.00    -0.200 F 
ATOM     82  C   UNL A   1      34.562  32.585  27.923  1.00  0.00     0.200 A 
ATOM     83  F   UNL A   1      33.566  30.446  27.828  1.00  0.00    -0.200 F 
ATOM     84  F   UNL A   1      33.501  33.122  27.304  1.00  0.00    -0.200 F 
ENDBRANCH  50  74
BRANCH  62  85
ATOM     85  C   UNL A   1      39.061  32.014  35.816  1.00  0.00     0.064 A 
ATOM     86  C   UNL A   1      38.245  31.437  36.801  1.00  0.00     0.173 A 
ATOM     87  C   UNL A   1      39.455  33.350  35.994  1.00  0.00     0.173 A 
ATOM     88  F   UNL A   1      37.828  30.168  36.674  1.00  0.00    -0.203 F 
ATOM     89  C   UNL A   1      37.822  32.174  37.905  1.00  0.00     0.198 A 
ATOM     90  C   UNL A   1      39.057  34.074  37.114  1.00  0.00     0.198 A 
ATOM     91  F   UNL A   1      40.241  33.951  35.088  1.00  0.00    -0.203 F 
ATOM     92  F   UNL A   1      37.004  31.616  38.808  1.00  0.00    -0.200 F 
ATOM     93  C   UNL A   1      38.235  33.489  38.065  1.00  0.00     0.200 A 
ATOM     94  F   UNL A   1      39.470  35.339  37.275  1.00  0.00    -0.200 F 
ATOM     95  F   UNL A   1      37.835  34.193  39.133  1.00  0.00    -0.200 F 
ENDBRANCH  62  85
ENDBRANCH  36  37
ENDBRANCH  29  31
ENDBRANCH  28  29
ENDBRANCH  27  28
ENDBRANCH  26  27
ENDBRANCH  25  26
ENDBRANCH  24  25
ENDBRANCH   1  24
TORSDOF 19
ENDMDL
MODEL 2
REMARK VINA RESULT:     -11.4      0.194      1.568
REMARK SMILES Cc1cc(C)c(C(=O)OCCOCCOCCOC(=O)c2ccc(-c3c4nc(c(-c5c(F)c(F)c(F)c(F)c5F)c5ccc([nH]5)c(-c5c(F)c(F)c(F)c(F)c5F)c5nc(c(-c6c(F)c(F)c(F)c(F)c6F)c6ccc3[nH]6)C=C5)C=C4)cc2)c(Sc2cccc(F)c2)n1
REMARK SMILES IDX 13 1 12 2 11 3 10 4 9 5 7 6 8 7 6 8 1 9 2 10 3 11 93 12 4 13
REMARK SMILES IDX 84 14 5 15 85 16 86 17 87 18 92 19 88 20 90 21 89 22 91 23
REMARK SMILES IDX 14 24 15 25 16 26 17 27 18 28 19 29 20 30 21 31 22 32 83 33
REMARK SMILES IDX 23 34 82 35 24 36 25 37 26 38 76 39 27 40 81 41 75 42 77 43
REMARK SMILES IDX 28 44 80 45 74 46 73 47 29 49 61 50 41 51 60 52 42 53 45 54
REMARK SMILES IDX 59 55 78 56 43 57 44 58 58 60 79 61 46 62 30 63 31 64 39 65
REMARK SMILES IDX 32 66 33 67 37 68 40 69 34 70 35 71 38 72 36 73 62 74 63 75
REMARK SMILES IDX 71 76 64 77 65 78 69 79 72 80 66 81 67 82 70 83 68 84 47 85
REMARK SMILES IDX 48 86 56 87 49 88 50 89 54 90 57 91 51 92 52 93 55 94 53 95
REMARK H PARENT 77 48 45 59
REMARK Flexibility Score: inf
ROOT
ATOM      1  C   UNL A   1      39.499  21.626  26.110  1.00  0.00     0.188 C 
ENDROOT
BRANCH   1   2
ATOM      2  O   UNL A   1      38.960  22.700  26.876  1.00  0.00    -0.376 OA
BRANCH   2   3
ATOM      3  C   UNL A   1      38.510  23.850  26.138  1.00  0.00     0.202 C 
BRANCH   3   4
ATOM      4  C   UNL A   1      37.077  23.902  25.564  1.00  0.00     0.261 C 
BRANCH   4   5
ATOM      5  O   UNL A   1      36.759  22.708  24.855  1.00  0.00    -0.460 OA
BRANCH   5   6
ATOM      6  C   UNL A   1      36.001  22.761  23.750  1.00  0.00     0.341 C 
ATOM      7  O   UNL A   1      36.392  22.869  22.603  1.00  0.00    -0.246 OA
BRANCH   6   8
ATOM      8  C   UNL A   1      34.600  22.570  24.186  1.00  0.00     0.095 A 
ATOM      9  C   UNL A   1      30.702  22.360  25.861  1.00  0.00     0.067 C 
ATOM     10  C   UNL A   1      32.030  22.365  25.166  1.00  0.00     0.039 A 
ATOM     11  C   UNL A   1      32.862  21.267  25.271  1.00  0.00     0.028 A 
ATOM     12  N   UNL A   1      32.400  23.486  24.512  1.00  0.00    -0.246 NA
ATOM     13  C   UNL A   1      34.164  21.341  24.762  1.00  0.00    -0.032 A 
ATOM     14  C   UNL A   1      33.666  23.602  24.010  1.00  0.00     0.116 A 
ATOM     15  C   UNL A   1      35.011  20.102  24.923  1.00  0.00     0.045 C 
BRANCH  14  16
ATOM     16  S   UNL A   1      33.871  25.209  23.263  1.00  0.00    -0.069 SA
BRANCH  16  17
ATOM     17  C   UNL A   1      33.186  26.477  24.304  1.00  0.00     0.017 A 
ATOM     18  C   UNL A   1      33.582  26.500  25.651  1.00  0.00     0.015 A 
ATOM     19  C   UNL A   1      32.140  27.315  23.910  1.00  0.00     0.054 A 
ATOM     20  C   UNL A   1      32.994  27.370  26.573  1.00  0.00     0.004 A 
ATOM     21  C   UNL A   1      31.542  28.169  24.842  1.00  0.00     0.124 A 
ATOM     22  C   UNL A   1      31.965  28.209  26.165  1.00  0.00     0.039 A 
ATOM     23  F   UNL A   1      30.534  28.967  24.462  1.00  0.00    -0.207 F 
ENDBRANCH  16  17
ENDBRANCH  14  16
ENDBRANCH   6   8
ENDBRANCH   5   6
ENDBRANCH   4   5
ENDBRANCH   3   4
ENDBRANCH   2   3
ENDBRANCH   1   2
BRANCH   1  24
ATOM     24  C   UNL A   1      40.555  20.745  26.763  1.00  0.00     0.188 C 
BRANCH  24  25
ATOM     25  O   UNL A   1      41.853  21.319  26.831  1.00  0.00    -0.376 OA
BRANCH  25  26
ATOM     26  C   UNL A   1      42.817  20.778  25.933  1.00  0.00     0.202 C 
BRANCH  26  27
ATOM     27  C   UNL A   1      43.688  21.795  25.187  1.00  0.00     0.261 C 
BRANCH  27  28
ATOM     28  O   UNL A   1      43.002  22.999  24.786  1.00  0.00    -0.460 OA
BRANCH  28  29
ATOM     29  C   UNL A   1      43.720  24.144  24.894  1.00  0.00     0.338 C 
ATOM     30  O   UNL A   1      44.782  24.408  24.354  1.00  0.00    -0.246 OA
BRANCH  29  31
ATOM     31  C   UNL A   1      43.019  25.130  25.735  1.00  0.00     0.060 A 
ATOM     32  C   UNL A   1      43.434  26.469  25.736  1.00  0.00     0.016 A 
ATOM     33  C   UNL A   1      42.074  24.684  26.660  1.00  0.00     0.016 A 
ATOM     34  C   UNL A   1      42.921  27.361  26.687  1.00  0.00     0.010 A 
ATOM     35  C   UNL A   1      41.571  25.574  27.613  1.00  0.00     0.010 A 
ATOM     36  C   UNL A   1      42.016  26.907  27.656  1.00  0.00    -0.014 A 
BRANCH  36  37
ATOM     37  C   UNL A   1      41.630  27.765  28.807  1.00  0.00     0.031 A 
ATOM     38  C   UNL A   1      42.404  27.662  30.094  1.00  0.00     0.074 A 
ATOM     39  C   UNL A   1      40.579  28.600  28.730  1.00  0.00     0.049 A 
ATOM     40  N   UNL A   1      42.191  28.248  31.246  1.00  0.00    -0.248 NA
ATOM     41  C   UNL A   1      43.571  26.768  30.081  1.00  0.00     0.031 C 
ATOM     42  C   UNL A   1      39.759  28.816  27.543  1.00  0.00     0.029 A 
ATOM     43  N   UNL A   1      40.012  29.407  29.686  1.00  0.00    -0.354 N 
ATOM     44  C   UNL A   1      43.192  27.792  32.094  1.00  0.00     0.074 A 
ATOM     45  C   UNL A   1      43.991  26.854  31.333  1.00  0.00     0.031 C 
ATOM     46  C   UNL A   1      38.781  29.688  27.843  1.00  0.00     0.029 A 
ATOM     47  C   UNL A   1      38.887  30.064  29.253  1.00  0.00     0.049 A 
ATOM     48  H   UNL A   1      40.376  29.505  30.596  1.00  0.00     0.167 HD
ATOM     49  C   UNL A   1      43.429  28.128  33.385  1.00  0.00     0.037 A 
ATOM     50  C   UNL A   1      38.030  30.860  29.922  1.00  0.00     0.037 A 
ATOM     51  C   UNL A   1      42.629  29.052  34.148  1.00  0.00     0.049 A 
ATOM     52  C   UNL A   1      38.269  31.160  31.381  1.00  0.00     0.074 A 
ATOM     53  C   UNL A   1      42.812  29.479  35.453  1.00  0.00     0.029 A 
ATOM     54  N   UNL A   1      41.484  29.679  33.682  1.00  0.00    -0.354 N 
ATOM     55  N   UNL A   1      39.242  30.763  32.163  1.00  0.00    -0.248 NA
ATOM     56  C   UNL A   1      37.283  32.023  32.050  1.00  0.00     0.031 C 
ATOM     57  C   UNL A   1      41.744  30.316  35.795  1.00  0.00     0.029 A 
ATOM     58  C   UNL A   1      40.930  30.463  34.684  1.00  0.00     0.049 A 
ATOM     59  H   UNL A   1      41.118  29.583  32.773  1.00  0.00     0.167 HD
ATOM     60  C   UNL A   1      39.009  31.354  33.399  1.00  0.00     0.074 A 
ATOM     61  C   UNL A   1      37.804  32.144  33.263  1.00  0.00     0.031 C 
ATOM     62  C   UNL A   1      39.733  31.253  34.542  1.00  0.00     0.037 A 
BRANCH  49  63
ATOM     63  C   UNL A   1      44.593  27.467  34.067  1.00  0.00     0.064 A 
ATOM     64  C   UNL A   1      45.869  28.052  34.081  1.00  0.00     0.173 A 
ATOM     65  C   UNL A   1      44.425  26.246  34.737  1.00  0.00     0.173 A 
ATOM     66  F   UNL A   1      46.087  29.216  33.450  1.00  0.00    -0.203 F 
ATOM     67  C   UNL A   1      46.940  27.420  34.709  1.00  0.00     0.198 A 
ATOM     68  C   UNL A   1      45.491  25.633  35.390  1.00  0.00     0.198 A 
ATOM     69  F   UNL A   1      43.224  25.647  34.763  1.00  0.00    -0.203 F 
ATOM     70  F   UNL A   1      48.161  27.970  34.663  1.00  0.00    -0.200 F 
ATOM     71  C   UNL A   1      46.748  26.215  35.367  1.00  0.00     0.200 A 
ATOM     72  F   UNL A   1      45.300  24.476  36.040  1.00  0.00    -0.200 F 
ATOM     73  F   UNL A   1      47.779  25.611  35.974  1.00  0.00    -0.200 F 
ENDBRANCH  49  63
BRANCH  50  74
ATOM     74  C   UNL A   1      36.856  31.438  29.218  1.00  0.00     0.064 A 
ATOM     75  C   UNL A   1      36.815  32.799  28.885  1.00  0.00     0.173 A 
ATOM     76  C   UNL A   1      35.746  30.650  28.882  1.00  0.00     0.173 A 
ATOM     77  F   UNL A   1      37.838  33.601  29.217  1.00  0.00    -0.203 F 
ATOM     78  C   UNL A   1      35.701  33.353  28.257  1.00  0.00     0.198 A 
ATOM     79  C   UNL A   1      34.645  31.199  28.228  1.00  0.00     0.198 A 
ATOM     80  F   UNL A   1      35.732  29.344  29.187  1.00  0.00    -0.203 F 
ATOM     81  F   UNL A   1      35.667  34.667  27.997  1.00  0.00    -0.200 F 
ATOM     82  C   UNL A   1      34.621  32.552  27.923  1.00  0.00     0.200 A 
ATOM     83  F   UNL A   1      33.605  30.421  27.902  1.00  0.00    -0.200 F 
ATOM     84  F   UNL A   1      33.549  33.085  27.319  1.00  0.00    -0.200 F 
ENDBRANCH  50  74
BRANCH  62  85
ATOM     85  C   UNL A   1      39.272  32.047  35.732  1.00  0.00     0.064 A 
ATOM     86  C   UNL A   1      39.658  33.382  35.928  1.00  0.00     0.173 A 
ATOM     87  C   UNL A   1      38.395  31.478  36.670  1.00  0.00     0.173 A 
ATOM     88  F   UNL A   1      40.505  33.972  35.070  1.00  0.00    -0.203 F 
ATOM     89  C   UNL A   1      39.205  34.108  37.027  1.00  0.00     0.198 A 
ATOM     90  C   UNL A   1      37.918  32.215  37.750  1.00  0.00     0.198 A 
ATOM     91  F   UNL A   1      37.987  30.208  36.530  1.00  0.00    -0.203 F 
ATOM     92  F   UNL A   1      39.625  35.366  37.218  1.00  0.00    -0.200 F 
ATOM     93  C   UNL A   1      38.329  33.527  37.932  1.00  0.00     0.200 A 
ATOM     94  F   UNL A   1      37.059  31.656  38.615  1.00  0.00    -0.200 F 
ATOM     95  F   UNL A   1      37.886  34.230  38.984  1.00  0.00    -0.200 F 
ENDBRANCH  62  85
ENDBRANCH  36  37
ENDBRANCH  29  31
ENDBRANCH  28  29
ENDBRANCH  27  28
ENDBRANCH  26  27
ENDBRANCH  25  26
ENDBRANCH  24  25
ENDBRANCH   1  24
TORSDOF 19
ENDMDL
MODEL 3
REMARK VINA RESULT:     -11.3      1.436      3.077
REMARK SMILES Cc1cc(C)c(C(=O)OCCOCCOCCOC(=O)c2ccc(-c3c4nc(c(-c5c(F)c(F)c(F)c(F)c5F)c5ccc([nH]5)c(-c5c(F)c(F)c(F)c(F)c5F)c5nc(c(-c6c(F)c(F)c(F)c(F)c6F)c6ccc3[nH]6)C=C5)C=C4)cc2)c(Sc2cccc(F)c2)n1
REMARK SMILES IDX 13 1 12 2 11 3 10 4 9 5 7 6 8 7 6 8 1 9 2 10 3 11 93 12 4 13
REMARK SMILES IDX 84 14 5 15 85 16 86 17 87 18 92 19 88 20 90 21 89 22 91 23
REMARK SMILES IDX 14 24 15 25 16 26 17 27 18 28 19 29 20 30 21 31 22 32 83 33
REMARK SMILES IDX 23 34 82 35 24 36 25 37 26 38 76 39 27 40 81 41 75 42 77 43
REMARK SMILES IDX 28 44 80 45 74 46 73 47 29 49 61 50 41 51 60 52 42 53 45 54
REMARK SMILES IDX 59 55 78 56 43 57 44 58 58 60 79 61 46 62 30 63 31 64 39 65
REMARK SMILES IDX 32 66 33 67 37 68 40 69 34 70 35 71 38 72 36 73 62 74 63 75
REMARK SMILES IDX 71 76 64 77 65 78 69 79 72 80 66 81 67 82 70 83 68 84 47 85
REMARK SMILES IDX 48 86 56 87 49 88 50 89 54 90 57 91 51 92 52 93 55 94 53 95
REMARK H PARENT 77 48 45 59
REMARK Flexibility Score: inf
ROOT
ATOM      1  C   UNL A   1      40.138  21.986  26.656  1.00  0.00     0.188 C 
ENDROOT
BRANCH   1   2
ATOM      2  O   UNL A   1      39.311  22.984  27.245  1.00  0.00    -0.376 OA
BRANCH   2   3
ATOM      3  C   UNL A   1      38.415  23.679  26.358  1.00  0.00     0.202 C 
BRANCH   3   4
ATOM      4  C   UNL A   1      37.258  22.926  25.664  1.00  0.00     0.261 C 
BRANCH   4   5
ATOM      5  O   UNL A   1      35.999  23.518  25.969  1.00  0.00    -0.460 OA
BRANCH   5   6
ATOM      6  C   UNL A   1      35.110  23.752  24.992  1.00  0.00     0.341 C 
ATOM      7  O   UNL A   1      35.340  23.826  23.800  1.00  0.00    -0.246 OA
BRANCH   6   8
ATOM      8  C   UNL A   1      33.779  23.812  25.635  1.00  0.00     0.095 A 
ATOM      9  C   UNL A   1      29.758  23.782  27.004  1.00  0.00     0.067 C 
ATOM     10  C   UNL A   1      31.212  23.826  26.645  1.00  0.00     0.039 A 
ATOM     11  C   UNL A   1      31.807  25.037  26.348  1.00  0.00     0.028 A 
ATOM     12  N   UNL A   1      31.880  22.657  26.556  1.00  0.00    -0.246 NA
ATOM     13  C   UNL A   1      33.116  25.056  25.854  1.00  0.00    -0.032 A 
ATOM     14  C   UNL A   1      33.157  22.632  26.067  1.00  0.00     0.116 A 
ATOM     15  C   UNL A   1      33.691  26.417  25.547  1.00  0.00     0.045 C 
BRANCH  14  16
ATOM     16  S   UNL A   1      33.744  20.948  26.012  1.00  0.00    -0.069 SA
BRANCH  16  17
ATOM     17  C   UNL A   1      33.056  20.089  24.615  1.00  0.00     0.017 A 
ATOM     18  C   UNL A   1      33.195  18.693  24.576  1.00  0.00     0.015 A 
ATOM     19  C   UNL A   1      32.567  20.736  23.478  1.00  0.00     0.054 A 
ATOM     20  C   UNL A   1      32.810  17.950  23.456  1.00  0.00     0.004 A 
ATOM     21  C   UNL A   1      32.202  19.989  22.354  1.00  0.00     0.124 A 
ATOM     22  C   UNL A   1      32.311  18.603  22.337  1.00  0.00     0.039 A 
ATOM     23  F   UNL A   1      31.741  20.614  21.261  1.00  0.00    -0.207 F 
ENDBRANCH  16  17
ENDBRANCH  14  16
ENDBRANCH   6   8
ENDBRANCH   5   6
ENDBRANCH   4   5
ENDBRANCH   3   4
ENDBRANCH   2   3
ENDBRANCH   1   2
BRANCH   1  24
ATOM     24  C   UNL A   1      41.001  21.139  27.581  1.00  0.00     0.188 C 
BRANCH  24  25
ATOM     25  O   UNL A   1      42.368  21.045  27.205  1.00  0.00    -0.376 OA
BRANCH  25  26
ATOM     26  C   UNL A   1      42.623  20.988  25.806  1.00  0.00     0.202 C 
BRANCH  26  27
ATOM     27  C   UNL A   1      43.638  22.001  25.264  1.00  0.00     0.261 C 
BRANCH  27  28
ATOM     28  O   UNL A   1      43.062  23.232  24.779  1.00  0.00    -0.460 OA
BRANCH  28  29
ATOM     29  C   UNL A   1      43.793  24.350  25.010  1.00  0.00     0.338 C 
ATOM     30  O   UNL A   1      44.900  24.617  24.569  1.00  0.00    -0.246 OA
BRANCH  29  31
ATOM     31  C   UNL A   1      43.050  25.303  25.853  1.00  0.00     0.060 A 
ATOM     32  C   UNL A   1      43.402  26.661  25.850  1.00  0.00     0.016 A 
ATOM     33  C   UNL A   1      42.132  24.815  26.782  1.00  0.00     0.016 A 
ATOM     34  C   UNL A   1      42.852  27.528  26.802  1.00  0.00     0.010 A 
ATOM     35  C   UNL A   1      41.591  25.681  27.736  1.00  0.00     0.010 A 
ATOM     36  C   UNL A   1      41.973  27.034  27.776  1.00  0.00    -0.014 A 
BRANCH  36  37
ATOM     37  C   UNL A   1      41.553  27.875  28.927  1.00  0.00     0.031 A 
ATOM     38  C   UNL A   1      42.307  27.774  30.226  1.00  0.00     0.074 A 
ATOM     39  C   UNL A   1      40.488  28.691  28.841  1.00  0.00     0.049 A 
ATOM     40  N   UNL A   1      42.064  28.346  31.380  1.00  0.00    -0.248 NA
ATOM     41  C   UNL A   1      43.491  26.902  30.225  1.00  0.00     0.031 C 
ATOM     42  C   UNL A   1      39.683  28.902  27.641  1.00  0.00     0.029 A 
ATOM     43  N   UNL A   1      39.890  29.479  29.794  1.00  0.00    -0.354 N 
ATOM     44  C   UNL A   1      43.059  27.901  32.240  1.00  0.00     0.074 A 
ATOM     45  C   UNL A   1      43.889  26.985  31.485  1.00  0.00     0.031 C 
ATOM     46  C   UNL A   1      38.684  29.753  27.933  1.00  0.00     0.029 A 
ATOM     47  C   UNL A   1      38.761  30.119  29.347  1.00  0.00     0.049 A 
ATOM     48  H   UNL A   1      40.238  29.575  30.710  1.00  0.00     0.167 HD
ATOM     49  C   UNL A   1      43.269  28.230  33.538  1.00  0.00     0.037 A 
ATOM     50  C   UNL A   1      37.878  30.893  30.009  1.00  0.00     0.037 A 
ATOM     51  C   UNL A   1      42.440  29.132  34.296  1.00  0.00     0.049 A 
ATOM     52  C   UNL A   1      38.087  31.184  31.474  1.00  0.00     0.074 A 
ATOM     53  C   UNL A   1      42.593  29.551  35.607  1.00  0.00     0.029 A 
ATOM     54  N   UNL A   1      41.291  29.743  33.815  1.00  0.00    -0.354 N 
ATOM     55  N   UNL A   1      39.055  30.798  32.269  1.00  0.00    -0.248 NA
ATOM     56  C   UNL A   1      37.075  32.023  32.134  1.00  0.00     0.031 C 
ATOM     57  C   UNL A   1      41.505  30.366  35.938  1.00  0.00     0.029 A 
ATOM     58  C   UNL A   1      40.706  30.507  34.815  1.00  0.00     0.049 A 
ATOM     59  H   UNL A   1      40.942  29.647  32.900  1.00  0.00     0.167 HD
ATOM     60  C   UNL A   1      38.791  31.374  33.506  1.00  0.00     0.074 A 
ATOM     61  C   UNL A   1      37.573  32.143  33.357  1.00  0.00     0.031 C 
ATOM     62  C   UNL A   1      39.497  31.276  34.660  1.00  0.00     0.037 A 
BRANCH  49  63
ATOM     63  C   UNL A   1      44.434  27.585  34.234  1.00  0.00     0.064 A 
ATOM     64  C   UNL A   1      45.684  28.217  34.320  1.00  0.00     0.173 A 
ATOM     65  C   UNL A   1      44.291  26.330  34.843  1.00  0.00     0.173 A 
ATOM     66  F   UNL A   1      45.877  29.416  33.748  1.00  0.00    -0.203 F 
ATOM     67  C   UNL A   1      46.756  27.600  34.959  1.00  0.00     0.198 A 
ATOM     68  C   UNL A   1      45.357  25.730  35.509  1.00  0.00     0.198 A 
ATOM     69  F   UNL A   1      43.115  25.685  34.799  1.00  0.00    -0.203 F 
ATOM     70  F   UNL A   1      47.955  28.198  34.983  1.00  0.00    -0.200 F 
ATOM     71  C   UNL A   1      46.590  26.360  35.558  1.00  0.00     0.200 A 
ATOM     72  F   UNL A   1      45.190  24.538  36.101  1.00  0.00    -0.200 F 
ATOM     73  F   UNL A   1      47.623  25.770  36.176  1.00  0.00    -0.200 F 
ENDBRANCH  49  63
BRANCH  50  74
ATOM     74  C   UNL A   1      36.705  31.455  29.291  1.00  0.00     0.064 A 
ATOM     75  C   UNL A   1      35.629  30.637  28.921  1.00  0.00     0.173 A 
ATOM     76  C   UNL A   1      36.644  32.811  28.941  1.00  0.00     0.173 A 
ATOM     77  F   UNL A   1      35.656  29.326  29.202  1.00  0.00    -0.203 F 
ATOM     78  C   UNL A   1      34.543  31.152  28.215  1.00  0.00     0.198 A 
ATOM     79  C   UNL A   1      35.545  33.332  28.262  1.00  0.00     0.198 A 
ATOM     80  F   UNL A   1      37.653  33.634  29.264  1.00  0.00    -0.203 F 
ATOM     81  F   UNL A   1      33.551  30.337  27.829  1.00  0.00    -0.200 F 
ATOM     82  C   UNL A   1      34.499  32.499  27.892  1.00  0.00     0.200 A 
ATOM     83  F   UNL A   1      35.503  34.635  27.956  1.00  0.00    -0.200 F 
ATOM     84  F   UNL A   1      33.454  32.994  27.214  1.00  0.00    -0.200 F 
ENDBRANCH  50  74
BRANCH  62  85
ATOM     85  C   UNL A   1      39.002  32.051  35.849  1.00  0.00     0.064 A 
ATOM     86  C   UNL A   1      38.203  31.460  36.839  1.00  0.00     0.173 A 
ATOM     87  C   UNL A   1      39.368  33.396  36.023  1.00  0.00     0.173 A 
ATOM     88  F   UNL A   1      37.811  30.182  36.716  1.00  0.00    -0.203 F 
ATOM     89  C   UNL A   1      37.769  32.190  37.944  1.00  0.00     0.198 A 
ATOM     90  C   UNL A   1      38.961  34.114  37.144  1.00  0.00     0.198 A 
ATOM     91  F   UNL A   1      40.137  34.011  35.112  1.00  0.00    -0.203 F 
ATOM     92  F   UNL A   1      36.968  31.617  38.852  1.00  0.00    -0.200 F 
ATOM     93  C   UNL A   1      38.156  33.513  38.099  1.00  0.00     0.200 A 
ATOM     94  F   UNL A   1      39.348  35.388  37.300  1.00  0.00    -0.200 F 
ATOM     95  F   UNL A   1      37.746  34.211  39.168  1.00  0.00    -0.200 F 
ENDBRANCH  62  85
ENDBRANCH  36  37
ENDBRANCH  29  31
ENDBRANCH  28  29
ENDBRANCH  27  28
ENDBRANCH  26  27
ENDBRANCH  25  26
ENDBRANCH  24  25
ENDBRANCH   1  24
TORSDOF 19
ENDMDL
