MODEL 1
REMARK VINA RESULT:     -10.6      0.000      0.000
REMARK SMILES COC(=O)c1c(SCC(=O)Nc2cc(C)ccc2C)[nH]c2cc(C(=O)OCCOCCOCCOC(=O)c3ccc(-c4c5nc(c(-c6c(F)c(F)c(F)c(F)c6F)c6ccc([nH]6)c(-c6c(F)c(F)c(F)c(F)c6F)c6nc(c(-c7c(F)c(F)c(F)c(F)c7F)c7ccc4[nH]7)C=C6)C=C5)cc3)ccc2c1=O
REMARK SMILES IDX 30 1 29 2 28 3 27 4 26 5 24 6 25 7 23 8 5 9 6 10 104 11
REMARK SMILES IDX 20 12 103 13 105 14 21 15 102 17 22 18 101 19 3 20 4 21 2 22
REMARK SMILES IDX 1 23 7 24 8 25 9 26 10 27 11 28 12 30 13 31 18 32 14 33
REMARK SMILES IDX 17 34 19 35 15 36 16 37 31 38 32 39 33 40 34 41 35 42 36 43
REMARK SMILES IDX 37 44 38 45 39 46 100 47 40 48 99 49 41 50 42 51 43 52 93 53
REMARK SMILES IDX 44 54 98 55 92 56 94 57 45 58 97 59 91 60 90 61 46 63 78 64
REMARK SMILES IDX 58 65 77 66 59 67 62 68 76 69 95 70 60 71 61 72 75 74 96 75
REMARK SMILES IDX 63 76 47 77 48 78 56 79 49 80 50 81 54 82 57 83 51 84 52 85
REMARK SMILES IDX 55 86 53 87 79 88 80 89 88 90 81 91 82 92 86 93 89 94 83 95
REMARK SMILES IDX 84 96 87 97 85 98 64 99 65 100 73 101 66 102 67 103 71 104
REMARK SMILES IDX 74 105 68 106 69 107 72 108 70 109
REMARK H PARENT 20 16 11 29 94 62 62 73
REMARK Flexibility Score: inf
ROOT
ATOM      1  C   UNL A   1      33.991  34.669  28.189  1.00  0.00     0.188 C 
ENDROOT
BRANCH   1   2
ATOM      2  O   UNL A   1      33.703  33.269  28.187  1.00  0.00    -0.376 OA
BRANCH   2   3
ATOM      3  C   UNL A   1      34.820  32.405  28.342  1.00  0.00     0.202 C 
BRANCH   3   4
ATOM      4  C   UNL A   1      34.781  31.045  27.620  1.00  0.00     0.261 C 
BRANCH   4   5
ATOM      5  O   UNL A   1      33.571  30.273  27.734  1.00  0.00    -0.460 OA
BRANCH   5   6
ATOM      6  C   UNL A   1      32.802  30.316  26.610  1.00  0.00     0.338 C 
ATOM      7  O   UNL A   1      31.917  31.119  26.353  1.00  0.00    -0.246 OA
BRANCH   6   8
ATOM      8  C   UNL A   1      32.985  29.083  25.814  1.00  0.00     0.062 A 
ATOM      9  C   UNL A   1      34.193  24.457  24.015  1.00  0.00     0.138 A 
ATOM     10  C   UNL A   1      34.300  24.448  25.364  1.00  0.00     0.092 A 
ATOM     11  C   UNL A   1      33.566  25.649  23.367  1.00  0.00     0.205 A 
ATOM     12  N   UNL A   1      33.722  25.469  26.126  1.00  0.00    -0.349 N 
ATOM     13  C   UNL A   1      33.358  26.854  24.196  1.00  0.00     0.046 A 
ATOM     14  O   UNL A   1      33.312  25.693  22.168  1.00  0.00    -0.288 OA
ATOM     15  C   UNL A   1      33.364  26.708  25.587  1.00  0.00     0.051 A 
ATOM     16  H   UNL A   1      33.561  25.307  27.083  1.00  0.00     0.167 HD
ATOM     17  C   UNL A   1      33.254  28.112  23.606  1.00  0.00     0.015 A 
ATOM     18  C   UNL A   1      33.090  27.819  26.402  1.00  0.00     0.042 A 
ATOM     19  C   UNL A   1      33.137  29.230  24.426  1.00  0.00     0.016 A 
BRANCH   9  20
ATOM     20  C   UNL A   1      34.679  23.421  23.100  1.00  0.00     0.344 C 
ATOM     21  O   UNL A   1      35.850  23.328  22.771  1.00  0.00    -0.246 OA
BRANCH  20  22
ATOM     22  O   UNL A   1      33.667  22.593  22.751  1.00  0.00    -0.465 OA
ATOM     23  C   UNL A   1      33.280  21.645  23.751  1.00  0.00     0.282 C 
ENDBRANCH  20  22
ENDBRANCH   9  20
BRANCH  10  24
ATOM     24  S   UNL A   1      35.330  23.372  26.294  1.00  0.00    -0.098 SA
BRANCH  24  25
ATOM     25  C   UNL A   1      37.071  23.575  25.960  1.00  0.00     0.176 C 
BRANCH  25  26
ATOM     26  C   UNL A   1      37.973  22.383  25.749  1.00  0.00     0.234 C 
ATOM     27  O   UNL A   1      37.745  21.621  24.801  1.00  0.00    -0.274 OA
ATOM     28  N   UNL A   1      39.159  22.191  26.399  1.00  0.00    -0.325 N 
ATOM     29  H   UNL A   1      39.520  21.275  26.400  1.00  0.00     0.169 HD
BRANCH  28  30
ATOM     30  C   UNL A   1      39.910  23.166  27.064  1.00  0.00     0.044 A 
ATOM     31  C   UNL A   1      39.266  24.245  27.669  1.00  0.00     0.029 A 
ATOM     32  C   UNL A   1      41.303  23.038  27.163  1.00  0.00    -0.027 A 
ATOM     33  C   UNL A   1      39.987  25.291  28.247  1.00  0.00    -0.049 A 
ATOM     34  C   UNL A   1      42.025  24.067  27.790  1.00  0.00     0.006 A 
ATOM     35  C   UNL A   1      42.077  21.874  26.607  1.00  0.00     0.046 C 
ATOM     36  C   UNL A   1      39.280  26.494  28.794  1.00  0.00     0.044 C 
ATOM     37  C   UNL A   1      41.377  25.193  28.303  1.00  0.00     0.004 A 
ENDBRANCH  28  30
ENDBRANCH  25  26
ENDBRANCH  24  25
ENDBRANCH  10  24
ENDBRANCH   6   8
ENDBRANCH   5   6
ENDBRANCH   4   5
ENDBRANCH   3   4
ENDBRANCH   2   3
ENDBRANCH   1   2
BRANCH   1  38
ATOM     38  C   UNL A   1      32.902  35.575  28.788  1.00  0.00     0.188 C 
BRANCH  38  39
ATOM     39  O   UNL A   1      32.598  35.217  30.136  1.00  0.00    -0.376 OA
BRANCH  39  40
ATOM     40  C   UNL A   1      33.664  35.443  31.059  1.00  0.00     0.202 C 
BRANCH  40  41
ATOM     41  C   UNL A   1      33.669  34.534  32.305  1.00  0.00     0.261 C 
BRANCH  41  42
ATOM     42  O   UNL A   1      34.463  33.324  32.278  1.00  0.00    -0.460 OA
BRANCH  42  43
ATOM     43  C   UNL A   1      35.288  33.073  33.321  1.00  0.00     0.338 C 
ATOM     44  O   UNL A   1      35.115  33.452  34.466  1.00  0.00    -0.246 OA
BRANCH  43  45
ATOM     45  C   UNL A   1      36.464  32.313  32.847  1.00  0.00     0.060 A 
ATOM     46  C   UNL A   1      37.410  31.969  33.801  1.00  0.00     0.016 A 
ATOM     47  C   UNL A   1      36.751  32.213  31.473  1.00  0.00     0.016 A 
ATOM     48  C   UNL A   1      38.693  31.715  33.362  1.00  0.00     0.010 A 
ATOM     49  C   UNL A   1      38.057  31.988  31.051  1.00  0.00     0.010 A 
ATOM     50  C   UNL A   1      39.044  31.791  32.010  1.00  0.00    -0.014 A 
BRANCH  50  51
ATOM     51  C   UNL A   1      40.414  31.380  31.685  1.00  0.00     0.031 A 
ATOM     52  C   UNL A   1      41.249  32.526  31.237  1.00  0.00     0.074 A 
ATOM     53  C   UNL A   1      40.876  30.111  31.731  1.00  0.00     0.049 A 
ATOM     54  N   UNL A   1      42.034  32.574  30.209  1.00  0.00    -0.248 NA
ATOM     55  C   UNL A   1      41.091  33.815  31.941  1.00  0.00     0.031 C 
ATOM     56  C   UNL A   1      40.127  28.945  32.199  1.00  0.00     0.029 A 
ATOM     57  N   UNL A   1      42.116  29.585  31.423  1.00  0.00    -0.354 N 
ATOM     58  C   UNL A   1      42.612  33.835  30.259  1.00  0.00     0.074 A 
ATOM     59  C   UNL A   1      41.914  34.602  31.255  1.00  0.00     0.031 C 
ATOM     60  C   UNL A   1      40.963  27.892  32.303  1.00  0.00     0.029 A 
ATOM     61  C   UNL A   1      42.308  28.301  31.927  1.00  0.00     0.049 A 
ATOM     62  H   UNL A   1      42.794  30.068  30.899  1.00  0.00     0.167 HD
ATOM     63  C   UNL A   1      43.865  34.025  29.785  1.00  0.00     0.037 A 
ATOM     64  C   UNL A   1      43.473  27.632  32.139  1.00  0.00     0.037 A 
ATOM     65  C   UNL A   1      44.189  33.162  28.692  1.00  0.00     0.049 A 
ATOM     66  C   UNL A   1      44.529  28.206  31.273  1.00  0.00     0.074 A 
ATOM     67  C   UNL A   1      43.844  33.085  27.361  1.00  0.00     0.029 A 
ATOM     68  N   UNL A   1      44.771  31.976  29.035  1.00  0.00    -0.354 N 
ATOM     69  N   UNL A   1      44.627  27.989  29.992  1.00  0.00    -0.248 NA
ATOM     70  C   UNL A   1      45.391  29.267  31.791  1.00  0.00     0.031 C 
ATOM     71  C   UNL A   1      44.135  31.755  26.946  1.00  0.00     0.029 A 
ATOM     72  C   UNL A   1      44.654  31.054  28.031  1.00  0.00     0.049 A 
ATOM     73  H   UNL A   1      45.219  31.806  29.895  1.00  0.00     0.167 HD
ATOM     74  C   UNL A   1      45.202  29.143  29.498  1.00  0.00     0.074 A 
ATOM     75  C   UNL A   1      45.814  29.796  30.643  1.00  0.00     0.031 C 
ATOM     76  C   UNL A   1      44.818  29.642  28.292  1.00  0.00     0.037 A 
BRANCH  63  77
ATOM     77  C   UNL A   1      44.914  34.568  30.718  1.00  0.00     0.064 A 
ATOM     78  C   UNL A   1      45.698  35.664  30.343  1.00  0.00     0.173 A 
ATOM     79  C   UNL A   1      45.347  33.852  31.861  1.00  0.00     0.173 A 
ATOM     80  F   UNL A   1      45.419  36.344  29.221  1.00  0.00    -0.203 F 
ATOM     81  C   UNL A   1      46.830  36.030  31.077  1.00  0.00     0.198 A 
ATOM     82  C   UNL A   1      46.436  34.253  32.624  1.00  0.00     0.198 A 
ATOM     83  F   UNL A   1      44.800  32.677  32.206  1.00  0.00    -0.203 F 
ATOM     84  F   UNL A   1      47.609  37.030  30.643  1.00  0.00    -0.200 F 
ATOM     85  C   UNL A   1      47.188  35.336  32.223  1.00  0.00     0.200 A 
ATOM     86  F   UNL A   1      46.788  33.539  33.701  1.00  0.00    -0.200 F 
ATOM     87  F   UNL A   1      48.287  35.673  32.910  1.00  0.00    -0.200 F 
ENDBRANCH  63  77
BRANCH  64  88
ATOM     88  C   UNL A   1      43.783  26.597  33.172  1.00  0.00     0.064 A 
ATOM     89  C   UNL A   1      43.547  26.828  34.542  1.00  0.00     0.173 A 
ATOM     90  C   UNL A   1      44.103  25.266  32.830  1.00  0.00     0.173 A 
ATOM     91  F   UNL A   1      43.179  28.042  34.976  1.00  0.00    -0.203 F 
ATOM     92  C   UNL A   1      43.612  25.797  35.491  1.00  0.00     0.198 A 
ATOM     93  C   UNL A   1      44.198  24.249  33.780  1.00  0.00     0.198 A 
ATOM     94  F   UNL A   1      44.242  24.886  31.555  1.00  0.00    -0.203 F 
ATOM     95  F   UNL A   1      43.306  26.047  36.772  1.00  0.00    -0.200 F 
ATOM     96  C   UNL A   1      43.936  24.508  35.108  1.00  0.00     0.200 A 
ATOM     97  F   UNL A   1      44.487  23.001  33.382  1.00  0.00    -0.200 F 
ATOM     98  F   UNL A   1      43.952  23.513  36.003  1.00  0.00    -0.200 F 
ENDBRANCH  64  88
BRANCH  76  99
ATOM     99  C   UNL A   1      44.378  28.668  27.250  1.00  0.00     0.064 A 
ATOM    100  C   UNL A   1      45.241  27.863  26.492  1.00  0.00     0.173 A 
ATOM    101  C   UNL A   1      42.996  28.512  27.056  1.00  0.00     0.173 A 
ATOM    102  F   UNL A   1      46.570  27.912  26.671  1.00  0.00    -0.203 F 
ATOM    103  C   UNL A   1      44.734  26.971  25.549  1.00  0.00     0.198 A 
ATOM    104  C   UNL A   1      42.494  27.594  26.144  1.00  0.00     0.198 A 
ATOM    105  F   UNL A   1      42.128  29.239  27.778  1.00  0.00    -0.203 F 
ATOM    106  F   UNL A   1      45.572  26.236  24.802  1.00  0.00    -0.200 F 
ATOM    107  C   UNL A   1      43.363  26.832  25.381  1.00  0.00     0.200 A 
ATOM    108  F   UNL A   1      41.169  27.440  26.011  1.00  0.00    -0.200 F 
ATOM    109  F   UNL A   1      42.878  25.955  24.490  1.00  0.00    -0.200 F 
ENDBRANCH  76  99
ENDBRANCH  50  51
ENDBRANCH  43  45
ENDBRANCH  42  43
ENDBRANCH  41  42
ENDBRANCH  40  41
ENDBRANCH  39  40
ENDBRANCH  38  39
ENDBRANCH   1  38
TORSDOF 23
ENDMDL
MODEL 2
REMARK VINA RESULT:     -10.6      4.649      9.757
REMARK SMILES COC(=O)c1c(SCC(=O)Nc2cc(C)ccc2C)[nH]c2cc(C(=O)OCCOCCOCCOC(=O)c3ccc(-c4c5nc(c(-c6c(F)c(F)c(F)c(F)c6F)c6ccc([nH]6)c(-c6c(F)c(F)c(F)c(F)c6F)c6nc(c(-c7c(F)c(F)c(F)c(F)c7F)c7ccc4[nH]7)C=C6)C=C5)cc3)ccc2c1=O
REMARK SMILES IDX 30 1 29 2 28 3 27 4 26 5 24 6 25 7 23 8 5 9 6 10 104 11
REMARK SMILES IDX 20 12 103 13 105 14 21 15 102 17 22 18 101 19 3 20 4 21 2 22
REMARK SMILES IDX 1 23 7 24 8 25 9 26 10 27 11 28 12 30 13 31 18 32 14 33
REMARK SMILES IDX 17 34 19 35 15 36 16 37 31 38 32 39 33 40 34 41 35 42 36 43
REMARK SMILES IDX 37 44 38 45 39 46 100 47 40 48 99 49 41 50 42 51 43 52 93 53
REMARK SMILES IDX 44 54 98 55 92 56 94 57 45 58 97 59 91 60 90 61 46 63 78 64
REMARK SMILES IDX 58 65 77 66 59 67 62 68 76 69 95 70 60 71 61 72 75 74 96 75
REMARK SMILES IDX 63 76 47 77 48 78 56 79 49 80 50 81 54 82 57 83 51 84 52 85
REMARK SMILES IDX 55 86 53 87 79 88 80 89 88 90 81 91 82 92 86 93 89 94 83 95
REMARK SMILES IDX 84 96 87 97 85 98 64 99 65 100 73 101 66 102 67 103 71 104
REMARK SMILES IDX 74 105 68 106 69 107 72 108 70 109
REMARK H PARENT 20 16 11 29 94 62 62 73
REMARK Flexibility Score: inf
ROOT
ATOM      1  C   UNL A   1      33.407  34.706  28.861  1.00  0.00     0.188 C 
ENDROOT
BRANCH   1   2
ATOM      2  O   UNL A   1      33.205  35.871  29.665  1.00  0.00    -0.376 OA
BRANCH   2   3
ATOM      3  C   UNL A   1      33.295  35.680  31.070  1.00  0.00     0.202 C 
BRANCH   3   4
ATOM      4  C   UNL A   1      34.162  34.514  31.581  1.00  0.00     0.261 C 
BRANCH   4   5
ATOM      5  O   UNL A   1      34.995  34.764  32.728  1.00  0.00    -0.460 OA
BRANCH   5   6
ATOM      6  C   UNL A   1      36.277  34.335  32.560  1.00  0.00     0.338 C 
ATOM      7  O   UNL A   1      36.765  33.849  31.550  1.00  0.00    -0.246 OA
BRANCH   6   8
ATOM      8  C   UNL A   1      36.976  34.281  33.862  1.00  0.00     0.062 A 
ATOM      9  C   UNL A   1      40.318  33.824  37.698  1.00  0.00     0.138 A 
ATOM     10  C   UNL A   1      40.997  34.001  36.541  1.00  0.00     0.092 A 
ATOM     11  C   UNL A   1      38.836  34.015  37.681  1.00  0.00     0.205 A 
ATOM     12  N   UNL A   1      40.338  34.472  35.400  1.00  0.00    -0.349 N 
ATOM     13  C   UNL A   1      38.168  34.107  36.367  1.00  0.00     0.046 A 
ATOM     14  O   UNL A   1      38.156  34.002  38.702  1.00  0.00    -0.288 OA
ATOM     15  C   UNL A   1      38.949  34.419  35.249  1.00  0.00     0.051 A 
ATOM     16  H   UNL A   1      40.876  34.859  34.673  1.00  0.00     0.167 HD
ATOM     17  C   UNL A   1      36.816  33.797  36.234  1.00  0.00     0.015 A 
ATOM     18  C   UNL A   1      38.333  34.591  33.999  1.00  0.00     0.042 A 
ATOM     19  C   UNL A   1      36.243  33.819  34.966  1.00  0.00     0.016 A 
BRANCH   9  20
ATOM     20  C   UNL A   1      40.889  33.412  38.983  1.00  0.00     0.344 C 
ATOM     21  O   UNL A   1      40.563  32.382  39.550  1.00  0.00    -0.246 OA
BRANCH  20  22
ATOM     22  O   UNL A   1      41.836  34.295  39.379  1.00  0.00    -0.465 OA
ATOM     23  C   UNL A   1      41.365  35.369  40.200  1.00  0.00     0.282 C 
ENDBRANCH  20  22
ENDBRANCH   9  20
BRANCH  10  24
ATOM     24  S   UNL A   1      42.637  33.458  36.232  1.00  0.00    -0.098 SA
BRANCH  24  25
ATOM     25  C   UNL A   1      42.741  31.775  35.648  1.00  0.00     0.176 C 
BRANCH  25  26
ATOM     26  C   UNL A   1      42.410  30.610  36.549  1.00  0.00     0.234 C 
ATOM     27  O   UNL A   1      42.575  30.732  37.770  1.00  0.00    -0.274 OA
ATOM     28  N   UNL A   1      41.736  29.492  36.146  1.00  0.00    -0.325 N 
ATOM     29  H   UNL A   1      41.817  28.696  36.719  1.00  0.00     0.169 HD
BRANCH  28  30
ATOM     30  C   UNL A   1      40.944  29.367  35.000  1.00  0.00     0.044 A 
ATOM     31  C   UNL A   1      39.862  30.226  34.808  1.00  0.00     0.029 A 
ATOM     32  C   UNL A   1      41.261  28.412  34.023  1.00  0.00    -0.027 A 
ATOM     33  C   UNL A   1      38.985  30.062  33.734  1.00  0.00    -0.049 A 
ATOM     34  C   UNL A   1      40.407  28.282  32.916  1.00  0.00     0.006 A 
ATOM     35  C   UNL A   1      42.449  27.493  34.107  1.00  0.00     0.046 C 
ATOM     36  C   UNL A   1      37.766  30.925  33.606  1.00  0.00     0.044 C 
ATOM     37  C   UNL A   1      39.268  29.080  32.785  1.00  0.00     0.004 A 
ENDBRANCH  28  30
ENDBRANCH  25  26
ENDBRANCH  24  25
ENDBRANCH  10  24
ENDBRANCH   6   8
ENDBRANCH   5   6
ENDBRANCH   4   5
ENDBRANCH   3   4
ENDBRANCH   2   3
ENDBRANCH   1   2
BRANCH   1  38
ATOM     38  C   UNL A   1      34.670  34.708  27.984  1.00  0.00     0.188 C 
BRANCH  38  39
ATOM     39  O   UNL A   1      35.084  33.383  27.651  1.00  0.00    -0.376 OA
BRANCH  39  40
ATOM     40  C   UNL A   1      35.761  32.696  28.704  1.00  0.00     0.202 C 
BRANCH  40  41
ATOM     41  C   UNL A   1      37.194  32.228  28.380  1.00  0.00     0.261 C 
BRANCH  41  42
ATOM     42  O   UNL A   1      37.656  30.971  28.932  1.00  0.00    -0.460 OA
BRANCH  42  43
ATOM     43  C   UNL A   1      37.205  29.822  28.377  1.00  0.00     0.338 C 
ATOM     44  O   UNL A   1      36.035  29.498  28.274  1.00  0.00    -0.246 OA
BRANCH  43  45
ATOM     45  C   UNL A   1      38.355  28.991  27.963  1.00  0.00     0.060 A 
ATOM     46  C   UNL A   1      38.728  27.968  28.822  1.00  0.00     0.016 A 
ATOM     47  C   UNL A   1      39.203  29.404  26.918  1.00  0.00     0.016 A 
ATOM     48  C   UNL A   1      40.025  27.507  28.739  1.00  0.00     0.010 A 
ATOM     49  C   UNL A   1      40.518  28.953  26.871  1.00  0.00     0.010 A 
ATOM     50  C   UNL A   1      40.943  28.036  27.826  1.00  0.00    -0.014 A 
BRANCH  50  51
ATOM     51  C   UNL A   1      42.247  27.366  27.775  1.00  0.00     0.031 A 
ATOM     52  C   UNL A   1      43.181  27.883  28.809  1.00  0.00     0.074 A 
ATOM     53  C   UNL A   1      42.601  26.421  26.875  1.00  0.00     0.049 A 
ATOM     54  N   UNL A   1      44.419  28.228  28.651  1.00  0.00    -0.248 NA
ATOM     55  C   UNL A   1      42.636  28.176  30.151  1.00  0.00     0.031 C 
ATOM     56  C   UNL A   1      41.725  25.837  25.859  1.00  0.00     0.029 A 
ATOM     57  N   UNL A   1      43.789  25.741  26.693  1.00  0.00    -0.354 N 
ATOM     58  C   UNL A   1      44.853  28.593  29.918  1.00  0.00     0.074 A 
ATOM     59  C   UNL A   1      43.702  28.668  30.775  1.00  0.00     0.031 C 
ATOM     60  C   UNL A   1      42.347  24.788  25.286  1.00  0.00     0.029 A 
ATOM     61  C   UNL A   1      43.656  24.608  25.895  1.00  0.00     0.049 A 
ATOM     62  H   UNL A   1      44.644  26.029  27.087  1.00  0.00     0.167 HD
ATOM     63  C   UNL A   1      46.146  28.407  30.270  1.00  0.00     0.037 A 
ATOM     64  C   UNL A   1      44.481  23.531  25.796  1.00  0.00     0.037 A 
ATOM     65  C   UNL A   1      47.052  28.530  29.170  1.00  0.00     0.049 A 
ATOM     66  C   UNL A   1      45.842  23.917  26.238  1.00  0.00     0.074 A 
ATOM     67  C   UNL A   1      47.549  29.567  28.414  1.00  0.00     0.029 A 
ATOM     68  N   UNL A   1      47.329  27.368  28.509  1.00  0.00    -0.354 N 
ATOM     69  N   UNL A   1      46.671  24.628  25.527  1.00  0.00    -0.248 NA
ATOM     70  C   UNL A   1      46.233  23.714  27.631  1.00  0.00     0.031 C 
ATOM     71  C   UNL A   1      48.034  28.989  27.207  1.00  0.00     0.029 A 
ATOM     72  C   UNL A   1      47.824  27.614  27.257  1.00  0.00     0.049 A 
ATOM     73  H   UNL A   1      47.190  26.469  28.884  1.00  0.00     0.167 HD
ATOM     74  C   UNL A   1      47.420  25.309  26.465  1.00  0.00     0.074 A 
ATOM     75  C   UNL A   1      47.246  24.579  27.709  1.00  0.00     0.031 C 
ATOM     76  C   UNL A   1      47.811  26.592  26.235  1.00  0.00     0.037 A 
BRANCH  63  77
ATOM     77  C   UNL A   1      46.450  27.548  31.469  1.00  0.00     0.064 A 
ATOM     78  C   UNL A   1      45.991  26.228  31.531  1.00  0.00     0.173 A 
ATOM     79  C   UNL A   1      46.951  28.093  32.677  1.00  0.00     0.173 A 
ATOM     80  F   UNL A   1      45.414  25.661  30.461  1.00  0.00    -0.203 F 
ATOM     81  C   UNL A   1      46.047  25.496  32.721  1.00  0.00     0.198 A 
ATOM     82  C   UNL A   1      47.063  27.345  33.841  1.00  0.00     0.198 A 
ATOM     83  F   UNL A   1      47.237  29.398  32.796  1.00  0.00    -0.203 F 
ATOM     84  F   UNL A   1      45.520  24.266  32.770  1.00  0.00    -0.200 F 
ATOM     85  C   UNL A   1      46.597  26.049  33.868  1.00  0.00     0.200 A 
ATOM     86  F   UNL A   1      47.556  27.916  34.949  1.00  0.00    -0.200 F 
ATOM     87  F   UNL A   1      46.627  25.355  35.013  1.00  0.00    -0.200 F 
ENDBRANCH  63  77
BRANCH  64  88
ATOM     88  C   UNL A   1      44.134  22.112  25.475  1.00  0.00     0.064 A 
ATOM     89  C   UNL A   1      44.958  21.320  24.651  1.00  0.00     0.173 A 
ATOM     90  C   UNL A   1      43.109  21.418  26.151  1.00  0.00     0.173 A 
ATOM     91  F   UNL A   1      46.000  21.863  24.004  1.00  0.00    -0.203 F 
ATOM     92  C   UNL A   1      44.774  19.935  24.529  1.00  0.00     0.198 A 
ATOM     93  C   UNL A   1      42.908  20.046  26.004  1.00  0.00     0.198 A 
ATOM     94  F   UNL A   1      42.326  22.028  27.050  1.00  0.00    -0.203 F 
ATOM     95  F   UNL A   1      45.627  19.209  23.792  1.00  0.00    -0.200 F 
ATOM     96  C   UNL A   1      43.749  19.299  25.208  1.00  0.00     0.200 A 
ATOM     97  F   UNL A   1      41.926  19.446  26.692  1.00  0.00    -0.200 F 
ATOM     98  F   UNL A   1      43.600  17.971  25.131  1.00  0.00    -0.200 F 
ENDBRANCH  64  88
BRANCH  76  99
ATOM     99  C   UNL A   1      48.067  26.993  24.820  1.00  0.00     0.064 A 
ATOM    100  C   UNL A   1      47.152  27.671  24.003  1.00  0.00     0.173 A 
ATOM    101  C   UNL A   1      49.338  26.715  24.292  1.00  0.00     0.173 A 
ATOM    102  F   UNL A   1      45.942  28.027  24.463  1.00  0.00    -0.203 F 
ATOM    103  C   UNL A   1      47.487  28.016  22.695  1.00  0.00     0.198 A 
ATOM    104  C   UNL A   1      49.682  27.095  23.002  1.00  0.00     0.198 A 
ATOM    105  F   UNL A   1      50.259  26.092  25.045  1.00  0.00    -0.203 F 
ATOM    106  F   UNL A   1      46.588  28.629  21.911  1.00  0.00    -0.200 F 
ATOM    107  C   UNL A   1      48.752  27.734  22.199  1.00  0.00     0.200 A 
ATOM    108  F   UNL A   1      50.917  26.851  22.541  1.00  0.00    -0.200 F 
ATOM    109  F   UNL A   1      49.081  28.089  20.948  1.00  0.00    -0.200 F 
ENDBRANCH  76  99
ENDBRANCH  50  51
ENDBRANCH  43  45
ENDBRANCH  42  43
ENDBRANCH  41  42
ENDBRANCH  40  41
ENDBRANCH  39  40
ENDBRANCH  38  39
ENDBRANCH   1  38
TORSDOF 23
ENDMDL
MODEL 3
REMARK VINA RESULT:     -10.2      2.859      9.334
REMARK SMILES COC(=O)c1c(SCC(=O)Nc2cc(C)ccc2C)[nH]c2cc(C(=O)OCCOCCOCCOC(=O)c3ccc(-c4c5nc(c(-c6c(F)c(F)c(F)c(F)c6F)c6ccc([nH]6)c(-c6c(F)c(F)c(F)c(F)c6F)c6nc(c(-c7c(F)c(F)c(F)c(F)c7F)c7ccc4[nH]7)C=C6)C=C5)cc3)ccc2c1=O
REMARK SMILES IDX 30 1 29 2 28 3 27 4 26 5 24 6 25 7 23 8 5 9 6 10 104 11
REMARK SMILES IDX 20 12 103 13 105 14 21 15 102 17 22 18 101 19 3 20 4 21 2 22
REMARK SMILES IDX 1 23 7 24 8 25 9 26 10 27 11 28 12 30 13 31 18 32 14 33
REMARK SMILES IDX 17 34 19 35 15 36 16 37 31 38 32 39 33 40 34 41 35 42 36 43
REMARK SMILES IDX 37 44 38 45 39 46 100 47 40 48 99 49 41 50 42 51 43 52 93 53
REMARK SMILES IDX 44 54 98 55 92 56 94 57 45 58 97 59 91 60 90 61 46 63 78 64
REMARK SMILES IDX 58 65 77 66 59 67 62 68 76 69 95 70 60 71 61 72 75 74 96 75
REMARK SMILES IDX 63 76 47 77 48 78 56 79 49 80 50 81 54 82 57 83 51 84 52 85
REMARK SMILES IDX 55 86 53 87 79 88 80 89 88 90 81 91 82 92 86 93 89 94 83 95
REMARK SMILES IDX 84 96 87 97 85 98 64 99 65 100 73 101 66 102 67 103 71 104
REMARK SMILES IDX 74 105 68 106 69 107 72 108 70 109
REMARK H PARENT 20 16 11 29 94 62 62 73
REMARK Flexibility Score: inf
ROOT
ATOM      1  C   UNL A   1      41.119  21.935  27.891  1.00  0.00     0.188 C 
ENDROOT
BRANCH   1   2
ATOM      2  O   UNL A   1      40.394  20.886  27.243  1.00  0.00    -0.376 OA
BRANCH   2   3
ATOM      3  C   UNL A   1      39.749  21.237  26.026  1.00  0.00     0.202 C 
BRANCH   3   4
ATOM      4  C   UNL A   1      38.399  21.971  26.116  1.00  0.00     0.261 C 
BRANCH   4   5
ATOM      5  O   UNL A   1      37.630  22.088  24.905  1.00  0.00    -0.460 OA
BRANCH   5   6
ATOM      6  C   UNL A   1      36.438  21.430  24.963  1.00  0.00     0.338 C 
ATOM      7  O   UNL A   1      36.266  20.221  25.027  1.00  0.00    -0.246 OA
BRANCH   6   8
ATOM      8  C   UNL A   1      35.323  22.357  24.670  1.00  0.00     0.062 A 
ATOM      9  C   UNL A   1      31.884  26.133  24.593  1.00  0.00     0.138 A 
ATOM     10  C   UNL A   1      32.953  26.525  25.324  1.00  0.00     0.092 A 
ATOM     11  C   UNL A   1      31.994  24.865  23.809  1.00  0.00     0.205 A 
ATOM     12  N   UNL A   1      34.161  25.825  25.241  1.00  0.00    -0.349 N 
ATOM     13  C   UNL A   1      33.140  23.977  24.093  1.00  0.00     0.046 A 
ATOM     14  O   UNL A   1      31.129  24.497  23.021  1.00  0.00    -0.288 OA
ATOM     15  C   UNL A   1      34.250  24.520  24.748  1.00  0.00     0.051 A 
ATOM     16  H   UNL A   1      34.985  26.272  25.541  1.00  0.00     0.167 HD
ATOM     17  C   UNL A   1      33.072  22.616  23.801  1.00  0.00     0.015 A 
ATOM     18  C   UNL A   1      35.387  23.723  24.962  1.00  0.00     0.042 A 
ATOM     19  C   UNL A   1      34.142  21.800  24.156  1.00  0.00     0.016 A 
BRANCH   9  20
ATOM     20  C   UNL A   1      30.587  26.810  24.522  1.00  0.00     0.344 C 
ATOM     21  O   UNL A   1      29.565  26.331  24.987  1.00  0.00    -0.246 OA
BRANCH  20  22
ATOM     22  O   UNL A   1      30.724  28.024  23.938  1.00  0.00    -0.465 OA
ATOM     23  C   UNL A   1      31.433  28.027  22.695  1.00  0.00     0.282 C 
ENDBRANCH  20  22
ENDBRANCH   9  20
BRANCH  10  24
ATOM     24  S   UNL A   1      32.923  27.728  26.602  1.00  0.00    -0.098 SA
BRANCH  24  25
ATOM     25  C   UNL A   1      34.460  28.613  26.794  1.00  0.00     0.176 C 
BRANCH  25  26
ATOM     26  C   UNL A   1      34.494  30.016  27.352  1.00  0.00     0.234 C 
ATOM     27  O   UNL A   1      33.423  30.588  27.596  1.00  0.00    -0.274 OA
ATOM     28  N   UNL A   1      35.620  30.633  27.815  1.00  0.00    -0.325 N 
ATOM     29  H   UNL A   1      35.588  31.614  27.893  1.00  0.00     0.169 HD
BRANCH  28  30
ATOM     30  C   UNL A   1      36.816  30.010  28.190  1.00  0.00     0.044 A 
ATOM     31  C   UNL A   1      37.852  29.884  27.265  1.00  0.00     0.029 A 
ATOM     32  C   UNL A   1      36.993  29.554  29.504  1.00  0.00    -0.027 A 
ATOM     33  C   UNL A   1      39.015  29.174  27.568  1.00  0.00    -0.049 A 
ATOM     34  C   UNL A   1      38.184  28.884  29.824  1.00  0.00     0.006 A 
ATOM     35  C   UNL A   1      35.962  29.711  30.589  1.00  0.00     0.046 C 
ATOM     36  C   UNL A   1      40.068  28.955  26.525  1.00  0.00     0.044 C 
ATOM     37  C   UNL A   1      39.174  28.674  28.860  1.00  0.00     0.004 A 
ENDBRANCH  28  30
ENDBRANCH  25  26
ENDBRANCH  24  25
ENDBRANCH  10  24
ENDBRANCH   6   8
ENDBRANCH   5   6
ENDBRANCH   4   5
ENDBRANCH   3   4
ENDBRANCH   2   3
ENDBRANCH   1   2
BRANCH   1  38
ATOM     38  C   UNL A   1      42.641  21.925  27.679  1.00  0.00     0.188 C 
BRANCH  38  39
ATOM     39  O   UNL A   1      42.985  21.619  26.327  1.00  0.00    -0.376 OA
BRANCH  39  40
ATOM     40  C   UNL A   1      44.264  22.107  25.920  1.00  0.00     0.202 C 
BRANCH  40  41
ATOM     41  C   UNL A   1      44.268  22.983  24.651  1.00  0.00     0.261 C 
BRANCH  41  42
ATOM     42  O   UNL A   1      44.108  24.415  24.796  1.00  0.00    -0.460 OA
BRANCH  42  43
ATOM     43  C   UNL A   1      45.215  25.168  24.995  1.00  0.00     0.338 C 
ATOM     44  O   UNL A   1      46.345  24.867  24.653  1.00  0.00    -0.246 OA
BRANCH  43  45
ATOM     45  C   UNL A   1      44.851  26.391  25.741  1.00  0.00     0.060 A 
ATOM     46  C   UNL A   1      45.784  26.870  26.648  1.00  0.00     0.016 A 
ATOM     47  C   UNL A   1      43.525  26.861  25.750  1.00  0.00     0.016 A 
ATOM     48  C   UNL A   1      45.323  27.667  27.674  1.00  0.00     0.010 A 
ATOM     49  C   UNL A   1      43.070  27.638  26.810  1.00  0.00     0.010 A 
ATOM     50  C   UNL A   1      43.970  27.997  27.808  1.00  0.00    -0.014 A 
BRANCH  50  51
ATOM     51  C   UNL A   1      43.650  28.948  28.879  1.00  0.00     0.031 A 
ATOM     52  C   UNL A   1      43.412  28.265  30.178  1.00  0.00     0.074 A 
ATOM     53  C   UNL A   1      43.531  30.285  28.720  1.00  0.00     0.049 A 
ATOM     54  N   UNL A   1      42.439  28.467  31.006  1.00  0.00    -0.248 NA
ATOM     55  C   UNL A   1      44.289  27.132  30.535  1.00  0.00     0.031 C 
ATOM     56  C   UNL A   1      43.789  31.026  27.486  1.00  0.00     0.029 A 
ATOM     57  N   UNL A   1      43.205  31.280  29.622  1.00  0.00    -0.354 N 
ATOM     58  C   UNL A   1      42.698  27.621  32.076  1.00  0.00     0.074 A 
ATOM     59  C   UNL A   1      43.762  26.736  31.690  1.00  0.00     0.031 C 
ATOM     60  C   UNL A   1      43.776  32.348  27.751  1.00  0.00     0.029 A 
ATOM     61  C   UNL A   1      43.524  32.557  29.169  1.00  0.00     0.049 A 
ATOM     62  H   UNL A   1      42.788  31.103  30.496  1.00  0.00     0.167 HD
ATOM     63  C   UNL A   1      42.314  27.971  33.325  1.00  0.00     0.037 A 
ATOM     64  C   UNL A   1      43.688  33.701  29.885  1.00  0.00     0.037 A 
ATOM     65  C   UNL A   1      41.121  28.760  33.346  1.00  0.00     0.049 A 
ATOM     66  C   UNL A   1      42.963  33.579  31.172  1.00  0.00     0.074 A 
ATOM     67  C   UNL A   1      39.780  28.525  33.146  1.00  0.00     0.029 A 
ATOM     68  N   UNL A   1      41.314  30.111  33.300  1.00  0.00    -0.354 N 
ATOM     69  N   UNL A   1      41.670  33.675  31.298  1.00  0.00    -0.248 NA
ATOM     70  C   UNL A   1      43.669  33.090  32.354  1.00  0.00     0.031 C 
ATOM     71  C   UNL A   1      39.188  29.787  32.857  1.00  0.00     0.029 A 
ATOM     72  C   UNL A   1      40.181  30.762  32.892  1.00  0.00     0.049 A 
ATOM     73  H   UNL A   1      42.159  30.559  33.531  1.00  0.00     0.167 HD
ATOM     74  C   UNL A   1      41.377  32.862  32.374  1.00  0.00     0.074 A 
ATOM     75  C   UNL A   1      42.630  32.689  33.088  1.00  0.00     0.031 C 
ATOM     76  C   UNL A   1      40.240  32.113  32.383  1.00  0.00     0.037 A 
BRANCH  63  77
ATOM     77  C   UNL A   1      43.362  28.071  34.401  1.00  0.00     0.064 A 
ATOM     78  C   UNL A   1      43.226  27.350  35.593  1.00  0.00     0.173 A 
ATOM     79  C   UNL A   1      44.357  29.079  34.389  1.00  0.00     0.173 A 
ATOM     80  F   UNL A   1      42.249  26.442  35.728  1.00  0.00    -0.203 F 
ATOM     81  C   UNL A   1      44.048  27.611  36.694  1.00  0.00     0.198 A 
ATOM     82  C   UNL A   1      45.212  29.294  35.462  1.00  0.00     0.198 A 
ATOM     83  F   UNL A   1      44.454  29.962  33.385  1.00  0.00    -0.203 F 
ATOM     84  F   UNL A   1      43.836  26.965  37.848  1.00  0.00    -0.200 F 
ATOM     85  C   UNL A   1      45.049  28.568  36.622  1.00  0.00     0.200 A 
ATOM     86  F   UNL A   1      46.141  30.256  35.384  1.00  0.00    -0.200 F 
ATOM     87  F   UNL A   1      45.817  28.833  37.686  1.00  0.00    -0.200 F 
ENDBRANCH  63  77
BRANCH  64  88
ATOM     88  C   UNL A   1      44.572  34.871  29.591  1.00  0.00     0.064 A 
ATOM     89  C   UNL A   1      44.039  36.135  29.267  1.00  0.00     0.173 A 
ATOM     90  C   UNL A   1      45.959  34.848  29.845  1.00  0.00     0.173 A 
ATOM     91  F   UNL A   1      42.722  36.288  29.061  1.00  0.00    -0.203 F 
ATOM     92  C   UNL A   1      44.837  37.287  29.217  1.00  0.00     0.198 A 
ATOM     93  C   UNL A   1      46.757  35.989  29.764  1.00  0.00     0.198 A 
ATOM     94  F   UNL A   1      46.573  33.738  30.272  1.00  0.00    -0.203 F 
ATOM     95  F   UNL A   1      44.275  38.481  28.978  1.00  0.00    -0.200 F 
ATOM     96  C   UNL A   1      46.195  37.212  29.468  1.00  0.00     0.200 A 
ATOM     97  F   UNL A   1      48.066  35.898  30.038  1.00  0.00    -0.200 F 
ATOM     98  F   UNL A   1      46.952  38.317  29.468  1.00  0.00    -0.200 F 
ENDBRANCH  64  88
BRANCH  76  99
ATOM     99  C   UNL A   1      39.048  32.660  31.669  1.00  0.00     0.064 A 
ATOM    100  C   UNL A   1      38.846  32.594  30.283  1.00  0.00     0.173 A 
ATOM    101  C   UNL A   1      38.035  33.233  32.453  1.00  0.00     0.173 A 
ATOM    102  F   UNL A   1      39.742  32.000  29.478  1.00  0.00    -0.203 F 
ATOM    103  C   UNL A   1      37.692  33.122  29.707  1.00  0.00     0.198 A 
ATOM    104  C   UNL A   1      36.869  33.723  31.881  1.00  0.00     0.198 A 
ATOM    105  F   UNL A   1      38.169  33.295  33.788  1.00  0.00    -0.203 F 
ATOM    106  F   UNL A   1      37.529  33.088  28.377  1.00  0.00    -0.200 F 
ATOM    107  C   UNL A   1      36.703  33.679  30.506  1.00  0.00     0.200 A 
ATOM    108  F   UNL A   1      35.903  34.228  32.661  1.00  0.00    -0.200 F 
ATOM    109  F   UNL A   1      35.583  34.164  29.952  1.00  0.00    -0.200 F 
ENDBRANCH  76  99
ENDBRANCH  50  51
ENDBRANCH  43  45
ENDBRANCH  42  43
ENDBRANCH  41  42
ENDBRANCH  40  41
ENDBRANCH  39  40
ENDBRANCH  38  39
ENDBRANCH   1  38
TORSDOF 23
ENDMDL
