MODEL 1
REMARK VINA RESULT:     -10.6      0.000      0.000
REMARK SMILES COc1cc(NC(=O)[C@@H]2CC=CC[C@H]2C(=O)OCCOCCOCCOC(=O)c2ccc(-c3c4nc(c(-c5c(F)c(F)c(F)c(F)c5F)c5ccc([nH]5)c(-c5c(F)c(F)c(F)c(F)c5F)c5nc(c(-c6c(F)c(F)c(F)c(F)c6F)c6ccc3[nH]6)C=C5)C=C4)cc2)c(OC)cc1Cl
REMARK SMILES IDX 21 1 20 2 19 3 18 4 17 5 15 6 16 7 14 8 9 9 10 10 11 11
REMARK SMILES IDX 13 12 12 13 7 14 6 15 8 17 5 18 3 19 4 20 96 21 95 22 97 23
REMARK SMILES IDX 92 24 2 25 1 26 93 27 94 28 22 29 23 30 24 31 25 32 26 33
REMARK SMILES IDX 27 34 28 35 29 36 30 37 91 38 31 39 90 40 32 41 33 42 34 43
REMARK SMILES IDX 84 44 35 45 89 46 83 47 85 48 36 49 88 50 82 51 81 52 37 54
REMARK SMILES IDX 69 55 49 56 68 57 50 58 53 59 67 60 86 61 51 62 52 63 66 65
REMARK SMILES IDX 87 66 54 67 38 68 39 69 47 70 40 71 41 72 45 73 48 74 42 75
REMARK SMILES IDX 43 76 46 77 44 78 70 79 71 80 79 81 72 82 73 83 77 84 80 85
REMARK SMILES IDX 74 86 75 87 78 88 76 89 55 90 56 91 64 92 57 93 58 94 62 95
REMARK SMILES IDX 65 96 59 97 60 98 63 99 61 100
REMARK H PARENT 6 16 85 53 53 64
REMARK Flexibility Score: inf
ROOT
ATOM      1  C   UNL A   1      41.303  20.364  27.190  1.00  0.00     0.188 C 
ENDROOT
BRANCH   1   2
ATOM      2  O   UNL A   1      40.039  20.738  26.645  1.00  0.00    -0.376 OA
BRANCH   2   3
ATOM      3  C   UNL A   1      39.585  22.073  26.808  1.00  0.00     0.202 C 
BRANCH   3   4
ATOM      4  C   UNL A   1      38.695  22.593  25.673  1.00  0.00     0.261 C 
BRANCH   4   5
ATOM      5  O   UNL A   1      37.283  22.305  25.803  1.00  0.00    -0.463 OA
BRANCH   5   6
ATOM      6  C   UNL A   1      36.476  22.825  24.844  1.00  0.00     0.310 C 
ATOM      7  O   UNL A   1      36.869  23.232  23.756  1.00  0.00    -0.252 OA
BRANCH   6   8
ATOM      8  C   UNL A   1      35.030  23.040  25.285  1.00  0.00     0.116 C 
ATOM      9  C   UNL A   1      33.906  22.814  24.253  1.00  0.00     0.097 C 
ATOM     10  C   UNL A   1      32.498  22.500  24.810  1.00  0.00     0.041 C 
ATOM     11  C   UNL A   1      32.428  22.125  26.256  1.00  0.00    -0.030 C 
ATOM     12  C   UNL A   1      34.898  22.128  26.518  1.00  0.00     0.043 C 
ATOM     13  C   UNL A   1      33.506  21.962  27.028  1.00  0.00    -0.030 C 
BRANCH   9  14
ATOM     14  C   UNL A   1      33.746  23.900  23.188  1.00  0.00     0.228 C 
ATOM     15  N   UNL A   1      33.365  25.192  23.354  1.00  0.00    -0.323 N 
ATOM     16  H   UNL A   1      33.401  25.673  22.496  1.00  0.00     0.170 HD
ATOM     17  O   UNL A   1      33.929  23.566  22.008  1.00  0.00    -0.274 OA
BRANCH  15  18
ATOM     18  C   UNL A   1      32.931  26.053  24.384  1.00  0.00     0.087 A 
ATOM     19  C   UNL A   1      33.245  27.503  26.295  1.00  0.00     0.139 A 
ATOM     20  C   UNL A   1      33.767  26.770  25.224  1.00  0.00     0.078 A 
ATOM     21  C   UNL A   1      31.870  27.607  26.489  1.00  0.00     0.086 A 
ATOM     22  C   UNL A   1      31.007  26.927  25.635  1.00  0.00     0.073 A 
ATOM     23  Cl  UNL A   1      31.205  28.531  27.783  1.00  0.00    -0.080 Cl
ATOM     24  C   UNL A   1      31.527  26.143  24.597  1.00  0.00     0.144 A 
BRANCH  19  25
ATOM     25  O   UNL A   1      34.142  28.104  27.139  1.00  0.00    -0.495 OA
ATOM     26  C   UNL A   1      35.098  28.846  26.374  1.00  0.00     0.278 C 
ENDBRANCH  19  25
BRANCH  24  27
ATOM     27  O   UNL A   1      30.742  25.401  23.740  1.00  0.00    -0.495 OA
ATOM     28  C   UNL A   1      29.363  25.754  23.646  1.00  0.00     0.278 C 
ENDBRANCH  24  27
ENDBRANCH  15  18
ENDBRANCH   9  14
ENDBRANCH   6   8
ENDBRANCH   5   6
ENDBRANCH   4   5
ENDBRANCH   3   4
ENDBRANCH   2   3
ENDBRANCH   1   2
BRANCH   1  29
ATOM     29  C   UNL A   1      42.215  19.442  26.387  1.00  0.00     0.188 C 
BRANCH  29  30
ATOM     30  O   UNL A   1      43.274  20.171  25.773  1.00  0.00    -0.376 OA
BRANCH  30  31
ATOM     31  C   UNL A   1      43.280  21.549  26.143  1.00  0.00     0.202 C 
BRANCH  31  32
ATOM     32  C   UNL A   1      43.627  22.365  24.897  1.00  0.00     0.261 C 
BRANCH  32  33
ATOM     33  O   UNL A   1      42.903  23.612  24.838  1.00  0.00    -0.460 OA
BRANCH  33  34
ATOM     34  C   UNL A   1      43.635  24.714  25.106  1.00  0.00     0.338 C 
ATOM     35  O   UNL A   1      44.685  25.050  24.589  1.00  0.00    -0.246 OA
BRANCH  34  36
ATOM     36  C   UNL A   1      42.879  25.581  26.028  1.00  0.00     0.060 A 
ATOM     37  C   UNL A   1      43.177  26.945  26.034  1.00  0.00     0.016 A 
ATOM     38  C   UNL A   1      41.958  25.059  26.933  1.00  0.00     0.016 A 
ATOM     39  C   UNL A   1      42.626  27.785  26.996  1.00  0.00     0.010 A 
ATOM     40  C   UNL A   1      41.396  25.904  27.897  1.00  0.00     0.010 A 
ATOM     41  C   UNL A   1      41.766  27.260  27.965  1.00  0.00    -0.014 A 
BRANCH  41  42
ATOM     42  C   UNL A   1      41.375  28.092  29.130  1.00  0.00     0.031 A 
ATOM     43  C   UNL A   1      42.151  27.963  30.413  1.00  0.00     0.074 A 
ATOM     44  C   UNL A   1      40.374  28.984  29.037  1.00  0.00     0.049 A 
ATOM     45  N   UNL A   1      41.929  28.515  31.578  1.00  0.00    -0.248 NA
ATOM     46  C   UNL A   1      43.349  27.106  30.375  1.00  0.00     0.031 C 
ATOM     47  C   UNL A   1      39.599  29.266  27.830  1.00  0.00     0.029 A 
ATOM     48  N   UNL A   1      39.829  29.814  29.987  1.00  0.00    -0.354 N 
ATOM     49  C   UNL A   1      42.937  28.054  32.414  1.00  0.00     0.074 A 
ATOM     50  C   UNL A   1      43.774  27.174  31.628  1.00  0.00     0.031 C 
ATOM     51  C   UNL A   1      38.666  30.190  28.116  1.00  0.00     0.029 A 
ATOM     52  C   UNL A   1      38.743  30.523  29.536  1.00  0.00     0.049 A 
ATOM     53  H   UNL A   1      40.183  29.891  30.902  1.00  0.00     0.167 HD
ATOM     54  C   UNL A   1      43.143  28.339  33.722  1.00  0.00     0.037 A 
ATOM     55  C   UNL A   1      37.882  31.313  30.206  1.00  0.00     0.037 A 
ATOM     56  C   UNL A   1      42.318  29.221  34.501  1.00  0.00     0.049 A 
ATOM     57  C   UNL A   1      38.076  31.530  31.685  1.00  0.00     0.074 A 
ATOM     58  C   UNL A   1      42.455  29.579  35.832  1.00  0.00     0.029 A 
ATOM     59  N   UNL A   1      41.197  29.880  34.022  1.00  0.00    -0.354 N 
ATOM     60  N   UNL A   1      39.027  31.087  32.470  1.00  0.00    -0.248 NA
ATOM     61  C   UNL A   1      37.065  32.346  32.373  1.00  0.00     0.031 C 
ATOM     62  C   UNL A   1      41.387  30.417  36.170  1.00  0.00     0.029 A 
ATOM     63  C   UNL A   1      40.613  30.617  35.039  1.00  0.00     0.049 A 
ATOM     64  H   UNL A   1      40.865  29.831  33.096  1.00  0.00     0.167 HD
ATOM     65  C   UNL A   1      38.746  31.590  33.733  1.00  0.00     0.074 A 
ATOM     66  C   UNL A   1      37.541  32.383  33.609  1.00  0.00     0.031 C 
ATOM     67  C   UNL A   1      39.421  31.410  34.895  1.00  0.00     0.037 A 
BRANCH  54  68
ATOM     68  C   UNL A   1      44.289  27.662  34.410  1.00  0.00     0.064 A 
ATOM     69  C   UNL A   1      45.549  28.266  34.510  1.00  0.00     0.173 A 
ATOM     70  C   UNL A   1      44.101  26.417  35.029  1.00  0.00     0.173 A 
ATOM     71  F   UNL A   1      45.782  29.446  33.916  1.00  0.00    -0.203 F 
ATOM     72  C   UNL A   1      46.585  27.643  35.203  1.00  0.00     0.198 A 
ATOM     73  C   UNL A   1      45.132  25.808  35.738  1.00  0.00     0.198 A 
ATOM     74  F   UNL A   1      42.912  25.799  34.958  1.00  0.00    -0.203 F 
ATOM     75  F   UNL A   1      47.791  28.225  35.266  1.00  0.00    -0.200 F 
ATOM     76  C   UNL A   1      46.373  26.420  35.823  1.00  0.00     0.200 A 
ATOM     77  F   UNL A   1      44.923  24.629  36.341  1.00  0.00    -0.200 F 
ATOM     78  F   UNL A   1      47.367  25.828  36.499  1.00  0.00    -0.200 F 
ENDBRANCH  54  68
BRANCH  55  79
ATOM     79  C   UNL A   1      36.717  31.912  29.504  1.00  0.00     0.064 A 
ATOM     80  C   UNL A   1      36.669  33.282  29.212  1.00  0.00     0.173 A 
ATOM     81  C   UNL A   1      35.601  31.133  29.160  1.00  0.00     0.173 A 
ATOM     82  F   UNL A   1      37.695  34.075  29.553  1.00  0.00    -0.203 F 
ATOM     83  C   UNL A   1      35.542  33.854  28.623  1.00  0.00     0.198 A 
ATOM     84  C   UNL A   1      34.489  31.700  28.543  1.00  0.00     0.198 A 
ATOM     85  F   UNL A   1      35.591  29.819  29.429  1.00  0.00    -0.203 F 
ATOM     86  F   UNL A   1      35.499  35.175  28.410  1.00  0.00    -0.200 F 
ATOM     87  C   UNL A   1      34.455  33.061  28.285  1.00  0.00     0.200 A 
ATOM     88  F   UNL A   1      33.443  30.929  28.215  1.00  0.00    -0.200 F 
ATOM     89  F   UNL A   1      33.370  33.613  27.726  1.00  0.00    -0.200 F 
ENDBRANCH  55  79
BRANCH  67  90
ATOM     90  C   UNL A   1      38.895  32.107  36.114  1.00  0.00     0.064 A 
ATOM     91  C   UNL A   1      38.070  31.448  37.037  1.00  0.00     0.173 A 
ATOM     92  C   UNL A   1      39.254  33.436  36.383  1.00  0.00     0.173 A 
ATOM     93  F   UNL A   1      37.687  30.181  36.816  1.00  0.00    -0.203 F 
ATOM     94  C   UNL A   1      37.606  32.102  38.175  1.00  0.00     0.198 A 
ATOM     95  C   UNL A   1      38.811  34.078  37.536  1.00  0.00     0.198 A 
ATOM     96  F   UNL A   1      40.049  34.107  35.536  1.00  0.00    -0.203 F 
ATOM     97  F   UNL A   1      36.785  31.467  39.023  1.00  0.00    -0.200 F 
ATOM     98  C   UNL A   1      37.982  33.413  38.427  1.00  0.00     0.200 A 
ATOM     99  F   UNL A   1      39.186  35.340  37.784  1.00  0.00    -0.200 F 
ATOM    100  F   UNL A   1      37.541  34.039  39.527  1.00  0.00    -0.200 F 
ENDBRANCH  67  90
ENDBRANCH  41  42
ENDBRANCH  34  36
ENDBRANCH  33  34
ENDBRANCH  32  33
ENDBRANCH  31  32
ENDBRANCH  30  31
ENDBRANCH  29  30
ENDBRANCH   1  29
TORSDOF 21
ENDMDL
MODEL 2
REMARK VINA RESULT:     -10.5      1.502      2.318
REMARK SMILES COc1cc(NC(=O)[C@@H]2CC=CC[C@H]2C(=O)OCCOCCOCCOC(=O)c2ccc(-c3c4nc(c(-c5c(F)c(F)c(F)c(F)c5F)c5ccc([nH]5)c(-c5c(F)c(F)c(F)c(F)c5F)c5nc(c(-c6c(F)c(F)c(F)c(F)c6F)c6ccc3[nH]6)C=C5)C=C4)cc2)c(OC)cc1Cl
REMARK SMILES IDX 21 1 20 2 19 3 18 4 17 5 15 6 16 7 14 8 9 9 10 10 11 11
REMARK SMILES IDX 13 12 12 13 7 14 6 15 8 17 5 18 3 19 4 20 96 21 95 22 97 23
REMARK SMILES IDX 92 24 2 25 1 26 93 27 94 28 22 29 23 30 24 31 25 32 26 33
REMARK SMILES IDX 27 34 28 35 29 36 30 37 91 38 31 39 90 40 32 41 33 42 34 43
REMARK SMILES IDX 84 44 35 45 89 46 83 47 85 48 36 49 88 50 82 51 81 52 37 54
REMARK SMILES IDX 69 55 49 56 68 57 50 58 53 59 67 60 86 61 51 62 52 63 66 65
REMARK SMILES IDX 87 66 54 67 38 68 39 69 47 70 40 71 41 72 45 73 48 74 42 75
REMARK SMILES IDX 43 76 46 77 44 78 70 79 71 80 79 81 72 82 73 83 77 84 80 85
REMARK SMILES IDX 74 86 75 87 78 88 76 89 55 90 56 91 64 92 57 93 58 94 62 95
REMARK SMILES IDX 65 96 59 97 60 98 63 99 61 100
REMARK H PARENT 6 16 85 53 53 64
REMARK Flexibility Score: inf
ROOT
ATOM      1  C   UNL A   1      38.738  19.799  25.232  1.00  0.00     0.188 C 
ENDROOT
BRANCH   1   2
ATOM      2  O   UNL A   1      37.846  20.869  24.931  1.00  0.00    -0.376 OA
BRANCH   2   3
ATOM      3  C   UNL A   1      37.858  22.029  25.751  1.00  0.00     0.202 C 
BRANCH   3   4
ATOM      4  C   UNL A   1      36.485  22.671  25.977  1.00  0.00     0.261 C 
BRANCH   4   5
ATOM      5  O   UNL A   1      35.376  21.749  26.108  1.00  0.00    -0.463 OA
BRANCH   5   6
ATOM      6  C   UNL A   1      34.231  22.261  26.626  1.00  0.00     0.310 C 
ATOM      7  O   UNL A   1      34.118  22.675  27.776  1.00  0.00    -0.252 OA
BRANCH   6   8
ATOM      8  C   UNL A   1      33.012  22.123  25.718  1.00  0.00     0.116 C 
ATOM      9  C   UNL A   1      32.262  23.404  25.296  1.00  0.00     0.097 C 
ATOM     10  C   UNL A   1      31.419  23.326  24.003  1.00  0.00     0.041 C 
ATOM     11  C   UNL A   1      31.669  22.144  23.121  1.00  0.00    -0.030 C 
ATOM     12  C   UNL A   1      33.554  21.328  24.517  1.00  0.00     0.043 C 
ATOM     13  C   UNL A   1      32.626  21.240  23.353  1.00  0.00    -0.030 C 
BRANCH   9  14
ATOM     14  C   UNL A   1      31.391  24.055  26.372  1.00  0.00     0.228 C 
ATOM     15  N   UNL A   1      30.737  25.242  26.322  1.00  0.00    -0.323 N 
ATOM     16  H   UNL A   1      30.211  25.379  27.143  1.00  0.00     0.170 HD
ATOM     17  O   UNL A   1      31.303  23.465  27.460  1.00  0.00    -0.274 OA
BRANCH  15  18
ATOM     18  C   UNL A   1      30.584  26.340  25.449  1.00  0.00     0.087 A 
ATOM     19  C   UNL A   1      29.520  27.577  23.663  1.00  0.00     0.139 A 
ATOM     20  C   UNL A   1      29.522  26.518  24.577  1.00  0.00     0.078 A 
ATOM     21  C   UNL A   1      30.534  28.531  23.670  1.00  0.00     0.086 A 
ATOM     22  C   UNL A   1      31.592  28.396  24.563  1.00  0.00     0.073 A 
ATOM     23  Cl  UNL A   1      30.533  29.862  22.574  1.00  0.00    -0.080 Cl
ATOM     24  C   UNL A   1      31.630  27.304  25.440  1.00  0.00     0.144 A 
BRANCH  19  25
ATOM     25  O   UNL A   1      28.485  27.629  22.766  1.00  0.00    -0.495 OA
ATOM     26  C   UNL A   1      27.460  28.495  23.266  1.00  0.00     0.278 C 
ENDBRANCH  19  25
BRANCH  24  27
ATOM     27  O   UNL A   1      32.665  27.073  26.319  1.00  0.00    -0.495 OA
ATOM     28  C   UNL A   1      33.983  27.000  25.776  1.00  0.00     0.278 C 
ENDBRANCH  24  27
ENDBRANCH  15  18
ENDBRANCH   9  14
ENDBRANCH   6   8
ENDBRANCH   5   6
ENDBRANCH   4   5
ENDBRANCH   3   4
ENDBRANCH   2   3
ENDBRANCH   1   2
BRANCH   1  29
ATOM     29  C   UNL A   1      39.999  20.086  26.042  1.00  0.00     0.188 C 
BRANCH  29  30
ATOM     30  O   UNL A   1      41.045  19.180  25.705  1.00  0.00    -0.376 OA
BRANCH  30  31
ATOM     31  C   UNL A   1      42.342  19.747  25.883  1.00  0.00     0.202 C 
BRANCH  31  32
ATOM     32  C   UNL A   1      42.171  21.098  26.578  1.00  0.00     0.261 C 
BRANCH  32  33
ATOM     33  O   UNL A   1      43.283  21.986  26.336  1.00  0.00    -0.460 OA
BRANCH  33  34
ATOM     34  C   UNL A   1      43.037  22.992  25.470  1.00  0.00     0.338 C 
ATOM     35  O   UNL A   1      43.119  22.962  24.256  1.00  0.00    -0.246 OA
BRANCH  34  36
ATOM     36  C   UNL A   1      42.467  24.133  26.210  1.00  0.00     0.060 A 
ATOM     37  C   UNL A   1      43.202  25.320  26.244  1.00  0.00     0.016 A 
ATOM     38  C   UNL A   1      41.282  24.019  26.932  1.00  0.00     0.016 A 
ATOM     39  C   UNL A   1      42.807  26.373  27.064  1.00  0.00     0.010 A 
ATOM     40  C   UNL A   1      40.878  25.079  27.751  1.00  0.00     0.010 A 
ATOM     41  C   UNL A   1      41.666  26.241  27.860  1.00  0.00    -0.014 A 
BRANCH  41  42
ATOM     42  C   UNL A   1      41.381  27.251  28.910  1.00  0.00     0.031 A 
ATOM     43  C   UNL A   1      42.244  27.286  30.142  1.00  0.00     0.074 A 
ATOM     44  C   UNL A   1      40.398  28.155  28.751  1.00  0.00     0.049 A 
ATOM     45  N   UNL A   1      42.120  28.013  31.223  1.00  0.00    -0.248 NA
ATOM     46  C   UNL A   1      43.413  26.390  30.154  1.00  0.00     0.031 C 
ATOM     47  C   UNL A   1      39.547  28.281  27.570  1.00  0.00     0.029 A 
ATOM     48  N   UNL A   1      39.945  29.136  29.599  1.00  0.00    -0.354 N 
ATOM     49  C   UNL A   1      43.174  27.646  32.050  1.00  0.00     0.074 A 
ATOM     50  C   UNL A   1      43.929  26.629  31.350  1.00  0.00     0.031 C 
ATOM     51  C   UNL A   1      38.660  29.271  27.775  1.00  0.00     0.029 A 
ATOM     52  C   UNL A   1      38.848  29.809  29.120  1.00  0.00     0.049 A 
ATOM     53  H   UNL A   1      40.365  29.336  30.466  1.00  0.00     0.167 HD
ATOM     54  C   UNL A   1      43.480  28.114  33.282  1.00  0.00     0.037 A 
ATOM     55  C   UNL A   1      38.058  30.721  29.719  1.00  0.00     0.037 A 
ATOM     56  C   UNL A   1      42.736  29.131  33.973  1.00  0.00     0.049 A 
ATOM     57  C   UNL A   1      38.364  31.147  31.132  1.00  0.00     0.074 A 
ATOM     58  C   UNL A   1      42.978  29.679  35.222  1.00  0.00     0.029 A 
ATOM     59  N   UNL A   1      41.601  29.752  33.476  1.00  0.00    -0.354 N 
ATOM     60  N   UNL A   1      39.357  30.793  31.910  1.00  0.00    -0.248 NA
ATOM     61  C   UNL A   1      37.426  32.093  31.756  1.00  0.00     0.031 C 
ATOM     62  C   UNL A   1      41.959  30.596  35.501  1.00  0.00     0.029 A 
ATOM     63  C   UNL A   1      41.111  30.653  34.408  1.00  0.00     0.049 A 
ATOM     64  H   UNL A   1      41.202  29.578  32.593  1.00  0.00     0.167 HD
ATOM     65  C   UNL A   1      39.180  31.488  33.099  1.00  0.00     0.074 A 
ATOM     66  C   UNL A   1      37.990  32.296  32.937  1.00  0.00     0.031 C 
ATOM     67  C   UNL A   1      39.932  31.458  34.226  1.00  0.00     0.037 A 
BRANCH  54  68
ATOM     68  C   UNL A   1      44.655  27.507  33.986  1.00  0.00     0.064 A 
ATOM     69  C   UNL A   1      45.934  28.076  33.913  1.00  0.00     0.173 A 
ATOM     70  C   UNL A   1      44.481  26.372  34.793  1.00  0.00     0.173 A 
ATOM     71  F   UNL A   1      46.152  29.148  33.137  1.00  0.00    -0.203 F 
ATOM     72  C   UNL A   1      47.000  27.526  34.621  1.00  0.00     0.198 A 
ATOM     73  C   UNL A   1      45.545  25.838  35.514  1.00  0.00     0.198 A 
ATOM     74  F   UNL A   1      43.276  25.791  34.892  1.00  0.00    -0.203 F 
ATOM     75  F   UNL A   1      48.221  28.069  34.518  1.00  0.00    -0.200 F 
ATOM     76  C   UNL A   1      46.802  26.414  35.427  1.00  0.00     0.200 A 
ATOM     77  F   UNL A   1      45.350  24.767  36.297  1.00  0.00    -0.200 F 
ATOM     78  F   UNL A   1      47.828  25.893  36.116  1.00  0.00    -0.200 F 
ENDBRANCH  54  68
BRANCH  55  79
ATOM     79  C   UNL A   1      36.861  31.250  29.015  1.00  0.00     0.064 A 
ATOM     80  C   UNL A   1      36.789  32.589  28.608  1.00  0.00     0.173 A 
ATOM     81  C   UNL A   1      35.740  30.438  28.784  1.00  0.00     0.173 A 
ATOM     82  F   UNL A   1      37.821  33.414  28.839  1.00  0.00    -0.203 F 
ATOM     83  C   UNL A   1      35.636  33.101  28.017  1.00  0.00     0.198 A 
ATOM     84  C   UNL A   1      34.599  30.943  28.166  1.00  0.00     0.198 A 
ATOM     85  F   UNL A   1      35.752  29.152  29.166  1.00  0.00    -0.203 F 
ATOM     86  F   UNL A   1      35.572  34.399  27.693  1.00  0.00    -0.200 F 
ATOM     87  C   UNL A   1      34.544  32.276  27.792  1.00  0.00     0.200 A 
ATOM     88  F   UNL A   1      33.548  30.141  27.946  1.00  0.00    -0.200 F 
ATOM     89  F   UNL A   1      33.432  32.772  27.231  1.00  0.00    -0.200 F 
ENDBRANCH  55  79
BRANCH  67  90
ATOM     90  C   UNL A   1      39.513  32.348  35.359  1.00  0.00     0.064 A 
ATOM     91  C   UNL A   1      38.667  31.887  36.378  1.00  0.00     0.173 A 
ATOM     92  C   UNL A   1      39.998  33.661  35.447  1.00  0.00     0.173 A 
ATOM     93  F   UNL A   1      38.167  30.644  36.330  1.00  0.00    -0.203 F 
ATOM     94  C   UNL A   1      38.303  32.718  37.434  1.00  0.00     0.198 A 
ATOM     95  C   UNL A   1      39.654  34.480  36.519  1.00  0.00     0.198 A 
ATOM     96  F   UNL A   1      40.817  34.145  34.501  1.00  0.00    -0.203 F 
ATOM     97  F   UNL A   1      37.460  32.272  38.375  1.00  0.00    -0.200 F 
ATOM     98  C   UNL A   1      38.802  34.010  37.507  1.00  0.00     0.200 A 
ATOM     99  F   UNL A   1      40.147  35.724  36.594  1.00  0.00    -0.200 F 
ATOM    100  F   UNL A   1      38.457  34.807  38.528  1.00  0.00    -0.200 F 
ENDBRANCH  67  90
ENDBRANCH  41  42
ENDBRANCH  34  36
ENDBRANCH  33  34
ENDBRANCH  32  33
ENDBRANCH  31  32
ENDBRANCH  30  31
ENDBRANCH  29  30
ENDBRANCH   1  29
TORSDOF 21
ENDMDL
MODEL 3
REMARK VINA RESULT:     -10.2      1.496      2.654
REMARK SMILES COc1cc(NC(=O)[C@@H]2CC=CC[C@H]2C(=O)OCCOCCOCCOC(=O)c2ccc(-c3c4nc(c(-c5c(F)c(F)c(F)c(F)c5F)c5ccc([nH]5)c(-c5c(F)c(F)c(F)c(F)c5F)c5nc(c(-c6c(F)c(F)c(F)c(F)c6F)c6ccc3[nH]6)C=C5)C=C4)cc2)c(OC)cc1Cl
REMARK SMILES IDX 21 1 20 2 19 3 18 4 17 5 15 6 16 7 14 8 9 9 10 10 11 11
REMARK SMILES IDX 13 12 12 13 7 14 6 15 8 17 5 18 3 19 4 20 96 21 95 22 97 23
REMARK SMILES IDX 92 24 2 25 1 26 93 27 94 28 22 29 23 30 24 31 25 32 26 33
REMARK SMILES IDX 27 34 28 35 29 36 30 37 91 38 31 39 90 40 32 41 33 42 34 43
REMARK SMILES IDX 84 44 35 45 89 46 83 47 85 48 36 49 88 50 82 51 81 52 37 54
REMARK SMILES IDX 69 55 49 56 68 57 50 58 53 59 67 60 86 61 51 62 52 63 66 65
REMARK SMILES IDX 87 66 54 67 38 68 39 69 47 70 40 71 41 72 45 73 48 74 42 75
REMARK SMILES IDX 43 76 46 77 44 78 70 79 71 80 79 81 72 82 73 83 77 84 80 85
REMARK SMILES IDX 74 86 75 87 78 88 76 89 55 90 56 91 64 92 57 93 58 94 62 95
REMARK SMILES IDX 65 96 59 97 60 98 63 99 61 100
REMARK H PARENT 6 16 85 53 53 64
REMARK Flexibility Score: inf
ROOT
ATOM      1  C   UNL A   1      38.409  20.785  25.466  1.00  0.00     0.188 C 
ENDROOT
BRANCH   1   2
ATOM      2  O   UNL A   1      37.302  21.645  25.206  1.00  0.00    -0.376 OA
BRANCH   2   3
ATOM      3  C   UNL A   1      37.412  23.026  25.519  1.00  0.00     0.202 C 
BRANCH   3   4
ATOM      4  C   UNL A   1      36.076  23.751  25.709  1.00  0.00     0.261 C 
BRANCH   4   5
ATOM      5  O   UNL A   1      34.947  22.908  26.039  1.00  0.00    -0.463 OA
BRANCH   5   6
ATOM      6  C   UNL A   1      33.959  22.842  25.111  1.00  0.00     0.310 C 
ATOM      7  O   UNL A   1      33.967  22.085  24.146  1.00  0.00    -0.252 OA
BRANCH   6   8
ATOM      8  C   UNL A   1      32.889  23.922  25.252  1.00  0.00     0.116 C 
ATOM      9  C   UNL A   1      32.148  24.391  23.982  1.00  0.00     0.097 C 
ATOM     10  C   UNL A   1      30.758  25.037  24.183  1.00  0.00     0.041 C 
ATOM     11  C   UNL A   1      30.130  24.850  25.528  1.00  0.00    -0.030 C 
ATOM     12  C   UNL A   1      31.939  23.342  26.315  1.00  0.00     0.043 C 
ATOM     13  C   UNL A   1      30.662  24.092  26.491  1.00  0.00    -0.030 C 
BRANCH   9  14
ATOM     14  C   UNL A   1      32.942  25.296  23.039  1.00  0.00     0.228 C 
ATOM     15  N   UNL A   1      32.751  26.613  22.776  1.00  0.00    -0.323 N 
ATOM     16  H   UNL A   1      33.449  26.946  22.166  1.00  0.00     0.170 HD
ATOM     17  O   UNL A   1      33.847  24.766  22.377  1.00  0.00    -0.274 OA
BRANCH  15  18
ATOM     18  C   UNL A   1      31.854  27.649  23.111  1.00  0.00     0.087 A 
ATOM     19  C   UNL A   1      29.921  29.061  22.761  1.00  0.00     0.139 A 
ATOM     20  C   UNL A   1      30.683  27.937  22.428  1.00  0.00     0.078 A 
ATOM     21  C   UNL A   1      30.266  29.864  23.845  1.00  0.00     0.086 A 
ATOM     22  C   UNL A   1      31.416  29.574  24.572  1.00  0.00     0.073 A 
ATOM     23  Cl  UNL A   1      29.321  31.235  24.293  1.00  0.00    -0.080 Cl
ATOM     24  C   UNL A   1      32.216  28.484  24.205  1.00  0.00     0.144 A 
BRANCH  19  25
ATOM     25  O   UNL A   1      28.832  29.335  21.976  1.00  0.00    -0.495 OA
ATOM     26  C   UNL A   1      29.067  30.533  21.228  1.00  0.00     0.278 C 
ENDBRANCH  19  25
BRANCH  24  27
ATOM     27  O   UNL A   1      33.394  28.159  24.842  1.00  0.00    -0.495 OA
ATOM     28  C   UNL A   1      33.297  27.421  26.060  1.00  0.00     0.278 C 
ENDBRANCH  24  27
ENDBRANCH  15  18
ENDBRANCH   9  14
ENDBRANCH   6   8
ENDBRANCH   5   6
ENDBRANCH   4   5
ENDBRANCH   3   4
ENDBRANCH   2   3
ENDBRANCH   1   2
BRANCH   1  29
ATOM     29  C   UNL A   1      39.656  21.359  26.132  1.00  0.00     0.188 C 
BRANCH  29  30
ATOM     30  O   UNL A   1      40.534  20.322  26.562  1.00  0.00    -0.376 OA
BRANCH  30  31
ATOM     31  C   UNL A   1      41.876  20.519  26.121  1.00  0.00     0.202 C 
BRANCH  31  32
ATOM     32  C   UNL A   1      42.509  21.587  27.014  1.00  0.00     0.261 C 
BRANCH  32  33
ATOM     33  O   UNL A   1      43.542  22.331  26.334  1.00  0.00    -0.460 OA
BRANCH  33  34
ATOM     34  C   UNL A   1      43.099  23.271  25.472  1.00  0.00     0.338 C 
ATOM     35  O   UNL A   1      43.040  23.196  24.258  1.00  0.00    -0.246 OA
BRANCH  34  36
ATOM     36  C   UNL A   1      42.514  24.386  26.238  1.00  0.00     0.060 A 
ATOM     37  C   UNL A   1      43.262  25.560  26.357  1.00  0.00     0.016 A 
ATOM     38  C   UNL A   1      41.297  24.259  26.903  1.00  0.00     0.016 A 
ATOM     39  C   UNL A   1      42.846  26.581  27.206  1.00  0.00     0.010 A 
ATOM     40  C   UNL A   1      40.873  25.288  27.752  1.00  0.00     0.010 A 
ATOM     41  C   UNL A   1      41.671  26.431  27.946  1.00  0.00    -0.014 A 
BRANCH  41  42
ATOM     42  C   UNL A   1      41.355  27.398  29.027  1.00  0.00     0.031 A 
ATOM     43  C   UNL A   1      42.178  27.379  30.287  1.00  0.00     0.074 A 
ATOM     44  C   UNL A   1      40.379  28.310  28.875  1.00  0.00     0.049 A 
ATOM     45  N   UNL A   1      42.022  28.061  31.393  1.00  0.00    -0.248 NA
ATOM     46  C   UNL A   1      43.345  26.480  30.298  1.00  0.00     0.031 C 
ATOM     47  C   UNL A   1      39.566  28.489  27.674  1.00  0.00     0.029 A 
ATOM     48  N   UNL A   1      39.901  29.257  29.748  1.00  0.00    -0.354 N 
ATOM     49  C   UNL A   1      43.048  27.656  32.236  1.00  0.00     0.074 A 
ATOM     50  C   UNL A   1      43.824  26.667  31.519  1.00  0.00     0.031 C 
ATOM     51  C   UNL A   1      38.675  29.472  27.893  1.00  0.00     0.029 A 
ATOM     52  C   UNL A   1      38.821  29.953  29.264  1.00  0.00     0.049 A 
ATOM     53  H   UNL A   1      40.294  29.419  30.636  1.00  0.00     0.167 HD
ATOM     54  C   UNL A   1      43.316  28.072  33.495  1.00  0.00     0.037 A 
ATOM     55  C   UNL A   1      38.014  30.841  29.875  1.00  0.00     0.037 A 
ATOM     56  C   UNL A   1      42.553  29.062  34.204  1.00  0.00     0.049 A 
ATOM     57  C   UNL A   1      38.276  31.208  31.314  1.00  0.00     0.074 A 
ATOM     58  C   UNL A   1      42.756  29.557  35.482  1.00  0.00     0.029 A 
ATOM     59  N   UNL A   1      41.435  29.707  33.698  1.00  0.00    -0.354 N 
ATOM     60  N   UNL A   1      39.243  30.818  32.107  1.00  0.00    -0.248 NA
ATOM     61  C   UNL A   1      37.321  32.130  31.947  1.00  0.00     0.031 C 
ATOM     62  C   UNL A   1      41.730  30.464  35.767  1.00  0.00     0.029 A 
ATOM     63  C   UNL A   1      40.918  30.570  34.651  1.00  0.00     0.049 A 
ATOM     64  H   UNL A   1      41.064  29.571  32.797  1.00  0.00     0.167 HD
ATOM     65  C   UNL A   1      39.030  31.464  33.317  1.00  0.00     0.074 A 
ATOM     66  C   UNL A   1      37.848  32.283  33.152  1.00  0.00     0.031 C 
ATOM     67  C   UNL A   1      39.746  31.386  34.466  1.00  0.00     0.037 A 
BRANCH  54  68
ATOM     68  C   UNL A   1      44.467  27.432  34.210  1.00  0.00     0.064 A 
ATOM     69  C   UNL A   1      44.314  26.247  34.941  1.00  0.00     0.173 A 
ATOM     70  C   UNL A   1      45.753  27.985  34.108  1.00  0.00     0.173 A 
ATOM     71  F   UNL A   1      43.101  25.694  35.084  1.00  0.00    -0.203 F 
ATOM     72  C   UNL A   1      45.409  25.639  35.551  1.00  0.00     0.198 A 
ATOM     73  C   UNL A   1      46.848  27.364  34.701  1.00  0.00     0.198 A 
ATOM     74  F   UNL A   1      45.948  29.121  33.420  1.00  0.00    -0.203 F 
ATOM     75  F   UNL A   1      45.238  24.520  36.268  1.00  0.00    -0.200 F 
ATOM     76  C   UNL A   1      46.675  26.193  35.423  1.00  0.00     0.200 A 
ATOM     77  F   UNL A   1      48.071  27.897  34.571  1.00  0.00    -0.200 F 
ATOM     78  F   UNL A   1      47.729  25.600  36.001  1.00  0.00    -0.200 F 
ENDBRANCH  54  68
BRANCH  55  79
ATOM     79  C   UNL A   1      36.841  31.403  29.157  1.00  0.00     0.064 A 
ATOM     80  C   UNL A   1      36.796  32.752  28.781  1.00  0.00     0.173 A 
ATOM     81  C   UNL A   1      35.715  30.612  28.879  1.00  0.00     0.173 A 
ATOM     82  F   UNL A   1      37.832  33.558  29.056  1.00  0.00    -0.203 F 
ATOM     83  C   UNL A   1      35.663  33.294  28.175  1.00  0.00     0.198 A 
ATOM     84  C   UNL A   1      34.596  31.146  28.247  1.00  0.00     0.198 A 
ATOM     85  F   UNL A   1      35.702  29.317  29.230  1.00  0.00    -0.203 F 
ATOM     86  F   UNL A   1      35.623  34.600  27.881  1.00  0.00    -0.200 F 
ATOM     87  C   UNL A   1      34.566  32.489  27.905  1.00  0.00     0.200 A 
ATOM     88  F   UNL A   1      33.541  30.364  27.983  1.00  0.00    -0.200 F 
ATOM     89  F   UNL A   1      33.475  33.012  27.330  1.00  0.00    -0.200 F 
ENDBRANCH  55  79
BRANCH  67  90
ATOM     90  C   UNL A   1      39.294  32.229  35.620  1.00  0.00     0.064 A 
ATOM     91  C   UNL A   1      39.733  33.551  35.778  1.00  0.00     0.173 A 
ATOM     92  C   UNL A   1      38.379  31.722  36.555  1.00  0.00     0.173 A 
ATOM     93  F   UNL A   1      40.620  34.075  34.919  1.00  0.00    -0.203 F 
ATOM     94  C   UNL A   1      39.289  34.328  36.845  1.00  0.00     0.198 A 
ATOM     95  C   UNL A   1      37.916  32.511  37.603  1.00  0.00     0.198 A 
ATOM     96  F   UNL A   1      37.922  30.466  36.441  1.00  0.00    -0.203 F 
ATOM     97  F   UNL A   1      39.754  35.576  37.001  1.00  0.00    -0.200 F 
ATOM     98  C   UNL A   1      38.376  33.811  37.751  1.00  0.00     0.200 A 
ATOM     99  F   UNL A   1      37.023  32.013  38.471  1.00  0.00    -0.200 F 
ATOM    100  F   UNL A   1      37.944  34.563  38.773  1.00  0.00    -0.200 F 
ENDBRANCH  67  90
ENDBRANCH  41  42
ENDBRANCH  34  36
ENDBRANCH  33  34
ENDBRANCH  32  33
ENDBRANCH  31  32
ENDBRANCH  30  31
ENDBRANCH  29  30
ENDBRANCH   1  29
TORSDOF 21
ENDMDL
