MODEL 1
REMARK VINA RESULT:     -10.9      0.000      0.000
REMARK SMILES C/C=C/c1cncc(-c2ccc([C@@H](C)C(=O)OCCOCCOCCOC(=O)c3ccc(-c4c5nc(c(-c6c(F)c(F)c(F)c(F)c6F)c6ccc([nH]6)c(-c6c(F)c(F)c(F)c(F)c6F)c6nc(c(-c7c(F)c(F)c(F)c(F)c7F)c7ccc4[nH]7)C=C6)C=C5)cc3)cc2)c1
REMARK SMILES IDX 21 1 20 2 19 3 18 4 17 5 15 6 16 7 13 8 14 9 12 10 9 11
REMARK SMILES IDX 10 12 93 13 11 14 92 15 8 16 4 17 5 18 94 19 6 20 7 21 3 22
REMARK SMILES IDX 1 23 2 24 22 25 23 26 24 27 25 28 26 29 27 30 28 31 29 32
REMARK SMILES IDX 30 33 91 34 31 35 90 36 32 37 33 38 34 39 84 40 35 41 89 42
REMARK SMILES IDX 83 43 85 44 36 45 88 46 82 47 81 48 37 50 69 51 49 52 68 53
REMARK SMILES IDX 50 54 53 55 67 56 86 57 51 58 52 59 66 61 87 62 54 63 38 64
REMARK SMILES IDX 39 65 47 66 40 67 41 68 45 69 48 70 42 71 43 72 46 73 44 74
REMARK SMILES IDX 70 75 71 76 79 77 72 78 73 79 77 80 80 81 74 82 75 83 78 84
REMARK SMILES IDX 76 85 55 86 56 87 64 88 57 89 58 90 62 91 65 92 59 93 60 94
REMARK SMILES IDX 63 95 61 96
REMARK H PARENT 85 49 53 60
REMARK Flexibility Score: inf
ROOT
ATOM      1  C   UNL A   1      33.327  28.868  26.018  1.00  0.00     0.188 C 
ENDROOT
BRANCH   1   2
ATOM      2  O   UNL A   1      33.404  27.898  24.980  1.00  0.00    -0.376 OA
BRANCH   2   3
ATOM      3  C   UNL A   1      33.844  28.294  23.686  1.00  0.00     0.202 C 
BRANCH   3   4
ATOM      4  C   UNL A   1      32.828  28.952  22.736  1.00  0.00     0.261 C 
BRANCH   4   5
ATOM      5  O   UNL A   1      31.531  29.248  23.304  1.00  0.00    -0.463 OA
BRANCH   5   6
ATOM      6  C   UNL A   1      30.452  28.989  22.521  1.00  0.00     0.313 C 
ATOM      7  O   UNL A   1      30.074  29.745  21.627  1.00  0.00    -0.252 OA
BRANCH   6   8
ATOM      8  C   UNL A   1      29.710  27.673  22.787  1.00  0.00     0.126 C 
ATOM      9  C   UNL A   1      28.392  27.989  23.492  1.00  0.00     0.025 C 
BRANCH   8  10
ATOM     10  C   UNL A   1      30.402  26.484  23.455  1.00  0.00    -0.034 A 
ATOM     11  C   UNL A   1      31.660  24.291  24.809  1.00  0.00    -0.017 A 
ATOM     12  C   UNL A   1      31.809  24.491  23.424  1.00  0.00     0.009 A 
ATOM     13  C   UNL A   1      30.869  25.212  25.508  1.00  0.00     0.009 A 
ATOM     14  C   UNL A   1      31.201  25.571  22.757  1.00  0.00     0.005 A 
ATOM     15  C   UNL A   1      30.259  26.292  24.846  1.00  0.00     0.005 A 
BRANCH  11  16
ATOM     16  C   UNL A   1      32.380  23.207  25.503  1.00  0.00     0.001 A 
ATOM     17  C   UNL A   1      33.647  21.120  25.566  1.00  0.00    -0.007 A 
ATOM     18  C   UNL A   1      33.666  21.246  26.954  1.00  0.00     0.119 A 
ATOM     19  C   UNL A   1      32.979  22.119  24.838  1.00  0.00     0.020 A 
ATOM     20  N   UNL A   1      33.104  22.265  27.639  1.00  0.00    -0.263 NA
ATOM     21  C   UNL A   1      32.481  23.210  26.898  1.00  0.00     0.119 A 
BRANCH  17  22
ATOM     22  C   UNL A   1      34.277  19.938  24.965  1.00  0.00     0.005 C 
ATOM     23  C   UNL A   1      34.310  17.609  24.059  1.00  0.00     0.035 C 
ATOM     24  C   UNL A   1      33.658  18.767  24.750  1.00  0.00    -0.030 C 
ENDBRANCH  17  22
ENDBRANCH  11  16
ENDBRANCH   8  10
ENDBRANCH   6   8
ENDBRANCH   5   6
ENDBRANCH   4   5
ENDBRANCH   3   4
ENDBRANCH   2   3
ENDBRANCH   1   2
BRANCH   1  25
ATOM     25  C   UNL A   1      32.121  28.864  26.969  1.00  0.00     0.188 C 
BRANCH  25  26
ATOM     26  O   UNL A   1      31.605  30.144  27.257  1.00  0.00    -0.376 OA
BRANCH  26  27
ATOM     27  C   UNL A   1      31.827  31.157  26.298  1.00  0.00     0.202 C 
BRANCH  27  28
ATOM     28  C   UNL A   1      31.896  32.584  26.857  1.00  0.00     0.261 C 
BRANCH  28  29
ATOM     29  O   UNL A   1      32.738  32.772  28.010  1.00  0.00    -0.460 OA
BRANCH  29  30
ATOM     30  C   UNL A   1      33.849  33.525  27.858  1.00  0.00     0.338 C 
ATOM     31  O   UNL A   1      33.901  34.713  27.572  1.00  0.00    -0.246 OA
BRANCH  30  32
ATOM     32  C   UNL A   1      35.007  32.719  28.308  1.00  0.00     0.060 A 
ATOM     33  C   UNL A   1      34.818  31.372  28.654  1.00  0.00     0.016 A 
ATOM     34  C   UNL A   1      36.280  33.288  28.380  1.00  0.00     0.016 A 
ATOM     35  C   UNL A   1      35.896  30.601  29.101  1.00  0.00     0.010 A 
ATOM     36  C   UNL A   1      37.354  32.520  28.847  1.00  0.00     0.010 A 
ATOM     37  C   UNL A   1      37.163  31.183  29.240  1.00  0.00    -0.014 A 
BRANCH  37  38
ATOM     38  C   UNL A   1      38.246  30.471  29.967  1.00  0.00     0.031 A 
ATOM     39  C   UNL A   1      38.498  30.834  31.405  1.00  0.00     0.074 A 
ATOM     40  C   UNL A   1      39.001  29.529  29.373  1.00  0.00     0.049 A 
ATOM     41  N   UNL A   1      39.442  30.429  32.218  1.00  0.00    -0.248 NA
ATOM     42  C   UNL A   1      37.558  31.794  32.005  1.00  0.00     0.031 C 
ATOM     43  C   UNL A   1      38.835  29.050  28.003  1.00  0.00     0.029 A 
ATOM     44  N   UNL A   1      40.077  28.819  29.852  1.00  0.00    -0.354 N 
ATOM     45  C   UNL A   1      39.216  31.094  33.417  1.00  0.00     0.074 A 
ATOM     46  C   UNL A   1      38.068  31.951  33.217  1.00  0.00     0.031 C 
ATOM     47  C   UNL A   1      39.786  28.134  27.746  1.00  0.00     0.029 A 
ATOM     48  C   UNL A   1      40.651  27.992  28.917  1.00  0.00     0.049 A 
ATOM     49  H   UNL A   1      40.404  28.896  30.777  1.00  0.00     0.167 HD
ATOM     50  C   UNL A   1      39.901  30.995  34.582  1.00  0.00     0.037 A 
ATOM     51  C   UNL A   1      41.762  27.234  28.993  1.00  0.00     0.037 A 
ATOM     52  C   UNL A   1      41.046  30.145  34.780  1.00  0.00     0.049 A 
ATOM     53  C   UNL A   1      42.562  27.208  30.273  1.00  0.00     0.074 A 
ATOM     54  C   UNL A   1      41.795  29.961  35.929  1.00  0.00     0.029 A 
ATOM     55  N   UNL A   1      41.616  29.347  33.799  1.00  0.00    -0.354 N 
ATOM     56  N   UNL A   1      42.328  27.816  31.412  1.00  0.00    -0.248 NA
ATOM     57  C   UNL A   1      43.782  26.385  30.277  1.00  0.00     0.031 C 
ATOM     58  C   UNL A   1      42.857  29.103  35.626  1.00  0.00     0.029 A 
ATOM     59  C   UNL A   1      42.728  28.694  34.308  1.00  0.00     0.049 A 
ATOM     60  H   UNL A   1      41.281  29.258  32.877  1.00  0.00     0.167 HD
ATOM     61  C   UNL A   1      43.346  27.423  32.273  1.00  0.00     0.074 A 
ATOM     62  C   UNL A   1      44.193  26.514  31.531  1.00  0.00     0.031 C 
ATOM     63  C   UNL A   1      43.558  27.780  33.565  1.00  0.00     0.037 A 
BRANCH  50  64
ATOM     64  C   UNL A   1      39.446  31.856  35.726  1.00  0.00     0.064 A 
ATOM     65  C   UNL A   1      39.965  33.143  35.937  1.00  0.00     0.173 A 
ATOM     66  C   UNL A   1      38.461  31.394  36.612  1.00  0.00     0.173 A 
ATOM     67  F   UNL A   1      40.919  33.628  35.128  1.00  0.00    -0.203 F 
ATOM     68  C   UNL A   1      39.539  33.919  37.013  1.00  0.00     0.198 A 
ATOM     69  C   UNL A   1      38.012  32.187  37.664  1.00  0.00     0.198 A 
ATOM     70  F   UNL A   1      37.927  30.174  36.455  1.00  0.00    -0.203 F 
ATOM     71  F   UNL A   1      40.092  35.121  37.228  1.00  0.00    -0.200 F 
ATOM     72  C   UNL A   1      38.559  33.445  37.870  1.00  0.00     0.200 A 
ATOM     73  F   UNL A   1      37.053  31.732  38.483  1.00  0.00    -0.200 F 
ATOM     74  F   UNL A   1      38.146  34.196  38.900  1.00  0.00    -0.200 F 
ENDBRANCH  50  64
BRANCH  51  75
ATOM     75  C   UNL A   1      42.205  26.435  27.816  1.00  0.00     0.064 A 
ATOM     76  C   UNL A   1      41.690  25.153  27.577  1.00  0.00     0.173 A 
ATOM     77  C   UNL A   1      43.178  26.920  26.929  1.00  0.00     0.173 A 
ATOM     78  F   UNL A   1      40.782  24.630  28.415  1.00  0.00    -0.203 F 
ATOM     79  C   UNL A   1      42.146  24.379  26.512  1.00  0.00     0.198 A 
ATOM     80  C   UNL A   1      43.609  26.159  25.844  1.00  0.00     0.198 A 
ATOM     81  F   UNL A   1      43.711  28.137  27.116  1.00  0.00    -0.203 F 
ATOM     82  F   UNL A   1      41.678  23.135  26.343  1.00  0.00    -0.200 F 
ATOM     83  C   UNL A   1      43.100  24.885  25.642  1.00  0.00     0.200 A 
ATOM     84  F   UNL A   1      44.526  26.655  25.002  1.00  0.00    -0.200 F 
ATOM     85  F   UNL A   1      43.539  24.140  24.619  1.00  0.00    -0.200 F 
ENDBRANCH  51  75
BRANCH  63  86
ATOM     86  C   UNL A   1      44.720  27.149  34.282  1.00  0.00     0.064 A 
ATOM     87  C   UNL A   1      44.614  25.906  34.924  1.00  0.00     0.173 A 
ATOM     88  C   UNL A   1      45.974  27.782  34.288  1.00  0.00     0.173 A 
ATOM     89  F   UNL A   1      43.436  25.263  34.958  1.00  0.00    -0.203 F 
ATOM     90  C   UNL A   1      45.709  25.336  35.569  1.00  0.00     0.198 A 
ATOM     91  C   UNL A   1      47.075  27.192  34.903  1.00  0.00     0.198 A 
ATOM     92  F   UNL A   1      46.136  28.968  33.682  1.00  0.00    -0.203 F 
ATOM     93  F   UNL A   1      45.570  24.173  36.220  1.00  0.00    -0.200 F 
ATOM     94  C   UNL A   1      46.940  25.974  35.551  1.00  0.00     0.200 A 
ATOM     95  F   UNL A   1      48.268  27.803  34.868  1.00  0.00    -0.200 F 
ATOM     96  F   UNL A   1      47.995  25.419  36.163  1.00  0.00    -0.200 F 
ENDBRANCH  63  86
ENDBRANCH  37  38
ENDBRANCH  30  32
ENDBRANCH  29  30
ENDBRANCH  28  29
ENDBRANCH  27  28
ENDBRANCH  26  27
ENDBRANCH  25  26
ENDBRANCH   1  25
TORSDOF 20
ENDMDL
MODEL 2
REMARK VINA RESULT:     -10.9      1.965      7.909
REMARK SMILES C/C=C/c1cncc(-c2ccc([C@@H](C)C(=O)OCCOCCOCCOC(=O)c3ccc(-c4c5nc(c(-c6c(F)c(F)c(F)c(F)c6F)c6ccc([nH]6)c(-c6c(F)c(F)c(F)c(F)c6F)c6nc(c(-c7c(F)c(F)c(F)c(F)c7F)c7ccc4[nH]7)C=C6)C=C5)cc3)cc2)c1
REMARK SMILES IDX 21 1 20 2 19 3 18 4 17 5 15 6 16 7 13 8 14 9 12 10 9 11
REMARK SMILES IDX 10 12 93 13 11 14 92 15 8 16 4 17 5 18 94 19 6 20 7 21 3 22
REMARK SMILES IDX 1 23 2 24 22 25 23 26 24 27 25 28 26 29 27 30 28 31 29 32
REMARK SMILES IDX 30 33 91 34 31 35 90 36 32 37 33 38 34 39 84 40 35 41 89 42
REMARK SMILES IDX 83 43 85 44 36 45 88 46 82 47 81 48 37 50 69 51 49 52 68 53
REMARK SMILES IDX 50 54 53 55 67 56 86 57 51 58 52 59 66 61 87 62 54 63 38 64
REMARK SMILES IDX 39 65 47 66 40 67 41 68 45 69 48 70 42 71 43 72 46 73 44 74
REMARK SMILES IDX 70 75 71 76 79 77 72 78 73 79 77 80 80 81 74 82 75 83 78 84
REMARK SMILES IDX 76 85 55 86 56 87 64 88 57 89 58 90 62 91 65 92 59 93 60 94
REMARK SMILES IDX 63 95 61 96
REMARK H PARENT 85 49 53 60
REMARK Flexibility Score: inf
ROOT
ATOM      1  C   UNL A   1      33.140  28.043  22.820  1.00  0.00     0.188 C 
ENDROOT
BRANCH   1   2
ATOM      2  O   UNL A   1      32.520  26.941  22.168  1.00  0.00    -0.376 OA
BRANCH   2   3
ATOM      3  C   UNL A   1      31.142  26.674  22.409  1.00  0.00     0.202 C 
BRANCH   3   4
ATOM      4  C   UNL A   1      30.773  25.669  23.513  1.00  0.00     0.261 C 
BRANCH   4   5
ATOM      5  O   UNL A   1      30.556  24.305  23.080  1.00  0.00    -0.463 OA
BRANCH   5   6
ATOM      6  C   UNL A   1      31.245  23.340  23.743  1.00  0.00     0.313 C 
ATOM      7  O   UNL A   1      30.964  22.979  24.885  1.00  0.00    -0.252 OA
BRANCH   6   8
ATOM      8  C   UNL A   1      32.407  22.685  22.987  1.00  0.00     0.126 C 
ATOM      9  C   UNL A   1      31.948  21.322  22.472  1.00  0.00     0.025 C 
BRANCH   8  10
ATOM     10  C   UNL A   1      33.805  22.583  23.599  1.00  0.00    -0.034 A 
ATOM     11  C   UNL A   1      36.393  22.293  24.799  1.00  0.00    -0.017 A 
ATOM     12  C   UNL A   1      36.063  23.410  24.010  1.00  0.00     0.009 A 
ATOM     13  C   UNL A   1      35.402  21.320  24.980  1.00  0.00     0.009 A 
ATOM     14  C   UNL A   1      34.791  23.561  23.427  1.00  0.00     0.005 A 
ATOM     15  C   UNL A   1      34.130  21.466  24.399  1.00  0.00     0.005 A 
BRANCH  11  16
ATOM     16  C   UNL A   1      37.701  22.199  25.475  1.00  0.00     0.001 A 
ATOM     17  C   UNL A   1      39.744  21.029  26.123  1.00  0.00    -0.007 A 
ATOM     18  C   UNL A   1      40.110  22.182  26.817  1.00  0.00     0.119 A 
ATOM     19  C   UNL A   1      38.509  21.047  25.453  1.00  0.00     0.020 A 
ATOM     20  N   UNL A   1      39.370  23.309  26.874  1.00  0.00    -0.263 NA
ATOM     21  C   UNL A   1      38.194  23.286  26.205  1.00  0.00     0.119 A 
BRANCH  17  22
ATOM     22  C   UNL A   1      40.642  19.868  26.179  1.00  0.00     0.005 C 
ATOM     23  C   UNL A   1      42.691  18.629  26.891  1.00  0.00     0.035 C 
ATOM     24  C   UNL A   1      41.840  19.856  26.784  1.00  0.00    -0.030 C 
ENDBRANCH  17  22
ENDBRANCH  11  16
ENDBRANCH   8  10
ENDBRANCH   6   8
ENDBRANCH   5   6
ENDBRANCH   4   5
ENDBRANCH   3   4
ENDBRANCH   2   3
ENDBRANCH   1   2
BRANCH   1  25
ATOM     25  C   UNL A   1      33.794  27.838  24.194  1.00  0.00     0.188 C 
BRANCH  25  26
ATOM     26  O   UNL A   1      33.103  28.447  25.262  1.00  0.00    -0.376 OA
BRANCH  26  27
ATOM     27  C   UNL A   1      32.038  29.311  24.928  1.00  0.00     0.202 C 
BRANCH  27  28
ATOM     28  C   UNL A   1      31.743  30.414  25.954  1.00  0.00     0.261 C 
BRANCH  28  29
ATOM     29  O   UNL A   1      32.641  30.488  27.078  1.00  0.00    -0.460 OA
BRANCH  29  30
ATOM     30  C   UNL A   1      33.293  31.654  27.282  1.00  0.00     0.338 C 
ATOM     31  O   UNL A   1      32.835  32.783  27.173  1.00  0.00    -0.246 OA
BRANCH  30  32
ATOM     32  C   UNL A   1      34.613  31.337  27.875  1.00  0.00     0.060 A 
ATOM     33  C   UNL A   1      34.928  30.006  28.185  1.00  0.00     0.016 A 
ATOM     34  C   UNL A   1      35.542  32.351  28.116  1.00  0.00     0.016 A 
ATOM     35  C   UNL A   1      36.161  29.690  28.764  1.00  0.00     0.010 A 
ATOM     36  C   UNL A   1      36.767  32.036  28.715  1.00  0.00     0.010 A 
ATOM     37  C   UNL A   1      37.072  30.710  29.072  1.00  0.00    -0.014 A 
BRANCH  37  38
ATOM     38  C   UNL A   1      38.254  30.435  29.930  1.00  0.00     0.031 A 
ATOM     39  C   UNL A   1      39.348  29.561  29.378  1.00  0.00     0.074 A 
ATOM     40  C   UNL A   1      38.361  30.934  31.174  1.00  0.00     0.049 A 
ATOM     41  N   UNL A   1      40.424  29.098  29.963  1.00  0.00    -0.248 NA
ATOM     42  C   UNL A   1      39.200  29.147  27.974  1.00  0.00     0.031 C 
ATOM     43  C   UNL A   1      37.398  31.828  31.813  1.00  0.00     0.029 A 
ATOM     44  N   UNL A   1      39.329  30.740  32.131  1.00  0.00    -0.354 N 
ATOM     45  C   UNL A   1      41.073  28.330  29.003  1.00  0.00     0.074 A 
ATOM     46  C   UNL A   1      40.254  28.363  27.811  1.00  0.00     0.031 C 
ATOM     47  C   UNL A   1      37.817  32.094  33.064  1.00  0.00     0.029 A 
ATOM     48  C   UNL A   1      39.054  31.358  33.326  1.00  0.00     0.049 A 
ATOM     49  H   UNL A   1      40.142  30.208  31.973  1.00  0.00     0.167 HD
ATOM     50  C   UNL A   1      42.247  27.662  29.105  1.00  0.00     0.037 A 
ATOM     51  C   UNL A   1      39.711  31.308  34.502  1.00  0.00     0.037 A 
ATOM     52  C   UNL A   1      43.059  27.625  30.293  1.00  0.00     0.049 A 
ATOM     53  C   UNL A   1      40.970  30.483  34.619  1.00  0.00     0.074 A 
ATOM     54  C   UNL A   1      44.274  26.992  30.488  1.00  0.00     0.029 A 
ATOM     55  N   UNL A   1      42.730  28.237  31.494  1.00  0.00    -0.354 N 
ATOM     56  N   UNL A   1      41.593  29.782  33.701  1.00  0.00    -0.248 NA
ATOM     57  C   UNL A   1      41.620  30.446  35.938  1.00  0.00     0.031 C 
ATOM     58  C   UNL A   1      44.648  27.166  31.824  1.00  0.00     0.029 A 
ATOM     59  C   UNL A   1      43.703  27.969  32.443  1.00  0.00     0.049 A 
ATOM     60  H   UNL A   1      41.924  28.782  31.648  1.00  0.00     0.167 HD
ATOM     61  C   UNL A   1      42.720  29.254  34.320  1.00  0.00     0.074 A 
ATOM     62  C   UNL A   1      42.703  29.724  35.689  1.00  0.00     0.031 C 
ATOM     63  C   UNL A   1      43.685  28.454  33.800  1.00  0.00     0.037 A 
BRANCH  50  64
ATOM     64  C   UNL A   1      42.706  26.886  27.904  1.00  0.00     0.064 A 
ATOM     65  C   UNL A   1      42.442  25.514  27.761  1.00  0.00     0.173 A 
ATOM     66  C   UNL A   1      43.403  27.529  26.869  1.00  0.00     0.173 A 
ATOM     67  F   UNL A   1      41.792  24.847  28.727  1.00  0.00    -0.203 F 
ATOM     68  C   UNL A   1      42.890  24.811  26.645  1.00  0.00     0.198 A 
ATOM     69  C   UNL A   1      43.817  26.829  25.739  1.00  0.00     0.198 A 
ATOM     70  F   UNL A   1      43.678  28.839  26.951  1.00  0.00    -0.203 F 
ATOM     71  F   UNL A   1      42.677  23.490  26.560  1.00  0.00    -0.200 F 
ATOM     72  C   UNL A   1      43.569  25.469  25.633  1.00  0.00     0.200 A 
ATOM     73  F   UNL A   1      44.461  27.472  24.754  1.00  0.00    -0.200 F 
ATOM     74  F   UNL A   1      43.993  24.791  24.557  1.00  0.00    -0.200 F 
ENDBRANCH  50  64
BRANCH  51  75
ATOM     75  C   UNL A   1      39.191  32.052  35.682  1.00  0.00     0.064 A 
ATOM     76  C   UNL A   1      39.578  33.377  35.929  1.00  0.00     0.173 A 
ATOM     77  C   UNL A   1      38.327  31.444  36.607  1.00  0.00     0.173 A 
ATOM     78  F   UNL A   1      40.427  33.993  35.094  1.00  0.00    -0.203 F 
ATOM     79  C   UNL A   1      39.141  34.057  37.064  1.00  0.00     0.198 A 
ATOM     80  C   UNL A   1      37.864  32.136  37.724  1.00  0.00     0.198 A 
ATOM     81  F   UNL A   1      37.933  30.176  36.424  1.00  0.00    -0.203 F 
ATOM     82  F   UNL A   1      39.574  35.302  37.305  1.00  0.00    -0.200 F 
ATOM     83  C   UNL A   1      38.279  33.439  37.958  1.00  0.00     0.200 A 
ATOM     84  F   UNL A   1      37.026  31.537  38.580  1.00  0.00    -0.200 F 
ATOM     85  F   UNL A   1      37.860  34.092  39.049  1.00  0.00    -0.200 F 
ENDBRANCH  51  75
BRANCH  63  86
ATOM     86  C   UNL A   1      44.834  28.075  34.694  1.00  0.00     0.064 A 
ATOM     87  C   UNL A   1      45.978  28.878  34.818  1.00  0.00     0.173 A 
ATOM     88  C   UNL A   1      44.769  26.907  35.473  1.00  0.00     0.173 A 
ATOM     89  F   UNL A   1      46.097  29.998  34.089  1.00  0.00    -0.203 F 
ATOM     90  C   UNL A   1      47.022  28.513  35.664  1.00  0.00     0.198 A 
ATOM     91  C   UNL A   1      45.799  26.564  36.344  1.00  0.00     0.198 A 
ATOM     92  F   UNL A   1      43.695  26.106  35.401  1.00  0.00    -0.203 F 
ATOM     93  F   UNL A   1      48.127  29.269  35.726  1.00  0.00    -0.200 F 
ATOM     94  C   UNL A   1      46.929  27.361  36.432  1.00  0.00     0.200 A 
ATOM     95  F   UNL A   1      45.697  25.461  37.098  1.00  0.00    -0.200 F 
ATOM     96  F   UNL A   1      47.931  27.017  37.253  1.00  0.00    -0.200 F 
ENDBRANCH  63  86
ENDBRANCH  37  38
ENDBRANCH  30  32
ENDBRANCH  29  30
ENDBRANCH  28  29
ENDBRANCH  27  28
ENDBRANCH  26  27
ENDBRANCH  25  26
ENDBRANCH   1  25
TORSDOF 20
ENDMDL
MODEL 3
REMARK VINA RESULT:     -10.8      1.979      3.435
REMARK SMILES C/C=C/c1cncc(-c2ccc([C@@H](C)C(=O)OCCOCCOCCOC(=O)c3ccc(-c4c5nc(c(-c6c(F)c(F)c(F)c(F)c6F)c6ccc([nH]6)c(-c6c(F)c(F)c(F)c(F)c6F)c6nc(c(-c7c(F)c(F)c(F)c(F)c7F)c7ccc4[nH]7)C=C6)C=C5)cc3)cc2)c1
REMARK SMILES IDX 21 1 20 2 19 3 18 4 17 5 15 6 16 7 13 8 14 9 12 10 9 11
REMARK SMILES IDX 10 12 93 13 11 14 92 15 8 16 4 17 5 18 94 19 6 20 7 21 3 22
REMARK SMILES IDX 1 23 2 24 22 25 23 26 24 27 25 28 26 29 27 30 28 31 29 32
REMARK SMILES IDX 30 33 91 34 31 35 90 36 32 37 33 38 34 39 84 40 35 41 89 42
REMARK SMILES IDX 83 43 85 44 36 45 88 46 82 47 81 48 37 50 69 51 49 52 68 53
REMARK SMILES IDX 50 54 53 55 67 56 86 57 51 58 52 59 66 61 87 62 54 63 38 64
REMARK SMILES IDX 39 65 47 66 40 67 41 68 45 69 48 70 42 71 43 72 46 73 44 74
REMARK SMILES IDX 70 75 71 76 79 77 72 78 73 79 77 80 80 81 74 82 75 83 78 84
REMARK SMILES IDX 76 85 55 86 56 87 64 88 57 89 58 90 62 91 65 92 59 93 60 94
REMARK SMILES IDX 63 95 61 96
REMARK H PARENT 85 49 53 60
REMARK Flexibility Score: inf
ROOT
ATOM      1  C   UNL A   1      31.054  28.867  22.463  1.00  0.00     0.188 C 
ENDROOT
BRANCH   1   2
ATOM      2  O   UNL A   1      30.542  27.591  22.095  1.00  0.00    -0.376 OA
BRANCH   2   3
ATOM      3  C   UNL A   1      30.189  26.661  23.113  1.00  0.00     0.202 C 
BRANCH   3   4
ATOM      4  C   UNL A   1      31.155  25.501  23.412  1.00  0.00     0.261 C 
BRANCH   4   5
ATOM      5  O   UNL A   1      30.552  24.191  23.528  1.00  0.00    -0.463 OA
BRANCH   5   6
ATOM      6  C   UNL A   1      31.302  23.227  24.123  1.00  0.00     0.313 C 
ATOM      7  O   UNL A   1      31.030  22.746  25.222  1.00  0.00    -0.252 OA
BRANCH   6   8
ATOM      8  C   UNL A   1      32.527  22.733  23.343  1.00  0.00     0.126 C 
ATOM      9  C   UNL A   1      32.157  21.438  22.622  1.00  0.00     0.025 C 
BRANCH   8  10
ATOM     10  C   UNL A   1      33.900  22.604  24.005  1.00  0.00    -0.034 A 
ATOM     11  C   UNL A   1      36.500  22.469  25.207  1.00  0.00    -0.017 A 
ATOM     12  C   UNL A   1      35.612  21.378  25.237  1.00  0.00     0.009 A 
ATOM     13  C   UNL A   1      36.064  23.633  24.561  1.00  0.00     0.009 A 
ATOM     14  C   UNL A   1      34.339  21.437  24.640  1.00  0.00     0.005 A 
ATOM     15  C   UNL A   1      34.793  23.696  23.964  1.00  0.00     0.005 A 
BRANCH  11  16
ATOM     16  C   UNL A   1      37.864  22.355  25.758  1.00  0.00     0.001 A 
ATOM     17  C   UNL A   1      39.928  21.144  26.241  1.00  0.00    -0.007 A 
ATOM     18  C   UNL A   1      40.389  22.302  26.865  1.00  0.00     0.119 A 
ATOM     19  C   UNL A   1      38.636  21.180  25.691  1.00  0.00     0.020 A 
ATOM     20  N   UNL A   1      39.687  23.452  26.960  1.00  0.00    -0.263 NA
ATOM     21  C   UNL A   1      38.452  23.445  26.407  1.00  0.00     0.119 A 
BRANCH  17  22
ATOM     22  C   UNL A   1      40.796  19.959  26.243  1.00  0.00     0.005 C 
ATOM     23  C   UNL A   1      42.977  18.755  26.044  1.00  0.00     0.035 C 
ATOM     24  C   UNL A   1      42.106  19.970  25.951  1.00  0.00    -0.030 C 
ENDBRANCH  17  22
ENDBRANCH  11  16
ENDBRANCH   8  10
ENDBRANCH   6   8
ENDBRANCH   5   6
ENDBRANCH   4   5
ENDBRANCH   3   4
ENDBRANCH   2   3
ENDBRANCH   1   2
BRANCH   1  25
ATOM     25  C   UNL A   1      32.429  28.963  23.139  1.00  0.00     0.188 C 
BRANCH  25  26
ATOM     26  O   UNL A   1      32.379  29.084  24.543  1.00  0.00    -0.376 OA
BRANCH  26  27
ATOM     27  C   UNL A   1      31.346  29.883  25.082  1.00  0.00     0.202 C 
BRANCH  27  28
ATOM     28  C   UNL A   1      31.774  30.832  26.210  1.00  0.00     0.261 C 
BRANCH  28  29
ATOM     29  O   UNL A   1      33.069  30.583  26.789  1.00  0.00    -0.460 OA
BRANCH  29  30
ATOM     30  C   UNL A   1      33.708  31.624  27.366  1.00  0.00     0.338 C 
ATOM     31  O   UNL A   1      33.251  32.736  27.590  1.00  0.00    -0.246 OA
BRANCH  30  32
ATOM     32  C   UNL A   1      35.003  31.129  27.885  1.00  0.00     0.060 A 
ATOM     33  C   UNL A   1      35.184  29.753  28.092  1.00  0.00     0.016 A 
ATOM     34  C   UNL A   1      36.043  32.020  28.159  1.00  0.00     0.016 A 
ATOM     35  C   UNL A   1      36.393  29.269  28.601  1.00  0.00     0.010 A 
ATOM     36  C   UNL A   1      37.245  31.536  28.687  1.00  0.00     0.010 A 
ATOM     37  C   UNL A   1      37.417  30.163  28.941  1.00  0.00    -0.014 A 
BRANCH  37  38
ATOM     38  C   UNL A   1      38.589  29.705  29.733  1.00  0.00     0.031 A 
ATOM     39  C   UNL A   1      38.752  30.229  31.134  1.00  0.00     0.074 A 
ATOM     40  C   UNL A   1      39.498  28.853  29.228  1.00  0.00     0.049 A 
ATOM     41  N   UNL A   1      39.734  30.057  31.983  1.00  0.00    -0.248 NA
ATOM     42  C   UNL A   1      37.656  31.069  31.643  1.00  0.00     0.031 C 
ATOM     43  C   UNL A   1      39.438  28.236  27.905  1.00  0.00     0.029 A 
ATOM     44  N   UNL A   1      40.667  28.373  29.771  1.00  0.00    -0.354 N 
ATOM     45  C   UNL A   1      39.380  30.777  33.118  1.00  0.00     0.074 A 
ATOM     46  C   UNL A   1      38.112  31.412  32.838  1.00  0.00     0.031 C 
ATOM     47  C   UNL A   1      40.531  27.470  27.733  1.00  0.00     0.029 A 
ATOM     48  C   UNL A   1      41.385  27.574  28.916  1.00  0.00     0.049 A 
ATOM     49  H   UNL A   1      40.960  28.583  30.687  1.00  0.00     0.167 HD
ATOM     50  C   UNL A   1      40.050  30.893  34.289  1.00  0.00     0.037 A 
ATOM     51  C   UNL A   1      42.604  27.019  29.063  1.00  0.00     0.037 A 
ATOM     52  C   UNL A   1      41.316  30.265  34.567  1.00  0.00     0.049 A 
ATOM     53  C   UNL A   1      43.374  27.236  30.343  1.00  0.00     0.074 A 
ATOM     54  C   UNL A   1      42.064  30.307  35.730  1.00  0.00     0.029 A 
ATOM     55  N   UNL A   1      42.027  29.489  33.662  1.00  0.00    -0.354 N 
ATOM     56  N   UNL A   1      43.023  27.895  31.423  1.00  0.00    -0.248 NA
ATOM     57  C   UNL A   1      44.712  26.629  30.426  1.00  0.00     0.031 C 
ATOM     58  C   UNL A   1      43.256  29.612  35.508  1.00  0.00     0.029 A 
ATOM     59  C   UNL A   1      43.221  29.075  34.232  1.00  0.00     0.049 A 
ATOM     60  H   UNL A   1      41.728  29.266  32.751  1.00  0.00     0.167 HD
ATOM     61  C   UNL A   1      44.075  27.751  32.320  1.00  0.00     0.074 A 
ATOM     62  C   UNL A   1      45.074  26.932  31.664  1.00  0.00     0.031 C 
ATOM     63  C   UNL A   1      44.202  28.248  33.576  1.00  0.00     0.037 A 
BRANCH  50  64
ATOM     64  C   UNL A   1      39.440  31.764  35.350  1.00  0.00     0.064 A 
ATOM     65  C   UNL A   1      38.532  31.258  36.294  1.00  0.00     0.173 A 
ATOM     66  C   UNL A   1      39.787  33.122  35.438  1.00  0.00     0.173 A 
ATOM     67  F   UNL A   1      38.156  29.972  36.247  1.00  0.00    -0.203 F 
ATOM     68  C   UNL A   1      37.968  32.087  37.261  1.00  0.00     0.198 A 
ATOM     69  C   UNL A   1      39.248  33.938  36.429  1.00  0.00     0.198 A 
ATOM     70  F   UNL A   1      40.653  33.656  34.566  1.00  0.00    -0.203 F 
ATOM     71  F   UNL A   1      37.058  31.594  38.113  1.00  0.00    -0.200 F 
ATOM     72  C   UNL A   1      38.332  33.423  37.333  1.00  0.00     0.200 A 
ATOM     73  F   UNL A   1      39.613  35.225  36.505  1.00  0.00    -0.200 F 
ATOM     74  F   UNL A   1      37.792  34.216  38.268  1.00  0.00    -0.200 F 
ENDBRANCH  50  64
BRANCH  51  75
ATOM     75  C   UNL A   1      43.193  26.205  27.963  1.00  0.00     0.064 A 
ATOM     76  C   UNL A   1      43.067  24.809  27.950  1.00  0.00     0.173 A 
ATOM     77  C   UNL A   1      43.926  26.801  26.926  1.00  0.00     0.173 A 
ATOM     78  F   UNL A   1      42.404  24.187  28.937  1.00  0.00    -0.203 F 
ATOM     79  C   UNL A   1      43.668  24.039  26.956  1.00  0.00     0.198 A 
ATOM     80  C   UNL A   1      44.499  26.033  25.913  1.00  0.00     0.198 A 
ATOM     81  F   UNL A   1      44.086  28.132  26.894  1.00  0.00    -0.203 F 
ATOM     82  F   UNL A   1      43.579  22.703  27.001  1.00  0.00    -0.200 F 
ATOM     83  C   UNL A   1      44.377  24.652  25.934  1.00  0.00     0.200 A 
ATOM     84  F   UNL A   1      45.176  26.631  24.924  1.00  0.00    -0.200 F 
ATOM     85  F   UNL A   1      44.955  23.912  24.979  1.00  0.00    -0.200 F 
ENDBRANCH  51  75
BRANCH  63  86
ATOM     86  C   UNL A   1      45.439  27.882  34.350  1.00  0.00     0.064 A 
ATOM     87  C   UNL A   1      45.478  26.775  35.211  1.00  0.00     0.173 A 
ATOM     88  C   UNL A   1      46.618  28.629  34.193  1.00  0.00     0.173 A 
ATOM     89  F   UNL A   1      44.377  26.033  35.406  1.00  0.00    -0.203 F 
ATOM     90  C   UNL A   1      46.640  26.447  35.906  1.00  0.00     0.198 A 
ATOM     91  C   UNL A   1      47.787  28.278  34.862  1.00  0.00     0.198 A 
ATOM     92  F   UNL A   1      46.640  29.693  33.376  1.00  0.00    -0.203 F 
ATOM     93  F   UNL A   1      46.639  25.417  36.763  1.00  0.00    -0.200 F 
ATOM     94  C   UNL A   1      47.796  27.194  35.726  1.00  0.00     0.200 A 
ATOM     95  F   UNL A   1      48.907  28.990  34.671  1.00  0.00    -0.200 F 
ATOM     96  F   UNL A   1      48.915  26.871  36.387  1.00  0.00    -0.200 F 
ENDBRANCH  63  86
ENDBRANCH  37  38
ENDBRANCH  30  32
ENDBRANCH  29  30
ENDBRANCH  28  29
ENDBRANCH  27  28
ENDBRANCH  26  27
ENDBRANCH  25  26
ENDBRANCH   1  25
TORSDOF 20
ENDMDL
