MODEL 1
REMARK VINA RESULT:     -10.9      0.000      0.000
REMARK SMILES Cc1cc(C(=O)Nc2nc(CC(=O)OCCOCCOCCOC(=O)c3ccc(-c4c5nc(c(-c6c(F)c(F)c(F)c(F)c6F)c6ccc([nH]6)c(-c6c(F)c(F)c(F)c(F)c6F)c6nc(c(-c7c(F)c(F)c(F)c(F)c7F)c7ccc4[nH]7)C=C6)C=C5)cc3)cs2)sc1C
REMARK SMILES IDX 18 1 17 2 16 3 15 4 14 5 12 6 13 7 11 8 10 9 8 10 9 11 90 12
REMARK SMILES IDX 89 13 7 14 5 15 6 16 4 18 1 19 2 20 3 21 92 22 91 23 93 24
REMARK SMILES IDX 19 25 20 26 21 27 22 28 23 29 24 30 25 31 26 32 27 33 88 34
REMARK SMILES IDX 28 35 87 36 29 37 30 38 31 39 81 40 32 41 86 42 80 43 82 44
REMARK SMILES IDX 33 45 85 46 79 47 78 48 34 50 66 51 46 52 65 53 47 54 50 55
REMARK SMILES IDX 64 56 83 57 48 58 49 59 63 61 84 62 51 63 35 64 36 65 44 66
REMARK SMILES IDX 37 67 38 68 42 69 45 70 39 71 40 72 43 73 41 74 67 75 68 76
REMARK SMILES IDX 76 77 69 78 70 79 74 80 77 81 71 82 72 83 75 84 73 85 52 86
REMARK SMILES IDX 53 87 61 88 54 89 55 90 59 91 62 92 56 93 57 94 60 95 58 96
REMARK H PARENT 7 17 82 49 50 60
REMARK Flexibility Score: inf
ROOT
ATOM      1  C   UNL A   1      43.291  18.841  25.630  1.00  0.00     0.188 C 
ENDROOT
BRANCH   1   2
ATOM      2  O   UNL A   1      42.105  19.557  25.307  1.00  0.00    -0.376 OA
BRANCH   2   3
ATOM      3  C   UNL A   1      41.639  20.573  26.190  1.00  0.00     0.202 C 
BRANCH   3   4
ATOM      4  C   UNL A   1      40.146  20.567  26.557  1.00  0.00     0.261 C 
BRANCH   4   5
ATOM      5  O   UNL A   1      39.273  21.314  25.669  1.00  0.00    -0.463 OA
BRANCH   5   6
ATOM      6  C   UNL A   1      38.812  22.504  26.131  1.00  0.00     0.311 C 
ATOM      7  O   UNL A   1      39.393  23.161  26.994  1.00  0.00    -0.252 OA
BRANCH   6   8
ATOM      8  C   UNL A   1      37.553  23.059  25.494  1.00  0.00     0.179 C 
BRANCH   8   9
ATOM      9  C   UNL A   1      36.265  22.288  25.486  1.00  0.00     0.065 A 
ATOM     10  C   UNL A   1      34.263  21.839  26.299  1.00  0.00     0.189 A 
ATOM     11  N   UNL A   1      35.429  22.361  26.597  1.00  0.00    -0.224 NA
ATOM     12  S   UNL A   1      34.166  20.980  24.831  1.00  0.00    -0.105 S 
ATOM     13  C   UNL A   1      35.625  21.761  24.373  1.00  0.00     0.093 A 
BRANCH  10  14
ATOM     14  N   UNL A   1      33.057  22.051  26.890  1.00  0.00    -0.297 N 
ATOM     15  C   UNL A   1      32.339  23.226  26.822  1.00  0.00     0.267 C 
ATOM     16  O   UNL A   1      31.407  23.344  27.625  1.00  0.00    -0.268 OA
ATOM     17  H   UNL A   1      32.666  21.308  27.405  1.00  0.00     0.172 HD
BRANCH  15  18
ATOM     18  C   UNL A   1      32.576  24.238  25.786  1.00  0.00     0.093 A 
ATOM     19  C   UNL A   1      33.655  27.690  24.704  1.00  0.00     0.045 C 
ATOM     20  C   UNL A   1      33.192  26.274  24.758  1.00  0.00    -0.037 A 
ATOM     21  C   UNL A   1      33.041  25.528  25.978  1.00  0.00     0.029 A 
ATOM     22  C   UNL A   1      32.881  25.483  23.666  1.00  0.00     0.005 A 
ATOM     23  S   UNL A   1      32.033  24.091  24.164  1.00  0.00    -0.135 S 
ATOM     24  C   UNL A   1      33.098  25.734  22.212  1.00  0.00     0.056 C 
ENDBRANCH  15  18
ENDBRANCH  10  14
ENDBRANCH   8   9
ENDBRANCH   6   8
ENDBRANCH   5   6
ENDBRANCH   4   5
ENDBRANCH   3   4
ENDBRANCH   2   3
ENDBRANCH   1   2
BRANCH   1  25
ATOM     25  C   UNL A   1      44.484  18.926  24.678  1.00  0.00     0.188 C 
BRANCH  25  26
ATOM     26  O   UNL A   1      44.707  20.216  24.158  1.00  0.00    -0.376 OA
BRANCH  26  27
ATOM     27  C   UNL A   1      45.813  20.929  24.666  1.00  0.00     0.202 C 
BRANCH  27  28
ATOM     28  C   UNL A   1      45.426  21.965  25.728  1.00  0.00     0.261 C 
BRANCH  28  29
ATOM     29  O   UNL A   1      45.107  23.284  25.235  1.00  0.00    -0.460 OA
BRANCH  29  30
ATOM     30  C   UNL A   1      43.802  23.591  25.067  1.00  0.00     0.338 C 
ATOM     31  O   UNL A   1      43.004  23.034  24.327  1.00  0.00    -0.246 OA
BRANCH  30  32
ATOM     32  C   UNL A   1      43.431  24.578  26.108  1.00  0.00     0.060 A 
ATOM     33  C   UNL A   1      42.676  24.158  27.211  1.00  0.00     0.016 A 
ATOM     34  C   UNL A   1      43.843  25.907  26.014  1.00  0.00     0.016 A 
ATOM     35  C   UNL A   1      42.355  25.052  28.236  1.00  0.00     0.010 A 
ATOM     36  C   UNL A   1      43.494  26.811  27.025  1.00  0.00     0.010 A 
ATOM     37  C   UNL A   1      42.749  26.392  28.142  1.00  0.00    -0.014 A 
BRANCH  37  38
ATOM     38  C   UNL A   1      42.318  27.387  29.159  1.00  0.00     0.031 A 
ATOM     39  C   UNL A   1      43.072  27.482  30.456  1.00  0.00     0.074 A 
ATOM     40  C   UNL A   1      41.255  28.183  28.942  1.00  0.00     0.049 A 
ATOM     41  N   UNL A   1      42.776  28.145  31.544  1.00  0.00    -0.248 NA
ATOM     42  C   UNL A   1      44.331  26.724  30.535  1.00  0.00     0.031 C 
ATOM     43  C   UNL A   1      40.479  28.239  27.704  1.00  0.00     0.029 A 
ATOM     44  N   UNL A   1      40.628  29.082  29.771  1.00  0.00    -0.354 N 
ATOM     45  C   UNL A   1      43.802  27.877  32.441  1.00  0.00     0.074 A 
ATOM     46  C   UNL A   1      44.720  26.976  31.777  1.00  0.00     0.031 C 
ATOM     47  C   UNL A   1      39.462  29.103  27.866  1.00  0.00     0.029 A 
ATOM     48  C   UNL A   1      39.483  29.618  29.233  1.00  0.00     0.049 A 
ATOM     49  H   UNL A   1      40.967  29.319  30.666  1.00  0.00     0.167 HD
ATOM     50  C   UNL A   1      43.962  28.344  33.702  1.00  0.00     0.037 A 
ATOM     51  C   UNL A   1      38.535  30.394  29.797  1.00  0.00     0.037 A 
ATOM     52  C   UNL A   1      43.046  29.239  34.360  1.00  0.00     0.049 A 
ATOM     53  C   UNL A   1      38.676  30.802  31.244  1.00  0.00     0.074 A 
ATOM     54  C   UNL A   1      43.126  29.771  35.635  1.00  0.00     0.029 A 
ATOM     55  N   UNL A   1      41.876  29.728  33.796  1.00  0.00    -0.354 N 
ATOM     56  N   UNL A   1      39.651  30.553  32.086  1.00  0.00    -0.248 NA
ATOM     57  C   UNL A   1      37.580  31.594  31.822  1.00  0.00     0.031 C 
ATOM     58  C   UNL A   1      41.976  30.535  35.864  1.00  0.00     0.029 A 
ATOM     59  C   UNL A   1      41.209  30.528  34.711  1.00  0.00     0.049 A 
ATOM     60  H   UNL A   1      41.566  29.535  32.881  1.00  0.00     0.167 HD
ATOM     61  C   UNL A   1      39.296  31.173  33.277  1.00  0.00     0.074 A 
ATOM     62  C   UNL A   1      38.030  31.834  33.044  1.00  0.00     0.031 C 
ATOM     63  C   UNL A   1      39.954  31.188  34.463  1.00  0.00     0.037 A 
BRANCH  50  64
ATOM     64  C   UNL A   1      45.162  27.879  34.475  1.00  0.00     0.064 A 
ATOM     65  C   UNL A   1      46.359  28.611  34.487  1.00  0.00     0.173 A 
ATOM     66  C   UNL A   1      45.089  26.728  35.273  1.00  0.00     0.173 A 
ATOM     67  F   UNL A   1      46.484  29.713  33.732  1.00  0.00    -0.203 F 
ATOM     68  C   UNL A   1      47.442  28.198  35.258  1.00  0.00     0.198 A 
ATOM     69  C   UNL A   1      46.163  26.334  36.066  1.00  0.00     0.198 A 
ATOM     70  F   UNL A   1      43.965  25.995  35.301  1.00  0.00    -0.203 F 
ATOM     71  F   UNL A   1      48.587  28.894  35.229  1.00  0.00    -0.200 F 
ATOM     72  C   UNL A   1      47.340  27.066  36.055  1.00  0.00     0.200 A 
ATOM     73  F   UNL A   1      46.057  25.249  36.846  1.00  0.00    -0.200 F 
ATOM     74  F   UNL A   1      48.377  26.681  36.811  1.00  0.00    -0.200 F 
ENDBRANCH  50  64
BRANCH  51  75
ATOM     75  C   UNL A   1      37.326  30.794  29.023  1.00  0.00     0.064 A 
ATOM     76  C   UNL A   1      37.122  32.127  28.635  1.00  0.00     0.173 A 
ATOM     77  C   UNL A   1      36.320  29.867  28.711  1.00  0.00     0.173 A 
ATOM     78  F   UNL A   1      38.038  33.058  28.937  1.00  0.00    -0.203 F 
ATOM     79  C   UNL A   1      35.946  32.521  27.998  1.00  0.00     0.198 A 
ATOM     80  C   UNL A   1      35.161  30.256  28.041  1.00  0.00     0.198 A 
ATOM     81  F   UNL A   1      36.456  28.581  29.066  1.00  0.00    -0.203 F 
ATOM     82  F   UNL A   1      35.747  33.813  27.706  1.00  0.00    -0.200 F 
ATOM     83  C   UNL A   1      34.969  31.584  27.697  1.00  0.00     0.200 A 
ATOM     84  F   UNL A   1      34.225  29.345  27.744  1.00  0.00    -0.200 F 
ATOM     85  F   UNL A   1      33.836  31.966  27.092  1.00  0.00    -0.200 F 
ENDBRANCH  51  75
BRANCH  63  86
ATOM     86  C   UNL A   1      39.336  31.965  35.591  1.00  0.00     0.064 A 
ATOM     87  C   UNL A   1      38.457  31.362  36.503  1.00  0.00     0.173 A 
ATOM     88  C   UNL A   1      39.663  33.316  35.790  1.00  0.00     0.173 A 
ATOM     89  F   UNL A   1      38.101  30.079  36.350  1.00  0.00    -0.203 F 
ATOM     90  C   UNL A   1      37.910  32.090  37.557  1.00  0.00     0.198 A 
ATOM     91  C   UNL A   1      39.140  34.029  36.865  1.00  0.00     0.198 A 
ATOM     92  F   UNL A   1      40.504  33.939  34.952  1.00  0.00    -0.203 F 
ATOM     93  F   UNL A   1      37.034  31.506  38.387  1.00  0.00    -0.200 F 
ATOM     94  C   UNL A   1      38.258  33.419  37.743  1.00  0.00     0.200 A 
ATOM     95  F   UNL A   1      39.492  35.310  37.051  1.00  0.00    -0.200 F 
ATOM     96  F   UNL A   1      37.738  34.113  38.764  1.00  0.00    -0.200 F 
ENDBRANCH  63  86
ENDBRANCH  37  38
ENDBRANCH  30  32
ENDBRANCH  29  30
ENDBRANCH  28  29
ENDBRANCH  27  28
ENDBRANCH  26  27
ENDBRANCH  25  26
ENDBRANCH   1  25
TORSDOF 20
ENDMDL
MODEL 2
REMARK VINA RESULT:     -10.6      4.425      9.787
REMARK SMILES Cc1cc(C(=O)Nc2nc(CC(=O)OCCOCCOCCOC(=O)c3ccc(-c4c5nc(c(-c6c(F)c(F)c(F)c(F)c6F)c6ccc([nH]6)c(-c6c(F)c(F)c(F)c(F)c6F)c6nc(c(-c7c(F)c(F)c(F)c(F)c7F)c7ccc4[nH]7)C=C6)C=C5)cc3)cs2)sc1C
REMARK SMILES IDX 18 1 17 2 16 3 15 4 14 5 12 6 13 7 11 8 10 9 8 10 9 11 90 12
REMARK SMILES IDX 89 13 7 14 5 15 6 16 4 18 1 19 2 20 3 21 92 22 91 23 93 24
REMARK SMILES IDX 19 25 20 26 21 27 22 28 23 29 24 30 25 31 26 32 27 33 88 34
REMARK SMILES IDX 28 35 87 36 29 37 30 38 31 39 81 40 32 41 86 42 80 43 82 44
REMARK SMILES IDX 33 45 85 46 79 47 78 48 34 50 66 51 46 52 65 53 47 54 50 55
REMARK SMILES IDX 64 56 83 57 48 58 49 59 63 61 84 62 51 63 35 64 36 65 44 66
REMARK SMILES IDX 37 67 38 68 42 69 45 70 39 71 40 72 43 73 41 74 67 75 68 76
REMARK SMILES IDX 76 77 69 78 70 79 74 80 77 81 71 82 72 83 75 84 73 85 52 86
REMARK SMILES IDX 53 87 61 88 54 89 55 90 59 91 62 92 56 93 57 94 60 95 58 96
REMARK H PARENT 7 17 82 49 50 60
REMARK Flexibility Score: inf
ROOT
ATOM      1  C   UNL A   1      35.539  32.707  28.468  1.00  0.00     0.188 C 
ENDROOT
BRANCH   1   2
ATOM      2  O   UNL A   1      34.575  31.965  27.731  1.00  0.00    -0.376 OA
BRANCH   2   3
ATOM      3  C   UNL A   1      34.805  30.584  27.470  1.00  0.00     0.202 C 
BRANCH   3   4
ATOM      4  C   UNL A   1      33.708  29.808  26.724  1.00  0.00     0.261 C 
BRANCH   4   5
ATOM      5  O   UNL A   1      32.480  29.579  27.463  1.00  0.00    -0.463 OA
BRANCH   5   6
ATOM      6  C   UNL A   1      31.961  28.326  27.406  1.00  0.00     0.311 C 
ATOM      7  O   UNL A   1      31.049  27.943  28.138  1.00  0.00    -0.252 OA
BRANCH   6   8
ATOM      8  C   UNL A   1      32.503  27.394  26.341  1.00  0.00     0.179 C 
BRANCH   8   9
ATOM      9  C   UNL A   1      31.691  27.011  25.138  1.00  0.00     0.065 A 
ATOM     10  C   UNL A   1      31.460  26.713  22.963  1.00  0.00     0.189 A 
ATOM     11  N   UNL A   1      32.164  27.345  23.872  1.00  0.00    -0.224 NA
ATOM     12  S   UNL A   1      30.042  25.938  23.501  1.00  0.00    -0.105 S 
ATOM     13  C   UNL A   1      30.674  26.067  25.093  1.00  0.00     0.093 A 
BRANCH  10  14
ATOM     14  N   UNL A   1      31.798  26.409  21.682  1.00  0.00    -0.297 N 
ATOM     15  C   UNL A   1      32.691  25.426  21.311  1.00  0.00     0.267 C 
ATOM     16  O   UNL A   1      33.084  25.458  20.140  1.00  0.00    -0.268 OA
ATOM     17  H   UNL A   1      31.371  26.930  20.963  1.00  0.00     0.172 HD
BRANCH  15  18
ATOM     18  C   UNL A   1      33.070  24.326  22.206  1.00  0.00     0.093 A 
ATOM     19  C   UNL A   1      32.443  20.938  23.748  1.00  0.00     0.045 C 
ATOM     20  C   UNL A   1      33.011  22.254  23.340  1.00  0.00    -0.037 A 
ATOM     21  C   UNL A   1      32.367  23.152  22.419  1.00  0.00     0.029 A 
ATOM     22  C   UNL A   1      34.225  22.773  23.752  1.00  0.00     0.005 A 
ATOM     23  S   UNL A   1      34.319  24.432  23.379  1.00  0.00    -0.135 S 
ATOM     24  C   UNL A   1      35.334  22.123  24.510  1.00  0.00     0.056 C 
ENDBRANCH  15  18
ENDBRANCH  10  14
ENDBRANCH   8   9
ENDBRANCH   6   8
ENDBRANCH   5   6
ENDBRANCH   4   5
ENDBRANCH   3   4
ENDBRANCH   2   3
ENDBRANCH   1   2
BRANCH   1  25
ATOM     25  C   UNL A   1      35.327  34.210  28.653  1.00  0.00     0.188 C 
BRANCH  25  26
ATOM     26  O   UNL A   1      34.025  34.556  29.061  1.00  0.00    -0.376 OA
BRANCH  26  27
ATOM     27  C   UNL A   1      33.643  35.905  28.911  1.00  0.00     0.202 C 
BRANCH  27  28
ATOM     28  C   UNL A   1      32.468  36.304  29.812  1.00  0.00     0.261 C 
BRANCH  28  29
ATOM     29  O   UNL A   1      32.821  36.860  31.097  1.00  0.00    -0.460 OA
BRANCH  29  30
ATOM     30  C   UNL A   1      32.514  36.140  32.197  1.00  0.00     0.338 C 
ATOM     31  O   UNL A   1      31.417  36.042  32.730  1.00  0.00    -0.246 OA
BRANCH  30  32
ATOM     32  C   UNL A   1      33.682  35.292  32.527  1.00  0.00     0.060 A 
ATOM     33  C   UNL A   1      33.472  34.001  33.031  1.00  0.00     0.016 A 
ATOM     34  C   UNL A   1      34.982  35.752  32.318  1.00  0.00     0.016 A 
ATOM     35  C   UNL A   1      34.552  33.157  33.300  1.00  0.00     0.010 A 
ATOM     36  C   UNL A   1      36.067  34.918  32.620  1.00  0.00     0.010 A 
ATOM     37  C   UNL A   1      35.861  33.616  33.111  1.00  0.00    -0.014 A 
BRANCH  37  38
ATOM     38  C   UNL A   1      37.026  32.781  33.503  1.00  0.00     0.031 A 
ATOM     39  C   UNL A   1      37.731  33.069  34.800  1.00  0.00     0.074 A 
ATOM     40  C   UNL A   1      37.469  31.792  32.706  1.00  0.00     0.049 A 
ATOM     41  N   UNL A   1      38.859  32.590  35.259  1.00  0.00    -0.248 NA
ATOM     42  C   UNL A   1      37.071  34.027  35.701  1.00  0.00     0.031 C 
ATOM     43  C   UNL A   1      36.839  31.366  31.457  1.00  0.00     0.029 A 
ATOM     44  N   UNL A   1      38.572  30.980  32.818  1.00  0.00    -0.354 N 
ATOM     45  C   UNL A   1      39.051  33.197  36.493  1.00  0.00     0.074 A 
ATOM     46  C   UNL A   1      37.933  34.091  36.705  1.00  0.00     0.031 C 
ATOM     47  C   UNL A   1      37.582  30.392  30.904  1.00  0.00     0.029 A 
ATOM     48  C   UNL A   1      38.767  30.165  31.728  1.00  0.00     0.049 A 
ATOM     49  H   UNL A   1      39.167  30.982  33.604  1.00  0.00     0.167 HD
ATOM     50  C   UNL A   1      40.069  33.018  37.369  1.00  0.00     0.037 A 
ATOM     51  C   UNL A   1      39.806  29.366  31.411  1.00  0.00     0.037 A 
ATOM     52  C   UNL A   1      41.180  32.128  37.154  1.00  0.00     0.049 A 
ATOM     53  C   UNL A   1      40.985  29.278  32.349  1.00  0.00     0.074 A 
ATOM     54  C   UNL A   1      42.257  31.876  37.986  1.00  0.00     0.029 A 
ATOM     55  N   UNL A   1      41.362  31.350  36.020  1.00  0.00    -0.354 N 
ATOM     56  N   UNL A   1      41.161  29.847  33.518  1.00  0.00    -0.248 NA
ATOM     57  C   UNL A   1      42.117  28.443  31.919  1.00  0.00     0.031 C 
ATOM     58  C   UNL A   1      43.119  30.990  37.331  1.00  0.00     0.029 A 
ATOM     59  C   UNL A   1      42.551  30.644  36.117  1.00  0.00     0.049 A 
ATOM     60  H   UNL A   1      40.738  31.306  35.259  1.00  0.00     0.167 HD
ATOM     61  C   UNL A   1      42.404  29.420  33.969  1.00  0.00     0.074 A 
ATOM     62  C   UNL A   1      42.930  28.524  32.962  1.00  0.00     0.031 C 
ATOM     63  C   UNL A   1      43.058  29.747  35.111  1.00  0.00     0.037 A 
BRANCH  50  64
ATOM     64  C   UNL A   1      40.049  33.818  38.639  1.00  0.00     0.064 A 
ATOM     65  C   UNL A   1      39.347  33.384  39.773  1.00  0.00     0.173 A 
ATOM     66  C   UNL A   1      40.805  34.996  38.746  1.00  0.00     0.173 A 
ATOM     67  F   UNL A   1      38.600  32.271  39.719  1.00  0.00    -0.203 F 
ATOM     68  C   UNL A   1      39.390  34.108  40.962  1.00  0.00     0.198 A 
ATOM     69  C   UNL A   1      40.870  35.701  39.944  1.00  0.00     0.198 A 
ATOM     70  F   UNL A   1      41.500  35.452  37.692  1.00  0.00    -0.203 F 
ATOM     71  F   UNL A   1      38.684  33.693  42.023  1.00  0.00    -0.200 F 
ATOM     72  C   UNL A   1      40.159  35.260  41.050  1.00  0.00     0.200 A 
ATOM     73  F   UNL A   1      41.625  36.805  40.031  1.00  0.00    -0.200 F 
ATOM     74  F   UNL A   1      40.214  35.944  42.200  1.00  0.00    -0.200 F 
ENDBRANCH  50  64
BRANCH  51  75
ATOM     75  C   UNL A   1      39.824  28.626  30.117  1.00  0.00     0.064 A 
ATOM     76  C   UNL A   1      39.285  27.336  30.014  1.00  0.00     0.173 A 
ATOM     77  C   UNL A   1      40.437  29.167  28.977  1.00  0.00     0.173 A 
ATOM     78  F   UNL A   1      38.716  26.761  31.084  1.00  0.00    -0.203 F 
ATOM     79  C   UNL A   1      39.389  26.604  28.832  1.00  0.00     0.198 A 
ATOM     80  C   UNL A   1      40.507  28.448  27.785  1.00  0.00     0.198 A 
ATOM     81  F   UNL A   1      40.979  30.393  29.020  1.00  0.00    -0.203 F 
ATOM     82  F   UNL A   1      38.930  25.345  28.785  1.00  0.00    -0.200 F 
ATOM     83  C   UNL A   1      39.996  27.162  27.717  1.00  0.00     0.200 A 
ATOM     84  F   UNL A   1      41.086  28.996  26.707  1.00  0.00    -0.200 F 
ATOM     85  F   UNL A   1      40.102  26.453  26.584  1.00  0.00    -0.200 F 
ENDBRANCH  51  75
BRANCH  63  86
ATOM     86  C   UNL A   1      44.400  29.113  35.350  1.00  0.00     0.064 A 
ATOM     87  C   UNL A   1      45.589  29.736  34.945  1.00  0.00     0.173 A 
ATOM     88  C   UNL A   1      44.500  27.890  36.033  1.00  0.00     0.173 A 
ATOM     89  F   UNL A   1      45.549  30.898  34.276  1.00  0.00    -0.203 F 
ATOM     90  C   UNL A   1      46.827  29.147  35.193  1.00  0.00     0.198 A 
ATOM     91  C   UNL A   1      45.740  27.322  36.309  1.00  0.00     0.198 A 
ATOM     92  F   UNL A   1      43.394  27.256  36.449  1.00  0.00    -0.203 F 
ATOM     93  F   UNL A   1      47.947  29.737  34.753  1.00  0.00    -0.200 F 
ATOM     94  C   UNL A   1      46.902  27.946  35.882  1.00  0.00     0.200 A 
ATOM     95  F   UNL A   1      45.810  26.170  36.990  1.00  0.00    -0.200 F 
ATOM     96  F   UNL A   1      48.094  27.387  36.129  1.00  0.00    -0.200 F 
ENDBRANCH  63  86
ENDBRANCH  37  38
ENDBRANCH  30  32
ENDBRANCH  29  30
ENDBRANCH  28  29
ENDBRANCH  27  28
ENDBRANCH  26  27
ENDBRANCH  25  26
ENDBRANCH   1  25
TORSDOF 20
ENDMDL
MODEL 3
REMARK VINA RESULT:     -10.3      4.070      7.108
REMARK SMILES Cc1cc(C(=O)Nc2nc(CC(=O)OCCOCCOCCOC(=O)c3ccc(-c4c5nc(c(-c6c(F)c(F)c(F)c(F)c6F)c6ccc([nH]6)c(-c6c(F)c(F)c(F)c(F)c6F)c6nc(c(-c7c(F)c(F)c(F)c(F)c7F)c7ccc4[nH]7)C=C6)C=C5)cc3)cs2)sc1C
REMARK SMILES IDX 18 1 17 2 16 3 15 4 14 5 12 6 13 7 11 8 10 9 8 10 9 11 90 12
REMARK SMILES IDX 89 13 7 14 5 15 6 16 4 18 1 19 2 20 3 21 92 22 91 23 93 24
REMARK SMILES IDX 19 25 20 26 21 27 22 28 23 29 24 30 25 31 26 32 27 33 88 34
REMARK SMILES IDX 28 35 87 36 29 37 30 38 31 39 81 40 32 41 86 42 80 43 82 44
REMARK SMILES IDX 33 45 85 46 79 47 78 48 34 50 66 51 46 52 65 53 47 54 50 55
REMARK SMILES IDX 64 56 83 57 48 58 49 59 63 61 84 62 51 63 35 64 36 65 44 66
REMARK SMILES IDX 37 67 38 68 42 69 45 70 39 71 40 72 43 73 41 74 67 75 68 76
REMARK SMILES IDX 76 77 69 78 70 79 74 80 77 81 71 82 72 83 75 84 73 85 52 86
REMARK SMILES IDX 53 87 61 88 54 89 55 90 59 91 62 92 56 93 57 94 60 95 58 96
REMARK H PARENT 7 17 82 49 50 60
REMARK Flexibility Score: inf
ROOT
ATOM      1  C   UNL A   1      43.667  18.846  25.023  1.00  0.00     0.188 C 
ENDROOT
BRANCH   1   2
ATOM      2  O   UNL A   1      44.935  18.252  25.276  1.00  0.00    -0.376 OA
BRANCH   2   3
ATOM      3  C   UNL A   1      46.057  19.087  25.544  1.00  0.00     0.202 C 
BRANCH   3   4
ATOM      4  C   UNL A   1      46.548  20.005  24.412  1.00  0.00     0.261 C 
BRANCH   4   5
ATOM      5  O   UNL A   1      46.348  21.427  24.620  1.00  0.00    -0.463 OA
BRANCH   5   6
ATOM      6  C   UNL A   1      45.115  21.916  24.330  1.00  0.00     0.311 C 
ATOM      7  O   UNL A   1      44.567  21.753  23.239  1.00  0.00    -0.252 OA
BRANCH   6   8
ATOM      8  C   UNL A   1      44.372  22.638  25.436  1.00  0.00     0.179 C 
BRANCH   8   9
ATOM      9  C   UNL A   1      44.690  24.057  25.806  1.00  0.00     0.065 A 
ATOM     10  C   UNL A   1      45.407  26.083  25.303  1.00  0.00     0.189 A 
ATOM     11  N   UNL A   1      45.455  24.826  24.933  1.00  0.00    -0.224 NA
ATOM     12  S   UNL A   1      44.724  26.402  26.830  1.00  0.00    -0.105 S 
ATOM     13  C   UNL A   1      44.042  24.827  26.763  1.00  0.00     0.093 A 
BRANCH  10  14
ATOM     14  N   UNL A   1      45.637  27.200  24.563  1.00  0.00    -0.297 N 
ATOM     15  C   UNL A   1      46.756  27.999  24.664  1.00  0.00     0.267 C 
ATOM     16  O   UNL A   1      46.687  29.108  24.121  1.00  0.00    -0.268 OA
ATOM     17  H   UNL A   1      44.951  27.459  23.904  1.00  0.00     0.172 HD
BRANCH  15  18
ATOM     18  C   UNL A   1      48.008  27.531  25.270  1.00  0.00     0.093 A 
ATOM     19  C   UNL A   1      50.229  26.950  28.266  1.00  0.00     0.045 C 
ATOM     20  C   UNL A   1      49.636  27.008  26.900  1.00  0.00    -0.037 A 
ATOM     21  C   UNL A   1      48.341  27.565  26.613  1.00  0.00     0.029 A 
ATOM     22  C   UNL A   1      50.218  26.517  25.745  1.00  0.00     0.005 A 
ATOM     23  S   UNL A   1      49.413  27.123  24.371  1.00  0.00    -0.135 S 
ATOM     24  C   UNL A   1      51.430  25.665  25.574  1.00  0.00     0.056 C 
ENDBRANCH  15  18
ENDBRANCH  10  14
ENDBRANCH   8   9
ENDBRANCH   6   8
ENDBRANCH   5   6
ENDBRANCH   4   5
ENDBRANCH   3   4
ENDBRANCH   2   3
ENDBRANCH   1   2
BRANCH   1  25
ATOM     25  C   UNL A   1      42.637  18.891  26.152  1.00  0.00     0.188 C 
BRANCH  25  26
ATOM     26  O   UNL A   1      41.330  19.187  25.720  1.00  0.00    -0.376 OA
BRANCH  26  27
ATOM     27  C   UNL A   1      40.553  20.020  26.551  1.00  0.00     0.202 C 
BRANCH  27  28
ATOM     28  C   UNL A   1      40.708  21.510  26.225  1.00  0.00     0.261 C 
BRANCH  28  29
ATOM     29  O   UNL A   1      40.067  22.425  27.139  1.00  0.00    -0.460 OA
BRANCH  29  30
ATOM     30  C   UNL A   1      39.268  23.379  26.614  1.00  0.00     0.338 C 
ATOM     31  O   UNL A   1      38.326  23.212  25.851  1.00  0.00    -0.246 OA
BRANCH  30  32
ATOM     32  C   UNL A   1      39.572  24.655  27.300  1.00  0.00     0.060 A 
ATOM     33  C   UNL A   1      40.286  25.648  26.616  1.00  0.00     0.016 A 
ATOM     34  C   UNL A   1      39.135  24.889  28.604  1.00  0.00     0.016 A 
ATOM     35  C   UNL A   1      40.542  26.883  27.216  1.00  0.00     0.010 A 
ATOM     36  C   UNL A   1      39.420  26.115  29.219  1.00  0.00     0.010 A 
ATOM     37  C   UNL A   1      40.123  27.121  28.531  1.00  0.00    -0.014 A 
BRANCH  37  38
ATOM     38  C   UNL A   1      40.487  28.380  29.232  1.00  0.00     0.031 A 
ATOM     39  C   UNL A   1      41.851  28.506  29.851  1.00  0.00     0.074 A 
ATOM     40  C   UNL A   1      39.607  29.393  29.337  1.00  0.00     0.049 A 
ATOM     41  N   UNL A   1      42.321  29.430  30.648  1.00  0.00    -0.248 NA
ATOM     42  C   UNL A   1      42.816  27.444  29.523  1.00  0.00     0.031 C 
ATOM     43  C   UNL A   1      38.279  29.426  28.727  1.00  0.00     0.029 A 
ATOM     44  N   UNL A   1      39.692  30.583  30.020  1.00  0.00    -0.354 N 
ATOM     45  C   UNL A   1      43.629  29.057  30.929  1.00  0.00     0.074 A 
ATOM     46  C   UNL A   1      43.874  27.813  30.231  1.00  0.00     0.031 C 
ATOM     47  C   UNL A   1      37.662  30.564  29.088  1.00  0.00     0.029 A 
ATOM     48  C   UNL A   1      38.528  31.313  29.996  1.00  0.00     0.049 A 
ATOM     49  H   UNL A   1      40.509  30.883  30.482  1.00  0.00     0.167 HD
ATOM     50  C   UNL A   1      44.540  29.699  31.698  1.00  0.00     0.037 A 
ATOM     51  C   UNL A   1      38.185  32.429  30.671  1.00  0.00     0.037 A 
ATOM     52  C   UNL A   1      44.293  30.935  32.393  1.00  0.00     0.049 A 
ATOM     53  C   UNL A   1      39.180  33.057  31.617  1.00  0.00     0.074 A 
ATOM     54  C   UNL A   1      45.156  31.664  33.192  1.00  0.00     0.029 A 
ATOM     55  N   UNL A   1      43.087  31.623  32.377  1.00  0.00    -0.354 N 
ATOM     56  N   UNL A   1      40.417  32.706  31.874  1.00  0.00    -0.248 NA
ATOM     57  C   UNL A   1      38.727  34.234  32.373  1.00  0.00     0.031 C 
ATOM     58  C   UNL A   1      44.457  32.761  33.707  1.00  0.00     0.029 A 
ATOM     59  C   UNL A   1      43.176  32.749  33.181  1.00  0.00     0.049 A 
ATOM     60  H   UNL A   1      42.288  31.351  31.870  1.00  0.00     0.167 HD
ATOM     61  C   UNL A   1      40.892  33.628  32.799  1.00  0.00     0.074 A 
ATOM     62  C   UNL A   1      39.822  34.571  33.038  1.00  0.00     0.031 C 
ATOM     63  C   UNL A   1      42.105  33.685  33.404  1.00  0.00     0.037 A 
BRANCH  50  64
ATOM     64  C   UNL A   1      45.893  29.066  31.857  1.00  0.00     0.064 A 
ATOM     65  C   UNL A   1      46.119  28.034  32.780  1.00  0.00     0.173 A 
ATOM     66  C   UNL A   1      46.955  29.446  31.023  1.00  0.00     0.173 A 
ATOM     67  F   UNL A   1      45.140  27.642  33.608  1.00  0.00    -0.203 F 
ATOM     68  C   UNL A   1      47.364  27.417  32.871  1.00  0.00     0.198 A 
ATOM     69  C   UNL A   1      48.190  28.807  31.096  1.00  0.00     0.198 A 
ATOM     70  F   UNL A   1      46.789  30.424  30.119  1.00  0.00    -0.203 F 
ATOM     71  F   UNL A   1      47.568  26.456  33.783  1.00  0.00    -0.200 F 
ATOM     72  C   UNL A   1      48.395  27.796  32.023  1.00  0.00     0.200 A 
ATOM     73  F   UNL A   1      49.179  29.165  30.266  1.00  0.00    -0.200 F 
ATOM     74  F   UNL A   1      49.586  27.188  32.099  1.00  0.00    -0.200 F 
ENDBRANCH  50  64
BRANCH  51  75
ATOM     75  C   UNL A   1      36.816  33.003  30.537  1.00  0.00     0.064 A 
ATOM     76  C   UNL A   1      36.462  33.779  29.423  1.00  0.00     0.173 A 
ATOM     77  C   UNL A   1      35.856  32.844  31.548  1.00  0.00     0.173 A 
ATOM     78  F   UNL A   1      37.354  33.988  28.444  1.00  0.00    -0.203 F 
ATOM     79  C   UNL A   1      35.216  34.398  29.343  1.00  0.00     0.198 A 
ATOM     80  C   UNL A   1      34.598  33.434  31.449  1.00  0.00     0.198 A 
ATOM     81  F   UNL A   1      36.143  32.121  32.641  1.00  0.00    -0.203 F 
ATOM     82  F   UNL A   1      34.932  35.193  28.302  1.00  0.00    -0.200 F 
ATOM     83  C   UNL A   1      34.282  34.222  30.354  1.00  0.00     0.200 A 
ATOM     84  F   UNL A   1      33.696  33.251  32.424  1.00  0.00    -0.200 F 
ATOM     85  F   UNL A   1      33.088  34.825  30.279  1.00  0.00    -0.200 F 
ENDBRANCH  51  75
BRANCH  63  86
ATOM     86  C   UNL A   1      42.352  34.818  34.360  1.00  0.00     0.064 A 
ATOM     87  C   UNL A   1      42.144  34.673  35.739  1.00  0.00     0.173 A 
ATOM     88  C   UNL A   1      42.846  36.048  33.897  1.00  0.00     0.173 A 
ATOM     89  F   UNL A   1      41.659  33.524  36.232  1.00  0.00    -0.203 F 
ATOM     90  C   UNL A   1      42.399  35.725  36.616  1.00  0.00     0.198 A 
ATOM     91  C   UNL A   1      43.132  37.085  34.780  1.00  0.00     0.198 A 
ATOM     92  F   UNL A   1      43.070  36.237  32.588  1.00  0.00    -0.203 F 
ATOM     93  F   UNL A   1      42.146  35.579  37.924  1.00  0.00    -0.200 F 
ATOM     94  C   UNL A   1      42.901  36.926  36.138  1.00  0.00     0.200 A 
ATOM     95  F   UNL A   1      43.633  38.239  34.317  1.00  0.00    -0.200 F 
ATOM     96  F   UNL A   1      43.155  37.933  36.985  1.00  0.00    -0.200 F 
ENDBRANCH  63  86
ENDBRANCH  37  38
ENDBRANCH  30  32
ENDBRANCH  29  30
ENDBRANCH  28  29
ENDBRANCH  27  28
ENDBRANCH  26  27
ENDBRANCH  25  26
ENDBRANCH   1  25
TORSDOF 20
ENDMDL
