MODEL 1
REMARK VINA RESULT:     -10.8      0.000      0.000
REMARK SMILES COc1cccc(-c2cc(C(=O)OCCOCCOCCOC(=O)c3ccc(-c4c5nc(c(-c6c(F)c(F)c(F)c(F)c6F)c6ccc([nH]6)c(-c6c(F)c(F)c(F)c(F)c6F)c6nc(c(-c7c(F)c(F)c(F)c(F)c7F)c7ccc4[nH]7)C=C6)C=C5)cc3)cs2)c1
REMARK SMILES IDX 17 1 16 2 15 3 14 4 13 5 11 6 12 7 10 8 8 9 9 10 89 11 88 12
REMARK SMILES IDX 7 13 3 14 4 15 90 16 5 17 6 18 2 19 1 20 18 21 19 22 20 23
REMARK SMILES IDX 21 24 22 25 23 26 24 27 25 28 26 29 87 30 27 31 86 32 28 33
REMARK SMILES IDX 29 34 30 35 80 36 31 37 85 38 79 39 81 40 32 41 84 42 78 43
REMARK SMILES IDX 77 44 33 46 65 47 45 48 64 49 46 50 49 51 63 52 82 53 47 54
REMARK SMILES IDX 48 55 62 57 83 58 50 59 34 60 35 61 43 62 36 63 37 64 41 65
REMARK SMILES IDX 44 66 38 67 39 68 42 69 40 70 66 71 67 72 75 73 68 74 69 75
REMARK SMILES IDX 73 76 76 77 70 78 71 79 74 80 72 81 51 82 52 83 60 84 53 85
REMARK SMILES IDX 54 86 58 87 61 88 55 89 56 90 59 91 57 92
REMARK H PARENT 81 45 49 56
REMARK Flexibility Score: inf
ROOT
ATOM      1  C   UNL A   1      39.883  21.459  26.173  1.00  0.00     0.188 C 
ENDROOT
BRANCH   1   2
ATOM      2  O   UNL A   1      38.548  21.880  25.914  1.00  0.00    -0.376 OA
BRANCH   2   3
ATOM      3  C   UNL A   1      37.598  20.968  25.378  1.00  0.00     0.202 C 
BRANCH   3   4
ATOM      4  C   UNL A   1      36.371  21.562  24.685  1.00  0.00     0.261 C 
BRANCH   4   5
ATOM      5  O   UNL A   1      35.138  21.258  25.356  1.00  0.00    -0.460 OA
BRANCH   5   6
ATOM      6  C   UNL A   1      34.042  21.147  24.544  1.00  0.00     0.339 C 
ATOM      7  O   UNL A   1      33.450  20.113  24.305  1.00  0.00    -0.246 OA
BRANCH   6   8
ATOM      8  C   UNL A   1      33.565  22.451  24.080  1.00  0.00     0.071 A 
ATOM      9  C   UNL A   1      33.042  24.740  24.046  1.00  0.00     0.035 A 
ATOM     10  C   UNL A   1      33.486  23.679  24.816  1.00  0.00     0.036 A 
ATOM     11  S   UNL A   1      32.576  24.221  22.483  1.00  0.00    -0.143 S 
ATOM     12  C   UNL A   1      33.100  22.628  22.789  1.00  0.00     0.081 A 
BRANCH   9  13
ATOM     13  C   UNL A   1      33.031  26.168  24.373  1.00  0.00    -0.005 A 
ATOM     14  C   UNL A   1      32.028  28.355  24.007  1.00  0.00     0.119 A 
ATOM     15  C   UNL A   1      32.876  28.900  24.970  1.00  0.00     0.046 A 
ATOM     16  C   UNL A   1      32.126  26.999  23.694  1.00  0.00     0.056 A 
ATOM     17  C   UNL A   1      33.784  28.087  25.651  1.00  0.00     0.004 A 
ATOM     18  C   UNL A   1      33.858  26.722  25.358  1.00  0.00     0.010 A 
BRANCH  14  19
ATOM     19  O   UNL A   1      31.161  29.226  23.407  1.00  0.00    -0.497 OA
ATOM     20  C   UNL A   1      30.020  28.617  22.808  1.00  0.00     0.278 C 
ENDBRANCH  14  19
ENDBRANCH   9  13
ENDBRANCH   6   8
ENDBRANCH   5   6
ENDBRANCH   4   5
ENDBRANCH   3   4
ENDBRANCH   2   3
ENDBRANCH   1   2
BRANCH   1  21
ATOM     21  C   UNL A   1      40.262  19.971  26.048  1.00  0.00     0.188 C 
BRANCH  21  22
ATOM     22  O   UNL A   1      41.549  19.773  25.494  1.00  0.00    -0.376 OA
BRANCH  22  23
ATOM     23  C   UNL A   1      42.650  20.296  26.215  1.00  0.00     0.202 C 
BRANCH  23  24
ATOM     24  C   UNL A   1      43.462  21.382  25.501  1.00  0.00     0.261 C 
BRANCH  24  25
ATOM     25  O   UNL A   1      42.763  22.604  25.218  1.00  0.00    -0.460 OA
BRANCH  25  26
ATOM     26  C   UNL A   1      43.503  23.723  25.070  1.00  0.00     0.338 C 
ATOM     27  O   UNL A   1      44.384  23.925  24.256  1.00  0.00    -0.246 OA
BRANCH  26  28
ATOM     28  C   UNL A   1      42.962  24.739  25.999  1.00  0.00     0.060 A 
ATOM     29  C   UNL A   1      43.452  26.050  25.944  1.00  0.00     0.016 A 
ATOM     30  C   UNL A   1      41.971  24.394  26.922  1.00  0.00     0.016 A 
ATOM     31  C   UNL A   1      42.962  27.016  26.829  1.00  0.00     0.010 A 
ATOM     32  C   UNL A   1      41.496  25.355  27.817  1.00  0.00     0.010 A 
ATOM     33  C   UNL A   1      42.004  26.665  27.792  1.00  0.00    -0.014 A 
BRANCH  33  34
ATOM     34  C   UNL A   1      41.636  27.606  28.879  1.00  0.00     0.031 A 
ATOM     35  C   UNL A   1      42.402  27.547  30.170  1.00  0.00     0.074 A 
ATOM     36  C   UNL A   1      40.608  28.464  28.743  1.00  0.00     0.049 A 
ATOM     37  N   UNL A   1      42.186  28.176  31.297  1.00  0.00    -0.248 NA
ATOM     38  C   UNL A   1      43.569  26.650  30.195  1.00  0.00     0.031 C 
ATOM     39  C   UNL A   1      39.802  28.633  27.538  1.00  0.00     0.029 A 
ATOM     40  N   UNL A   1      40.052  29.335  29.648  1.00  0.00    -0.354 N 
ATOM     41  C   UNL A   1      43.177  27.739  32.167  1.00  0.00     0.074 A 
ATOM     42  C   UNL A   1      43.989  26.785  31.444  1.00  0.00     0.031 C 
ATOM     43  C   UNL A   1      38.832  29.531  27.786  1.00  0.00     0.029 A 
ATOM     44  C   UNL A   1      38.929  29.972  29.177  1.00  0.00     0.049 A 
ATOM     45  H   UNL A   1      40.422  29.488  30.548  1.00  0.00     0.167 HD
ATOM     46  C   UNL A   1      43.387  28.102  33.454  1.00  0.00     0.037 A 
ATOM     47  C   UNL A   1      38.062  30.786  29.811  1.00  0.00     0.037 A 
ATOM     48  C   UNL A   1      42.585  29.052  34.173  1.00  0.00     0.049 A 
ATOM     49  C   UNL A   1      38.288  31.132  31.262  1.00  0.00     0.074 A 
ATOM     50  C   UNL A   1      42.748  29.516  35.467  1.00  0.00     0.029 A 
ATOM     51  N   UNL A   1      41.458  29.677  33.662  1.00  0.00    -0.354 N 
ATOM     52  N   UNL A   1      39.252  30.751  32.064  1.00  0.00    -0.248 NA
ATOM     53  C   UNL A   1      37.301  32.020  31.897  1.00  0.00     0.031 C 
ATOM     54  C   UNL A   1      41.692  30.386  35.755  1.00  0.00     0.029 A 
ATOM     55  C   UNL A   1      40.898  30.500  34.624  1.00  0.00     0.049 A 
ATOM     56  H   UNL A   1      41.107  29.554  32.750  1.00  0.00     0.167 HD
ATOM     57  C   UNL A   1      39.005  31.369  33.283  1.00  0.00     0.074 A 
ATOM     58  C   UNL A   1      37.803  32.159  33.116  1.00  0.00     0.031 C 
ATOM     59  C   UNL A   1      39.710  31.291  34.438  1.00  0.00     0.037 A 
BRANCH  46  60
ATOM     60  C   UNL A   1      44.521  27.444  34.182  1.00  0.00     0.064 A 
ATOM     61  C   UNL A   1      45.791  28.033  34.254  1.00  0.00     0.173 A 
ATOM     62  C   UNL A   1      44.318  26.229  34.854  1.00  0.00     0.173 A 
ATOM     63  F   UNL A   1      46.036  29.187  33.616  1.00  0.00    -0.203 F 
ATOM     64  C   UNL A   1      46.822  27.422  34.961  1.00  0.00     0.198 A 
ATOM     65  C   UNL A   1      45.345  25.633  35.578  1.00  0.00     0.198 A 
ATOM     66  F   UNL A   1      43.120  25.627  34.815  1.00  0.00    -0.203 F 
ATOM     67  F   UNL A   1      48.038  27.984  34.989  1.00  0.00    -0.200 F 
ATOM     68  C   UNL A   1      46.597  26.227  35.628  1.00  0.00     0.200 A 
ATOM     69  F   UNL A   1      45.123  24.482  36.229  1.00  0.00    -0.200 F 
ATOM     70  F   UNL A   1      47.589  25.644  36.315  1.00  0.00    -0.200 F 
ENDBRANCH  46  60
BRANCH  47  71
ATOM     71  C   UNL A   1      36.872  31.311  29.091  1.00  0.00     0.064 A 
ATOM     72  C   UNL A   1      36.815  32.642  28.656  1.00  0.00     0.173 A 
ATOM     73  C   UNL A   1      35.750  30.500  28.858  1.00  0.00     0.173 A 
ATOM     74  F   UNL A   1      37.849  33.465  28.885  1.00  0.00    -0.203 F 
ATOM     75  C   UNL A   1      35.676  33.148  28.032  1.00  0.00     0.198 A 
ATOM     76  C   UNL A   1      34.622  31.000  28.210  1.00  0.00     0.198 A 
ATOM     77  F   UNL A   1      35.751  29.222  29.263  1.00  0.00    -0.203 F 
ATOM     78  F   UNL A   1      35.628  34.438  27.673  1.00  0.00    -0.200 F 
ATOM     79  C   UNL A   1      34.583  32.325  27.805  1.00  0.00     0.200 A 
ATOM     80  F   UNL A   1      33.570  30.199  27.989  1.00  0.00    -0.200 F 
ATOM     81  F   UNL A   1      33.486  32.812  27.210  1.00  0.00    -0.200 F 
ENDBRANCH  47  71
BRANCH  59  82
ATOM     82  C   UNL A   1      39.231  32.105  35.603  1.00  0.00     0.064 A 
ATOM     83  C   UNL A   1      38.396  31.559  36.588  1.00  0.00     0.173 A 
ATOM     84  C   UNL A   1      39.668  33.428  35.770  1.00  0.00     0.173 A 
ATOM     85  F   UNL A   1      37.941  30.303  36.466  1.00  0.00    -0.203 F 
ATOM     86  C   UNL A   1      38.006  32.312  37.692  1.00  0.00     0.198 A 
ATOM     87  C   UNL A   1      39.297  34.170  36.888  1.00  0.00     0.198 A 
ATOM     88  F   UNL A   1      40.474  33.994  34.859  1.00  0.00    -0.203 F 
ATOM     89  F   UNL A   1      37.183  31.781  38.606  1.00  0.00    -0.200 F 
ATOM     90  C   UNL A   1      38.464  33.613  37.845  1.00  0.00     0.200 A 
ATOM     91  F   UNL A   1      39.750  35.422  37.041  1.00  0.00    -0.200 F 
ATOM     92  F   UNL A   1      38.097  34.332  38.916  1.00  0.00    -0.200 F 
ENDBRANCH  59  82
ENDBRANCH  33  34
ENDBRANCH  26  28
ENDBRANCH  25  26
ENDBRANCH  24  25
ENDBRANCH  23  24
ENDBRANCH  22  23
ENDBRANCH  21  22
ENDBRANCH   1  21
TORSDOF 19
ENDMDL
MODEL 2
REMARK VINA RESULT:     -10.5      0.902      2.162
REMARK SMILES COc1cccc(-c2cc(C(=O)OCCOCCOCCOC(=O)c3ccc(-c4c5nc(c(-c6c(F)c(F)c(F)c(F)c6F)c6ccc([nH]6)c(-c6c(F)c(F)c(F)c(F)c6F)c6nc(c(-c7c(F)c(F)c(F)c(F)c7F)c7ccc4[nH]7)C=C6)C=C5)cc3)cs2)c1
REMARK SMILES IDX 17 1 16 2 15 3 14 4 13 5 11 6 12 7 10 8 8 9 9 10 89 11 88 12
REMARK SMILES IDX 7 13 3 14 4 15 90 16 5 17 6 18 2 19 1 20 18 21 19 22 20 23
REMARK SMILES IDX 21 24 22 25 23 26 24 27 25 28 26 29 87 30 27 31 86 32 28 33
REMARK SMILES IDX 29 34 30 35 80 36 31 37 85 38 79 39 81 40 32 41 84 42 78 43
REMARK SMILES IDX 77 44 33 46 65 47 45 48 64 49 46 50 49 51 63 52 82 53 47 54
REMARK SMILES IDX 48 55 62 57 83 58 50 59 34 60 35 61 43 62 36 63 37 64 41 65
REMARK SMILES IDX 44 66 38 67 39 68 42 69 40 70 66 71 67 72 75 73 68 74 69 75
REMARK SMILES IDX 73 76 76 77 70 78 71 79 74 80 72 81 51 82 52 83 60 84 53 85
REMARK SMILES IDX 54 86 58 87 61 88 55 89 56 90 59 91 57 92
REMARK H PARENT 81 45 49 56
REMARK Flexibility Score: inf
ROOT
ATOM      1  C   UNL A   1      40.750  21.411  27.323  1.00  0.00     0.188 C 
ENDROOT
BRANCH   1   2
ATOM      2  O   UNL A   1      39.612  22.128  26.855  1.00  0.00    -0.376 OA
BRANCH   2   3
ATOM      3  C   UNL A   1      38.835  21.618  25.778  1.00  0.00     0.202 C 
BRANCH   3   4
ATOM      4  C   UNL A   1      37.687  22.490  25.268  1.00  0.00     0.261 C 
BRANCH   4   5
ATOM      5  O   UNL A   1      36.550  22.500  26.145  1.00  0.00    -0.460 OA
BRANCH   5   6
ATOM      6  C   UNL A   1      35.364  22.131  25.569  1.00  0.00     0.339 C 
ATOM      7  O   UNL A   1      35.125  21.035  25.102  1.00  0.00    -0.246 OA
BRANCH   6   8
ATOM      8  C   UNL A   1      34.345  23.174  25.686  1.00  0.00     0.071 A 
ATOM      9  C   UNL A   1      33.256  25.246  25.494  1.00  0.00     0.035 A 
ATOM     10  C   UNL A   1      34.436  24.551  25.293  1.00  0.00     0.036 A 
ATOM     11  S   UNL A   1      32.093  24.279  26.295  1.00  0.00    -0.143 S 
ATOM     12  C   UNL A   1      33.106  22.909  26.241  1.00  0.00     0.081 A 
BRANCH   9  13
ATOM     13  C   UNL A   1      32.893  26.588  25.031  1.00  0.00    -0.005 A 
ATOM     14  C   UNL A   1      31.149  28.092  24.245  1.00  0.00     0.119 A 
ATOM     15  C   UNL A   1      32.075  29.134  24.197  1.00  0.00     0.046 A 
ATOM     16  C   UNL A   1      31.566  26.820  24.636  1.00  0.00     0.056 A 
ATOM     17  C   UNL A   1      33.400  28.917  24.582  1.00  0.00     0.004 A 
ATOM     18  C   UNL A   1      33.808  27.649  25.005  1.00  0.00     0.010 A 
BRANCH  14  19
ATOM     19  O   UNL A   1      29.873  28.405  23.865  1.00  0.00    -0.497 OA
ATOM     20  C   UNL A   1      29.780  29.367  22.816  1.00  0.00     0.278 C 
ENDBRANCH  14  19
ENDBRANCH   9  13
ENDBRANCH   6   8
ENDBRANCH   5   6
ENDBRANCH   4   5
ENDBRANCH   3   4
ENDBRANCH   2   3
ENDBRANCH   1   2
BRANCH   1  21
ATOM     21  C   UNL A   1      41.041  19.993  26.796  1.00  0.00     0.188 C 
BRANCH  21  22
ATOM     22  O   UNL A   1      41.990  19.978  25.746  1.00  0.00    -0.376 OA
BRANCH  22  23
ATOM     23  C   UNL A   1      43.212  20.658  25.970  1.00  0.00     0.202 C 
BRANCH  23  24
ATOM     24  C   UNL A   1      43.673  21.593  24.846  1.00  0.00     0.261 C 
BRANCH  24  25
ATOM     25  O   UNL A   1      43.063  22.893  24.822  1.00  0.00    -0.460 OA
BRANCH  25  26
ATOM     26  C   UNL A   1      43.884  23.965  24.843  1.00  0.00     0.338 C 
ATOM     27  O   UNL A   1      44.862  24.161  24.147  1.00  0.00    -0.246 OA
BRANCH  26  28
ATOM     28  C   UNL A   1      43.306  24.948  25.786  1.00  0.00     0.060 A 
ATOM     29  C   UNL A   1      43.690  26.291  25.697  1.00  0.00     0.016 A 
ATOM     30  C   UNL A   1      42.385  24.539  26.755  1.00  0.00     0.016 A 
ATOM     31  C   UNL A   1      43.165  27.228  26.595  1.00  0.00     0.010 A 
ATOM     32  C   UNL A   1      41.876  25.471  27.661  1.00  0.00     0.010 A 
ATOM     33  C   UNL A   1      42.280  26.816  27.602  1.00  0.00    -0.014 A 
BRANCH  33  34
ATOM     34  C   UNL A   1      41.887  27.740  28.695  1.00  0.00     0.031 A 
ATOM     35  C   UNL A   1      42.696  27.740  29.961  1.00  0.00     0.074 A 
ATOM     36  C   UNL A   1      40.802  28.529  28.589  1.00  0.00     0.049 A 
ATOM     37  N   UNL A   1      42.477  28.362  31.091  1.00  0.00    -0.248 NA
ATOM     38  C   UNL A   1      43.919  26.919  29.952  1.00  0.00     0.031 C 
ATOM     39  C   UNL A   1      39.948  28.637  27.409  1.00  0.00     0.029 A 
ATOM     40  N   UNL A   1      40.220  29.369  29.506  1.00  0.00    -0.354 N 
ATOM     41  C   UNL A   1      43.521  27.995  31.930  1.00  0.00     0.074 A 
ATOM     42  C   UNL A   1      44.369  27.090  31.186  1.00  0.00     0.031 C 
ATOM     43  C   UNL A   1      38.931  29.472  27.684  1.00  0.00     0.029 A 
ATOM     44  C   UNL A   1      39.045  29.929  29.069  1.00  0.00     0.049 A 
ATOM     45  H   UNL A   1      40.608  29.552  30.392  1.00  0.00     0.167 HD
ATOM     46  C   UNL A   1      43.749  28.380  33.208  1.00  0.00     0.037 A 
ATOM     47  C   UNL A   1      38.147  30.691  29.726  1.00  0.00     0.037 A 
ATOM     48  C   UNL A   1      42.910  29.283  33.948  1.00  0.00     0.049 A 
ATOM     49  C   UNL A   1      38.397  31.061  31.167  1.00  0.00     0.074 A 
ATOM     50  C   UNL A   1      43.085  29.765  35.233  1.00  0.00     0.029 A 
ATOM     51  N   UNL A   1      41.730  29.829  33.470  1.00  0.00    -0.354 N 
ATOM     52  N   UNL A   1      39.409  30.748  31.939  1.00  0.00    -0.248 NA
ATOM     53  C   UNL A   1      37.376  31.888  31.830  1.00  0.00     0.031 C 
ATOM     54  C   UNL A   1      41.984  30.567  35.551  1.00  0.00     0.029 A 
ATOM     55  C   UNL A   1      41.149  30.622  34.446  1.00  0.00     0.049 A 
ATOM     56  H   UNL A   1      41.359  29.677  32.571  1.00  0.00     0.167 HD
ATOM     57  C   UNL A   1      39.162  31.358  33.163  1.00  0.00     0.074 A 
ATOM     58  C   UNL A   1      37.907  32.068  33.031  1.00  0.00     0.031 C 
ATOM     59  C   UNL A   1      39.907  31.334  34.295  1.00  0.00     0.037 A 
BRANCH  46  60
ATOM     60  C   UNL A   1      44.945  27.802  33.902  1.00  0.00     0.064 A 
ATOM     61  C   UNL A   1      44.873  26.594  34.611  1.00  0.00     0.173 A 
ATOM     62  C   UNL A   1      46.189  28.443  33.818  1.00  0.00     0.173 A 
ATOM     63  F   UNL A   1      43.702  25.951  34.732  1.00  0.00    -0.203 F 
ATOM     64  C   UNL A   1      46.002  26.058  35.223  1.00  0.00     0.198 A 
ATOM     65  C   UNL A   1      47.320  27.892  34.412  1.00  0.00     0.198 A 
ATOM     66  F   UNL A   1      46.309  29.601  33.149  1.00  0.00    -0.203 F 
ATOM     67  F   UNL A   1      45.905  24.920  35.924  1.00  0.00    -0.200 F 
ATOM     68  C   UNL A   1      47.225  26.703  35.117  1.00  0.00     0.200 A 
ATOM     69  F   UNL A   1      48.503  28.513  34.301  1.00  0.00    -0.200 F 
ATOM     70  F   UNL A   1      48.313  26.180  35.700  1.00  0.00    -0.200 F 
ENDBRANCH  46  60
BRANCH  47  71
ATOM     71  C   UNL A   1      36.903  31.133  29.043  1.00  0.00     0.064 A 
ATOM     72  C   UNL A   1      35.869  30.229  28.762  1.00  0.00     0.173 A 
ATOM     73  C   UNL A   1      36.741  32.462  28.623  1.00  0.00     0.173 A 
ATOM     74  F   UNL A   1      35.993  28.941  29.114  1.00  0.00    -0.203 F 
ATOM     75  C   UNL A   1      34.728  30.633  28.071  1.00  0.00     0.198 A 
ATOM     76  C   UNL A   1      35.587  32.870  27.956  1.00  0.00     0.198 A 
ATOM     77  F   UNL A   1      37.705  33.363  28.859  1.00  0.00    -0.203 F 
ATOM     78  F   UNL A   1      33.778  29.737  27.770  1.00  0.00    -0.200 F 
ATOM     79  C   UNL A   1      34.586  31.954  27.673  1.00  0.00     0.200 A 
ATOM     80  F   UNL A   1      35.452  34.149  27.577  1.00  0.00    -0.200 F 
ATOM     81  F   UNL A   1      33.491  32.341  27.005  1.00  0.00    -0.200 F 
ENDBRANCH  47  71
BRANCH  59  82
ATOM     82  C   UNL A   1      39.414  32.124  35.470  1.00  0.00     0.064 A 
ATOM     83  C   UNL A   1      39.697  33.491  35.607  1.00  0.00     0.173 A 
ATOM     84  C   UNL A   1      38.594  31.521  36.436  1.00  0.00     0.173 A 
ATOM     85  F   UNL A   1      40.487  34.109  34.717  1.00  0.00    -0.203 F 
ATOM     86  C   UNL A   1      39.185  34.222  36.676  1.00  0.00     0.198 A 
ATOM     87  C   UNL A   1      38.065  32.261  37.490  1.00  0.00     0.198 A 
ATOM     88  F   UNL A   1      38.289  30.217  36.346  1.00  0.00    -0.203 F 
ATOM     89  F   UNL A   1      39.492  35.520  36.805  1.00  0.00    -0.200 F 
ATOM     90  C   UNL A   1      38.363  33.609  37.610  1.00  0.00     0.200 A 
ATOM     91  F   UNL A   1      37.260  31.670  38.384  1.00  0.00    -0.200 F 
ATOM     92  F   UNL A   1      37.862  34.318  38.631  1.00  0.00    -0.200 F 
ENDBRANCH  59  82
ENDBRANCH  33  34
ENDBRANCH  26  28
ENDBRANCH  25  26
ENDBRANCH  24  25
ENDBRANCH  23  24
ENDBRANCH  22  23
ENDBRANCH  21  22
ENDBRANCH   1  21
TORSDOF 19
ENDMDL
MODEL 3
REMARK VINA RESULT:     -10.4      3.507      9.447
REMARK SMILES COc1cccc(-c2cc(C(=O)OCCOCCOCCOC(=O)c3ccc(-c4c5nc(c(-c6c(F)c(F)c(F)c(F)c6F)c6ccc([nH]6)c(-c6c(F)c(F)c(F)c(F)c6F)c6nc(c(-c7c(F)c(F)c(F)c(F)c7F)c7ccc4[nH]7)C=C6)C=C5)cc3)cs2)c1
REMARK SMILES IDX 17 1 16 2 15 3 14 4 13 5 11 6 12 7 10 8 8 9 9 10 89 11 88 12
REMARK SMILES IDX 7 13 3 14 4 15 90 16 5 17 6 18 2 19 1 20 18 21 19 22 20 23
REMARK SMILES IDX 21 24 22 25 23 26 24 27 25 28 26 29 87 30 27 31 86 32 28 33
REMARK SMILES IDX 29 34 30 35 80 36 31 37 85 38 79 39 81 40 32 41 84 42 78 43
REMARK SMILES IDX 77 44 33 46 65 47 45 48 64 49 46 50 49 51 63 52 82 53 47 54
REMARK SMILES IDX 48 55 62 57 83 58 50 59 34 60 35 61 43 62 36 63 37 64 41 65
REMARK SMILES IDX 44 66 38 67 39 68 42 69 40 70 66 71 67 72 75 73 68 74 69 75
REMARK SMILES IDX 73 76 76 77 70 78 71 79 74 80 72 81 51 82 52 83 60 84 53 85
REMARK SMILES IDX 54 86 58 87 61 88 55 89 56 90 59 91 57 92
REMARK H PARENT 81 45 49 56
REMARK Flexibility Score: inf
ROOT
ATOM      1  C   UNL A   1      34.316  32.179  28.587  1.00  0.00     0.188 C 
ENDROOT
BRANCH   1   2
ATOM      2  O   UNL A   1      33.715  31.599  27.434  1.00  0.00    -0.376 OA
BRANCH   2   3
ATOM      3  C   UNL A   1      33.396  30.213  27.410  1.00  0.00     0.202 C 
BRANCH   3   4
ATOM      4  C   UNL A   1      33.553  29.481  26.076  1.00  0.00     0.261 C 
BRANCH   4   5
ATOM      5  O   UNL A   1      33.789  28.073  26.227  1.00  0.00    -0.460 OA
BRANCH   5   6
ATOM      6  C   UNL A   1      33.637  27.330  25.087  1.00  0.00     0.339 C 
ATOM      7  O   UNL A   1      33.907  27.708  23.965  1.00  0.00    -0.246 OA
BRANCH   6   8
ATOM      8  C   UNL A   1      33.227  25.955  25.376  1.00  0.00     0.071 A 
ATOM      9  C   UNL A   1      33.175  23.607  25.376  1.00  0.00     0.035 A 
ATOM     10  C   UNL A   1      33.760  24.738  24.834  1.00  0.00     0.036 A 
ATOM     11  S   UNL A   1      31.883  24.015  26.421  1.00  0.00    -0.143 S 
ATOM     12  C   UNL A   1      32.200  25.683  26.261  1.00  0.00     0.081 A 
BRANCH   9  13
ATOM     13  C   UNL A   1      33.587  22.208  25.238  1.00  0.00    -0.005 A 
ATOM     14  C   UNL A   1      32.922  19.870  25.106  1.00  0.00     0.119 A 
ATOM     15  C   UNL A   1      34.254  19.507  24.916  1.00  0.00     0.046 A 
ATOM     16  C   UNL A   1      32.596  21.214  25.292  1.00  0.00     0.056 A 
ATOM     17  C   UNL A   1      35.251  20.483  24.865  1.00  0.00     0.004 A 
ATOM     18  C   UNL A   1      34.918  21.832  25.019  1.00  0.00     0.010 A 
BRANCH  14  19
ATOM     19  O   UNL A   1      32.016  18.846  25.125  1.00  0.00    -0.497 OA
ATOM     20  C   UNL A   1      32.585  17.543  25.029  1.00  0.00     0.278 C 
ENDBRANCH  14  19
ENDBRANCH   9  13
ENDBRANCH   6   8
ENDBRANCH   5   6
ENDBRANCH   4   5
ENDBRANCH   3   4
ENDBRANCH   2   3
ENDBRANCH   1   2
BRANCH   1  21
ATOM     21  C   UNL A   1      35.401  33.262  28.431  1.00  0.00     0.188 C 
BRANCH  21  22
ATOM     22  O   UNL A   1      35.034  34.500  29.011  1.00  0.00    -0.376 OA
BRANCH  22  23
ATOM     23  C   UNL A   1      33.876  35.135  28.499  1.00  0.00     0.202 C 
BRANCH  23  24
ATOM     24  C   UNL A   1      33.072  35.969  29.502  1.00  0.00     0.261 C 
BRANCH  24  25
ATOM     25  O   UNL A   1      32.462  35.239  30.578  1.00  0.00    -0.460 OA
BRANCH  25  26
ATOM     26  C   UNL A   1      32.670  35.692  31.833  1.00  0.00     0.338 C 
ATOM     27  O   UNL A   1      31.980  36.472  32.461  1.00  0.00    -0.246 OA
BRANCH  26  28
ATOM     28  C   UNL A   1      33.835  34.962  32.381  1.00  0.00     0.060 A 
ATOM     29  C   UNL A   1      35.102  35.555  32.328  1.00  0.00     0.016 A 
ATOM     30  C   UNL A   1      33.671  33.695  32.947  1.00  0.00     0.016 A 
ATOM     31  C   UNL A   1      36.215  34.868  32.826  1.00  0.00     0.010 A 
ATOM     32  C   UNL A   1      34.785  33.003  33.426  1.00  0.00     0.010 A 
ATOM     33  C   UNL A   1      36.067  33.575  33.348  1.00  0.00    -0.014 A 
BRANCH  33  34
ATOM     34  C   UNL A   1      37.252  32.744  33.674  1.00  0.00     0.031 A 
ATOM     35  C   UNL A   1      38.004  33.031  34.943  1.00  0.00     0.074 A 
ATOM     36  C   UNL A   1      37.686  31.784  32.835  1.00  0.00     0.049 A 
ATOM     37  N   UNL A   1      39.131  32.527  35.376  1.00  0.00    -0.248 NA
ATOM     38  C   UNL A   1      37.404  34.029  35.844  1.00  0.00     0.031 C 
ATOM     39  C   UNL A   1      37.035  31.395  31.588  1.00  0.00     0.029 A 
ATOM     40  N   UNL A   1      38.799  30.982  32.902  1.00  0.00    -0.354 N 
ATOM     41  C   UNL A   1      39.382  33.157  36.588  1.00  0.00     0.074 A 
ATOM     42  C   UNL A   1      38.299  34.087  36.819  1.00  0.00     0.031 C 
ATOM     43  C   UNL A   1      37.777  30.449  30.987  1.00  0.00     0.029 A 
ATOM     44  C   UNL A   1      38.971  30.192  31.792  1.00  0.00     0.049 A 
ATOM     45  H   UNL A   1      39.414  30.975  33.670  1.00  0.00     0.167 HD
ATOM     46  C   UNL A   1      40.426  32.975  37.431  1.00  0.00     0.037 A 
ATOM     47  C   UNL A   1      39.995  29.384  31.451  1.00  0.00     0.037 A 
ATOM     48  C   UNL A   1      41.502  32.049  37.206  1.00  0.00     0.049 A 
ATOM     49  C   UNL A   1      41.173  29.240  32.383  1.00  0.00     0.074 A 
ATOM     50  C   UNL A   1      42.580  31.764  38.025  1.00  0.00     0.029 A 
ATOM     51  N   UNL A   1      41.640  31.265  36.071  1.00  0.00    -0.354 N 
ATOM     52  N   UNL A   1      41.382  29.804  33.547  1.00  0.00    -0.248 NA
ATOM     53  C   UNL A   1      42.261  28.349  31.949  1.00  0.00     0.031 C 
ATOM     54  C   UNL A   1      43.398  30.841  37.364  1.00  0.00     0.029 A 
ATOM     55  C   UNL A   1      42.803  30.517  36.155  1.00  0.00     0.049 A 
ATOM     56  H   UNL A   1      41.007  31.243  35.318  1.00  0.00     0.167 HD
ATOM     57  C   UNL A   1      42.604  29.319  33.995  1.00  0.00     0.074 A 
ATOM     58  C   UNL A   1      43.090  28.406  32.982  1.00  0.00     0.031 C 
ATOM     59  C   UNL A   1      43.266  29.603  35.144  1.00  0.00     0.037 A 
BRANCH  46  60
ATOM     60  C   UNL A   1      40.472  33.819  38.669  1.00  0.00     0.064 A 
ATOM     61  C   UNL A   1      39.796  33.446  39.840  1.00  0.00     0.173 A 
ATOM     62  C   UNL A   1      41.238  34.993  38.695  1.00  0.00     0.173 A 
ATOM     63  F   UNL A   1      39.039  32.339  39.858  1.00  0.00    -0.203 F 
ATOM     64  C   UNL A   1      39.876  34.228  40.989  1.00  0.00     0.198 A 
ATOM     65  C   UNL A   1      41.333  35.760  39.853  1.00  0.00     0.198 A 
ATOM     66  F   UNL A   1      41.903  35.391  37.600  1.00  0.00    -0.203 F 
ATOM     67  F   UNL A   1      39.196  33.871  42.087  1.00  0.00    -0.200 F 
ATOM     68  C   UNL A   1      40.649  35.379  40.996  1.00  0.00     0.200 A 
ATOM     69  F   UNL A   1      42.088  36.868  39.861  1.00  0.00    -0.200 F 
ATOM     70  F   UNL A   1      40.731  36.125  42.106  1.00  0.00    -0.200 F 
ENDBRANCH  46  60
BRANCH  47  71
ATOM     71  C   UNL A   1      39.976  28.667  30.149  1.00  0.00     0.064 A 
ATOM     72  C   UNL A   1      39.397  27.396  30.028  1.00  0.00     0.173 A 
ATOM     73  C   UNL A   1      40.573  29.224  29.007  1.00  0.00     0.173 A 
ATOM     74  F   UNL A   1      38.844  26.809  31.099  1.00  0.00    -0.203 F 
ATOM     75  C   UNL A   1      39.431  26.702  28.820  1.00  0.00     0.198 A 
ATOM     76  C   UNL A   1      40.583  28.539  27.793  1.00  0.00     0.198 A 
ATOM     77  F   UNL A   1      41.150  30.433  29.073  1.00  0.00    -0.203 F 
ATOM     78  F   UNL A   1      38.916  25.467  28.745  1.00  0.00    -0.200 F 
ATOM     79  C   UNL A   1      40.019  27.276  27.703  1.00  0.00     0.200 A 
ATOM     80  F   UNL A   1      41.148  29.100  26.715  1.00  0.00    -0.200 F 
ATOM     81  F   UNL A   1      40.056  26.606  26.543  1.00  0.00    -0.200 F 
ENDBRANCH  47  71
BRANCH  59  82
ATOM     82  C   UNL A   1      44.565  28.896  35.393  1.00  0.00     0.064 A 
ATOM     83  C   UNL A   1      44.609  27.627  35.988  1.00  0.00     0.173 A 
ATOM     84  C   UNL A   1      45.775  29.466  34.969  1.00  0.00     0.173 A 
ATOM     85  F   UNL A   1      43.480  27.046  36.421  1.00  0.00    -0.203 F 
ATOM     86  C   UNL A   1      45.819  26.960  36.161  1.00  0.00     0.198 A 
ATOM     87  C   UNL A   1      46.980  28.787  35.121  1.00  0.00     0.198 A 
ATOM     88  F   UNL A   1      45.785  30.676  34.388  1.00  0.00    -0.203 F 
ATOM     89  F   UNL A   1      45.842  25.762  36.760  1.00  0.00    -0.200 F 
ATOM     90  C   UNL A   1      47.001  27.537  35.720  1.00  0.00     0.200 A 
ATOM     91  F   UNL A   1      48.119  29.339  34.683  1.00  0.00    -0.200 F 
ATOM     92  F   UNL A   1      48.164  26.888  35.876  1.00  0.00    -0.200 F 
ENDBRANCH  59  82
ENDBRANCH  33  34
ENDBRANCH  26  28
ENDBRANCH  25  26
ENDBRANCH  24  25
ENDBRANCH  23  24
ENDBRANCH  22  23
ENDBRANCH  21  22
ENDBRANCH   1  21
TORSDOF 19
ENDMDL
