MODEL 1
REMARK VINA RESULT:     -11.7      0.000      0.000
REMARK SMILES COc1ccc([C@H]2[C@H](C(=O)OCCOCCOCCOC(=O)c3ccc(-c4c5nc(c(-c6c(F)c(F)c(F)c(F)c6F)c6ccc([nH]6)c(-c6c(F)c(F)c(F)c(F)c6F)c6nc(c(-c7c(F)c(F)c(F)c(F)c7F)c7ccc4[nH]7)C=C6)C=C5)cc3)CCN2c2ccc(F)cc2)cc1
REMARK SMILES IDX 15 1 14 2 13 3 12 4 11 5 9 6 10 7 8 8 7 9 88 10 86 11 87 12
REMARK SMILES IDX 6 13 3 14 4 15 97 16 5 17 96 18 2 19 1 20 89 21 90 22 95 23
REMARK SMILES IDX 91 24 94 25 92 26 93 27 16 28 17 29 18 30 19 31 20 32 21 33
REMARK SMILES IDX 22 34 23 35 24 36 85 37 25 38 84 39 26 40 27 41 28 42 78 43
REMARK SMILES IDX 29 44 83 45 77 46 79 47 30 48 82 49 76 50 75 51 31 53 63 54
REMARK SMILES IDX 43 55 62 56 44 57 47 58 61 59 80 60 45 61 46 62 60 64 81 65
REMARK SMILES IDX 48 66 32 67 33 68 41 69 34 70 35 71 39 72 42 73 36 74 37 75
REMARK SMILES IDX 40 76 38 77 64 78 65 79 73 80 66 81 67 82 71 83 74 84 68 85
REMARK SMILES IDX 69 86 72 87 70 88 49 89 50 90 58 91 51 92 52 93 56 94 59 95
REMARK SMILES IDX 53 96 54 97 57 98 55 99
REMARK H PARENT 79 52 47 63
REMARK Flexibility Score: inf
ROOT
ATOM      1  C   UNL A   1      35.095  22.364  24.818  1.00  0.00     0.188 C 
ENDROOT
BRANCH   1   2
ATOM      2  O   UNL A   1      34.147  21.334  24.584  1.00  0.00    -0.376 OA
BRANCH   2   3
ATOM      3  C   UNL A   1      32.841  21.511  25.137  1.00  0.00     0.202 C 
BRANCH   3   4
ATOM      4  C   UNL A   1      32.414  22.937  25.529  1.00  0.00     0.261 C 
BRANCH   4   5
ATOM      5  O   UNL A   1      31.317  23.503  24.759  1.00  0.00    -0.463 OA
BRANCH   5   6
ATOM      6  C   UNL A   1      30.842  24.694  25.201  1.00  0.00     0.311 C 
ATOM      7  O   UNL A   1      30.542  24.909  26.374  1.00  0.00    -0.252 OA
BRANCH   6   8
ATOM      8  C   UNL A   1      30.691  25.803  24.173  1.00  0.00     0.128 C 
ATOM      9  C   UNL A   1      30.665  27.281  24.607  1.00  0.00     0.127 C 
ATOM     10  N   UNL A   1      32.087  27.650  24.619  1.00  0.00    -0.364 N 
ATOM     11  C   UNL A   1      31.905  25.754  23.240  1.00  0.00     0.039 C 
ATOM     12  C   UNL A   1      32.918  26.676  23.923  1.00  0.00     0.118 C 
BRANCH   9  13
ATOM     13  C   UNL A   1      29.896  28.129  23.563  1.00  0.00    -0.024 A 
ATOM     14  C   UNL A   1      28.487  29.854  21.792  1.00  0.00     0.118 A 
ATOM     15  C   UNL A   1      29.879  29.900  21.877  1.00  0.00     0.047 A 
ATOM     16  C   UNL A   1      27.799  28.913  22.549  1.00  0.00     0.047 A 
ATOM     17  C   UNL A   1      30.579  29.049  22.750  1.00  0.00     0.010 A 
ATOM     18  C   UNL A   1      28.497  28.067  23.420  1.00  0.00     0.010 A 
BRANCH  14  19
ATOM     19  O   UNL A   1      27.914  30.748  20.931  1.00  0.00    -0.497 OA
ATOM     20  C   UNL A   1      28.103  32.127  21.239  1.00  0.00     0.278 C 
ENDBRANCH  14  19
ENDBRANCH   9  13
BRANCH  10  21
ATOM     21  C   UNL A   1      32.628  28.506  25.550  1.00  0.00     0.037 A 
ATOM     22  C   UNL A   1      33.951  28.334  25.981  1.00  0.00     0.029 A 
ATOM     23  C   UNL A   1      31.900  29.578  26.081  1.00  0.00     0.029 A 
ATOM     24  C   UNL A   1      34.547  29.233  26.869  1.00  0.00     0.041 A 
ATOM     25  C   UNL A   1      32.479  30.468  26.989  1.00  0.00     0.041 A 
ATOM     26  C   UNL A   1      33.804  30.294  27.364  1.00  0.00     0.123 A 
ATOM     27  F   UNL A   1      34.370  31.161  28.216  1.00  0.00    -0.207 F 
ENDBRANCH  10  21
ENDBRANCH   6   8
ENDBRANCH   5   6
ENDBRANCH   4   5
ENDBRANCH   3   4
ENDBRANCH   2   3
ENDBRANCH   1   2
BRANCH   1  28
ATOM     28  C   UNL A   1      36.405  21.967  25.510  1.00  0.00     0.188 C 
BRANCH  28  29
ATOM     29  O   UNL A   1      37.353  21.381  24.640  1.00  0.00    -0.376 OA
BRANCH  29  30
ATOM     30  C   UNL A   1      37.616  19.984  24.738  1.00  0.00     0.202 C 
BRANCH  30  31
ATOM     31  C   UNL A   1      38.968  19.586  25.361  1.00  0.00     0.261 C 
BRANCH  31  32
ATOM     32  O   UNL A   1      39.380  20.377  26.492  1.00  0.00    -0.460 OA
BRANCH  32  33
ATOM     33  C   UNL A   1      40.711  20.458  26.732  1.00  0.00     0.338 C 
ATOM     34  O   UNL A   1      41.561  19.639  26.432  1.00  0.00    -0.246 OA
BRANCH  33  35
ATOM     35  C   UNL A   1      41.006  21.848  27.162  1.00  0.00     0.060 A 
ATOM     36  C   UNL A   1      40.350  22.897  26.503  1.00  0.00     0.016 A 
ATOM     37  C   UNL A   1      41.840  22.114  28.253  1.00  0.00     0.016 A 
ATOM     38  C   UNL A   1      40.568  24.217  26.901  1.00  0.00     0.010 A 
ATOM     39  C   UNL A   1      42.064  23.437  28.645  1.00  0.00     0.010 A 
ATOM     40  C   UNL A   1      41.460  24.497  27.946  1.00  0.00    -0.014 A 
BRANCH  40  41
ATOM     41  C   UNL A   1      41.915  25.894  28.161  1.00  0.00     0.031 A 
ATOM     42  C   UNL A   1      43.250  26.300  27.597  1.00  0.00     0.074 A 
ATOM     43  C   UNL A   1      41.149  26.798  28.797  1.00  0.00     0.049 A 
ATOM     44  N   UNL A   1      43.847  27.464  27.619  1.00  0.00    -0.248 NA
ATOM     45  C   UNL A   1      44.016  25.243  26.915  1.00  0.00     0.031 C 
ATOM     46  C   UNL A   1      39.832  26.540  29.371  1.00  0.00     0.029 A 
ATOM     47  N   UNL A   1      41.378  28.128  29.059  1.00  0.00    -0.354 N 
ATOM     48  C   UNL A   1      45.050  27.281  26.950  1.00  0.00     0.074 A 
ATOM     49  C   UNL A   1      45.122  25.886  26.575  1.00  0.00     0.031 C 
ATOM     50  C   UNL A   1      39.366  27.678  29.920  1.00  0.00     0.029 A 
ATOM     51  C   UNL A   1      40.361  28.737  29.752  1.00  0.00     0.049 A 
ATOM     52  H   UNL A   1      42.195  28.599  28.778  1.00  0.00     0.167 HD
ATOM     53  C   UNL A   1      46.005  28.196  26.658  1.00  0.00     0.037 A 
ATOM     54  C   UNL A   1      40.253  30.003  30.202  1.00  0.00     0.037 A 
ATOM     55  C   UNL A   1      45.942  29.582  27.036  1.00  0.00     0.049 A 
ATOM     56  C   UNL A   1      41.359  30.990  29.916  1.00  0.00     0.074 A 
ATOM     57  C   UNL A   1      46.854  30.591  26.775  1.00  0.00     0.029 A 
ATOM     58  N   UNL A   1      44.912  30.155  27.768  1.00  0.00    -0.354 N 
ATOM     59  N   UNL A   1      42.475  30.819  29.248  1.00  0.00    -0.248 NA
ATOM     60  C   UNL A   1      41.182  32.352  30.441  1.00  0.00     0.031 C 
ATOM     61  C   UNL A   1      46.401  31.760  27.396  1.00  0.00     0.029 A 
ATOM     62  C   UNL A   1      45.178  31.497  27.990  1.00  0.00     0.049 A 
ATOM     63  H   UNL A   1      44.110  29.678  28.083  1.00  0.00     0.167 HD
ATOM     64  C   UNL A   1      43.115  32.052  29.248  1.00  0.00     0.074 A 
ATOM     65  C   UNL A   1      42.251  32.968  29.962  1.00  0.00     0.031 C 
ATOM     66  C   UNL A   1      44.311  32.397  28.706  1.00  0.00     0.037 A 
BRANCH  53  67
ATOM     67  C   UNL A   1      47.214  27.714  25.909  1.00  0.00     0.064 A 
ATOM     68  C   UNL A   1      48.354  27.237  26.576  1.00  0.00     0.173 A 
ATOM     69  C   UNL A   1      47.225  27.711  24.507  1.00  0.00     0.173 A 
ATOM     70  F   UNL A   1      48.402  27.237  27.917  1.00  0.00    -0.203 F 
ATOM     71  C   UNL A   1      49.468  26.800  25.864  1.00  0.00     0.198 A 
ATOM     72  C   UNL A   1      48.329  27.244  23.799  1.00  0.00     0.198 A 
ATOM     73  F   UNL A   1      46.161  28.157  23.821  1.00  0.00    -0.203 F 
ATOM     74  F   UNL A   1      50.565  26.397  26.522  1.00  0.00    -0.200 F 
ATOM     75  C   UNL A   1      49.452  26.796  24.478  1.00  0.00     0.200 A 
ATOM     76  F   UNL A   1      48.307  27.231  22.459  1.00  0.00    -0.200 F 
ATOM     77  F   UNL A   1      50.524  26.370  23.795  1.00  0.00    -0.200 F 
ENDBRANCH  53  67
BRANCH  54  78
ATOM     78  C   UNL A   1      39.052  30.424  30.972  1.00  0.00     0.064 A 
ATOM     79  C   UNL A   1      37.938  30.987  30.332  1.00  0.00     0.173 A 
ATOM     80  C   UNL A   1      39.009  30.308  32.369  1.00  0.00     0.173 A 
ATOM     81  F   UNL A   1      37.941  31.148  29.000  1.00  0.00    -0.203 F 
ATOM     82  C   UNL A   1      36.839  31.440  31.061  1.00  0.00     0.198 A 
ATOM     83  C   UNL A   1      37.897  30.733  33.094  1.00  0.00     0.198 A 
ATOM     84  F   UNL A   1      40.049  29.782  33.032  1.00  0.00    -0.203 F 
ATOM     85  F   UNL A   1      35.814  32.027  30.428  1.00  0.00    -0.200 F 
ATOM     86  C   UNL A   1      36.817  31.307  32.441  1.00  0.00     0.200 A 
ATOM     87  F   UNL A   1      37.875  30.594  34.427  1.00  0.00    -0.200 F 
ATOM     88  F   UNL A   1      35.761  31.744  33.142  1.00  0.00    -0.200 F 
ENDBRANCH  54  78
BRANCH  66  89
ATOM     89  C   UNL A   1      44.739  33.833  28.841  1.00  0.00     0.064 A 
ATOM     90  C   UNL A   1      45.482  34.284  29.942  1.00  0.00     0.173 A 
ATOM     91  C   UNL A   1      44.408  34.769  27.848  1.00  0.00     0.173 A 
ATOM     92  F   UNL A   1      45.817  33.434  30.925  1.00  0.00    -0.203 F 
ATOM     93  C   UNL A   1      45.839  35.625  30.067  1.00  0.00     0.198 A 
ATOM     94  C   UNL A   1      44.799  36.101  27.958  1.00  0.00     0.198 A 
ATOM     95  F   UNL A   1      43.709  34.392  26.767  1.00  0.00    -0.203 F 
ATOM     96  F   UNL A   1      46.490  36.043  31.161  1.00  0.00    -0.200 F 
ATOM     97  C   UNL A   1      45.501  36.531  29.074  1.00  0.00     0.200 A 
ATOM     98  F   UNL A   1      44.485  36.972  26.989  1.00  0.00    -0.200 F 
ATOM     99  F   UNL A   1      45.842  37.820  29.196  1.00  0.00    -0.200 F 
ENDBRANCH  66  89
ENDBRANCH  40  41
ENDBRANCH  33  35
ENDBRANCH  32  33
ENDBRANCH  31  32
ENDBRANCH  30  31
ENDBRANCH  29  30
ENDBRANCH  28  29
ENDBRANCH   1  28
TORSDOF 20
ENDMDL
MODEL 2
REMARK VINA RESULT:     -11.7      4.412     10.511
REMARK SMILES COc1ccc([C@H]2[C@H](C(=O)OCCOCCOCCOC(=O)c3ccc(-c4c5nc(c(-c6c(F)c(F)c(F)c(F)c6F)c6ccc([nH]6)c(-c6c(F)c(F)c(F)c(F)c6F)c6nc(c(-c7c(F)c(F)c(F)c(F)c7F)c7ccc4[nH]7)C=C6)C=C5)cc3)CCN2c2ccc(F)cc2)cc1
REMARK SMILES IDX 15 1 14 2 13 3 12 4 11 5 9 6 10 7 8 8 7 9 88 10 86 11 87 12
REMARK SMILES IDX 6 13 3 14 4 15 97 16 5 17 96 18 2 19 1 20 89 21 90 22 95 23
REMARK SMILES IDX 91 24 94 25 92 26 93 27 16 28 17 29 18 30 19 31 20 32 21 33
REMARK SMILES IDX 22 34 23 35 24 36 85 37 25 38 84 39 26 40 27 41 28 42 78 43
REMARK SMILES IDX 29 44 83 45 77 46 79 47 30 48 82 49 76 50 75 51 31 53 63 54
REMARK SMILES IDX 43 55 62 56 44 57 47 58 61 59 80 60 45 61 46 62 60 64 81 65
REMARK SMILES IDX 48 66 32 67 33 68 41 69 34 70 35 71 39 72 42 73 36 74 37 75
REMARK SMILES IDX 40 76 38 77 64 78 65 79 73 80 66 81 67 82 71 83 74 84 68 85
REMARK SMILES IDX 69 86 72 87 70 88 49 89 50 90 58 91 51 92 52 93 56 94 59 95
REMARK SMILES IDX 53 96 54 97 57 98 55 99
REMARK H PARENT 79 52 47 63
REMARK Flexibility Score: inf
ROOT
ATOM      1  C   UNL A   1      32.629  27.527  26.458  1.00  0.00     0.188 C 
ENDROOT
BRANCH   1   2
ATOM      2  O   UNL A   1      31.525  26.747  26.890  1.00  0.00    -0.376 OA
BRANCH   2   3
ATOM      3  C   UNL A   1      30.608  26.302  25.888  1.00  0.00     0.202 C 
BRANCH   3   4
ATOM      4  C   UNL A   1      29.895  24.956  26.114  1.00  0.00     0.261 C 
BRANCH   4   5
ATOM      5  O   UNL A   1      30.620  23.983  26.916  1.00  0.00    -0.463 OA
BRANCH   5   6
ATOM      6  C   UNL A   1      31.020  22.864  26.263  1.00  0.00     0.311 C 
ATOM      7  O   UNL A   1      30.309  21.870  26.127  1.00  0.00    -0.252 OA
BRANCH   6   8
ATOM      8  C   UNL A   1      32.421  22.871  25.673  1.00  0.00     0.128 C 
ATOM      9  C   UNL A   1      33.325  21.629  25.777  1.00  0.00     0.127 C 
ATOM     10  N   UNL A   1      32.958  20.849  24.587  1.00  0.00    -0.364 N 
ATOM     11  C   UNL A   1      32.296  23.065  24.158  1.00  0.00     0.039 C 
ATOM     12  C   UNL A   1      32.198  21.633  23.623  1.00  0.00     0.118 C 
BRANCH   9  13
ATOM     13  C   UNL A   1      34.815  22.048  25.710  1.00  0.00    -0.024 A 
ATOM     14  C   UNL A   1      37.579  22.720  25.783  1.00  0.00     0.118 A 
ATOM     15  C   UNL A   1      37.161  21.460  25.353  1.00  0.00     0.047 A 
ATOM     16  C   UNL A   1      36.619  23.664  26.126  1.00  0.00     0.047 A 
ATOM     17  C   UNL A   1      35.798  21.124  25.314  1.00  0.00     0.010 A 
ATOM     18  C   UNL A   1      35.260  23.329  26.089  1.00  0.00     0.010 A 
BRANCH  14  19
ATOM     19  O   UNL A   1      38.932  22.923  25.806  1.00  0.00    -0.497 OA
ATOM     20  C   UNL A   1      39.377  24.110  26.458  1.00  0.00     0.278 C 
ENDBRANCH  14  19
ENDBRANCH   9  13
BRANCH  10  21
ATOM     21  C   UNL A   1      32.900  19.475  24.584  1.00  0.00     0.037 A 
ATOM     22  C   UNL A   1      32.886  18.771  23.371  1.00  0.00     0.029 A 
ATOM     23  C   UNL A   1      32.875  18.732  25.772  1.00  0.00     0.029 A 
ATOM     24  C   UNL A   1      32.903  17.375  23.343  1.00  0.00     0.041 A 
ATOM     25  C   UNL A   1      32.866  17.335  25.753  1.00  0.00     0.041 A 
ATOM     26  C   UNL A   1      32.894  16.669  24.537  1.00  0.00     0.123 A 
ATOM     27  F   UNL A   1      32.910  15.329  24.516  1.00  0.00    -0.207 F 
ENDBRANCH  10  21
ENDBRANCH   6   8
ENDBRANCH   5   6
ENDBRANCH   4   5
ENDBRANCH   3   4
ENDBRANCH   2   3
ENDBRANCH   1   2
BRANCH   1  28
ATOM     28  C   UNL A   1      32.619  28.010  25.003  1.00  0.00     0.188 C 
BRANCH  28  29
ATOM     29  O   UNL A   1      32.576  29.417  24.871  1.00  0.00    -0.376 OA
BRANCH  29  30
ATOM     30  C   UNL A   1      31.448  30.128  25.373  1.00  0.00     0.202 C 
BRANCH  30  31
ATOM     31  C   UNL A   1      31.730  31.154  26.488  1.00  0.00     0.261 C 
BRANCH  31  32
ATOM     32  O   UNL A   1      32.940  30.930  27.237  1.00  0.00    -0.460 OA
BRANCH  32  33
ATOM     33  C   UNL A   1      33.678  32.023  27.551  1.00  0.00     0.338 C 
ATOM     34  O   UNL A   1      33.286  33.174  27.631  1.00  0.00    -0.246 OA
BRANCH  33  35
ATOM     35  C   UNL A   1      34.984  31.548  28.071  1.00  0.00     0.060 A 
ATOM     36  C   UNL A   1      35.160  30.170  28.260  1.00  0.00     0.016 A 
ATOM     37  C   UNL A   1      36.051  32.429  28.281  1.00  0.00     0.016 A 
ATOM     38  C   UNL A   1      36.386  29.677  28.710  1.00  0.00     0.010 A 
ATOM     39  C   UNL A   1      37.275  31.935  28.739  1.00  0.00     0.010 A 
ATOM     40  C   UNL A   1      37.436  30.561  28.994  1.00  0.00    -0.014 A 
BRANCH  40  41
ATOM     41  C   UNL A   1      38.617  30.071  29.749  1.00  0.00     0.031 A 
ATOM     42  C   UNL A   1      38.799  30.545  31.166  1.00  0.00     0.074 A 
ATOM     43  C   UNL A   1      39.483  29.190  29.217  1.00  0.00     0.049 A 
ATOM     44  N   UNL A   1      39.723  30.232  32.040  1.00  0.00    -0.248 NA
ATOM     45  C   UNL A   1      37.800  31.504  31.664  1.00  0.00     0.031 C 
ATOM     46  C   UNL A   1      39.410  28.640  27.867  1.00  0.00     0.029 A 
ATOM     47  N   UNL A   1      40.599  28.602  29.762  1.00  0.00    -0.354 N 
ATOM     48  C   UNL A   1      39.411  30.949  33.187  1.00  0.00     0.074 A 
ATOM     49  C   UNL A   1      38.243  31.748  32.887  1.00  0.00     0.031 C 
ATOM     50  C   UNL A   1      40.438  27.790  27.687  1.00  0.00     0.029 A 
ATOM     51  C   UNL A   1      41.252  27.754  28.903  1.00  0.00     0.049 A 
ATOM     52  H   UNL A   1      40.902  28.774  30.683  1.00  0.00     0.167 HD
ATOM     53  C   UNL A   1      40.032  30.933  34.391  1.00  0.00     0.037 A 
ATOM     54  C   UNL A   1      42.379  27.037  29.079  1.00  0.00     0.037 A 
ATOM     55  C   UNL A   1      41.198  30.147  34.691  1.00  0.00     0.049 A 
ATOM     56  C   UNL A   1      43.088  27.083  30.411  1.00  0.00     0.074 A 
ATOM     57  C   UNL A   1      41.892  30.052  35.885  1.00  0.00     0.029 A 
ATOM     58  N   UNL A   1      41.851  29.326  33.784  1.00  0.00    -0.354 N 
ATOM     59  N   UNL A   1      42.764  27.732  31.504  1.00  0.00    -0.248 NA
ATOM     60  C   UNL A   1      44.316  26.284  30.535  1.00  0.00     0.031 C 
ATOM     61  C   UNL A   1      42.996  29.217  35.684  1.00  0.00     0.029 A 
ATOM     62  C   UNL A   1      42.956  28.742  34.384  1.00  0.00     0.049 A 
ATOM     63  H   UNL A   1      41.571  29.180  32.851  1.00  0.00     0.167 HD
ATOM     64  C   UNL A   1      43.728  27.398  32.449  1.00  0.00     0.074 A 
ATOM     65  C   UNL A   1      44.634  26.470  31.807  1.00  0.00     0.031 C 
ATOM     66  C   UNL A   1      43.852  27.822  33.732  1.00  0.00     0.037 A 
BRANCH  53  67
ATOM     67  C   UNL A   1      39.468  31.815  35.468  1.00  0.00     0.064 A 
ATOM     68  C   UNL A   1      38.519  31.342  36.387  1.00  0.00     0.173 A 
ATOM     69  C   UNL A   1      39.896  33.145  35.593  1.00  0.00     0.173 A 
ATOM     70  F   UNL A   1      38.061  30.084  36.299  1.00  0.00    -0.203 F 
ATOM     71  C   UNL A   1      38.002  32.176  37.375  1.00  0.00     0.198 A 
ATOM     72  C   UNL A   1      39.401  33.966  36.601  1.00  0.00     0.198 A 
ATOM     73  F   UNL A   1      40.801  33.646  34.738  1.00  0.00    -0.203 F 
ATOM     74  F   UNL A   1      37.058  31.718  38.211  1.00  0.00    -0.200 F 
ATOM     75  C   UNL A   1      38.449  33.484  37.486  1.00  0.00     0.200 A 
ATOM     76  F   UNL A   1      39.843  35.226  36.713  1.00  0.00    -0.200 F 
ATOM     77  F   UNL A   1      37.955  34.284  38.442  1.00  0.00    -0.200 F 
ENDBRANCH  53  67
BRANCH  54  78
ATOM     78  C   UNL A   1      42.920  26.206  27.970  1.00  0.00     0.064 A 
ATOM     79  C   UNL A   1      43.753  26.758  26.985  1.00  0.00     0.173 A 
ATOM     80  C   UNL A   1      42.581  24.850  27.848  1.00  0.00     0.173 A 
ATOM     81  F   UNL A   1      44.081  28.058  27.039  1.00  0.00    -0.203 F 
ATOM     82  C   UNL A   1      44.206  25.994  25.911  1.00  0.00     0.198 A 
ATOM     83  C   UNL A   1      43.061  24.079  26.791  1.00  0.00     0.198 A 
ATOM     84  F   UNL A   1      41.783  24.273  28.758  1.00  0.00    -0.203 F 
ATOM     85  F   UNL A   1      44.953  26.562  24.956  1.00  0.00    -0.200 F 
ATOM     86  C   UNL A   1      43.865  24.653  25.819  1.00  0.00     0.200 A 
ATOM     87  F   UNL A   1      42.736  22.781  26.709  1.00  0.00    -0.200 F 
ATOM     88  F   UNL A   1      44.300  23.919  24.785  1.00  0.00    -0.200 F 
ENDBRANCH  54  78
BRANCH  66  89
ATOM     89  C   UNL A   1      44.994  27.260  34.534  1.00  0.00     0.064 A 
ATOM     90  C   UNL A   1      44.869  26.068  35.266  1.00  0.00     0.173 A 
ATOM     91  C   UNL A   1      46.234  27.917  34.563  1.00  0.00     0.173 A 
ATOM     92  F   UNL A   1      43.703  25.404  35.281  1.00  0.00    -0.203 F 
ATOM     93  C   UNL A   1      45.926  25.582  36.031  1.00  0.00     0.198 A 
ATOM     94  C   UNL A   1      47.300  27.408  35.301  1.00  0.00     0.198 A 
ATOM     95  F   UNL A   1      46.415  29.054  33.874  1.00  0.00    -0.203 F 
ATOM     96  F   UNL A   1      45.760  24.479  36.774  1.00  0.00    -0.200 F 
ATOM     97  C   UNL A   1      47.141  26.249  36.045  1.00  0.00     0.200 A 
ATOM     98  F   UNL A   1      48.479  28.046  35.299  1.00  0.00    -0.200 F 
ATOM     99  F   UNL A   1      48.156  25.782  36.783  1.00  0.00    -0.200 F 
ENDBRANCH  66  89
ENDBRANCH  40  41
ENDBRANCH  33  35
ENDBRANCH  32  33
ENDBRANCH  31  32
ENDBRANCH  30  31
ENDBRANCH  29  30
ENDBRANCH  28  29
ENDBRANCH   1  28
TORSDOF 20
ENDMDL
MODEL 3
REMARK VINA RESULT:     -11.6      4.459     10.596
REMARK SMILES COc1ccc([C@H]2[C@H](C(=O)OCCOCCOCCOC(=O)c3ccc(-c4c5nc(c(-c6c(F)c(F)c(F)c(F)c6F)c6ccc([nH]6)c(-c6c(F)c(F)c(F)c(F)c6F)c6nc(c(-c7c(F)c(F)c(F)c(F)c7F)c7ccc4[nH]7)C=C6)C=C5)cc3)CCN2c2ccc(F)cc2)cc1
REMARK SMILES IDX 15 1 14 2 13 3 12 4 11 5 9 6 10 7 8 8 7 9 88 10 86 11 87 12
REMARK SMILES IDX 6 13 3 14 4 15 97 16 5 17 96 18 2 19 1 20 89 21 90 22 95 23
REMARK SMILES IDX 91 24 94 25 92 26 93 27 16 28 17 29 18 30 19 31 20 32 21 33
REMARK SMILES IDX 22 34 23 35 24 36 85 37 25 38 84 39 26 40 27 41 28 42 78 43
REMARK SMILES IDX 29 44 83 45 77 46 79 47 30 48 82 49 76 50 75 51 31 53 63 54
REMARK SMILES IDX 43 55 62 56 44 57 47 58 61 59 80 60 45 61 46 62 60 64 81 65
REMARK SMILES IDX 48 66 32 67 33 68 41 69 34 70 35 71 39 72 42 73 36 74 37 75
REMARK SMILES IDX 40 76 38 77 64 78 65 79 73 80 66 81 67 82 71 83 74 84 68 85
REMARK SMILES IDX 69 86 72 87 70 88 49 89 50 90 58 91 51 92 52 93 56 94 59 95
REMARK SMILES IDX 53 96 54 97 57 98 55 99
REMARK H PARENT 79 52 47 63
REMARK Flexibility Score: inf
ROOT
ATOM      1  C   UNL A   1      31.669  28.184  26.011  1.00  0.00     0.188 C 
ENDROOT
BRANCH   1   2
ATOM      2  O   UNL A   1      31.378  27.282  24.954  1.00  0.00    -0.376 OA
BRANCH   2   3
ATOM      3  C   UNL A   1      32.379  26.316  24.626  1.00  0.00     0.202 C 
BRANCH   3   4
ATOM      4  C   UNL A   1      32.372  25.731  23.201  1.00  0.00     0.261 C 
BRANCH   4   5
ATOM      5  O   UNL A   1      32.525  24.287  23.110  1.00  0.00    -0.463 OA
BRANCH   5   6
ATOM      6  C   UNL A   1      31.434  23.558  23.453  1.00  0.00     0.311 C 
ATOM      7  O   UNL A   1      30.280  23.961  23.311  1.00  0.00    -0.252 OA
BRANCH   6   8
ATOM      8  C   UNL A   1      31.679  22.174  24.031  1.00  0.00     0.128 C 
ATOM      9  C   UNL A   1      33.093  21.564  24.040  1.00  0.00     0.127 C 
ATOM     10  N   UNL A   1      33.663  22.059  25.300  1.00  0.00    -0.364 N 
ATOM     11  C   UNL A   1      31.326  22.212  25.521  1.00  0.00     0.039 C 
ATOM     12  C   UNL A   1      32.646  22.605  26.190  1.00  0.00     0.118 C 
BRANCH   9  13
ATOM     13  C   UNL A   1      33.006  20.017  24.057  1.00  0.00    -0.024 A 
ATOM     14  C   UNL A   1      33.061  17.172  24.036  1.00  0.00     0.118 A 
ATOM     15  C   UNL A   1      33.478  17.887  25.161  1.00  0.00     0.047 A 
ATOM     16  C   UNL A   1      32.567  17.872  22.942  1.00  0.00     0.047 A 
ATOM     17  C   UNL A   1      33.452  19.291  25.176  1.00  0.00     0.010 A 
ATOM     18  C   UNL A   1      32.543  19.272  22.957  1.00  0.00     0.010 A 
BRANCH  14  19
ATOM     19  O   UNL A   1      33.159  15.811  24.126  1.00  0.00    -0.497 OA
ATOM     20  C   UNL A   1      32.599  15.218  25.296  1.00  0.00     0.278 C 
ENDBRANCH  14  19
ENDBRANCH   9  13
BRANCH  10  21
ATOM     21  C   UNL A   1      34.985  22.414  25.434  1.00  0.00     0.037 A 
ATOM     22  C   UNL A   1      35.342  23.763  25.580  1.00  0.00     0.029 A 
ATOM     23  C   UNL A   1      36.010  21.460  25.449  1.00  0.00     0.029 A 
ATOM     24  C   UNL A   1      36.670  24.142  25.792  1.00  0.00     0.041 A 
ATOM     25  C   UNL A   1      37.344  21.832  25.634  1.00  0.00     0.041 A 
ATOM     26  C   UNL A   1      37.659  23.171  25.818  1.00  0.00     0.123 A 
ATOM     27  F   UNL A   1      38.935  23.528  26.021  1.00  0.00    -0.207 F 
ENDBRANCH  10  21
ENDBRANCH   6   8
ENDBRANCH   5   6
ENDBRANCH   4   5
ENDBRANCH   3   4
ENDBRANCH   2   3
ENDBRANCH   1   2
BRANCH   1  28
ATOM     28  C   UNL A   1      32.356  29.503  25.636  1.00  0.00     0.188 C 
BRANCH  28  29
ATOM     29  O   UNL A   1      32.258  30.499  26.634  1.00  0.00    -0.376 OA
BRANCH  29  30
ATOM     30  C   UNL A   1      31.426  31.633  26.406  1.00  0.00     0.202 C 
BRANCH  30  31
ATOM     31  C   UNL A   1      31.991  32.995  26.854  1.00  0.00     0.261 C 
BRANCH  31  32
ATOM     32  O   UNL A   1      32.822  32.959  28.030  1.00  0.00    -0.460 OA
BRANCH  32  33
ATOM     33  C   UNL A   1      33.860  33.829  28.075  1.00  0.00     0.338 C 
ATOM     34  O   UNL A   1      33.801  35.044  28.013  1.00  0.00    -0.246 OA
BRANCH  33  35
ATOM     35  C   UNL A   1      35.061  33.073  28.510  1.00  0.00     0.060 A 
ATOM     36  C   UNL A   1      34.876  31.797  29.061  1.00  0.00     0.016 A 
ATOM     37  C   UNL A   1      36.352  33.565  28.295  1.00  0.00     0.016 A 
ATOM     38  C   UNL A   1      35.980  31.035  29.447  1.00  0.00     0.010 A 
ATOM     39  C   UNL A   1      37.457  32.805  28.689  1.00  0.00     0.010 A 
ATOM     40  C   UNL A   1      37.275  31.553  29.302  1.00  0.00    -0.014 A 
BRANCH  40  41
ATOM     41  C   UNL A   1      38.409  30.878  29.983  1.00  0.00     0.031 A 
ATOM     42  C   UNL A   1      38.662  31.203  31.431  1.00  0.00     0.074 A 
ATOM     43  C   UNL A   1      39.169  29.964  29.355  1.00  0.00     0.049 A 
ATOM     44  N   UNL A   1      39.561  30.721  32.251  1.00  0.00    -0.248 NA
ATOM     45  C   UNL A   1      37.777  32.213  32.035  1.00  0.00     0.031 C 
ATOM     46  C   UNL A   1      39.018  29.546  27.965  1.00  0.00     0.029 A 
ATOM     47  N   UNL A   1      40.226  29.218  29.820  1.00  0.00    -0.354 N 
ATOM     48  C   UNL A   1      39.345  31.361  33.464  1.00  0.00     0.074 A 
ATOM     49  C   UNL A   1      38.262  32.300  33.263  1.00  0.00     0.031 C 
ATOM     50  C   UNL A   1      39.948  28.614  27.687  1.00  0.00     0.029 A 
ATOM     51  C   UNL A   1      40.773  28.386  28.874  1.00  0.00     0.049 A 
ATOM     52  H   UNL A   1      40.560  29.275  30.744  1.00  0.00     0.167 HD
ATOM     53  C   UNL A   1      39.979  31.175  34.645  1.00  0.00     0.037 A 
ATOM     54  C   UNL A   1      41.822  27.545  28.959  1.00  0.00     0.037 A 
ATOM     55  C   UNL A   1      41.061  30.249  34.848  1.00  0.00     0.049 A 
ATOM     56  C   UNL A   1      42.552  27.399  30.272  1.00  0.00     0.074 A 
ATOM     57  C   UNL A   1      41.760  29.977  36.011  1.00  0.00     0.029 A 
ATOM     58  N   UNL A   1      41.610  29.449  33.856  1.00  0.00    -0.354 N 
ATOM     59  N   UNL A   1      42.315  27.978  31.425  1.00  0.00    -0.248 NA
ATOM     60  C   UNL A   1      43.691  26.469  30.296  1.00  0.00     0.031 C 
ATOM     61  C   UNL A   1      42.767  29.054  35.711  1.00  0.00     0.029 A 
ATOM     62  C   UNL A   1      42.657  28.703  34.376  1.00  0.00     0.049 A 
ATOM     63  H   UNL A   1      41.302  29.416  32.922  1.00  0.00     0.167 HD
ATOM     64  C   UNL A   1      43.253  27.464  32.313  1.00  0.00     0.074 A 
ATOM     65  C   UNL A   1      44.047  26.508  31.570  1.00  0.00     0.031 C 
ATOM     66  C   UNL A   1      43.442  27.757  33.624  1.00  0.00     0.037 A 
BRANCH  53  67
ATOM     67  C   UNL A   1      39.528  32.011  35.809  1.00  0.00     0.064 A 
ATOM     68  C   UNL A   1      40.110  33.256  36.092  1.00  0.00     0.173 A 
ATOM     69  C   UNL A   1      38.487  31.569  36.638  1.00  0.00     0.173 A 
ATOM     70  F   UNL A   1      41.122  33.715  35.341  1.00  0.00    -0.203 F 
ATOM     71  C   UNL A   1      39.683  34.015  37.179  1.00  0.00     0.198 A 
ATOM     72  C   UNL A   1      38.042  32.345  37.704  1.00  0.00     0.198 A 
ATOM     73  F   UNL A   1      37.897  30.385  36.411  1.00  0.00    -0.203 F 
ATOM     74  F   UNL A   1      40.288  35.178  37.461  1.00  0.00    -0.200 F 
ATOM     75  C   UNL A   1      38.644  33.563  37.979  1.00  0.00     0.200 A 
ATOM     76  F   UNL A   1      37.031  31.911  38.470  1.00  0.00    -0.200 F 
ATOM     77  F   UNL A   1      38.231  34.298  39.021  1.00  0.00    -0.200 F 
ENDBRANCH  53  67
BRANCH  54  78
ATOM     78  C   UNL A   1      42.254  26.764  27.769  1.00  0.00     0.064 A 
ATOM     79  C   UNL A   1      41.783  25.463  27.540  1.00  0.00     0.173 A 
ATOM     80  C   UNL A   1      43.181  27.289  26.855  1.00  0.00     0.173 A 
ATOM     81  F   UNL A   1      40.919  24.904  28.401  1.00  0.00    -0.203 F 
ATOM     82  C   UNL A   1      42.238  24.709  26.460  1.00  0.00     0.198 A 
ATOM     83  C   UNL A   1      43.612  26.546  25.758  1.00  0.00     0.198 A 
ATOM     84  F   UNL A   1      43.669  28.526  27.029  1.00  0.00    -0.203 F 
ATOM     85  F   UNL A   1      41.814  23.449  26.299  1.00  0.00    -0.200 F 
ATOM     86  C   UNL A   1      43.147  25.254  25.565  1.00  0.00     0.200 A 
ATOM     87  F   UNL A   1      44.484  27.079  24.891  1.00  0.00    -0.200 F 
ATOM     88  F   UNL A   1      43.586  24.528  24.527  1.00  0.00    -0.200 F 
ENDBRANCH  54  78
BRANCH  66  89
ATOM     89  C   UNL A   1      44.531  27.011  34.346  1.00  0.00     0.064 A 
ATOM     90  C   UNL A   1      44.284  25.797  35.006  1.00  0.00     0.173 A 
ATOM     91  C   UNL A   1      45.841  27.514  34.370  1.00  0.00     0.173 A 
ATOM     92  F   UNL A   1      43.047  25.276  35.023  1.00  0.00    -0.203 F 
ATOM     93  C   UNL A   1      45.297  25.138  35.699  1.00  0.00     0.198 A 
ATOM     94  C   UNL A   1      46.859  26.833  35.034  1.00  0.00     0.198 A 
ATOM     95  F   UNL A   1      46.137  28.664  33.747  1.00  0.00    -0.203 F 
ATOM     96  F   UNL A   1      45.021  24.016  36.377  1.00  0.00    -0.200 F 
ATOM     97  C   UNL A   1      46.584  25.654  35.709  1.00  0.00     0.200 A 
ATOM     98  F   UNL A   1      48.106  27.325  35.027  1.00  0.00    -0.200 F 
ATOM     99  F   UNL A   1      47.557  25.022  36.378  1.00  0.00    -0.200 F 
ENDBRANCH  66  89
ENDBRANCH  40  41
ENDBRANCH  33  35
ENDBRANCH  32  33
ENDBRANCH  31  32
ENDBRANCH  30  31
ENDBRANCH  29  30
ENDBRANCH  28  29
ENDBRANCH   1  28
TORSDOF 20
ENDMDL
