MODEL 1
REMARK VINA RESULT:     -10.7      0.000      0.000
REMARK SMILES O=C(C[C@H]1C[C@H]2CC[C@@H](C1)N2C(=O)NCCC1CC1)OCCOCCOCCOC(=O)c1ccc(-c2c3nc(c(-c4c(F)c(F)c(F)c(F)c4F)c4ccc([nH]4)c(-c4c(F)c(F)c(F)c(F)c4F)c4nc(c(-c5c(F)c(F)c(F)c(F)c5F)c5ccc2[nH]5)C=C4)C=C3)cc1
REMARK SMILES IDX 23 1 22 2 21 3 20 4 2 5 1 6 3 7 4 8 5 9 10 10 6 11 9 12 7 13
REMARK SMILES IDX 11 14 8 15 12 16 13 17 14 18 15 20 16 21 17 22 18 23 19 24
REMARK SMILES IDX 24 25 25 26 26 27 27 28 28 29 29 30 30 31 31 32 32 33 33 34
REMARK SMILES IDX 94 35 34 36 93 37 35 38 36 39 37 40 87 41 38 42 92 43 86 44
REMARK SMILES IDX 88 45 39 46 91 47 85 48 84 49 40 51 72 52 52 53 71 54 53 55
REMARK SMILES IDX 56 56 70 57 89 58 54 59 55 60 69 62 90 63 57 64 41 65 42 66
REMARK SMILES IDX 50 67 43 68 44 69 48 70 51 71 45 72 46 73 49 74 47 75 73 76
REMARK SMILES IDX 74 77 82 78 75 79 76 80 80 81 83 82 77 83 78 84 81 85 79 86
REMARK SMILES IDX 58 87 59 88 67 89 60 90 61 91 65 92 68 93 62 94 63 95 66 96
REMARK SMILES IDX 64 97
REMARK H PARENT 14 19 88 50 56 61
REMARK Flexibility Score: inf
ROOT
ATOM      1  O   UNL A   1      35.171  22.521  26.802  1.00  0.00    -0.376 OA
ENDROOT
BRANCH   1   2
ATOM      2  C   UNL A   1      34.106  23.450  26.573  1.00  0.00     0.202 C 
BRANCH   2   3
ATOM      3  C   UNL A   1      32.760  22.820  26.159  1.00  0.00     0.261 C 
BRANCH   3   4
ATOM      4  O   UNL A   1      31.803  23.019  27.211  1.00  0.00    -0.463 OA
BRANCH   4   5
ATOM      5  C   UNL A   1      30.523  23.324  26.890  1.00  0.00     0.306 C 
ATOM      6  O   UNL A   1      29.560  23.178  27.623  1.00  0.00    -0.252 OA
BRANCH   5   7
ATOM      7  C   UNL A   1      30.517  24.052  25.550  1.00  0.00     0.126 C 
BRANCH   7   8
ATOM      8  C   UNL A   1      30.147  25.550  25.701  1.00  0.00     0.004 C 
ATOM      9  C   UNL A   1      31.337  26.467  26.002  1.00  0.00     0.029 C 
ATOM     10  C   UNL A   1      29.342  26.160  24.516  1.00  0.00     0.029 C 
ATOM     11  C   UNL A   1      32.064  26.945  24.747  1.00  0.00     0.087 C 
ATOM     12  C   UNL A   1      30.176  26.930  23.433  1.00  0.00     0.087 C 
ATOM     13  C   UNL A   1      32.341  25.941  23.606  1.00  0.00     0.027 C 
ATOM     14  N   UNL A   1      31.163  27.830  24.038  1.00  0.00    -0.319 N 
ATOM     15  C   UNL A   1      31.096  25.959  22.704  1.00  0.00     0.027 C 
BRANCH  14  16
ATOM     16  C   UNL A   1      31.797  28.952  23.581  1.00  0.00     0.317 C 
ATOM     17  O   UNL A   1      32.789  29.414  24.155  1.00  0.00    -0.249 OA
ATOM     18  N   UNL A   1      31.505  29.509  22.398  1.00  0.00    -0.338 N 
ATOM     19  H   UNL A   1      32.285  29.923  21.962  1.00  0.00     0.165 HD
BRANCH  18  20
ATOM     20  C   UNL A   1      30.292  29.631  21.627  1.00  0.00     0.118 C 
BRANCH  20  21
ATOM     21  C   UNL A   1      29.472  30.830  22.089  1.00  0.00     0.025 C 
BRANCH  21  22
ATOM     22  C   UNL A   1      28.725  30.608  23.382  1.00  0.00    -0.009 C 
ATOM     23  C   UNL A   1      27.632  31.579  23.762  1.00  0.00     0.004 C 
ATOM     24  C   UNL A   1      27.287  30.145  23.500  1.00  0.00     0.004 C 
ENDBRANCH  21  22
ENDBRANCH  20  21
ENDBRANCH  18  20
ENDBRANCH  14  16
ENDBRANCH   7   8
ENDBRANCH   5   7
ENDBRANCH   4   5
ENDBRANCH   3   4
ENDBRANCH   2   3
ENDBRANCH   1   2
BRANCH   1  25
ATOM     25  C   UNL A   1      35.165  21.386  25.949  1.00  0.00     0.188 C 
BRANCH  25  26
ATOM     26  C   UNL A   1      35.858  21.615  24.602  1.00  0.00     0.188 C 
BRANCH  26  27
ATOM     27  O   UNL A   1      37.270  21.766  24.605  1.00  0.00    -0.376 OA
BRANCH  27  28
ATOM     28  C   UNL A   1      38.046  20.729  25.209  1.00  0.00     0.202 C 
BRANCH  28  29
ATOM     29  C   UNL A   1      39.432  21.089  25.764  1.00  0.00     0.261 C 
BRANCH  29  30
ATOM     30  O   UNL A   1      40.012  20.102  26.643  1.00  0.00    -0.460 OA
BRANCH  30  31
ATOM     31  C   UNL A   1      41.247  19.682  26.275  1.00  0.00     0.338 C 
ATOM     32  O   UNL A   1      41.548  18.623  25.751  1.00  0.00    -0.246 OA
BRANCH  31  33
ATOM     33  C   UNL A   1      42.274  20.700  26.548  1.00  0.00     0.060 A 
ATOM     34  C   UNL A   1      42.368  21.223  27.843  1.00  0.00     0.016 A 
ATOM     35  C   UNL A   1      42.907  21.334  25.476  1.00  0.00     0.016 A 
ATOM     36  C   UNL A   1      43.036  22.432  28.055  1.00  0.00     0.010 A 
ATOM     37  C   UNL A   1      43.575  22.545  25.691  1.00  0.00     0.010 A 
ATOM     38  C   UNL A   1      43.590  23.129  26.971  1.00  0.00    -0.014 A 
BRANCH  38  39
ATOM     39  C   UNL A   1      43.997  24.548  27.142  1.00  0.00     0.031 A 
ATOM     40  C   UNL A   1      42.977  25.552  27.617  1.00  0.00     0.074 A 
ATOM     41  C   UNL A   1      45.262  24.941  26.916  1.00  0.00     0.049 A 
ATOM     42  N   UNL A   1      43.115  26.834  27.848  1.00  0.00    -0.248 NA
ATOM     43  C   UNL A   1      41.620  25.040  27.866  1.00  0.00     0.031 C 
ATOM     44  C   UNL A   1      46.352  24.072  26.484  1.00  0.00     0.029 A 
ATOM     45  N   UNL A   1      45.838  26.183  27.019  1.00  0.00    -0.354 N 
ATOM     46  C   UNL A   1      41.869  27.279  28.273  1.00  0.00     0.074 A 
ATOM     47  C   UNL A   1      40.978  26.139  28.235  1.00  0.00     0.031 C 
ATOM     48  C   UNL A   1      47.470  24.808  26.356  1.00  0.00     0.029 A 
ATOM     49  C   UNL A   1      47.167  26.203  26.677  1.00  0.00     0.049 A 
ATOM     50  H   UNL A   1      45.345  26.984  27.313  1.00  0.00     0.167 HD
ATOM     51  C   UNL A   1      41.501  28.519  28.673  1.00  0.00     0.037 A 
ATOM     52  C   UNL A   1      48.035  27.233  26.620  1.00  0.00     0.037 A 
ATOM     53  C   UNL A   1      42.377  29.659  28.717  1.00  0.00     0.049 A 
ATOM     54  C   UNL A   1      47.583  28.618  27.005  1.00  0.00     0.074 A 
ATOM     55  C   UNL A   1      42.096  30.951  29.129  1.00  0.00     0.029 A 
ATOM     56  N   UNL A   1      43.707  29.646  28.326  1.00  0.00    -0.354 N 
ATOM     57  N   UNL A   1      46.414  29.019  27.441  1.00  0.00    -0.248 NA
ATOM     58  C   UNL A   1      48.579  29.695  26.891  1.00  0.00     0.031 C 
ATOM     59  C   UNL A   1      43.246  31.729  28.949  1.00  0.00     0.029 A 
ATOM     60  C   UNL A   1      44.253  30.911  28.464  1.00  0.00     0.049 A 
ATOM     61  H   UNL A   1      44.191  28.853  27.999  1.00  0.00     0.167 HD
ATOM     62  C   UNL A   1      46.542  30.381  27.684  1.00  0.00     0.074 A 
ATOM     63  C   UNL A   1      47.904  30.739  27.352  1.00  0.00     0.031 C 
ATOM     64  C   UNL A   1      45.614  31.255  28.143  1.00  0.00     0.037 A 
BRANCH  51  65
ATOM     65  C   UNL A   1      40.073  28.714  29.090  1.00  0.00     0.064 A 
ATOM     66  C   UNL A   1      39.665  28.524  30.417  1.00  0.00     0.173 A 
ATOM     67  C   UNL A   1      39.111  29.128  28.157  1.00  0.00     0.173 A 
ATOM     68  F   UNL A   1      40.547  28.117  31.343  1.00  0.00    -0.203 F 
ATOM     69  C   UNL A   1      38.339  28.721  30.793  1.00  0.00     0.198 A 
ATOM     70  C   UNL A   1      37.791  29.347  28.541  1.00  0.00     0.198 A 
ATOM     71  F   UNL A   1      39.453  29.328  26.875  1.00  0.00    -0.203 F 
ATOM     72  F   UNL A   1      37.963  28.497  32.060  1.00  0.00    -0.200 F 
ATOM     73  C   UNL A   1      37.405  29.137  29.857  1.00  0.00     0.200 A 
ATOM     74  F   UNL A   1      36.891  29.758  27.637  1.00  0.00    -0.200 F 
ATOM     75  F   UNL A   1      36.130  29.331  30.221  1.00  0.00    -0.200 F 
ENDBRANCH  51  65
BRANCH  52  76
ATOM     76  C   UNL A   1      49.433  26.996  26.183  1.00  0.00     0.064 A 
ATOM     77  C   UNL A   1      49.800  27.119  24.836  1.00  0.00     0.173 A 
ATOM     78  C   UNL A   1      50.425  26.614  27.099  1.00  0.00     0.173 A 
ATOM     79  F   UNL A   1      48.879  27.456  23.921  1.00  0.00    -0.203 F 
ATOM     80  C   UNL A   1      51.101  26.851  24.418  1.00  0.00     0.198 A 
ATOM     81  C   UNL A   1      51.731  26.370  26.683  1.00  0.00     0.198 A 
ATOM     82  F   UNL A   1      50.121  26.481  28.398  1.00  0.00    -0.203 F 
ATOM     83  F   UNL A   1      51.415  26.932  23.118  1.00  0.00    -0.200 F 
ATOM     84  C   UNL A   1      52.066  26.480  25.343  1.00  0.00     0.200 A 
ATOM     85  F   UNL A   1      52.663  26.021  27.581  1.00  0.00    -0.200 F 
ATOM     86  F   UNL A   1      53.318  26.221  24.940  1.00  0.00    -0.200 F 
ENDBRANCH  52  76
BRANCH  64  87
ATOM     87  C   UNL A   1      46.045  32.678  28.350  1.00  0.00     0.064 A 
ATOM     88  C   UNL A   1      45.913  33.641  27.340  1.00  0.00     0.173 A 
ATOM     89  C   UNL A   1      46.558  33.091  29.590  1.00  0.00     0.173 A 
ATOM     90  F   UNL A   1      45.441  33.292  26.134  1.00  0.00    -0.203 F 
ATOM     91  C   UNL A   1      46.301  34.961  27.556  1.00  0.00     0.198 A 
ATOM     92  C   UNL A   1      46.922  34.417  29.810  1.00  0.00     0.198 A 
ATOM     93  F   UNL A   1      46.700  32.209  30.591  1.00  0.00    -0.203 F 
ATOM     94  F   UNL A   1      46.204  35.857  26.563  1.00  0.00    -0.200 F 
ATOM     95  C   UNL A   1      46.797  35.350  28.792  1.00  0.00     0.200 A 
ATOM     96  F   UNL A   1      47.391  34.792  31.007  1.00  0.00    -0.200 F 
ATOM     97  F   UNL A   1      47.165  36.622  28.998  1.00  0.00    -0.200 F 
ENDBRANCH  64  87
ENDBRANCH  38  39
ENDBRANCH  31  33
ENDBRANCH  30  31
ENDBRANCH  29  30
ENDBRANCH  28  29
ENDBRANCH  27  28
ENDBRANCH  26  27
ENDBRANCH  25  26
ENDBRANCH   1  25
TORSDOF 22
ENDMDL
MODEL 2
REMARK VINA RESULT:     -10.4      2.022      7.611
REMARK SMILES O=C(C[C@H]1C[C@H]2CC[C@@H](C1)N2C(=O)NCCC1CC1)OCCOCCOCCOC(=O)c1ccc(-c2c3nc(c(-c4c(F)c(F)c(F)c(F)c4F)c4ccc([nH]4)c(-c4c(F)c(F)c(F)c(F)c4F)c4nc(c(-c5c(F)c(F)c(F)c(F)c5F)c5ccc2[nH]5)C=C4)C=C3)cc1
REMARK SMILES IDX 23 1 22 2 21 3 20 4 2 5 1 6 3 7 4 8 5 9 10 10 6 11 9 12 7 13
REMARK SMILES IDX 11 14 8 15 12 16 13 17 14 18 15 20 16 21 17 22 18 23 19 24
REMARK SMILES IDX 24 25 25 26 26 27 27 28 28 29 29 30 30 31 31 32 32 33 33 34
REMARK SMILES IDX 94 35 34 36 93 37 35 38 36 39 37 40 87 41 38 42 92 43 86 44
REMARK SMILES IDX 88 45 39 46 91 47 85 48 84 49 40 51 72 52 52 53 71 54 53 55
REMARK SMILES IDX 56 56 70 57 89 58 54 59 55 60 69 62 90 63 57 64 41 65 42 66
REMARK SMILES IDX 50 67 43 68 44 69 48 70 51 71 45 72 46 73 49 74 47 75 73 76
REMARK SMILES IDX 74 77 82 78 75 79 76 80 80 81 83 82 77 83 78 84 81 85 79 86
REMARK SMILES IDX 58 87 59 88 67 89 60 90 61 91 65 92 68 93 62 94 63 95 66 96
REMARK SMILES IDX 64 97
REMARK H PARENT 14 19 88 50 56 61
REMARK Flexibility Score: inf
ROOT
ATOM      1  O   UNL A   1      33.755  19.410  24.568  1.00  0.00    -0.376 OA
ENDROOT
BRANCH   1   2
ATOM      2  C   UNL A   1      32.556  20.192  24.560  1.00  0.00     0.202 C 
BRANCH   2   3
ATOM      3  C   UNL A   1      32.490  21.309  25.622  1.00  0.00     0.261 C 
BRANCH   3   4
ATOM      4  O   UNL A   1      31.147  21.811  25.697  1.00  0.00    -0.463 OA
BRANCH   4   5
ATOM      5  C   UNL A   1      30.927  23.032  26.241  1.00  0.00     0.306 C 
ATOM      6  O   UNL A   1      30.990  23.295  27.429  1.00  0.00    -0.252 OA
BRANCH   5   7
ATOM      7  C   UNL A   1      30.783  24.048  25.112  1.00  0.00     0.126 C 
BRANCH   7   8
ATOM      8  C   UNL A   1      30.794  25.508  25.635  1.00  0.00     0.004 C 
ATOM      9  C   UNL A   1      32.185  26.040  25.994  1.00  0.00     0.029 C 
ATOM     10  C   UNL A   1      30.089  26.549  24.717  1.00  0.00     0.029 C 
ATOM     11  C   UNL A   1      32.928  26.638  24.802  1.00  0.00     0.087 C 
ATOM     12  C   UNL A   1      31.016  27.358  23.745  1.00  0.00     0.087 C 
ATOM     13  C   UNL A   1      32.886  25.907  23.441  1.00  0.00     0.027 C 
ATOM     14  N   UNL A   1      32.225  27.844  24.417  1.00  0.00    -0.319 N 
ATOM     15  C   UNL A   1      31.630  26.417  22.716  1.00  0.00     0.027 C 
BRANCH  14  16
ATOM     16  C   UNL A   1      33.082  28.877  24.152  1.00  0.00     0.317 C 
ATOM     17  O   UNL A   1      33.551  29.056  23.023  1.00  0.00    -0.249 OA
ATOM     18  N   UNL A   1      33.319  29.856  25.036  1.00  0.00    -0.338 N 
ATOM     19  H   UNL A   1      33.489  30.728  24.611  1.00  0.00     0.165 HD
BRANCH  18  20
ATOM     20  C   UNL A   1      33.380  29.904  26.477  1.00  0.00     0.118 C 
BRANCH  20  21
ATOM     21  C   UNL A   1      34.585  29.130  26.996  1.00  0.00     0.025 C 
BRANCH  21  22
ATOM     22  C   UNL A   1      35.625  29.987  27.678  1.00  0.00    -0.009 C 
ATOM     23  C   UNL A   1      36.216  29.506  28.983  1.00  0.00     0.004 C 
ATOM     24  C   UNL A   1      37.101  29.662  27.785  1.00  0.00     0.004 C 
ENDBRANCH  21  22
ENDBRANCH  20  21
ENDBRANCH  18  20
ENDBRANCH  14  16
ENDBRANCH   7   8
ENDBRANCH   5   7
ENDBRANCH   4   5
ENDBRANCH   3   4
ENDBRANCH   2   3
ENDBRANCH   1   2
BRANCH   1  25
ATOM     25  C   UNL A   1      34.938  20.138  24.857  1.00  0.00     0.188 C 
BRANCH  25  26
ATOM     26  C   UNL A   1      36.210  19.284  24.868  1.00  0.00     0.188 C 
BRANCH  26  27
ATOM     27  O   UNL A   1      37.457  19.960  24.943  1.00  0.00    -0.376 OA
BRANCH  27  28
ATOM     28  C   UNL A   1      38.569  19.241  25.480  1.00  0.00     0.202 C 
BRANCH  28  29
ATOM     29  C   UNL A   1      39.902  19.986  25.649  1.00  0.00     0.261 C 
BRANCH  29  30
ATOM     30  O   UNL A   1      40.204  20.396  26.999  1.00  0.00    -0.460 OA
BRANCH  30  31
ATOM     31  C   UNL A   1      41.427  20.960  27.152  1.00  0.00     0.338 C 
ATOM     32  O   UNL A   1      42.508  20.487  26.845  1.00  0.00    -0.246 OA
BRANCH  31  33
ATOM     33  C   UNL A   1      41.338  22.309  27.732  1.00  0.00     0.060 A 
ATOM     34  C   UNL A   1      40.643  23.296  27.023  1.00  0.00     0.016 A 
ATOM     35  C   UNL A   1      42.183  22.654  28.789  1.00  0.00     0.016 A 
ATOM     36  C   UNL A   1      40.856  24.644  27.323  1.00  0.00     0.010 A 
ATOM     37  C   UNL A   1      42.394  24.005  29.088  1.00  0.00     0.010 A 
ATOM     38  C   UNL A   1      41.778  25.007  28.316  1.00  0.00    -0.014 A 
BRANCH  38  39
ATOM     39  C   UNL A   1      42.245  26.414  28.405  1.00  0.00     0.031 A 
ATOM     40  C   UNL A   1      43.556  26.793  27.762  1.00  0.00     0.074 A 
ATOM     41  C   UNL A   1      41.506  27.357  29.013  1.00  0.00     0.049 A 
ATOM     42  N   UNL A   1      44.149  27.960  27.705  1.00  0.00    -0.248 NA
ATOM     43  C   UNL A   1      44.297  25.711  27.095  1.00  0.00     0.031 C 
ATOM     44  C   UNL A   1      40.209  27.134  29.645  1.00  0.00     0.029 A 
ATOM     45  N   UNL A   1      41.748  28.696  29.195  1.00  0.00    -0.354 N 
ATOM     46  C   UNL A   1      45.324  27.754  26.993  1.00  0.00     0.074 A 
ATOM     47  C   UNL A   1      45.380  26.345  26.670  1.00  0.00     0.031 C 
ATOM     48  C   UNL A   1      39.768  28.299  30.152  1.00  0.00     0.029 A 
ATOM     49  C   UNL A   1      40.761  29.342  29.896  1.00  0.00     0.049 A 
ATOM     50  H   UNL A   1      42.553  29.150  28.855  1.00  0.00     0.167 HD
ATOM     51  C   UNL A   1      46.266  28.657  26.629  1.00  0.00     0.037 A 
ATOM     52  C   UNL A   1      40.676  30.628  30.293  1.00  0.00     0.037 A 
ATOM     53  C   UNL A   1      46.221  30.059  26.943  1.00  0.00     0.049 A 
ATOM     54  C   UNL A   1      41.771  31.599  29.934  1.00  0.00     0.074 A 
ATOM     55  C   UNL A   1      47.121  31.053  26.596  1.00  0.00     0.029 A 
ATOM     56  N   UNL A   1      45.222  30.669  27.688  1.00  0.00    -0.354 N 
ATOM     57  N   UNL A   1      42.857  31.401  29.229  1.00  0.00    -0.248 NA
ATOM     58  C   UNL A   1      41.622  32.977  30.426  1.00  0.00     0.031 C 
ATOM     59  C   UNL A   1      46.687  32.256  27.165  1.00  0.00     0.029 A 
ATOM     60  C   UNL A   1      45.496  32.019  27.831  1.00  0.00     0.049 A 
ATOM     61  H   UNL A   1      44.435  30.208  28.058  1.00  0.00     0.167 HD
ATOM     62  C   UNL A   1      43.502  32.630  29.165  1.00  0.00     0.074 A 
ATOM     63  C   UNL A   1      42.683  33.571  29.898  1.00  0.00     0.031 C 
ATOM     64  C   UNL A   1      44.668  32.950  28.552  1.00  0.00     0.037 A 
BRANCH  51  65
ATOM     65  C   UNL A   1      47.443  28.148  25.850  1.00  0.00     0.064 A 
ATOM     66  C   UNL A   1      48.667  27.865  26.474  1.00  0.00     0.173 A 
ATOM     67  C   UNL A   1      47.335  27.909  24.473  1.00  0.00     0.173 A 
ATOM     68  F   UNL A   1      48.822  28.088  27.788  1.00  0.00    -0.203 F 
ATOM     69  C   UNL A   1      49.747  27.380  25.742  1.00  0.00     0.198 A 
ATOM     70  C   UNL A   1      48.410  27.402  23.749  1.00  0.00     0.198 A 
ATOM     71  F   UNL A   1      46.184  28.159  23.831  1.00  0.00    -0.203 F 
ATOM     72  F   UNL A   1      50.919  27.152  26.351  1.00  0.00    -0.200 F 
ATOM     73  C   UNL A   1      49.617  27.144  24.382  1.00  0.00     0.200 A 
ATOM     74  F   UNL A   1      48.280  27.165  22.436  1.00  0.00    -0.200 F 
ATOM     75  F   UNL A   1      50.656  26.673  23.680  1.00  0.00    -0.200 F 
ENDBRANCH  51  65
BRANCH  52  76
ATOM     76  C   UNL A   1      39.502  31.082  31.079  1.00  0.00     0.064 A 
ATOM     77  C   UNL A   1      39.374  30.760  32.437  1.00  0.00     0.173 A 
ATOM     78  C   UNL A   1      38.470  31.819  30.480  1.00  0.00     0.173 A 
ATOM     79  F   UNL A   1      40.323  30.034  33.045  1.00  0.00    -0.203 F 
ATOM     80  C   UNL A   1      38.249  31.146  33.164  1.00  0.00     0.198 A 
ATOM     81  C   UNL A   1      37.358  32.224  31.214  1.00  0.00     0.198 A 
ATOM     82  F   UNL A   1      38.546  32.148  29.183  1.00  0.00    -0.203 F 
ATOM     83  F   UNL A   1      38.130  30.788  34.449  1.00  0.00    -0.200 F 
ATOM     84  C   UNL A   1      37.244  31.880  32.552  1.00  0.00     0.200 A 
ATOM     85  F   UNL A   1      36.393  32.942  30.622  1.00  0.00    -0.200 F 
ATOM     86  F   UNL A   1      36.162  32.250  33.251  1.00  0.00    -0.200 F 
ENDBRANCH  52  76
BRANCH  64  87
ATOM     87  C   UNL A   1      45.112  34.382  28.613  1.00  0.00     0.064 A 
ATOM     88  C   UNL A   1      44.685  35.325  27.669  1.00  0.00     0.173 A 
ATOM     89  C   UNL A   1      45.943  34.824  29.655  1.00  0.00     0.173 A 
ATOM     90  F   UNL A   1      43.902  34.949  26.646  1.00  0.00    -0.203 F 
ATOM     91  C   UNL A   1      45.091  36.655  27.751  1.00  0.00     0.198 A 
ATOM     92  C   UNL A   1      46.327  36.160  29.748  1.00  0.00     0.198 A 
ATOM     93  F   UNL A   1      46.375  33.962  30.588  1.00  0.00    -0.203 F 
ATOM     94  F   UNL A   1      44.704  37.531  26.813  1.00  0.00    -0.200 F 
ATOM     95  C   UNL A   1      45.905  37.072  28.794  1.00  0.00     0.200 A 
ATOM     96  F   UNL A   1      47.104  36.563  30.762  1.00  0.00    -0.200 F 
ATOM     97  F   UNL A   1      46.291  38.353  28.874  1.00  0.00    -0.200 F 
ENDBRANCH  64  87
ENDBRANCH  38  39
ENDBRANCH  31  33
ENDBRANCH  30  31
ENDBRANCH  29  30
ENDBRANCH  28  29
ENDBRANCH  27  28
ENDBRANCH  26  27
ENDBRANCH  25  26
ENDBRANCH   1  25
TORSDOF 22
ENDMDL
MODEL 3
REMARK VINA RESULT:     -10.3      1.022      2.156
REMARK SMILES O=C(C[C@H]1C[C@H]2CC[C@@H](C1)N2C(=O)NCCC1CC1)OCCOCCOCCOC(=O)c1ccc(-c2c3nc(c(-c4c(F)c(F)c(F)c(F)c4F)c4ccc([nH]4)c(-c4c(F)c(F)c(F)c(F)c4F)c4nc(c(-c5c(F)c(F)c(F)c(F)c5F)c5ccc2[nH]5)C=C4)C=C3)cc1
REMARK SMILES IDX 23 1 22 2 21 3 20 4 2 5 1 6 3 7 4 8 5 9 10 10 6 11 9 12 7 13
REMARK SMILES IDX 11 14 8 15 12 16 13 17 14 18 15 20 16 21 17 22 18 23 19 24
REMARK SMILES IDX 24 25 25 26 26 27 27 28 28 29 29 30 30 31 31 32 32 33 33 34
REMARK SMILES IDX 94 35 34 36 93 37 35 38 36 39 37 40 87 41 38 42 92 43 86 44
REMARK SMILES IDX 88 45 39 46 91 47 85 48 84 49 40 51 72 52 52 53 71 54 53 55
REMARK SMILES IDX 56 56 70 57 89 58 54 59 55 60 69 62 90 63 57 64 41 65 42 66
REMARK SMILES IDX 50 67 43 68 44 69 48 70 51 71 45 72 46 73 49 74 47 75 73 76
REMARK SMILES IDX 74 77 82 78 75 79 76 80 80 81 83 82 77 83 78 84 81 85 79 86
REMARK SMILES IDX 58 87 59 88 67 89 60 90 61 91 65 92 68 93 62 94 63 95 66 96
REMARK SMILES IDX 64 97
REMARK H PARENT 14 19 88 50 56 61
REMARK Flexibility Score: inf
ROOT
ATOM      1  O   UNL A   1      34.968  21.277  25.831  1.00  0.00    -0.376 OA
ENDROOT
BRANCH   1   2
ATOM      2  C   UNL A   1      34.849  22.185  26.932  1.00  0.00     0.202 C 
BRANCH   2   3
ATOM      3  C   UNL A   1      33.596  23.084  26.912  1.00  0.00     0.261 C 
BRANCH   3   4
ATOM      4  O   UNL A   1      32.442  22.279  26.626  1.00  0.00    -0.463 OA
BRANCH   4   5
ATOM      5  C   UNL A   1      31.254  22.887  26.394  1.00  0.00     0.306 C 
ATOM      6  O   UNL A   1      30.479  23.270  27.253  1.00  0.00    -0.252 OA
BRANCH   5   7
ATOM      7  C   UNL A   1      31.143  23.183  24.901  1.00  0.00     0.126 C 
BRANCH   7   8
ATOM      8  C   UNL A   1      30.525  24.578  24.627  1.00  0.00     0.004 C 
ATOM      9  C   UNL A   1      31.205  25.729  25.375  1.00  0.00     0.029 C 
ATOM     10  C   UNL A   1      30.406  24.969  23.124  1.00  0.00     0.029 C 
ATOM     11  C   UNL A   1      32.412  26.301  24.634  1.00  0.00     0.087 C 
ATOM     12  C   UNL A   1      31.562  25.855  22.543  1.00  0.00     0.087 C 
ATOM     13  C   UNL A   1      33.411  25.336  23.959  1.00  0.00     0.027 C 
ATOM     14  N   UNL A   1      31.914  26.958  23.444  1.00  0.00    -0.319 N 
ATOM     15  C   UNL A   1      32.866  25.069  22.547  1.00  0.00     0.027 C 
BRANCH  14  16
ATOM     16  C   UNL A   1      32.512  28.170  23.236  1.00  0.00     0.317 C 
ATOM     17  O   UNL A   1      33.553  28.274  22.577  1.00  0.00    -0.249 OA
ATOM     18  N   UNL A   1      31.923  29.327  23.568  1.00  0.00    -0.338 N 
ATOM     19  H   UNL A   1      32.150  30.066  22.958  1.00  0.00     0.165 HD
BRANCH  18  20
ATOM     20  C   UNL A   1      31.028  29.721  24.628  1.00  0.00     0.118 C 
BRANCH  20  21
ATOM     21  C   UNL A   1      31.792  30.388  25.765  1.00  0.00     0.025 C 
BRANCH  21  22
ATOM     22  C   UNL A   1      33.135  29.764  26.059  1.00  0.00    -0.009 C 
ATOM     23  C   UNL A   1      33.923  30.268  27.245  1.00  0.00     0.004 C 
ATOM     24  C   UNL A   1      33.445  28.850  27.227  1.00  0.00     0.004 C 
ENDBRANCH  21  22
ENDBRANCH  20  21
ENDBRANCH  18  20
ENDBRANCH  14  16
ENDBRANCH   7   8
ENDBRANCH   5   7
ENDBRANCH   4   5
ENDBRANCH   3   4
ENDBRANCH   2   3
ENDBRANCH   1   2
BRANCH   1  25
ATOM     25  C   UNL A   1      35.183  21.893  24.571  1.00  0.00     0.188 C 
BRANCH  25  26
ATOM     26  C   UNL A   1      36.440  22.767  24.510  1.00  0.00     0.188 C 
BRANCH  26  27
ATOM     27  O   UNL A   1      37.428  22.570  25.511  1.00  0.00    -0.376 OA
BRANCH  27  28
ATOM     28  C   UNL A   1      38.292  21.439  25.376  1.00  0.00     0.202 C 
BRANCH  28  29
ATOM     29  C   UNL A   1      39.635  21.459  26.121  1.00  0.00     0.261 C 
BRANCH  29  30
ATOM     30  O   UNL A   1      40.035  20.194  26.691  1.00  0.00    -0.460 OA
BRANCH  30  31
ATOM     31  C   UNL A   1      41.254  19.762  26.289  1.00  0.00     0.338 C 
ATOM     32  O   UNL A   1      41.528  18.704  25.750  1.00  0.00    -0.246 OA
BRANCH  31  33
ATOM     33  C   UNL A   1      42.301  20.764  26.545  1.00  0.00     0.060 A 
ATOM     34  C   UNL A   1      42.442  21.266  27.845  1.00  0.00     0.016 A 
ATOM     35  C   UNL A   1      42.908  21.408  25.464  1.00  0.00     0.016 A 
ATOM     36  C   UNL A   1      43.130  22.463  28.054  1.00  0.00     0.010 A 
ATOM     37  C   UNL A   1      43.597  22.608  25.677  1.00  0.00     0.010 A 
ATOM     38  C   UNL A   1      43.658  23.171  26.964  1.00  0.00    -0.014 A 
BRANCH  38  39
ATOM     39  C   UNL A   1      44.087  24.582  27.144  1.00  0.00     0.031 A 
ATOM     40  C   UNL A   1      43.067  25.611  27.565  1.00  0.00     0.074 A 
ATOM     41  C   UNL A   1      45.368  24.948  26.973  1.00  0.00     0.049 A 
ATOM     42  N   UNL A   1      43.222  26.892  27.794  1.00  0.00    -0.248 NA
ATOM     43  C   UNL A   1      41.690  25.129  27.756  1.00  0.00     0.031 C 
ATOM     44  C   UNL A   1      46.459  24.052  26.597  1.00  0.00     0.029 A 
ATOM     45  N   UNL A   1      45.966  26.178  27.095  1.00  0.00    -0.354 N 
ATOM     46  C   UNL A   1      41.968  27.365  28.159  1.00  0.00     0.074 A 
ATOM     47  C   UNL A   1      41.056  26.245  28.088  1.00  0.00     0.031 C 
ATOM     48  C   UNL A   1      47.596  24.765  26.516  1.00  0.00     0.029 A 
ATOM     49  C   UNL A   1      47.309  26.168  26.813  1.00  0.00     0.049 A 
ATOM     50  H   UNL A   1      45.477  26.991  27.360  1.00  0.00     0.167 HD
ATOM     51  C   UNL A   1      41.609  28.616  28.533  1.00  0.00     0.037 A 
ATOM     52  C   UNL A   1      48.200  27.179  26.789  1.00  0.00     0.037 A 
ATOM     53  C   UNL A   1      42.505  29.738  28.609  1.00  0.00     0.049 A 
ATOM     54  C   UNL A   1      47.761  28.576  27.143  1.00  0.00     0.074 A 
ATOM     55  C   UNL A   1      42.233  31.038  28.999  1.00  0.00     0.029 A 
ATOM     56  N   UNL A   1      43.851  29.694  28.279  1.00  0.00    -0.354 N 
ATOM     57  N   UNL A   1      46.582  29.004  27.523  1.00  0.00    -0.248 NA
ATOM     58  C   UNL A   1      48.783  29.631  27.067  1.00  0.00     0.031 C 
ATOM     59  C   UNL A   1      43.406  31.791  28.867  1.00  0.00     0.029 A 
ATOM     60  C   UNL A   1      44.417  30.949  28.434  1.00  0.00     0.049 A 
ATOM     61  H   UNL A   1      44.333  28.889  27.980  1.00  0.00     0.167 HD
ATOM     62  C   UNL A   1      46.727  30.365  27.762  1.00  0.00     0.074 A 
ATOM     63  C   UNL A   1      48.110  30.693  27.491  1.00  0.00     0.031 C 
ATOM     64  C   UNL A   1      45.798  31.262  28.172  1.00  0.00     0.037 A 
BRANCH  51  65
ATOM     65  C   UNL A   1      40.167  28.844  28.883  1.00  0.00     0.064 A 
ATOM     66  C   UNL A   1      39.708  28.734  30.203  1.00  0.00     0.173 A 
ATOM     67  C   UNL A   1      39.245  29.208  27.892  1.00  0.00     0.173 A 
ATOM     68  F   UNL A   1      40.551  28.377  31.183  1.00  0.00    -0.203 F 
ATOM     69  C   UNL A   1      38.370  28.962  30.516  1.00  0.00     0.198 A 
ATOM     70  C   UNL A   1      37.913  29.458  28.212  1.00  0.00     0.198 A 
ATOM     71  F   UNL A   1      39.636  29.331  26.614  1.00  0.00    -0.203 F 
ATOM     72  F   UNL A   1      37.944  28.814  31.778  1.00  0.00    -0.200 F 
ATOM     73  C   UNL A   1      37.476  29.328  29.522  1.00  0.00     0.200 A 
ATOM     74  F   UNL A   1      37.051  29.821  27.252  1.00  0.00    -0.200 F 
ATOM     75  F   UNL A   1      36.189  29.550  29.825  1.00  0.00    -0.200 F 
ENDBRANCH  51  65
BRANCH  52  76
ATOM     76  C   UNL A   1      49.611  26.910  26.417  1.00  0.00     0.064 A 
ATOM     77  C   UNL A   1      50.576  26.636  27.396  1.00  0.00     0.173 A 
ATOM     78  C   UNL A   1      50.030  26.952  25.079  1.00  0.00     0.173 A 
ATOM     79  F   UNL A   1      50.227  26.612  28.691  1.00  0.00    -0.203 F 
ATOM     80  C   UNL A   1      51.911  26.430  27.052  1.00  0.00     0.198 A 
ATOM     81  C   UNL A   1      51.360  26.722  24.735  1.00  0.00     0.198 A 
ATOM     82  F   UNL A   1      49.143  27.213  24.108  1.00  0.00    -0.203 F 
ATOM     83  F   UNL A   1      52.821  26.214  28.011  1.00  0.00    -0.200 F 
ATOM     84  C   UNL A   1      52.300  26.470  25.722  1.00  0.00     0.200 A 
ATOM     85  F   UNL A   1      51.730  26.752  23.447  1.00  0.00    -0.200 F 
ATOM     86  F   UNL A   1      53.584  26.273  25.391  1.00  0.00    -0.200 F 
ENDBRANCH  52  76
BRANCH  64  87
ATOM     87  C   UNL A   1      46.249  32.677  28.389  1.00  0.00     0.064 A 
ATOM     88  C   UNL A   1      46.742  33.110  29.628  1.00  0.00     0.173 A 
ATOM     89  C   UNL A   1      46.227  33.600  27.332  1.00  0.00     0.173 A 
ATOM     90  F   UNL A   1      46.771  32.269  30.673  1.00  0.00    -0.203 F 
ATOM     91  C   UNL A   1      47.176  34.421  29.807  1.00  0.00     0.198 A 
ATOM     92  C   UNL A   1      46.684  34.904  27.507  1.00  0.00     0.198 A 
ATOM     93  F   UNL A   1      45.769  33.234  26.125  1.00  0.00    -0.203 F 
ATOM     94  F   UNL A   1      47.605  34.825  31.011  1.00  0.00    -0.200 F 
ATOM     95  C   UNL A   1      47.153  35.314  28.745  1.00  0.00     0.200 A 
ATOM     96  F   UNL A   1      46.670  35.761  26.479  1.00  0.00    -0.200 F 
ATOM     97  F   UNL A   1      47.574  36.575  28.919  1.00  0.00    -0.200 F 
ENDBRANCH  64  87
ENDBRANCH  38  39
ENDBRANCH  31  33
ENDBRANCH  30  31
ENDBRANCH  29  30
ENDBRANCH  28  29
ENDBRANCH  27  28
ENDBRANCH  26  27
ENDBRANCH  25  26
ENDBRANCH   1  25
TORSDOF 22
ENDMDL
