MODEL 1
REMARK VINA RESULT:      -9.9      0.000      0.000
REMARK SMILES CNC(=O)NC(=O)CC[N@@H+](C)CC(=O)OCCOCCOCCOC(=O)c1ccc(-c2c3nc(c(-c4c(F)c(F)c(F)c(F)c4F)c4ccc([nH]4)c(-c4c(F)c(F)c(F)c(F)c4F)c4nc(c(-c5c(F)c(F)c(F)c(F)c5F)c5ccc2[nH]5)C=C4)C=C3)cc1
REMARK SMILES IDX 19 1 18 2 17 3 16 4 15 5 13 6 14 7 12 8 10 9 11 10 9 12 8 13
REMARK SMILES IDX 6 14 1 15 2 16 3 17 4 19 5 20 7 22 20 23 21 24 22 25 23 26
REMARK SMILES IDX 24 27 25 28 26 29 27 30 28 31 89 32 29 33 88 34 30 35 31 36
REMARK SMILES IDX 32 37 82 38 33 39 87 40 81 41 83 42 34 43 86 44 80 45 79 46
REMARK SMILES IDX 35 48 67 49 47 50 66 51 48 52 51 53 65 54 84 55 49 56 50 57
REMARK SMILES IDX 64 59 85 60 52 61 36 62 37 63 45 64 38 65 39 66 43 67 46 68
REMARK SMILES IDX 40 69 41 70 44 71 42 72 68 73 69 74 77 75 70 76 71 77 75 78
REMARK SMILES IDX 78 79 72 80 73 81 76 82 74 83 53 84 54 85 62 86 55 87 56 88
REMARK SMILES IDX 60 89 63 90 57 91 58 92 61 93 59 94
REMARK H PARENT 10 11 2 18 5 21 83 47 51 58
REMARK Flexibility Score: inf
ROOT
ATOM      1  C   UNL A   1      30.284  27.867  22.531  1.00  0.00     0.188 C 
ENDROOT
BRANCH   1   2
ATOM      2  O   UNL A   1      29.076  27.457  23.158  1.00  0.00    -0.376 OA
BRANCH   2   3
ATOM      3  C   UNL A   1      29.178  26.331  24.023  1.00  0.00     0.202 C 
BRANCH   3   4
ATOM      4  C   UNL A   1      30.512  25.570  24.009  1.00  0.00     0.261 C 
BRANCH   4   5
ATOM      5  O   UNL A   1      31.247  25.585  25.254  1.00  0.00    -0.459 OA
BRANCH   5   6
ATOM      6  C   UNL A   1      31.360  24.378  25.868  1.00  0.00     0.361 C 
ATOM      7  O   UNL A   1      31.436  24.243  27.090  1.00  0.00    -0.245 OA
BRANCH   6   8
ATOM      8  C   UNL A   1      31.324  23.140  24.977  1.00  0.00     0.386 C 
BRANCH   8   9
ATOM      9  N   UNL A   1      32.543  22.495  24.434  1.00  0.00    -0.328 N 
ATOM     10  C   UNL A   1      33.143  21.537  25.353  1.00  0.00     0.333 C 
ATOM     11  H   UNL A   1      32.171  21.971  23.642  1.00  0.00     0.348 HD
BRANCH   9  12
ATOM     12  C   UNL A   1      33.533  23.367  23.803  1.00  0.00     0.272 C 
BRANCH  12  13
ATOM     13  C   UNL A   1      34.981  23.283  24.298  1.00  0.00     0.161 C 
BRANCH  13  14
ATOM     14  C   UNL A   1      35.361  24.089  25.504  1.00  0.00     0.233 C 
ATOM     15  C   UNL A   1      37.239  21.060  24.957  1.00  0.00     0.144 C 
ATOM     16  N   UNL A   1      37.948  22.309  25.098  1.00  0.00    -0.341 N 
ATOM     17  C   UNL A   1      37.675  23.414  25.817  1.00  0.00     0.321 C 
ATOM     18  H   UNL A   1      38.780  22.361  24.576  1.00  0.00     0.165 HD
ATOM     19  O   UNL A   1      38.588  24.203  26.062  1.00  0.00    -0.248 OA
ATOM     20  N   UNL A   1      36.425  23.680  26.275  1.00  0.00    -0.278 N 
ATOM     21  H   UNL A   1      36.266  23.572  27.240  1.00  0.00     0.174 HD
ATOM     22  O   UNL A   1      34.728  25.105  25.805  1.00  0.00    -0.274 OA
ENDBRANCH  13  14
ENDBRANCH  12  13
ENDBRANCH   9  12
ENDBRANCH   8   9
ENDBRANCH   6   8
ENDBRANCH   5   6
ENDBRANCH   4   5
ENDBRANCH   3   4
ENDBRANCH   2   3
ENDBRANCH   1   2
BRANCH   1  23
ATOM     23  C   UNL A   1      30.810  29.249  22.923  1.00  0.00     0.188 C 
BRANCH  23  24
ATOM     24  O   UNL A   1      30.517  29.675  24.252  1.00  0.00    -0.376 OA
BRANCH  24  25
ATOM     25  C   UNL A   1      31.407  29.163  25.254  1.00  0.00     0.202 C 
BRANCH  25  26
ATOM     26  C   UNL A   1      32.610  30.059  25.628  1.00  0.00     0.261 C 
BRANCH  26  27
ATOM     27  O   UNL A   1      32.670  30.459  27.021  1.00  0.00    -0.460 OA
BRANCH  27  28
ATOM     28  C   UNL A   1      33.306  31.618  27.287  1.00  0.00     0.338 C 
ATOM     29  O   UNL A   1      32.789  32.729  27.360  1.00  0.00    -0.246 OA
BRANCH  28  30
ATOM     30  C   UNL A   1      34.674  31.348  27.787  1.00  0.00     0.060 A 
ATOM     31  C   UNL A   1      34.947  30.028  28.142  1.00  0.00     0.016 A 
ATOM     32  C   UNL A   1      35.656  32.313  27.974  1.00  0.00     0.016 A 
ATOM     33  C   UNL A   1      36.136  29.657  28.757  1.00  0.00     0.010 A 
ATOM     34  C   UNL A   1      36.875  31.943  28.578  1.00  0.00     0.010 A 
ATOM     35  C   UNL A   1      37.110  30.619  29.016  1.00  0.00    -0.014 A 
BRANCH  35  36
ATOM     36  C   UNL A   1      38.265  30.261  29.893  1.00  0.00     0.031 A 
ATOM     37  C   UNL A   1      39.352  29.379  29.332  1.00  0.00     0.074 A 
ATOM     38  C   UNL A   1      38.438  30.797  31.119  1.00  0.00     0.049 A 
ATOM     39  N   UNL A   1      40.364  28.805  29.935  1.00  0.00    -0.248 NA
ATOM     40  C   UNL A   1      39.291  29.116  27.885  1.00  0.00     0.031 C 
ATOM     41  C   UNL A   1      37.569  31.793  31.744  1.00  0.00     0.029 A 
ATOM     42  N   UNL A   1      39.424  30.583  32.057  1.00  0.00    -0.354 N 
ATOM     43  C   UNL A   1      41.021  28.073  28.955  1.00  0.00     0.074 A 
ATOM     44  C   UNL A   1      40.296  28.270  27.719  1.00  0.00     0.031 C 
ATOM     45  C   UNL A   1      38.061  32.109  32.955  1.00  0.00     0.029 A 
ATOM     46  C   UNL A   1      39.229  31.277  33.229  1.00  0.00     0.049 A 
ATOM     47  H   UNL A   1      40.194  29.990  31.904  1.00  0.00     0.167 HD
ATOM     48  C   UNL A   1      42.130  27.303  29.074  1.00  0.00     0.037 A 
ATOM     49  C   UNL A   1      39.884  31.211  34.407  1.00  0.00     0.037 A 
ATOM     50  C   UNL A   1      42.879  27.145  30.293  1.00  0.00     0.049 A 
ATOM     51  C   UNL A   1      41.040  30.252  34.555  1.00  0.00     0.074 A 
ATOM     52  C   UNL A   1      43.998  26.363  30.525  1.00  0.00     0.029 A 
ATOM     53  N   UNL A   1      42.593  27.793  31.485  1.00  0.00    -0.354 N 
ATOM     54  N   UNL A   1      41.600  29.482  33.655  1.00  0.00    -0.248 NA
ATOM     55  C   UNL A   1      41.641  30.142  35.893  1.00  0.00     0.031 C 
ATOM     56  C   UNL A   1      44.353  26.496  31.870  1.00  0.00     0.029 A 
ATOM     57  C   UNL A   1      43.498  27.411  32.462  1.00  0.00     0.049 A 
ATOM     58  H   UNL A   1      41.854  28.432  31.617  1.00  0.00     0.167 HD
ATOM     59  C   UNL A   1      42.634  28.820  34.307  1.00  0.00     0.074 A 
ATOM     60  C   UNL A   1      42.634  29.292  35.675  1.00  0.00     0.031 C 
ATOM     61  C   UNL A   1      43.501  27.899  33.818  1.00  0.00     0.037 A 
BRANCH  48  62
ATOM     62  C   UNL A   1      42.558  26.516  27.868  1.00  0.00     0.064 A 
ATOM     63  C   UNL A   1      43.510  26.997  26.957  1.00  0.00     0.173 A 
ATOM     64  C   UNL A   1      42.002  25.249  27.628  1.00  0.00     0.173 A 
ATOM     65  F   UNL A   1      44.057  28.209  27.128  1.00  0.00    -0.203 F 
ATOM     66  C   UNL A   1      43.864  26.252  25.832  1.00  0.00     0.198 A 
ATOM     67  C   UNL A   1      42.384  24.494  26.524  1.00  0.00     0.198 A 
ATOM     68  F   UNL A   1      41.089  24.741  28.469  1.00  0.00    -0.203 F 
ATOM     69  F   UNL A   1      44.728  26.757  24.942  1.00  0.00    -0.200 F 
ATOM     70  C   UNL A   1      43.306  25.000  25.621  1.00  0.00     0.200 A 
ATOM     71  F   UNL A   1      41.852  23.279  26.329  1.00  0.00    -0.200 F 
ATOM     72  F   UNL A   1      43.648  24.286  24.540  1.00  0.00    -0.200 F 
ENDBRANCH  48  62
BRANCH  49  73
ATOM     73  C   UNL A   1      39.422  32.018  35.572  1.00  0.00     0.064 A 
ATOM     74  C   UNL A   1      39.947  33.293  35.831  1.00  0.00     0.173 A 
ATOM     75  C   UNL A   1      38.486  31.505  36.485  1.00  0.00     0.173 A 
ATOM     76  F   UNL A   1      40.874  33.813  35.014  1.00  0.00    -0.203 F 
ATOM     77  C   UNL A   1      39.568  34.013  36.964  1.00  0.00     0.198 A 
ATOM     78  C   UNL A   1      38.080  32.241  37.596  1.00  0.00     0.198 A 
ATOM     79  F   UNL A   1      37.964  30.284  36.298  1.00  0.00    -0.203 F 
ATOM     80  F   UNL A   1      40.135  35.199  37.221  1.00  0.00    -0.200 F 
ATOM     81  C   UNL A   1      38.629  33.490  37.841  1.00  0.00     0.200 A 
ATOM     82  F   UNL A   1      37.169  31.733  38.438  1.00  0.00    -0.200 F 
ATOM     83  F   UNL A   1      38.270  34.180  38.932  1.00  0.00    -0.200 F 
ENDBRANCH  49  73
BRANCH  61  84
ATOM     84  C   UNL A   1      44.560  27.378  34.748  1.00  0.00     0.064 A 
ATOM     85  C   UNL A   1      45.802  28.015  34.887  1.00  0.00     0.173 A 
ATOM     86  C   UNL A   1      44.312  26.247  35.540  1.00  0.00     0.173 A 
ATOM     87  F   UNL A   1      46.097  29.091  34.144  1.00  0.00    -0.203 F 
ATOM     88  C   UNL A   1      46.766  27.521  35.764  1.00  0.00     0.198 A 
ATOM     89  C   UNL A   1      45.264  25.777  36.441  1.00  0.00     0.198 A 
ATOM     90  F   UNL A   1      43.137  25.604  35.454  1.00  0.00    -0.203 F 
ATOM     91  F   UNL A   1      47.965  28.114  35.841  1.00  0.00    -0.200 F 
ATOM     92  C   UNL A   1      46.493  26.408  36.545  1.00  0.00     0.200 A 
ATOM     93  F   UNL A   1      44.990  24.712  37.208  1.00  0.00    -0.200 F 
ATOM     94  F   UNL A   1      47.418  25.940  37.394  1.00  0.00    -0.200 F 
ENDBRANCH  61  84
ENDBRANCH  35  36
ENDBRANCH  28  30
ENDBRANCH  27  28
ENDBRANCH  26  27
ENDBRANCH  25  26
ENDBRANCH  24  25
ENDBRANCH  23  24
ENDBRANCH   1  23
TORSDOF 21
ENDMDL
MODEL 2
REMARK VINA RESULT:      -9.8      4.197      9.797
REMARK SMILES CNC(=O)NC(=O)CC[N@@H+](C)CC(=O)OCCOCCOCCOC(=O)c1ccc(-c2c3nc(c(-c4c(F)c(F)c(F)c(F)c4F)c4ccc([nH]4)c(-c4c(F)c(F)c(F)c(F)c4F)c4nc(c(-c5c(F)c(F)c(F)c(F)c5F)c5ccc2[nH]5)C=C4)C=C3)cc1
REMARK SMILES IDX 19 1 18 2 17 3 16 4 15 5 13 6 14 7 12 8 10 9 11 10 9 12 8 13
REMARK SMILES IDX 6 14 1 15 2 16 3 17 4 19 5 20 7 22 20 23 21 24 22 25 23 26
REMARK SMILES IDX 24 27 25 28 26 29 27 30 28 31 89 32 29 33 88 34 30 35 31 36
REMARK SMILES IDX 32 37 82 38 33 39 87 40 81 41 83 42 34 43 86 44 80 45 79 46
REMARK SMILES IDX 35 48 67 49 47 50 66 51 48 52 51 53 65 54 84 55 49 56 50 57
REMARK SMILES IDX 64 59 85 60 52 61 36 62 37 63 45 64 38 65 39 66 43 67 46 68
REMARK SMILES IDX 40 69 41 70 44 71 42 72 68 73 69 74 77 75 70 76 71 77 75 78
REMARK SMILES IDX 78 79 72 80 73 81 76 82 74 83 53 84 54 85 62 86 55 87 56 88
REMARK SMILES IDX 60 89 63 90 57 91 58 92 61 93 59 94
REMARK H PARENT 10 11 2 18 5 21 83 47 51 58
REMARK Flexibility Score: inf
ROOT
ATOM      1  C   UNL A   1      34.115  23.506  25.940  1.00  0.00     0.188 C 
ENDROOT
BRANCH   1   2
ATOM      2  O   UNL A   1      33.111  23.645  26.936  1.00  0.00    -0.376 OA
BRANCH   2   3
ATOM      3  C   UNL A   1      31.915  22.904  26.719  1.00  0.00     0.202 C 
BRANCH   3   4
ATOM      4  C   UNL A   1      30.639  23.718  26.459  1.00  0.00     0.261 C 
BRANCH   4   5
ATOM      5  O   UNL A   1      30.547  24.325  25.150  1.00  0.00    -0.459 OA
BRANCH   5   6
ATOM      6  C   UNL A   1      30.158  25.627  25.147  1.00  0.00     0.361 C 
ATOM      7  O   UNL A   1      30.375  26.402  26.079  1.00  0.00    -0.245 OA
BRANCH   6   8
ATOM      8  C   UNL A   1      29.475  26.144  23.885  1.00  0.00     0.386 C 
BRANCH   8   9
ATOM      9  N   UNL A   1      29.447  27.577  23.504  1.00  0.00    -0.328 N 
ATOM     10  C   UNL A   1      28.118  28.047  23.138  1.00  0.00     0.333 C 
ATOM     11  H   UNL A   1      29.705  28.034  24.378  1.00  0.00     0.348 HD
BRANCH   9  12
ATOM     12  C   UNL A   1      30.483  28.040  22.583  1.00  0.00     0.272 C 
BRANCH  12  13
ATOM     13  C   UNL A   1      31.577  28.959  23.137  1.00  0.00     0.161 C 
BRANCH  13  14
ATOM     14  C   UNL A   1      31.510  29.339  24.586  1.00  0.00     0.233 C 
ATOM     15  C   UNL A   1      33.444  26.399  23.799  1.00  0.00     0.144 C 
ATOM     16  N   UNL A   1      34.064  27.467  24.546  1.00  0.00    -0.341 N 
ATOM     17  C   UNL A   1      33.560  28.346  25.434  1.00  0.00     0.321 C 
ATOM     18  H   UNL A   1      35.027  27.572  24.376  1.00  0.00     0.165 HD
ATOM     19  O   UNL A   1      34.331  28.923  26.201  1.00  0.00    -0.248 OA
ATOM     20  N   UNL A   1      32.230  28.609  25.504  1.00  0.00    -0.278 N 
ATOM     21  H   UNL A   1      31.739  28.249  26.278  1.00  0.00     0.174 HD
ATOM     22  O   UNL A   1      30.817  30.291  24.954  1.00  0.00    -0.274 OA
ENDBRANCH  13  14
ENDBRANCH  12  13
ENDBRANCH   9  12
ENDBRANCH   8   9
ENDBRANCH   6   8
ENDBRANCH   5   6
ENDBRANCH   4   5
ENDBRANCH   3   4
ENDBRANCH   2   3
ENDBRANCH   1   2
BRANCH   1  23
ATOM     23  C   UNL A   1      33.721  22.708  24.696  1.00  0.00     0.188 C 
BRANCH  23  24
ATOM     24  O   UNL A   1      34.220  21.375  24.624  1.00  0.00    -0.376 OA
BRANCH  24  25
ATOM     25  C   UNL A   1      35.254  21.071  25.571  1.00  0.00     0.202 C 
BRANCH  25  26
ATOM     26  C   UNL A   1      36.621  20.649  24.985  1.00  0.00     0.261 C 
BRANCH  26  27
ATOM     27  O   UNL A   1      37.684  21.625  25.135  1.00  0.00    -0.460 OA
BRANCH  27  28
ATOM     28  C   UNL A   1      38.768  21.230  25.834  1.00  0.00     0.338 C 
ATOM     29  O   UNL A   1      39.325  20.139  25.754  1.00  0.00    -0.246 OA
BRANCH  28  30
ATOM     30  C   UNL A   1      39.400  22.394  26.497  1.00  0.00     0.060 A 
ATOM     31  C   UNL A   1      38.932  23.649  26.109  1.00  0.00     0.016 A 
ATOM     32  C   UNL A   1      40.441  22.317  27.413  1.00  0.00     0.016 A 
ATOM     33  C   UNL A   1      39.527  24.827  26.541  1.00  0.00     0.010 A 
ATOM     34  C   UNL A   1      41.039  23.508  27.874  1.00  0.00     0.010 A 
ATOM     35  C   UNL A   1      40.616  24.775  27.408  1.00  0.00    -0.014 A 
BRANCH  35  36
ATOM     36  C   UNL A   1      41.398  26.021  27.665  1.00  0.00     0.031 A 
ATOM     37  C   UNL A   1      40.772  27.107  28.504  1.00  0.00     0.074 A 
ATOM     38  C   UNL A   1      42.685  26.162  27.284  1.00  0.00     0.049 A 
ATOM     39  N   UNL A   1      41.179  28.330  28.735  1.00  0.00    -0.248 NA
ATOM     40  C   UNL A   1      39.516  26.755  29.185  1.00  0.00     0.031 C 
ATOM     41  C   UNL A   1      43.491  25.144  26.611  1.00  0.00     0.029 A 
ATOM     42  N   UNL A   1      43.549  27.226  27.426  1.00  0.00    -0.354 N 
ATOM     43  C   UNL A   1      40.203  28.907  29.537  1.00  0.00     0.074 A 
ATOM     44  C   UNL A   1      39.184  27.904  29.754  1.00  0.00     0.031 C 
ATOM     45  C   UNL A   1      44.728  25.627  26.405  1.00  0.00     0.029 A 
ATOM     46  C   UNL A   1      44.781  27.016  26.852  1.00  0.00     0.049 A 
ATOM     47  H   UNL A   1      43.307  28.056  27.894  1.00  0.00     0.167 HD
ATOM     48  C   UNL A   1      40.159  30.162  30.047  1.00  0.00     0.037 A 
ATOM     49  C   UNL A   1      45.814  27.861  26.659  1.00  0.00     0.037 A 
ATOM     50  C   UNL A   1      41.196  31.145  29.872  1.00  0.00     0.049 A 
ATOM     51  C   UNL A   1      45.694  29.291  27.125  1.00  0.00     0.074 A 
ATOM     52  C   UNL A   1      41.232  32.453  30.322  1.00  0.00     0.029 A 
ATOM     53  N   UNL A   1      42.390  30.921  29.202  1.00  0.00    -0.354 N 
ATOM     54  N   UNL A   1      44.727  29.867  27.796  1.00  0.00    -0.248 NA
ATOM     55  C   UNL A   1      46.805  30.194  26.787  1.00  0.00     0.031 C 
ATOM     56  C   UNL A   1      42.422  33.036  29.876  1.00  0.00     0.029 A 
ATOM     57  C   UNL A   1      43.158  32.074  29.205  1.00  0.00     0.049 A 
ATOM     58  H   UNL A   1      42.652  30.068  28.784  1.00  0.00     0.167 HD
ATOM     59  C   UNL A   1      45.123  31.185  27.986  1.00  0.00     0.074 A 
ATOM     60  C   UNL A   1      46.427  31.321  27.374  1.00  0.00     0.031 C 
ATOM     61  C   UNL A   1      44.464  32.195  28.606  1.00  0.00     0.037 A 
BRANCH  48  62
ATOM     62  C   UNL A   1      38.914  30.564  30.786  1.00  0.00     0.064 A 
ATOM     63  C   UNL A   1      37.798  31.111  30.135  1.00  0.00     0.173 A 
ATOM     64  C   UNL A   1      38.842  30.390  32.177  1.00  0.00     0.173 A 
ATOM     65  F   UNL A   1      37.823  31.317  28.810  1.00  0.00    -0.203 F 
ATOM     66  C   UNL A   1      36.669  31.499  30.855  1.00  0.00     0.198 A 
ATOM     67  C   UNL A   1      37.700  30.746  32.888  1.00  0.00     0.198 A 
ATOM     68  F   UNL A   1      39.880  29.870  32.849  1.00  0.00    -0.203 F 
ATOM     69  F   UNL A   1      35.640  32.076  30.222  1.00  0.00    -0.200 F 
ATOM     70  C   UNL A   1      36.619  31.310  32.229  1.00  0.00     0.200 A 
ATOM     71  F   UNL A   1      37.649  30.551  34.214  1.00  0.00    -0.200 F 
ATOM     72  F   UNL A   1      35.532  31.684  32.918  1.00  0.00    -0.200 F 
ENDBRANCH  48  62
BRANCH  49  73
ATOM     73  C   UNL A   1      47.031  27.410  25.925  1.00  0.00     0.064 A 
ATOM     74  C   UNL A   1      48.116  26.828  26.597  1.00  0.00     0.173 A 
ATOM     75  C   UNL A   1      47.156  27.604  24.539  1.00  0.00     0.173 A 
ATOM     76  F   UNL A   1      48.065  26.657  27.926  1.00  0.00    -0.203 F 
ATOM     77  C   UNL A   1      49.282  26.477  25.918  1.00  0.00     0.198 A 
ATOM     78  C   UNL A   1      48.307  27.218  23.855  1.00  0.00     0.198 A 
ATOM     79  F   UNL A   1      46.159  28.172  23.847  1.00  0.00    -0.203 F 
ATOM     80  F   UNL A   1      50.327  25.984  26.596  1.00  0.00    -0.200 F 
ATOM     81  C   UNL A   1      49.374  26.665  24.546  1.00  0.00     0.200 A 
ATOM     82  F   UNL A   1      48.389  27.397  22.530  1.00  0.00    -0.200 F 
ATOM     83  F   UNL A   1      50.497  26.331  23.895  1.00  0.00    -0.200 F 
ENDBRANCH  49  73
BRANCH  61  84
ATOM     84  C   UNL A   1      45.159  33.523  28.706  1.00  0.00     0.064 A 
ATOM     85  C   UNL A   1      46.135  33.778  29.682  1.00  0.00     0.173 A 
ATOM     86  C   UNL A   1      44.874  34.543  27.785  1.00  0.00     0.173 A 
ATOM     87  F   UNL A   1      46.437  32.843  30.595  1.00  0.00    -0.203 F 
ATOM     88  C   UNL A   1      46.775  35.013  29.749  1.00  0.00     0.198 A 
ATOM     89  C   UNL A   1      45.541  35.763  27.833  1.00  0.00     0.198 A 
ATOM     90  F   UNL A   1      43.956  34.350  26.825  1.00  0.00    -0.203 F 
ATOM     91  F   UNL A   1      47.665  35.252  30.723  1.00  0.00    -0.200 F 
ATOM     92  C   UNL A   1      46.484  36.001  28.820  1.00  0.00     0.200 A 
ATOM     93  F   UNL A   1      45.271  36.709  26.923  1.00  0.00    -0.200 F 
ATOM     94  F   UNL A   1      47.109  37.185  28.881  1.00  0.00    -0.200 F 
ENDBRANCH  61  84
ENDBRANCH  35  36
ENDBRANCH  28  30
ENDBRANCH  27  28
ENDBRANCH  26  27
ENDBRANCH  25  26
ENDBRANCH  24  25
ENDBRANCH  23  24
ENDBRANCH   1  23
TORSDOF 21
ENDMDL
MODEL 3
REMARK VINA RESULT:      -9.5      4.099      9.684
REMARK SMILES CNC(=O)NC(=O)CC[N@@H+](C)CC(=O)OCCOCCOCCOC(=O)c1ccc(-c2c3nc(c(-c4c(F)c(F)c(F)c(F)c4F)c4ccc([nH]4)c(-c4c(F)c(F)c(F)c(F)c4F)c4nc(c(-c5c(F)c(F)c(F)c(F)c5F)c5ccc2[nH]5)C=C4)C=C3)cc1
REMARK SMILES IDX 19 1 18 2 17 3 16 4 15 5 13 6 14 7 12 8 10 9 11 10 9 12 8 13
REMARK SMILES IDX 6 14 1 15 2 16 3 17 4 19 5 20 7 22 20 23 21 24 22 25 23 26
REMARK SMILES IDX 24 27 25 28 26 29 27 30 28 31 89 32 29 33 88 34 30 35 31 36
REMARK SMILES IDX 32 37 82 38 33 39 87 40 81 41 83 42 34 43 86 44 80 45 79 46
REMARK SMILES IDX 35 48 67 49 47 50 66 51 48 52 51 53 65 54 84 55 49 56 50 57
REMARK SMILES IDX 64 59 85 60 52 61 36 62 37 63 45 64 38 65 39 66 43 67 46 68
REMARK SMILES IDX 40 69 41 70 44 71 42 72 68 73 69 74 77 75 70 76 71 77 75 78
REMARK SMILES IDX 78 79 72 80 73 81 76 82 74 83 53 84 54 85 62 86 55 87 56 88
REMARK SMILES IDX 60 89 63 90 57 91 58 92 61 93 59 94
REMARK H PARENT 10 11 2 18 5 21 83 47 51 58
REMARK Flexibility Score: inf
ROOT
ATOM      1  C   UNL A   1      33.145  25.163  21.931  1.00  0.00     0.188 C 
ENDROOT
BRANCH   1   2
ATOM      2  O   UNL A   1      32.522  26.187  22.695  1.00  0.00    -0.376 OA
BRANCH   2   3
ATOM      3  C   UNL A   1      31.365  26.778  22.114  1.00  0.00     0.202 C 
BRANCH   3   4
ATOM      4  C   UNL A   1      31.029  28.211  22.553  1.00  0.00     0.261 C 
BRANCH   4   5
ATOM      5  O   UNL A   1      30.870  28.400  23.978  1.00  0.00    -0.459 OA
BRANCH   5   6
ATOM      6  C   UNL A   1      30.330  27.343  24.640  1.00  0.00     0.361 C 
ATOM      7  O   UNL A   1      29.305  26.767  24.276  1.00  0.00    -0.245 OA
BRANCH   6   8
ATOM      8  C   UNL A   1      31.090  26.826  25.858  1.00  0.00     0.386 C 
BRANCH   8   9
ATOM      9  N   UNL A   1      32.569  26.755  25.923  1.00  0.00    -0.328 N 
ATOM     10  C   UNL A   1      33.070  25.398  26.100  1.00  0.00     0.333 C 
ATOM     11  H   UNL A   1      32.838  27.063  24.989  1.00  0.00     0.348 HD
BRANCH   9  12
ATOM     12  C   UNL A   1      33.244  27.723  26.786  1.00  0.00     0.272 C 
BRANCH  12  13
ATOM     13  C   UNL A   1      33.460  29.139  26.243  1.00  0.00     0.161 C 
BRANCH  13  14
ATOM     14  C   UNL A   1      32.877  30.285  27.014  1.00  0.00     0.233 C 
ATOM     15  C   UNL A   1      36.274  29.387  27.824  1.00  0.00     0.144 C 
ATOM     16  N   UNL A   1      35.979  30.750  27.452  1.00  0.00    -0.341 N 
ATOM     17  C   UNL A   1      34.882  31.510  27.639  1.00  0.00     0.321 C 
ATOM     18  H   UNL A   1      36.710  31.205  26.976  1.00  0.00     0.165 HD
ATOM     19  O   UNL A   1      34.987  32.733  27.556  1.00  0.00    -0.248 OA
ATOM     20  N   UNL A   1      33.671  30.962  27.913  1.00  0.00    -0.278 N 
ATOM     21  H   UNL A   1      33.330  31.058  28.831  1.00  0.00     0.174 HD
ATOM     22  O   UNL A   1      31.700  30.618  26.850  1.00  0.00    -0.274 OA
ENDBRANCH  13  14
ENDBRANCH  12  13
ENDBRANCH   9  12
ENDBRANCH   8   9
ENDBRANCH   6   8
ENDBRANCH   5   6
ENDBRANCH   4   5
ENDBRANCH   3   4
ENDBRANCH   2   3
ENDBRANCH   1   2
BRANCH   1  23
ATOM     23  C   UNL A   1      33.443  23.859  22.672  1.00  0.00     0.188 C 
BRANCH  23  24
ATOM     24  O   UNL A   1      34.817  23.483  22.749  1.00  0.00    -0.376 OA
BRANCH  24  25
ATOM     25  C   UNL A   1      35.343  23.411  24.081  1.00  0.00     0.202 C 
BRANCH  25  26
ATOM     26  C   UNL A   1      36.151  22.140  24.433  1.00  0.00     0.261 C 
BRANCH  26  27
ATOM     27  O   UNL A   1      36.784  22.154  25.739  1.00  0.00    -0.460 OA
BRANCH  27  28
ATOM     28  C   UNL A   1      38.080  21.783  25.782  1.00  0.00     0.338 C 
ATOM     29  O   UNL A   1      38.594  20.869  25.143  1.00  0.00    -0.246 OA
BRANCH  28  30
ATOM     30  C   UNL A   1      38.885  22.816  26.473  1.00  0.00     0.060 A 
ATOM     31  C   UNL A   1      38.392  24.119  26.414  1.00  0.00     0.016 A 
ATOM     32  C   UNL A   1      40.098  22.583  27.109  1.00  0.00     0.016 A 
ATOM     33  C   UNL A   1      39.111  25.206  26.893  1.00  0.00     0.010 A 
ATOM     34  C   UNL A   1      40.827  23.678  27.617  1.00  0.00     0.010 A 
ATOM     35  C   UNL A   1      40.361  25.006  27.475  1.00  0.00    -0.014 A 
BRANCH  35  36
ATOM     36  C   UNL A   1      41.226  26.190  27.755  1.00  0.00     0.031 A 
ATOM     37  C   UNL A   1      40.689  27.284  28.644  1.00  0.00     0.074 A 
ATOM     38  C   UNL A   1      42.512  26.262  27.351  1.00  0.00     0.049 A 
ATOM     39  N   UNL A   1      41.178  28.471  28.906  1.00  0.00    -0.248 NA
ATOM     40  C   UNL A   1      39.426  26.990  29.340  1.00  0.00     0.031 C 
ATOM     41  C   UNL A   1      43.237  25.218  26.627  1.00  0.00     0.029 A 
ATOM     42  N   UNL A   1      43.445  27.262  27.510  1.00  0.00    -0.354 N 
ATOM     43  C   UNL A   1      40.258  29.081  29.748  1.00  0.00     0.074 A 
ATOM     44  C   UNL A   1      39.180  28.138  29.953  1.00  0.00     0.031 C 
ATOM     45  C   UNL A   1      44.499  25.628  26.411  1.00  0.00     0.029 A 
ATOM     46  C   UNL A   1      44.650  26.994  26.902  1.00  0.00     0.049 A 
ATOM     47  H   UNL A   1      43.267  28.090  28.010  1.00  0.00     0.167 HD
ATOM     48  C   UNL A   1      40.305  30.318  30.300  1.00  0.00     0.037 A 
ATOM     49  C   UNL A   1      45.731  27.778  26.715  1.00  0.00     0.037 A 
ATOM     50  C   UNL A   1      41.400  31.237  30.134  1.00  0.00     0.049 A 
ATOM     51  C   UNL A   1      45.713  29.196  27.230  1.00  0.00     0.074 A 
ATOM     52  C   UNL A   1      41.529  32.524  30.627  1.00  0.00     0.029 A 
ATOM     53  N   UNL A   1      42.563  30.961  29.431  1.00  0.00    -0.354 N 
ATOM     54  N   UNL A   1      44.798  29.809  27.941  1.00  0.00    -0.248 NA
ATOM     55  C   UNL A   1      46.874  30.036  26.898  1.00  0.00     0.031 C 
ATOM     56  C   UNL A   1      42.745  33.045  30.175  1.00  0.00     0.029 A 
ATOM     57  C   UNL A   1      43.404  32.061  29.456  1.00  0.00     0.049 A 
ATOM     58  H   UNL A   1      42.761  30.108  28.981  1.00  0.00     0.167 HD
ATOM     59  C   UNL A   1      45.283  31.092  28.165  1.00  0.00     0.074 A 
ATOM     60  C   UNL A   1      46.581  31.165  27.530  1.00  0.00     0.031 C 
ATOM     61  C   UNL A   1      44.703  32.119  28.834  1.00  0.00     0.037 A 
BRANCH  48  62
ATOM     62  C   UNL A   1      39.104  30.773  31.079  1.00  0.00     0.064 A 
ATOM     63  C   UNL A   1      38.936  30.481  32.441  1.00  0.00     0.173 A 
ATOM     64  C   UNL A   1      38.103  31.524  30.442  1.00  0.00     0.173 A 
ATOM     65  F   UNL A   1      39.852  29.750  33.093  1.00  0.00    -0.203 F 
ATOM     66  C   UNL A   1      37.795  30.896  33.126  1.00  0.00     0.198 A 
ATOM     67  C   UNL A   1      36.983  31.967  31.138  1.00  0.00     0.198 A 
ATOM     68  F   UNL A   1      38.214  31.833  29.141  1.00  0.00    -0.203 F 
ATOM     69  F   UNL A   1      37.627  30.553  34.410  1.00  0.00    -0.200 F 
ATOM     70  C   UNL A   1      36.824  31.643  32.476  1.00  0.00     0.200 A 
ATOM     71  F   UNL A   1      36.051  32.699  30.510  1.00  0.00    -0.200 F 
ATOM     72  F   UNL A   1      35.729  32.041  33.138  1.00  0.00    -0.200 F 
ENDBRANCH  48  62
BRANCH  49  73
ATOM     73  C   UNL A   1      46.902  27.275  25.939  1.00  0.00     0.064 A 
ATOM     74  C   UNL A   1      47.934  26.556  26.559  1.00  0.00     0.173 A 
ATOM     75  C   UNL A   1      47.039  27.554  24.570  1.00  0.00     0.173 A 
ATOM     76  F   UNL A   1      47.874  26.298  27.874  1.00  0.00    -0.203 F 
ATOM     77  C   UNL A   1      49.063  26.154  25.846  1.00  0.00     0.198 A 
ATOM     78  C   UNL A   1      48.149  27.118  23.850  1.00  0.00     0.198 A 
ATOM     79  F   UNL A   1      46.092  28.253  23.928  1.00  0.00    -0.203 F 
ATOM     80  F   UNL A   1      50.064  25.526  26.479  1.00  0.00    -0.200 F 
ATOM     81  C   UNL A   1      49.166  26.428  24.491  1.00  0.00     0.200 A 
ATOM     82  F   UNL A   1      48.242  27.382  22.539  1.00  0.00    -0.200 F 
ATOM     83  F   UNL A   1      50.253  26.045  23.807  1.00  0.00    -0.200 F 
ENDBRANCH  49  73
BRANCH  61  84
ATOM     84  C   UNL A   1      45.485  33.396  28.962  1.00  0.00     0.064 A 
ATOM     85  C   UNL A   1      46.434  33.585  29.978  1.00  0.00     0.173 A 
ATOM     86  C   UNL A   1      45.310  34.430  28.029  1.00  0.00     0.173 A 
ATOM     87  F   UNL A   1      46.631  32.635  30.903  1.00  0.00    -0.203 F 
ATOM     88  C   UNL A   1      47.155  34.773  30.071  1.00  0.00     0.198 A 
ATOM     89  C   UNL A   1      46.058  35.601  28.105  1.00  0.00     0.198 A 
ATOM     90  F   UNL A   1      44.422  34.298  27.031  1.00  0.00    -0.203 F 
ATOM     91  F   UNL A   1      48.018  34.953  31.081  1.00  0.00    -0.200 F 
ATOM     92  C   UNL A   1      46.973  35.776  29.131  1.00  0.00     0.200 A 
ATOM     93  F   UNL A   1      45.893  36.561  27.184  1.00  0.00    -0.200 F 
ATOM     94  F   UNL A   1      47.676  36.914  29.217  1.00  0.00    -0.200 F 
ENDBRANCH  61  84
ENDBRANCH  35  36
ENDBRANCH  28  30
ENDBRANCH  27  28
ENDBRANCH  26  27
ENDBRANCH  25  26
ENDBRANCH  24  25
ENDBRANCH  23  24
ENDBRANCH   1  23
TORSDOF 21
ENDMDL
