MODEL 1
REMARK VINA RESULT:     -11.5      0.000      0.000
REMARK SMILES Cc1nc(-c2cccc(N3C[C@H](C(=O)OCCOCCOCCOC(=O)c4ccc(-c5c6nc(c(-c7c(F)c(F)c(F)c(F)c7F)c7ccc([nH]7)c(-c7c(F)c(F)c(F)c(F)c7F)c7nc(c(-c8c(F)c(F)c(F)c(F)c8F)c8ccc5[nH]8)C=C7)C=C6)cc4)CC3=O)c2)no1
REMARK SMILES IDX 19 1 18 2 17 3 16 4 15 5 13 6 14 7 12 8 10 9 11 10 91 11
REMARK SMILES IDX 90 12 92 13 9 14 5 15 6 16 93 17 7 18 8 19 4 20 1 21 2 22
REMARK SMILES IDX 3 23 95 24 94 25 20 26 21 27 22 28 23 29 24 30 25 31 26 32
REMARK SMILES IDX 27 33 28 34 89 35 29 36 88 37 30 38 31 39 32 40 82 41 33 42
REMARK SMILES IDX 87 43 81 44 83 45 34 46 86 47 80 48 79 49 35 51 67 52 47 53
REMARK SMILES IDX 66 54 48 55 51 56 65 57 84 58 49 59 50 60 64 62 85 63 52 64
REMARK SMILES IDX 36 65 37 66 45 67 38 68 39 69 43 70 46 71 40 72 41 73 44 74
REMARK SMILES IDX 42 75 68 76 69 77 77 78 70 79 71 80 75 81 78 82 72 83 73 84
REMARK SMILES IDX 76 85 74 86 53 87 54 88 62 89 55 90 56 91 60 92 63 93 57 94
REMARK SMILES IDX 58 95 61 96 59 97
REMARK H PARENT 83 50 51 61
REMARK Flexibility Score: inf
ROOT
ATOM      1  C   UNL A   1      36.146  22.380  23.964  1.00  0.00     0.188 C 
ENDROOT
BRANCH   1   2
ATOM      2  O   UNL A   1      35.917  23.695  24.412  1.00  0.00    -0.376 OA
BRANCH   2   3
ATOM      3  C   UNL A   1      35.126  23.940  25.560  1.00  0.00     0.202 C 
BRANCH   3   4
ATOM      4  C   UNL A   1      34.440  22.849  26.399  1.00  0.00     0.261 C 
BRANCH   4   5
ATOM      5  O   UNL A   1      33.235  22.274  25.881  1.00  0.00    -0.463 OA
BRANCH   5   6
ATOM      6  C   UNL A   1      32.144  23.088  25.893  1.00  0.00     0.311 C 
ATOM      7  O   UNL A   1      31.846  23.827  26.821  1.00  0.00    -0.252 OA
BRANCH   6   8
ATOM      8  C   UNL A   1      31.352  22.962  24.604  1.00  0.00     0.128 C 
ATOM      9  N   UNL A   1      31.923  24.862  23.416  1.00  0.00    -0.312 N 
ATOM     10  C   UNL A   1      30.859  24.343  24.233  1.00  0.00     0.141 C 
ATOM     11  C   UNL A   1      32.687  23.857  22.834  1.00  0.00     0.227 C 
ATOM     12  C   UNL A   1      32.175  22.553  23.379  1.00  0.00     0.117 C 
ATOM     13  O   UNL A   1      33.625  23.949  22.058  1.00  0.00    -0.274 OA
BRANCH   9  14
ATOM     14  C   UNL A   1      32.188  26.226  23.277  1.00  0.00     0.044 A 
ATOM     15  C   UNL A   1      31.397  28.457  22.798  1.00  0.00     0.025 A 
ATOM     16  C   UNL A   1      32.694  28.951  22.987  1.00  0.00     0.012 A 
ATOM     17  C   UNL A   1      31.159  27.085  22.905  1.00  0.00     0.038 A 
ATOM     18  C   UNL A   1      33.732  28.084  23.329  1.00  0.00     0.003 A 
ATOM     19  C   UNL A   1      33.474  26.726  23.499  1.00  0.00     0.026 A 
BRANCH  15  20
ATOM     20  C   UNL A   1      30.271  29.341  22.572  1.00  0.00     0.202 A 
ATOM     21  C   UNL A   1      27.647  31.492  23.611  1.00  0.00     0.114 C 
ATOM     22  C   UNL A   1      28.679  30.621  23.028  1.00  0.00     0.223 A 
ATOM     23  N   UNL A   1      29.549  29.848  23.629  1.00  0.00    -0.191 NA
ATOM     24  O   UNL A   1      28.791  30.609  21.670  1.00  0.00    -0.339 OA
ATOM     25  N   UNL A   1      29.865  29.768  21.367  1.00  0.00    -0.057 NA
ENDBRANCH  15  20
ENDBRANCH   9  14
ENDBRANCH   6   8
ENDBRANCH   5   6
ENDBRANCH   4   5
ENDBRANCH   3   4
ENDBRANCH   2   3
ENDBRANCH   1   2
BRANCH   1  26
ATOM     26  C   UNL A   1      37.339  21.578  24.531  1.00  0.00     0.188 C 
BRANCH  26  27
ATOM     27  O   UNL A   1      37.160  20.250  24.963  1.00  0.00    -0.376 OA
BRANCH  27  28
ATOM     28  C   UNL A   1      38.283  19.453  25.285  1.00  0.00     0.202 C 
BRANCH  28  29
ATOM     29  C   UNL A   1      39.647  20.030  25.702  1.00  0.00     0.261 C 
BRANCH  29  30
ATOM     30  O   UNL A   1      40.485  19.214  26.531  1.00  0.00    -0.460 OA
BRANCH  30  31
ATOM     31  C   UNL A   1      41.800  19.193  26.191  1.00  0.00     0.338 C 
ATOM     32  O   UNL A   1      42.405  18.294  25.641  1.00  0.00    -0.246 OA
BRANCH  31  33
ATOM     33  C   UNL A   1      42.400  20.520  26.440  1.00  0.00     0.060 A 
ATOM     34  C   UNL A   1      42.400  21.029  27.748  1.00  0.00     0.016 A 
ATOM     35  C   UNL A   1      42.896  21.285  25.385  1.00  0.00     0.016 A 
ATOM     36  C   UNL A   1      42.876  22.318  28.000  1.00  0.00     0.010 A 
ATOM     37  C   UNL A   1      43.350  22.585  25.636  1.00  0.00     0.010 A 
ATOM     38  C   UNL A   1      43.314  23.120  26.939  1.00  0.00    -0.014 A 
BRANCH  38  39
ATOM     39  C   UNL A   1      43.577  24.567  27.153  1.00  0.00     0.031 A 
ATOM     40  C   UNL A   1      44.960  25.098  26.895  1.00  0.00     0.074 A 
ATOM     41  C   UNL A   1      42.607  25.404  27.564  1.00  0.00     0.049 A 
ATOM     42  N   UNL A   1      45.450  26.295  27.099  1.00  0.00    -0.248 NA
ATOM     43  C   UNL A   1      45.926  24.143  26.327  1.00  0.00     0.031 C 
ATOM     44  C   UNL A   1      41.213  25.035  27.789  1.00  0.00     0.029 A 
ATOM     45  N   UNL A   1      42.661  26.740  27.878  1.00  0.00    -0.354 N 
ATOM     46  C   UNL A   1      46.777  26.235  26.694  1.00  0.00     0.074 A 
ATOM     47  C   UNL A   1      47.028  24.876  26.264  1.00  0.00     0.031 C 
ATOM     48  C   UNL A   1      40.544  26.116  28.226  1.00  0.00     0.029 A 
ATOM     49  C   UNL A   1      41.471  27.240  28.349  1.00  0.00     0.049 A 
ATOM     50  H   UNL A   1      43.474  27.287  27.776  1.00  0.00     0.167 HD
ATOM     51  C   UNL A   1      47.701  27.226  26.672  1.00  0.00     0.037 A 
ATOM     52  C   UNL A   1      41.174  28.456  28.849  1.00  0.00     0.037 A 
ATOM     53  C   UNL A   1      47.454  28.576  27.108  1.00  0.00     0.049 A 
ATOM     54  C   UNL A   1      42.246  29.518  28.907  1.00  0.00     0.074 A 
ATOM     55  C   UNL A   1      48.324  29.652  27.122  1.00  0.00     0.029 A 
ATOM     56  N   UNL A   1      46.246  29.034  27.614  1.00  0.00    -0.354 N 
ATOM     57  N   UNL A   1      43.496  29.460  28.515  1.00  0.00    -0.248 NA
ATOM     58  C   UNL A   1      41.861  30.818  29.477  1.00  0.00     0.031 C 
ATOM     59  C   UNL A   1      47.664  30.742  27.696  1.00  0.00     0.029 A 
ATOM     60  C   UNL A   1      46.359  30.368  27.974  1.00  0.00     0.049 A 
ATOM     61  H   UNL A   1      45.430  28.491  27.706  1.00  0.00     0.167 HD
ATOM     62  C   UNL A   1      44.034  30.718  28.756  1.00  0.00     0.074 A 
ATOM     63  C   UNL A   1      42.971  31.525  29.319  1.00  0.00     0.031 C 
ATOM     64  C   UNL A   1      45.294  31.167  28.527  1.00  0.00     0.037 A 
BRANCH  51  65
ATOM     65  C   UNL A   1      49.082  26.873  26.194  1.00  0.00     0.064 A 
ATOM     66  C   UNL A   1      50.051  26.339  27.057  1.00  0.00     0.173 A 
ATOM     67  C   UNL A   1      49.432  27.050  24.847  1.00  0.00     0.173 A 
ATOM     68  F   UNL A   1      49.772  26.159  28.358  1.00  0.00    -0.203 F 
ATOM     69  C   UNL A   1      51.328  26.027  26.596  1.00  0.00     0.198 A 
ATOM     70  C   UNL A   1      50.699  26.704  24.383  1.00  0.00     0.198 A 
ATOM     71  F   UNL A   1      48.544  27.550  23.976  1.00  0.00    -0.203 F 
ATOM     72  F   UNL A   1      52.254  25.571  27.452  1.00  0.00    -0.200 F 
ATOM     73  C   UNL A   1      51.648  26.202  25.260  1.00  0.00     0.200 A 
ATOM     74  F   UNL A   1      51.001  26.860  23.087  1.00  0.00    -0.200 F 
ATOM     75  F   UNL A   1      52.876  25.897  24.817  1.00  0.00    -0.200 F 
ENDBRANCH  51  65
BRANCH  52  76
ATOM     76  C   UNL A   1      39.805  28.734  29.359  1.00  0.00     0.064 A 
ATOM     77  C   UNL A   1      39.437  28.411  30.673  1.00  0.00     0.173 A 
ATOM     78  C   UNL A   1      38.823  29.300  28.530  1.00  0.00     0.173 A 
ATOM     79  F   UNL A   1      40.325  27.831  31.493  1.00  0.00    -0.203 F 
ATOM     80  C   UNL A   1      38.138  28.623  31.130  1.00  0.00     0.198 A 
ATOM     81  C   UNL A   1      37.534  29.543  28.999  1.00  0.00     0.198 A 
ATOM     82  F   UNL A   1      39.116  29.614  27.259  1.00  0.00    -0.203 F 
ATOM     83  F   UNL A   1      37.795  28.242  32.370  1.00  0.00    -0.200 F 
ATOM     84  C   UNL A   1      37.190  29.196  30.296  1.00  0.00     0.200 A 
ATOM     85  F   UNL A   1      36.622  30.099  28.189  1.00  0.00    -0.200 F 
ATOM     86  F   UNL A   1      35.939  29.396  30.735  1.00  0.00    -0.200 F 
ENDBRANCH  52  76
BRANCH  64  87
ATOM     87  C   UNL A   1      45.589  32.609  28.839  1.00  0.00     0.064 A 
ATOM     88  C   UNL A   1      45.386  33.629  27.898  1.00  0.00     0.173 A 
ATOM     89  C   UNL A   1      46.039  32.978  30.117  1.00  0.00     0.173 A 
ATOM     90  F   UNL A   1      44.968  33.332  26.659  1.00  0.00    -0.203 F 
ATOM     91  C   UNL A   1      45.650  34.959  28.216  1.00  0.00     0.198 A 
ATOM     92  C   UNL A   1      46.267  34.312  30.442  1.00  0.00     0.198 A 
ATOM     93  F   UNL A   1      46.241  32.044  31.060  1.00  0.00    -0.203 F 
ATOM     94  F   UNL A   1      45.497  35.912  27.284  1.00  0.00    -0.200 F 
ATOM     95  C   UNL A   1      46.082  35.301  29.488  1.00  0.00     0.200 A 
ATOM     96  F   UNL A   1      46.665  34.640  31.679  1.00  0.00    -0.200 F 
ATOM     97  F   UNL A   1      46.324  36.583  29.795  1.00  0.00    -0.200 F 
ENDBRANCH  64  87
ENDBRANCH  38  39
ENDBRANCH  31  33
ENDBRANCH  30  31
ENDBRANCH  29  30
ENDBRANCH  28  29
ENDBRANCH  27  28
ENDBRANCH  26  27
ENDBRANCH   1  26
TORSDOF 19
ENDMDL
MODEL 2
REMARK VINA RESULT:     -11.5      0.896      7.286
REMARK SMILES Cc1nc(-c2cccc(N3C[C@H](C(=O)OCCOCCOCCOC(=O)c4ccc(-c5c6nc(c(-c7c(F)c(F)c(F)c(F)c7F)c7ccc([nH]7)c(-c7c(F)c(F)c(F)c(F)c7F)c7nc(c(-c8c(F)c(F)c(F)c(F)c8F)c8ccc5[nH]8)C=C7)C=C6)cc4)CC3=O)c2)no1
REMARK SMILES IDX 19 1 18 2 17 3 16 4 15 5 13 6 14 7 12 8 10 9 11 10 91 11
REMARK SMILES IDX 90 12 92 13 9 14 5 15 6 16 93 17 7 18 8 19 4 20 1 21 2 22
REMARK SMILES IDX 3 23 95 24 94 25 20 26 21 27 22 28 23 29 24 30 25 31 26 32
REMARK SMILES IDX 27 33 28 34 89 35 29 36 88 37 30 38 31 39 32 40 82 41 33 42
REMARK SMILES IDX 87 43 81 44 83 45 34 46 86 47 80 48 79 49 35 51 67 52 47 53
REMARK SMILES IDX 66 54 48 55 51 56 65 57 84 58 49 59 50 60 64 62 85 63 52 64
REMARK SMILES IDX 36 65 37 66 45 67 38 68 39 69 43 70 46 71 40 72 41 73 44 74
REMARK SMILES IDX 42 75 68 76 69 77 77 78 70 79 71 80 75 81 78 82 72 83 73 84
REMARK SMILES IDX 76 85 74 86 53 87 54 88 62 89 55 90 56 91 60 92 63 93 57 94
REMARK SMILES IDX 58 95 61 96 59 97
REMARK H PARENT 83 50 51 61
REMARK Flexibility Score: inf
ROOT
ATOM      1  C   UNL A   1      35.982  22.836  23.960  1.00  0.00     0.188 C 
ENDROOT
BRANCH   1   2
ATOM      2  O   UNL A   1      35.844  24.077  24.609  1.00  0.00    -0.376 OA
BRANCH   2   3
ATOM      3  C   UNL A   1      35.035  24.203  25.763  1.00  0.00     0.202 C 
BRANCH   3   4
ATOM      4  C   UNL A   1      34.641  23.039  26.688  1.00  0.00     0.261 C 
BRANCH   4   5
ATOM      5  O   UNL A   1      33.507  22.249  26.313  1.00  0.00    -0.463 OA
BRANCH   5   6
ATOM      6  C   UNL A   1      32.315  22.649  26.835  1.00  0.00     0.311 C 
ATOM      7  O   UNL A   1      32.148  22.973  28.003  1.00  0.00    -0.252 OA
BRANCH   6   8
ATOM      8  C   UNL A   1      31.225  22.647  25.778  1.00  0.00     0.128 C 
ATOM      9  N   UNL A   1      31.313  24.780  24.888  1.00  0.00    -0.312 N 
ATOM     10  C   UNL A   1      30.544  23.997  25.820  1.00  0.00     0.141 C 
ATOM     11  C   UNL A   1      31.975  23.996  23.952  1.00  0.00     0.227 C 
ATOM     12  C   UNL A   1      31.729  22.563  24.334  1.00  0.00     0.117 C 
ATOM     13  O   UNL A   1      32.666  24.338  23.005  1.00  0.00    -0.274 OA
BRANCH   9  14
ATOM     14  C   UNL A   1      31.423  26.170  24.963  1.00  0.00     0.044 A 
ATOM     15  C   UNL A   1      30.912  28.346  24.049  1.00  0.00     0.025 A 
ATOM     16  C   UNL A   1      31.634  28.946  25.088  1.00  0.00     0.012 A 
ATOM     17  C   UNL A   1      30.844  26.953  23.970  1.00  0.00     0.038 A 
ATOM     18  C   UNL A   1      32.242  28.158  26.066  1.00  0.00     0.003 A 
ATOM     19  C   UNL A   1      32.114  26.771  26.018  1.00  0.00     0.026 A 
BRANCH  15  20
ATOM     20  C   UNL A   1      30.160  29.133  23.092  1.00  0.00     0.202 A 
ATOM     21  C   UNL A   1      28.044  31.814  22.131  1.00  0.00     0.114 C 
ATOM     22  C   UNL A   1      28.912  30.652  22.374  1.00  0.00     0.223 A 
ATOM     23  N   UNL A   1      29.364  30.177  23.507  1.00  0.00    -0.191 NA
ATOM     24  O   UNL A   1      29.350  29.961  21.284  1.00  0.00    -0.339 OA
ATOM     25  N   UNL A   1      30.195  28.958  21.763  1.00  0.00    -0.057 NA
ENDBRANCH  15  20
ENDBRANCH   9  14
ENDBRANCH   6   8
ENDBRANCH   5   6
ENDBRANCH   4   5
ENDBRANCH   3   4
ENDBRANCH   2   3
ENDBRANCH   1   2
BRANCH   1  26
ATOM     26  C   UNL A   1      37.216  21.954  24.257  1.00  0.00     0.188 C 
BRANCH  26  27
ATOM     27  O   UNL A   1      37.051  20.606  24.630  1.00  0.00    -0.376 OA
BRANCH  27  28
ATOM     28  C   UNL A   1      38.146  19.874  25.143  1.00  0.00     0.202 C 
BRANCH  28  29
ATOM     29  C   UNL A   1      39.402  20.529  25.747  1.00  0.00     0.261 C 
BRANCH  29  30
ATOM     30  O   UNL A   1      40.250  19.707  26.560  1.00  0.00    -0.460 OA
BRANCH  30  31
ATOM     31  C   UNL A   1      41.524  19.563  26.113  1.00  0.00     0.338 C 
ATOM     32  O   UNL A   1      41.975  18.649  25.450  1.00  0.00    -0.246 OA
BRANCH  31  33
ATOM     33  C   UNL A   1      42.298  20.787  26.409  1.00  0.00     0.060 A 
ATOM     34  C   UNL A   1      42.410  21.211  27.742  1.00  0.00     0.016 A 
ATOM     35  C   UNL A   1      42.851  21.546  25.379  1.00  0.00     0.016 A 
ATOM     36  C   UNL A   1      43.055  22.412  28.046  1.00  0.00     0.010 A 
ATOM     37  C   UNL A   1      43.476  22.761  25.683  1.00  0.00     0.010 A 
ATOM     38  C   UNL A   1      43.554  23.216  27.013  1.00  0.00    -0.014 A 
BRANCH  38  39
ATOM     39  C   UNL A   1      44.007  24.602  27.297  1.00  0.00     0.031 A 
ATOM     40  C   UNL A   1      42.994  25.618  27.749  1.00  0.00     0.074 A 
ATOM     41  C   UNL A   1      45.297  24.961  27.162  1.00  0.00     0.049 A 
ATOM     42  N   UNL A   1      43.134  26.902  27.964  1.00  0.00    -0.248 NA
ATOM     43  C   UNL A   1      41.633  25.114  27.992  1.00  0.00     0.031 C 
ATOM     44  C   UNL A   1      46.389  24.064  26.795  1.00  0.00     0.029 A 
ATOM     45  N   UNL A   1      45.899  26.187  27.310  1.00  0.00    -0.354 N 
ATOM     46  C   UNL A   1      41.883  27.358  28.358  1.00  0.00     0.074 A 
ATOM     47  C   UNL A   1      40.987  26.222  28.320  1.00  0.00     0.031 C 
ATOM     48  C   UNL A   1      47.528  24.774  26.725  1.00  0.00     0.029 A 
ATOM     49  C   UNL A   1      47.237  26.180  27.003  1.00  0.00     0.049 A 
ATOM     50  H   UNL A   1      45.417  26.993  27.607  1.00  0.00     0.167 HD
ATOM     51  C   UNL A   1      41.515  28.608  28.729  1.00  0.00     0.037 A 
ATOM     52  C   UNL A   1      48.120  27.197  26.927  1.00  0.00     0.037 A 
ATOM     53  C   UNL A   1      42.405  29.741  28.760  1.00  0.00     0.049 A 
ATOM     54  C   UNL A   1      47.665  28.600  27.249  1.00  0.00     0.074 A 
ATOM     55  C   UNL A   1      42.128  31.047  29.123  1.00  0.00     0.029 A 
ATOM     56  N   UNL A   1      43.745  29.701  28.405  1.00  0.00    -0.354 N 
ATOM     57  N   UNL A   1      46.484  29.025  27.630  1.00  0.00    -0.248 NA
ATOM     58  C   UNL A   1      48.671  29.666  27.133  1.00  0.00     0.031 C 
ATOM     59  C   UNL A   1      43.283  31.810  28.927  1.00  0.00     0.029 A 
ATOM     60  C   UNL A   1      44.300  30.967  28.510  1.00  0.00     0.049 A 
ATOM     61  H   UNL A   1      44.231  28.893  28.119  1.00  0.00     0.167 HD
ATOM     62  C   UNL A   1      46.614  30.394  27.832  1.00  0.00     0.074 A 
ATOM     63  C   UNL A   1      47.992  30.729  27.542  1.00  0.00     0.031 C 
ATOM     64  C   UNL A   1      45.676  31.291  28.227  1.00  0.00     0.037 A 
BRANCH  51  65
ATOM     65  C   UNL A   1      40.074  28.825  29.096  1.00  0.00     0.064 A 
ATOM     66  C   UNL A   1      39.107  29.163  28.137  1.00  0.00     0.173 A 
ATOM     67  C   UNL A   1      39.650  28.668  30.425  1.00  0.00     0.173 A 
ATOM     68  F   UNL A   1      39.461  29.336  26.853  1.00  0.00    -0.203 F 
ATOM     69  C   UNL A   1      37.778  29.368  28.499  1.00  0.00     0.198 A 
ATOM     70  C   UNL A   1      38.313  28.840  30.777  1.00  0.00     0.198 A 
ATOM     71  F   UNL A   1      40.529  28.339  31.383  1.00  0.00    -0.203 F 
ATOM     72  F   UNL A   1      36.884  29.746  27.574  1.00  0.00    -0.200 F 
ATOM     73  C   UNL A   1      37.381  29.200  29.816  1.00  0.00     0.200 A 
ATOM     74  F   UNL A   1      37.929  28.662  32.048  1.00  0.00    -0.200 F 
ATOM     75  F   UNL A   1      36.101  29.393  30.162  1.00  0.00    -0.200 F 
ENDBRANCH  51  65
BRANCH  52  76
ATOM     76  C   UNL A   1      49.521  26.933  26.505  1.00  0.00     0.064 A 
ATOM     77  C   UNL A   1      49.905  27.016  25.159  1.00  0.00     0.173 A 
ATOM     78  C   UNL A   1      50.502  26.560  27.438  1.00  0.00     0.173 A 
ATOM     79  F   UNL A   1      48.997  27.329  24.222  1.00  0.00    -0.203 F 
ATOM     80  C   UNL A   1      51.206  26.715  24.760  1.00  0.00     0.198 A 
ATOM     81  C   UNL A   1      51.810  26.293  27.043  1.00  0.00     0.198 A 
ATOM     82  F   UNL A   1      50.186  26.450  28.737  1.00  0.00    -0.203 F 
ATOM     83  F   UNL A   1      51.529  26.736  23.459  1.00  0.00    -0.200 F 
ATOM     84  C   UNL A   1      52.160  26.362  25.703  1.00  0.00     0.200 A 
ATOM     85  F   UNL A   1      52.728  25.954  27.959  1.00  0.00    -0.200 F 
ATOM     86  F   UNL A   1      53.410  26.069  25.320  1.00  0.00    -0.200 F 
ENDBRANCH  52  76
BRANCH  64  87
ATOM     87  C   UNL A   1      46.113  32.718  28.417  1.00  0.00     0.064 A 
ATOM     88  C   UNL A   1      46.657  33.174  29.627  1.00  0.00     0.173 A 
ATOM     89  C   UNL A   1      46.026  33.632  27.354  1.00  0.00     0.173 A 
ATOM     90  F   UNL A   1      46.753  32.347  30.679  1.00  0.00    -0.203 F 
ATOM     91  C   UNL A   1      47.071  34.496  29.774  1.00  0.00     0.198 A 
ATOM     92  C   UNL A   1      46.474  34.943  27.493  1.00  0.00     0.198 A 
ATOM     93  F   UNL A   1      45.523  33.249  26.171  1.00  0.00    -0.203 F 
ATOM     94  F   UNL A   1      47.541  34.922  30.955  1.00  0.00    -0.200 F 
ATOM     95  C   UNL A   1      46.987  35.377  28.707  1.00  0.00     0.200 A 
ATOM     96  F   UNL A   1      46.410  35.786  26.454  1.00  0.00    -0.200 F 
ATOM     97  F   UNL A   1      47.396  36.645  28.846  1.00  0.00    -0.200 F 
ENDBRANCH  64  87
ENDBRANCH  38  39
ENDBRANCH  31  33
ENDBRANCH  30  31
ENDBRANCH  29  30
ENDBRANCH  28  29
ENDBRANCH  27  28
ENDBRANCH  26  27
ENDBRANCH   1  26
TORSDOF 19
ENDMDL
MODEL 3
REMARK VINA RESULT:     -11.4      0.649      2.015
REMARK SMILES Cc1nc(-c2cccc(N3C[C@H](C(=O)OCCOCCOCCOC(=O)c4ccc(-c5c6nc(c(-c7c(F)c(F)c(F)c(F)c7F)c7ccc([nH]7)c(-c7c(F)c(F)c(F)c(F)c7F)c7nc(c(-c8c(F)c(F)c(F)c(F)c8F)c8ccc5[nH]8)C=C7)C=C6)cc4)CC3=O)c2)no1
REMARK SMILES IDX 19 1 18 2 17 3 16 4 15 5 13 6 14 7 12 8 10 9 11 10 91 11
REMARK SMILES IDX 90 12 92 13 9 14 5 15 6 16 93 17 7 18 8 19 4 20 1 21 2 22
REMARK SMILES IDX 3 23 95 24 94 25 20 26 21 27 22 28 23 29 24 30 25 31 26 32
REMARK SMILES IDX 27 33 28 34 89 35 29 36 88 37 30 38 31 39 32 40 82 41 33 42
REMARK SMILES IDX 87 43 81 44 83 45 34 46 86 47 80 48 79 49 35 51 67 52 47 53
REMARK SMILES IDX 66 54 48 55 51 56 65 57 84 58 49 59 50 60 64 62 85 63 52 64
REMARK SMILES IDX 36 65 37 66 45 67 38 68 39 69 43 70 46 71 40 72 41 73 44 74
REMARK SMILES IDX 42 75 68 76 69 77 77 78 70 79 71 80 75 81 78 82 72 83 73 84
REMARK SMILES IDX 76 85 74 86 53 87 54 88 62 89 55 90 56 91 60 92 63 93 57 94
REMARK SMILES IDX 58 95 61 96 59 97
REMARK H PARENT 83 50 51 61
REMARK Flexibility Score: inf
ROOT
ATOM      1  C   UNL A   1      36.496  23.002  24.086  1.00  0.00     0.188 C 
ENDROOT
BRANCH   1   2
ATOM      2  O   UNL A   1      35.506  23.590  24.895  1.00  0.00    -0.376 OA
BRANCH   2   3
ATOM      3  C   UNL A   1      35.020  22.922  26.044  1.00  0.00     0.202 C 
BRANCH   3   4
ATOM      4  C   UNL A   1      33.974  21.795  26.023  1.00  0.00     0.261 C 
BRANCH   4   5
ATOM      5  O   UNL A   1      33.210  21.620  24.825  1.00  0.00    -0.463 OA
BRANCH   5   6
ATOM      6  C   UNL A   1      32.005  22.253  24.801  1.00  0.00     0.311 C 
ATOM      7  O   UNL A   1      31.325  22.479  25.792  1.00  0.00    -0.252 OA
BRANCH   6   8
ATOM      8  C   UNL A   1      31.620  22.646  23.385  1.00  0.00     0.128 C 
ATOM      9  N   UNL A   1      31.776  24.953  23.389  1.00  0.00    -0.312 N 
ATOM     10  C   UNL A   1      30.790  23.907  23.469  1.00  0.00     0.141 C 
ATOM     11  C   UNL A   1      32.945  24.537  22.765  1.00  0.00     0.227 C 
ATOM     12  C   UNL A   1      32.792  23.066  22.492  1.00  0.00     0.117 C 
ATOM     13  O   UNL A   1      33.950  25.177  22.495  1.00  0.00    -0.274 OA
BRANCH   9  14
ATOM     14  C   UNL A   1      31.591  26.225  23.935  1.00  0.00     0.044 A 
ATOM     15  C   UNL A   1      30.770  28.485  23.704  1.00  0.00     0.025 A 
ATOM     16  C   UNL A   1      31.215  28.773  25.001  1.00  0.00     0.012 A 
ATOM     17  C   UNL A   1      30.998  27.218  23.162  1.00  0.00     0.038 A 
ATOM     18  C   UNL A   1      31.839  27.784  25.764  1.00  0.00     0.003 A 
ATOM     19  C   UNL A   1      32.003  26.504  25.241  1.00  0.00     0.026 A 
BRANCH  15  20
ATOM     20  C   UNL A   1      30.004  29.443  22.933  1.00  0.00     0.202 A 
ATOM     21  C   UNL A   1      28.297  32.517  22.457  1.00  0.00     0.114 C 
ATOM     22  C   UNL A   1      28.954  31.202  22.504  1.00  0.00     0.223 A 
ATOM     23  N   UNL A   1      29.530  30.599  23.513  1.00  0.00    -0.191 NA
ATOM     24  O   UNL A   1      29.013  30.491  21.343  1.00  0.00    -0.339 OA
ATOM     25  N   UNL A   1      29.728  29.325  21.626  1.00  0.00    -0.057 NA
ENDBRANCH  15  20
ENDBRANCH   9  14
ENDBRANCH   6   8
ENDBRANCH   5   6
ENDBRANCH   4   5
ENDBRANCH   3   4
ENDBRANCH   2   3
ENDBRANCH   1   2
BRANCH   1  26
ATOM     26  C   UNL A   1      37.527  22.040  24.721  1.00  0.00     0.188 C 
BRANCH  26  27
ATOM     27  O   UNL A   1      37.295  20.651  24.721  1.00  0.00    -0.376 OA
BRANCH  27  28
ATOM     28  C   UNL A   1      38.331  19.760  25.083  1.00  0.00     0.202 C 
BRANCH  28  29
ATOM     29  C   UNL A   1      39.644  20.205  25.751  1.00  0.00     0.261 C 
BRANCH  29  30
ATOM     30  O   UNL A   1      40.394  19.212  26.463  1.00  0.00    -0.460 OA
BRANCH  30  31
ATOM     31  C   UNL A   1      41.723  19.173  26.184  1.00  0.00     0.338 C 
ATOM     32  O   UNL A   1      42.347  18.253  25.693  1.00  0.00    -0.246 OA
BRANCH  31  33
ATOM     33  C   UNL A   1      42.319  20.505  26.414  1.00  0.00     0.060 A 
ATOM     34  C   UNL A   1      42.335  21.024  27.718  1.00  0.00     0.016 A 
ATOM     35  C   UNL A   1      42.797  21.265  25.347  1.00  0.00     0.016 A 
ATOM     36  C   UNL A   1      42.807  22.317  27.954  1.00  0.00     0.010 A 
ATOM     37  C   UNL A   1      43.247  22.569  25.582  1.00  0.00     0.010 A 
ATOM     38  C   UNL A   1      43.226  23.114  26.880  1.00  0.00    -0.014 A 
BRANCH  38  39
ATOM     39  C   UNL A   1      43.484  24.563  27.080  1.00  0.00     0.031 A 
ATOM     40  C   UNL A   1      44.868  25.095  26.824  1.00  0.00     0.074 A 
ATOM     41  C   UNL A   1      42.511  25.402  27.477  1.00  0.00     0.049 A 
ATOM     42  N   UNL A   1      45.354  26.295  27.018  1.00  0.00    -0.248 NA
ATOM     43  C   UNL A   1      45.840  24.137  26.272  1.00  0.00     0.031 C 
ATOM     44  C   UNL A   1      41.116  25.033  27.698  1.00  0.00     0.029 A 
ATOM     45  N   UNL A   1      42.559  26.742  27.776  1.00  0.00    -0.354 N 
ATOM     46  C   UNL A   1      46.683  26.234  26.621  1.00  0.00     0.074 A 
ATOM     47  C   UNL A   1      46.939  24.871  26.207  1.00  0.00     0.031 C 
ATOM     48  C   UNL A   1      40.442  26.117  28.119  1.00  0.00     0.029 A 
ATOM     49  C   UNL A   1      41.366  27.244  28.235  1.00  0.00     0.049 A 
ATOM     50  H   UNL A   1      43.371  27.290  27.672  1.00  0.00     0.167 HD
ATOM     51  C   UNL A   1      47.605  27.227  26.593  1.00  0.00     0.037 A 
ATOM     52  C   UNL A   1      41.063  28.465  28.720  1.00  0.00     0.037 A 
ATOM     53  C   UNL A   1      47.352  28.582  27.012  1.00  0.00     0.049 A 
ATOM     54  C   UNL A   1      42.132  29.530  28.772  1.00  0.00     0.074 A 
ATOM     55  C   UNL A   1      48.220  29.660  27.019  1.00  0.00     0.029 A 
ATOM     56  N   UNL A   1      46.141  29.042  27.507  1.00  0.00    -0.354 N 
ATOM     57  N   UNL A   1      43.384  29.471  28.387  1.00  0.00    -0.248 NA
ATOM     58  C   UNL A   1      41.741  30.835  29.325  1.00  0.00     0.031 C 
ATOM     59  C   UNL A   1      47.553  30.755  27.577  1.00  0.00     0.029 A 
ATOM     60  C   UNL A   1      46.248  30.380  27.852  1.00  0.00     0.049 A 
ATOM     61  H   UNL A   1      45.325  28.498  27.600  1.00  0.00     0.167 HD
ATOM     62  C   UNL A   1      43.918  30.733  28.618  1.00  0.00     0.074 A 
ATOM     63  C   UNL A   1      42.850  31.543  29.166  1.00  0.00     0.031 C 
ATOM     64  C   UNL A   1      45.178  31.182  28.390  1.00  0.00     0.037 A 
BRANCH  51  65
ATOM     65  C   UNL A   1      48.989  26.873  26.126  1.00  0.00     0.064 A 
ATOM     66  C   UNL A   1      49.386  27.040  24.791  1.00  0.00     0.173 A 
ATOM     67  C   UNL A   1      49.940  26.383  27.035  1.00  0.00     0.173 A 
ATOM     68  F   UNL A   1      48.514  27.494  23.878  1.00  0.00    -0.203 F 
ATOM     69  C   UNL A   1      50.671  26.697  24.377  1.00  0.00     0.198 A 
ATOM     70  C   UNL A   1      51.235  26.075  26.624  1.00  0.00     0.198 A 
ATOM     71  F   UNL A   1      49.618  26.211  28.325  1.00  0.00    -0.203 F 
ATOM     72  F   UNL A   1      51.010  26.811  23.084  1.00  0.00    -0.200 F 
ATOM     73  C   UNL A   1      51.596  26.223  25.294  1.00  0.00     0.200 A 
ATOM     74  F   UNL A   1      52.131  25.631  27.516  1.00  0.00    -0.200 F 
ATOM     75  F   UNL A   1      52.833  25.899  24.895  1.00  0.00    -0.200 F 
ENDBRANCH  51  65
BRANCH  52  76
ATOM     76  C   UNL A   1      39.690  28.745  29.219  1.00  0.00     0.064 A 
ATOM     77  C   UNL A   1      38.722  29.339  28.397  1.00  0.00     0.173 A 
ATOM     78  C   UNL A   1      39.328  28.454  30.545  1.00  0.00     0.173 A 
ATOM     79  F   UNL A   1      39.029  29.675  27.136  1.00  0.00    -0.203 F 
ATOM     80  C   UNL A   1      37.454  29.649  28.886  1.00  0.00     0.198 A 
ATOM     81  C   UNL A   1      38.049  28.733  31.021  1.00  0.00     0.198 A 
ATOM     82  F   UNL A   1      40.220  27.900  31.379  1.00  0.00    -0.203 F 
ATOM     83  F   UNL A   1      36.570  30.278  28.099  1.00  0.00    -0.200 F 
ATOM     84  C   UNL A   1      37.116  29.338  30.195  1.00  0.00     0.200 A 
ATOM     85  F   UNL A   1      37.727  28.429  32.286  1.00  0.00    -0.200 F 
ATOM     86  F   UNL A   1      35.898  29.641  30.666  1.00  0.00    -0.200 F 
ENDBRANCH  52  76
BRANCH  64  87
ATOM     87  C   UNL A   1      45.468  32.628  28.688  1.00  0.00     0.064 A 
ATOM     88  C   UNL A   1      45.992  33.042  29.922  1.00  0.00     0.173 A 
ATOM     89  C   UNL A   1      45.258  33.609  27.705  1.00  0.00     0.173 A 
ATOM     90  F   UNL A   1      46.201  32.149  30.900  1.00  0.00    -0.203 F 
ATOM     91  C   UNL A   1      46.269  34.384  30.168  1.00  0.00     0.198 A 
ATOM     92  C   UNL A   1      45.569  34.945  27.943  1.00  0.00     0.198 A 
ATOM     93  F   UNL A   1      44.767  33.269  26.503  1.00  0.00    -0.203 F 
ATOM     94  F   UNL A   1      46.722  34.763  31.372  1.00  0.00    -0.200 F 
ATOM     95  C   UNL A   1      46.066  35.333  29.178  1.00  0.00     0.200 A 
ATOM     96  F   UNL A   1      45.390  35.856  26.976  1.00  0.00    -0.200 F 
ATOM     97  F   UNL A   1      46.343  36.622  29.414  1.00  0.00    -0.200 F 
ENDBRANCH  64  87
ENDBRANCH  38  39
ENDBRANCH  31  33
ENDBRANCH  30  31
ENDBRANCH  29  30
ENDBRANCH  28  29
ENDBRANCH  27  28
ENDBRANCH  26  27
ENDBRANCH   1  26
TORSDOF 19
ENDMDL
