MODEL 1
REMARK VINA RESULT:     -12.9      0.000      0.000
REMARK SMILES C[NH+]1CCC(C(=O)N2C[C@@H](C(=O)OCCOCCOCCOC(=O)c3ccc(-c4c5nc(c(-c6c(F)c(F)c(F)c(F)c6F)c6ccc([nH]6)c(-c6c(F)c(F)c(F)c(F)c6F)c6nc(c(-c7c(F)c(F)c(F)c(F)c7F)c7ccc4[nH]7)C=C6)C=C5)cc3)[C@H](c3ccc4c(c3)OCO4)C2)CC1
REMARK SMILES IDX 17 1 16 2 15 3 14 4 13 5 11 6 12 7 10 8 8 9 9 10 98 11 88 12
REMARK SMILES IDX 6 13 7 14 5 15 1 16 2 17 3 18 100 19 4 21 99 22 89 23 90 24
REMARK SMILES IDX 94 25 91 26 93 27 92 28 95 29 97 30 96 31 18 32 19 33 20 34
REMARK SMILES IDX 21 35 22 36 23 37 24 38 25 39 26 40 87 41 27 42 86 43 28 44
REMARK SMILES IDX 29 45 30 46 80 47 31 48 85 49 79 50 81 51 32 52 84 53 78 54
REMARK SMILES IDX 77 55 33 57 65 58 45 59 64 60 46 61 49 62 63 63 82 64 47 65
REMARK SMILES IDX 48 66 62 68 83 69 50 70 34 71 35 72 43 73 36 74 37 75 41 76
REMARK SMILES IDX 44 77 38 78 39 79 42 80 40 81 66 82 67 83 75 84 68 85 69 86
REMARK SMILES IDX 73 87 76 88 70 89 71 90 74 91 72 92 51 93 52 94 60 95 53 96
REMARK SMILES IDX 54 97 58 98 61 99 55 100 56 101 59 102 57 103
REMARK H PARENT 2 20 81 56 49 67
REMARK Flexibility Score: inf
ROOT
ATOM      1  C   UNL A   1      40.406  20.933  26.881  1.00  0.00     0.188 C 
ENDROOT
BRANCH   1   2
ATOM      2  O   UNL A   1      39.485  21.953  26.520  1.00  0.00    -0.376 OA
BRANCH   2   3
ATOM      3  C   UNL A   1      38.449  21.681  25.585  1.00  0.00     0.202 C 
BRANCH   3   4
ATOM      4  C   UNL A   1      37.465  22.792  25.198  1.00  0.00     0.261 C 
BRANCH   4   5
ATOM      5  O   UNL A   1      36.785  23.391  26.307  1.00  0.00    -0.463 OA
BRANCH   5   6
ATOM      6  C   UNL A   1      35.427  23.285  26.341  1.00  0.00     0.311 C 
ATOM      7  O   UNL A   1      34.747  23.160  27.349  1.00  0.00    -0.252 OA
BRANCH   6   8
ATOM      8  C   UNL A   1      34.872  23.351  24.942  1.00  0.00     0.128 C 
ATOM      9  N   UNL A   1      33.655  24.634  23.447  1.00  0.00    -0.341 N 
ATOM     10  C   UNL A   1      34.633  24.778  24.500  1.00  0.00     0.135 C 
ATOM     11  C   UNL A   1      32.760  23.528  23.777  1.00  0.00     0.128 C 
ATOM     12  C   UNL A   1      33.495  22.656  24.823  1.00  0.00     0.055 C 
BRANCH   9  13
ATOM     13  C   UNL A   1      33.218  25.661  22.635  1.00  0.00     0.226 C 
ATOM     14  O   UNL A   1      33.742  25.868  21.538  1.00  0.00    -0.275 OA
BRANCH  13  15
ATOM     15  C   UNL A   1      32.235  26.689  23.214  1.00  0.00     0.090 C 
ATOM     16  C   UNL A   1      29.860  30.253  23.648  1.00  0.00     0.332 C 
ATOM     17  N   UNL A   1      30.843  29.248  23.238  1.00  0.00    -0.337 N 
ATOM     18  C   UNL A   1      30.169  28.061  22.699  1.00  0.00     0.262 C 
ATOM     19  C   UNL A   1      31.710  28.875  24.362  1.00  0.00     0.262 C 
ATOM     20  H   UNL A   1      31.426  29.656  22.507  1.00  0.00     0.347 HD
ATOM     21  C   UNL A   1      31.197  27.072  22.151  1.00  0.00     0.075 C 
ATOM     22  C   UNL A   1      32.819  27.933  23.874  1.00  0.00     0.075 C 
ENDBRANCH  13  15
ENDBRANCH   9  13
BRANCH  12  23
ATOM     23  C   UNL A   1      33.760  21.177  24.552  1.00  0.00    -0.038 A 
ATOM     24  C   UNL A   1      35.040  20.585  24.619  1.00  0.00     0.008 A 
ATOM     25  C   UNL A   1      32.634  20.332  24.434  1.00  0.00     0.054 A 
ATOM     26  C   UNL A   1      35.189  19.193  24.701  1.00  0.00     0.051 A 
ATOM     27  C   UNL A   1      32.803  18.981  24.618  1.00  0.00     0.166 A 
ATOM     28  C   UNL A   1      34.048  18.426  24.764  1.00  0.00     0.165 A 
ATOM     29  O   UNL A   1      31.803  18.073  24.783  1.00  0.00    -0.454 OA
ATOM     30  O   UNL A   1      33.983  17.093  25.032  1.00  0.00    -0.454 OA
ATOM     31  C   UNL A   1      32.567  16.955  25.281  1.00  0.00     0.468 C 
ENDBRANCH  12  23
ENDBRANCH   6   8
ENDBRANCH   5   6
ENDBRANCH   4   5
ENDBRANCH   3   4
ENDBRANCH   2   3
ENDBRANCH   1   2
BRANCH   1  32
ATOM     32  C   UNL A   1      40.591  19.686  25.985  1.00  0.00     0.188 C 
BRANCH  32  33
ATOM     33  O   UNL A   1      41.900  19.512  25.505  1.00  0.00    -0.376 OA
BRANCH  33  34
ATOM     34  C   UNL A   1      42.935  20.345  25.995  1.00  0.00     0.202 C 
BRANCH  34  35
ATOM     35  C   UNL A   1      43.655  21.429  25.162  1.00  0.00     0.261 C 
BRANCH  35  36
ATOM     36  O   UNL A   1      42.971  22.662  24.906  1.00  0.00    -0.460 OA
BRANCH  36  37
ATOM     37  C   UNL A   1      43.703  23.795  24.963  1.00  0.00     0.338 C 
ATOM     38  O   UNL A   1      44.683  24.080  24.284  1.00  0.00    -0.246 OA
BRANCH  37  39
ATOM     39  C   UNL A   1      43.036  24.750  25.866  1.00  0.00     0.060 A 
ATOM     40  C   UNL A   1      43.510  26.066  25.918  1.00  0.00     0.016 A 
ATOM     41  C   UNL A   1      41.970  24.357  26.678  1.00  0.00     0.016 A 
ATOM     42  C   UNL A   1      42.930  26.988  26.791  1.00  0.00     0.010 A 
ATOM     43  C   UNL A   1      41.410  25.277  27.574  1.00  0.00     0.010 A 
ATOM     44  C   UNL A   1      41.905  26.591  27.656  1.00  0.00    -0.014 A 
BRANCH  44  45
ATOM     45  C   UNL A   1      41.504  27.490  28.771  1.00  0.00     0.031 A 
ATOM     46  C   UNL A   1      42.300  27.437  30.048  1.00  0.00     0.074 A 
ATOM     47  C   UNL A   1      40.492  28.368  28.649  1.00  0.00     0.049 A 
ATOM     48  N   UNL A   1      42.094  28.051  31.186  1.00  0.00    -0.248 NA
ATOM     49  C   UNL A   1      43.496  26.579  30.037  1.00  0.00     0.031 C 
ATOM     50  C   UNL A   1      39.698  28.584  27.442  1.00  0.00     0.029 A 
ATOM     51  N   UNL A   1      39.954  29.240  29.566  1.00  0.00    -0.354 N 
ATOM     52  C   UNL A   1      43.112  27.627  32.032  1.00  0.00     0.074 A 
ATOM     53  C   UNL A   1      43.933  26.704  31.281  1.00  0.00     0.031 C 
ATOM     54  C   UNL A   1      38.761  29.516  27.697  1.00  0.00     0.029 A 
ATOM     55  C   UNL A   1      38.859  29.926  29.098  1.00  0.00     0.049 A 
ATOM     56  H   UNL A   1      40.320  29.362  30.472  1.00  0.00     0.167 HD
ATOM     57  C   UNL A   1      43.335  27.974  33.321  1.00  0.00     0.037 A 
ATOM     58  C   UNL A   1      38.013  30.757  29.740  1.00  0.00     0.037 A 
ATOM     59  C   UNL A   1      42.533  28.912  34.060  1.00  0.00     0.049 A 
ATOM     60  C   UNL A   1      38.239  31.059  31.204  1.00  0.00     0.074 A 
ATOM     61  C   UNL A   1      42.699  29.347  35.363  1.00  0.00     0.029 A 
ATOM     62  N   UNL A   1      41.409  29.554  33.564  1.00  0.00    -0.354 N 
ATOM     63  N   UNL A   1      39.206  30.662  31.996  1.00  0.00    -0.248 NA
ATOM     64  C   UNL A   1      37.250  31.925  31.864  1.00  0.00     0.031 C 
ATOM     65  C   UNL A   1      41.639  30.201  35.678  1.00  0.00     0.029 A 
ATOM     66  C   UNL A   1      40.853  30.356  34.547  1.00  0.00     0.049 A 
ATOM     67  H   UNL A   1      41.058  29.455  32.649  1.00  0.00     0.167 HD
ATOM     68  C   UNL A   1      38.967  31.266  33.225  1.00  0.00     0.074 A 
ATOM     69  C   UNL A   1      37.769  32.062  33.075  1.00  0.00     0.031 C 
ATOM     70  C   UNL A   1      39.678  31.171  34.376  1.00  0.00     0.037 A 
BRANCH  57  71
ATOM     71  C   UNL A   1      44.467  27.305  34.043  1.00  0.00     0.064 A 
ATOM     72  C   UNL A   1      45.747  27.873  34.112  1.00  0.00     0.173 A 
ATOM     73  C   UNL A   1      44.242  26.103  34.733  1.00  0.00     0.173 A 
ATOM     74  F   UNL A   1      46.018  29.010  33.456  1.00  0.00    -0.203 F 
ATOM     75  C   UNL A   1      46.763  27.257  34.839  1.00  0.00     0.198 A 
ATOM     76  C   UNL A   1      45.251  25.507  35.482  1.00  0.00     0.198 A 
ATOM     77  F   UNL A   1      43.034  25.520  34.699  1.00  0.00    -0.203 F 
ATOM     78  F   UNL A   1      47.989  27.798  34.865  1.00  0.00    -0.200 F 
ATOM     79  C   UNL A   1      46.512  26.081  35.532  1.00  0.00     0.200 A 
ATOM     80  F   UNL A   1      45.001  24.379  36.163  1.00  0.00    -0.200 F 
ATOM     81  F   UNL A   1      47.486  25.501  36.245  1.00  0.00    -0.200 F 
ENDBRANCH  57  71
BRANCH  58  82
ATOM     82  C   UNL A   1      36.836  31.341  29.034  1.00  0.00     0.064 A 
ATOM     83  C   UNL A   1      36.778  32.710  28.730  1.00  0.00     0.173 A 
ATOM     84  C   UNL A   1      35.713  30.560  28.726  1.00  0.00     0.173 A 
ATOM     85  F   UNL A   1      37.811  33.508  29.036  1.00  0.00    -0.203 F 
ATOM     86  C   UNL A   1      35.630  33.279  28.181  1.00  0.00     0.198 A 
ATOM     87  C   UNL A   1      34.578  31.124  28.143  1.00  0.00     0.198 A 
ATOM     88  F   UNL A   1      35.707  29.248  29.004  1.00  0.00    -0.203 F 
ATOM     89  F   UNL A   1      35.573  34.602  27.978  1.00  0.00    -0.200 F 
ATOM     90  C   UNL A   1      34.532  32.485  27.885  1.00  0.00     0.200 A 
ATOM     91  F   UNL A   1      33.523  30.351  27.852  1.00  0.00    -0.200 F 
ATOM     92  F   UNL A   1      33.423  33.036  27.372  1.00  0.00    -0.200 F 
ENDBRANCH  58  82
BRANCH  70  93
ATOM     93  C   UNL A   1      39.229  32.002  35.546  1.00  0.00     0.064 A 
ATOM     94  C   UNL A   1      38.385  31.495  36.543  1.00  0.00     0.173 A 
ATOM     95  C   UNL A   1      39.695  33.320  35.691  1.00  0.00     0.173 A 
ATOM     96  F   UNL A   1      37.903  30.246  36.447  1.00  0.00    -0.203 F 
ATOM     97  C   UNL A   1      37.998  32.282  37.624  1.00  0.00     0.198 A 
ATOM     98  C   UNL A   1      39.335  34.093  36.792  1.00  0.00     0.198 A 
ATOM     99  F   UNL A   1      40.516  33.853  34.773  1.00  0.00    -0.203 F 
ATOM    100  F   UNL A   1      37.147  31.793  38.537  1.00  0.00    -0.200 F 
ATOM    101  C   UNL A   1      38.480  33.576  37.752  1.00  0.00     0.200 A 
ATOM    102  F   UNL A   1      39.819  35.336  36.923  1.00  0.00    -0.200 F 
ATOM    103  F   UNL A   1      38.114  34.329  38.799  1.00  0.00    -0.200 F 
ENDBRANCH  70  93
ENDBRANCH  44  45
ENDBRANCH  37  39
ENDBRANCH  36  37
ENDBRANCH  35  36
ENDBRANCH  34  35
ENDBRANCH  33  34
ENDBRANCH  32  33
ENDBRANCH   1  32
TORSDOF 20
ENDMDL
MODEL 2
REMARK VINA RESULT:     -12.6      4.930     10.621
REMARK SMILES C[NH+]1CCC(C(=O)N2C[C@@H](C(=O)OCCOCCOCCOC(=O)c3ccc(-c4c5nc(c(-c6c(F)c(F)c(F)c(F)c6F)c6ccc([nH]6)c(-c6c(F)c(F)c(F)c(F)c6F)c6nc(c(-c7c(F)c(F)c(F)c(F)c7F)c7ccc4[nH]7)C=C6)C=C5)cc3)[C@H](c3ccc4c(c3)OCO4)C2)CC1
REMARK SMILES IDX 17 1 16 2 15 3 14 4 13 5 11 6 12 7 10 8 8 9 9 10 98 11 88 12
REMARK SMILES IDX 6 13 7 14 5 15 1 16 2 17 3 18 100 19 4 21 99 22 89 23 90 24
REMARK SMILES IDX 94 25 91 26 93 27 92 28 95 29 97 30 96 31 18 32 19 33 20 34
REMARK SMILES IDX 21 35 22 36 23 37 24 38 25 39 26 40 87 41 27 42 86 43 28 44
REMARK SMILES IDX 29 45 30 46 80 47 31 48 85 49 79 50 81 51 32 52 84 53 78 54
REMARK SMILES IDX 77 55 33 57 65 58 45 59 64 60 46 61 49 62 63 63 82 64 47 65
REMARK SMILES IDX 48 66 62 68 83 69 50 70 34 71 35 72 43 73 36 74 37 75 41 76
REMARK SMILES IDX 44 77 38 78 39 79 42 80 40 81 66 82 67 83 75 84 68 85 69 86
REMARK SMILES IDX 73 87 76 88 70 89 71 90 74 91 72 92 51 93 52 94 60 95 53 96
REMARK SMILES IDX 54 97 58 98 61 99 55 100 56 101 59 102 57 103
REMARK H PARENT 2 20 81 56 49 67
REMARK Flexibility Score: inf
ROOT
ATOM      1  C   UNL A   1      34.990  32.407  27.670  1.00  0.00     0.188 C 
ENDROOT
BRANCH   1   2
ATOM      2  O   UNL A   1      34.309  31.170  27.833  1.00  0.00    -0.376 OA
BRANCH   2   3
ATOM      3  C   UNL A   1      34.936  29.955  27.443  1.00  0.00     0.202 C 
BRANCH   3   4
ATOM      4  C   UNL A   1      34.102  28.672  27.337  1.00  0.00     0.261 C 
BRANCH   4   5
ATOM      5  O   UNL A   1      33.687  28.345  26.006  1.00  0.00    -0.463 OA
BRANCH   5   6
ATOM      6  C   UNL A   1      32.353  28.175  25.790  1.00  0.00     0.311 C 
ATOM      7  O   UNL A   1      31.460  28.858  26.269  1.00  0.00    -0.252 OA
BRANCH   6   8
ATOM      8  C   UNL A   1      32.128  27.013  24.857  1.00  0.00     0.128 C 
ATOM      9  N   UNL A   1      33.146  25.259  23.739  1.00  0.00    -0.341 N 
ATOM     10  C   UNL A   1      33.208  25.963  24.998  1.00  0.00     0.135 C 
ATOM     11  C   UNL A   1      32.808  26.207  22.680  1.00  0.00     0.128 C 
ATOM     12  C   UNL A   1      32.171  27.437  23.369  1.00  0.00     0.055 C 
BRANCH   9  13
ATOM     13  C   UNL A   1      33.857  24.113  23.443  1.00  0.00     0.226 C 
ATOM     14  O   UNL A   1      34.597  24.062  22.458  1.00  0.00    -0.275 OA
BRANCH  13  15
ATOM     15  C   UNL A   1      33.535  22.828  24.219  1.00  0.00     0.090 C 
ATOM     16  C   UNL A   1      33.166  18.654  25.206  1.00  0.00     0.332 C 
ATOM     17  N   UNL A   1      33.345  19.936  24.523  1.00  0.00    -0.337 N 
ATOM     18  C   UNL A   1      34.510  20.647  25.063  1.00  0.00     0.262 C 
ATOM     19  C   UNL A   1      32.141  20.767  24.645  1.00  0.00     0.262 C 
ATOM     20  H   UNL A   1      33.504  19.748  23.533  1.00  0.00     0.347 HD
ATOM     21  C   UNL A   1      34.772  21.921  24.260  1.00  0.00     0.075 C 
ATOM     22  C   UNL A   1      32.299  22.041  23.803  1.00  0.00     0.075 C 
ENDBRANCH  13  15
ENDBRANCH   9  13
BRANCH  12  23
ATOM     23  C   UNL A   1      30.763  27.895  22.993  1.00  0.00    -0.038 A 
ATOM     24  C   UNL A   1      29.587  27.229  23.401  1.00  0.00     0.008 A 
ATOM     25  C   UNL A   1      30.641  29.163  22.382  1.00  0.00     0.054 A 
ATOM     26  C   UNL A   1      28.337  27.862  23.327  1.00  0.00     0.051 A 
ATOM     27  C   UNL A   1      29.422  29.795  22.416  1.00  0.00     0.166 A 
ATOM     28  C   UNL A   1      28.300  29.167  22.891  1.00  0.00     0.165 A 
ATOM     29  O   UNL A   1      29.196  31.100  22.102  1.00  0.00    -0.454 OA
ATOM     30  O   UNL A   1      27.225  30.001  22.926  1.00  0.00    -0.454 OA
ATOM     31  C   UNL A   1      27.877  31.262  22.662  1.00  0.00     0.468 C 
ENDBRANCH  12  23
ENDBRANCH   6   8
ENDBRANCH   5   6
ENDBRANCH   4   5
ENDBRANCH   3   4
ENDBRANCH   2   3
ENDBRANCH   1   2
BRANCH   1  32
ATOM     32  C   UNL A   1      34.307  33.739  28.056  1.00  0.00     0.188 C 
BRANCH  32  33
ATOM     33  O   UNL A   1      34.819  34.331  29.223  1.00  0.00    -0.376 OA
BRANCH  33  34
ATOM     34  C   UNL A   1      33.959  34.551  30.325  1.00  0.00     0.202 C 
BRANCH  34  35
ATOM     35  C   UNL A   1      34.224  34.039  31.758  1.00  0.00     0.261 C 
BRANCH  35  36
ATOM     36  O   UNL A   1      34.569  32.660  31.940  1.00  0.00    -0.460 OA
BRANCH  36  37
ATOM     37  C   UNL A   1      35.589  32.388  32.781  1.00  0.00     0.338 C 
ATOM     38  O   UNL A   1      35.630  32.594  33.989  1.00  0.00    -0.246 OA
BRANCH  37  39
ATOM     39  C   UNL A   1      36.617  31.621  32.054  1.00  0.00     0.060 A 
ATOM     40  C   UNL A   1      37.542  30.873  32.791  1.00  0.00     0.016 A 
ATOM     41  C   UNL A   1      36.693  31.652  30.660  1.00  0.00     0.016 A 
ATOM     42  C   UNL A   1      38.555  30.168  32.139  1.00  0.00     0.010 A 
ATOM     43  C   UNL A   1      37.729  30.967  30.010  1.00  0.00     0.010 A 
ATOM     44  C   UNL A   1      38.682  30.242  30.748  1.00  0.00    -0.014 A 
BRANCH  44  45
ATOM     45  C   UNL A   1      39.923  29.736  30.102  1.00  0.00     0.031 A 
ATOM     46  C   UNL A   1      41.088  30.679  29.961  1.00  0.00     0.074 A 
ATOM     47  C   UNL A   1      40.041  28.460  29.691  1.00  0.00     0.049 A 
ATOM     48  N   UNL A   1      42.236  30.503  29.357  1.00  0.00    -0.248 NA
ATOM     49  C   UNL A   1      40.938  32.000  30.592  1.00  0.00     0.031 C 
ATOM     50  C   UNL A   1      39.026  27.421  29.848  1.00  0.00     0.029 A 
ATOM     51  N   UNL A   1      41.075  27.825  29.046  1.00  0.00    -0.354 N 
ATOM     52  C   UNL A   1      42.928  31.699  29.507  1.00  0.00     0.074 A 
ATOM     53  C   UNL A   1      42.074  32.594  30.255  1.00  0.00     0.031 C 
ATOM     54  C   UNL A   1      39.480  26.280  29.297  1.00  0.00     0.029 A 
ATOM     55  C   UNL A   1      40.797  26.522  28.707  1.00  0.00     0.049 A 
ATOM     56  H   UNL A   1      41.935  28.261  28.847  1.00  0.00     0.167 HD
ATOM     57  C   UNL A   1      44.162  32.021  29.056  1.00  0.00     0.037 A 
ATOM     58  C   UNL A   1      41.508  25.643  27.972  1.00  0.00     0.037 A 
ATOM     59  C   UNL A   1      45.022  31.122  28.332  1.00  0.00     0.049 A 
ATOM     60  C   UNL A   1      42.847  26.060  27.408  1.00  0.00     0.074 A 
ATOM     61  C   UNL A   1      46.302  31.350  27.858  1.00  0.00     0.029 A 
ATOM     62  N   UNL A   1      44.688  29.825  27.974  1.00  0.00    -0.354 N 
ATOM     63  N   UNL A   1      43.499  27.187  27.560  1.00  0.00    -0.248 NA
ATOM     64  C   UNL A   1      43.549  25.078  26.566  1.00  0.00     0.031 C 
ATOM     65  C   UNL A   1      46.717  30.216  27.155  1.00  0.00     0.029 A 
ATOM     66  C   UNL A   1      45.725  29.254  27.255  1.00  0.00     0.049 A 
ATOM     67  H   UNL A   1      43.840  29.377  28.197  1.00  0.00     0.167 HD
ATOM     68  C   UNL A   1      44.699  27.032  26.876  1.00  0.00     0.074 A 
ATOM     69  C   UNL A   1      44.691  25.699  26.315  1.00  0.00     0.031 C 
ATOM     70  C   UNL A   1      45.719  27.914  26.728  1.00  0.00     0.037 A 
BRANCH  57  71
ATOM     71  C   UNL A   1      44.651  33.421  29.284  1.00  0.00     0.064 A 
ATOM     72  C   UNL A   1      44.308  34.478  28.430  1.00  0.00     0.173 A 
ATOM     73  C   UNL A   1      45.423  33.715  30.419  1.00  0.00     0.173 A 
ATOM     74  F   UNL A   1      43.587  34.246  27.323  1.00  0.00    -0.203 F 
ATOM     75  C   UNL A   1      44.730  35.778  28.699  1.00  0.00     0.198 A 
ATOM     76  C   UNL A   1      45.817  35.019  30.700  1.00  0.00     0.198 A 
ATOM     77  F   UNL A   1      45.776  32.738  31.268  1.00  0.00    -0.203 F 
ATOM     78  F   UNL A   1      44.420  36.770  27.852  1.00  0.00    -0.200 F 
ATOM     79  C   UNL A   1      45.473  36.049  29.839  1.00  0.00     0.200 A 
ATOM     80  F   UNL A   1      46.522  35.280  31.810  1.00  0.00    -0.200 F 
ATOM     81  F   UNL A   1      45.861  37.304  30.105  1.00  0.00    -0.200 F 
ENDBRANCH  57  71
BRANCH  58  82
ATOM     82  C   UNL A   1      40.967  24.286  27.674  1.00  0.00     0.064 A 
ATOM     83  C   UNL A   1      41.548  23.134  28.228  1.00  0.00     0.173 A 
ATOM     84  C   UNL A   1      39.913  24.107  26.765  1.00  0.00     0.173 A 
ATOM     85  F   UNL A   1      42.581  23.248  29.075  1.00  0.00    -0.203 F 
ATOM     86  C   UNL A   1      41.121  21.860  27.855  1.00  0.00     0.198 A 
ATOM     87  C   UNL A   1      39.464  22.833  26.421  1.00  0.00     0.198 A 
ATOM     88  F   UNL A   1      39.327  25.170  26.196  1.00  0.00    -0.203 F 
ATOM     89  F   UNL A   1      41.749  20.779  28.338  1.00  0.00    -0.200 F 
ATOM     90  C   UNL A   1      40.078  21.711  26.954  1.00  0.00     0.200 A 
ATOM     91  F   UNL A   1      38.450  22.694  25.555  1.00  0.00    -0.200 F 
ATOM     92  F   UNL A   1      39.679  20.486  26.585  1.00  0.00    -0.200 F 
ENDBRANCH  58  82
BRANCH  70  93
ATOM     93  C   UNL A   1      46.945  27.447  25.994  1.00  0.00     0.064 A 
ATOM     94  C   UNL A   1      47.093  27.610  24.609  1.00  0.00     0.173 A 
ATOM     95  C   UNL A   1      48.012  26.869  26.702  1.00  0.00     0.173 A 
ATOM     96  F   UNL A   1      46.101  28.146  23.883  1.00  0.00    -0.203 F 
ATOM     97  C   UNL A   1      48.247  27.183  23.956  1.00  0.00     0.198 A 
ATOM     98  C   UNL A   1      49.179  26.477  26.052  1.00  0.00     0.198 A 
ATOM     99  F   UNL A   1      47.930  26.701  28.031  1.00  0.00    -0.203 F 
ATOM    100  F   UNL A   1      48.343  27.299  22.624  1.00  0.00    -0.200 F 
ATOM    101  C   UNL A   1      49.291  26.625  24.679  1.00  0.00     0.200 A 
ATOM    102  F   UNL A   1      50.194  25.957  26.756  1.00  0.00    -0.200 F 
ATOM    103  F   UNL A   1      50.404  26.225  24.050  1.00  0.00    -0.200 F 
ENDBRANCH  70  93
ENDBRANCH  44  45
ENDBRANCH  37  39
ENDBRANCH  36  37
ENDBRANCH  35  36
ENDBRANCH  34  35
ENDBRANCH  33  34
ENDBRANCH  32  33
ENDBRANCH   1  32
TORSDOF 20
ENDMDL
MODEL 3
REMARK VINA RESULT:     -12.2      1.124      7.097
REMARK SMILES C[NH+]1CCC(C(=O)N2C[C@@H](C(=O)OCCOCCOCCOC(=O)c3ccc(-c4c5nc(c(-c6c(F)c(F)c(F)c(F)c6F)c6ccc([nH]6)c(-c6c(F)c(F)c(F)c(F)c6F)c6nc(c(-c7c(F)c(F)c(F)c(F)c7F)c7ccc4[nH]7)C=C6)C=C5)cc3)[C@H](c3ccc4c(c3)OCO4)C2)CC1
REMARK SMILES IDX 17 1 16 2 15 3 14 4 13 5 11 6 12 7 10 8 8 9 9 10 98 11 88 12
REMARK SMILES IDX 6 13 7 14 5 15 1 16 2 17 3 18 100 19 4 21 99 22 89 23 90 24
REMARK SMILES IDX 94 25 91 26 93 27 92 28 95 29 97 30 96 31 18 32 19 33 20 34
REMARK SMILES IDX 21 35 22 36 23 37 24 38 25 39 26 40 87 41 27 42 86 43 28 44
REMARK SMILES IDX 29 45 30 46 80 47 31 48 85 49 79 50 81 51 32 52 84 53 78 54
REMARK SMILES IDX 77 55 33 57 65 58 45 59 64 60 46 61 49 62 63 63 82 64 47 65
REMARK SMILES IDX 48 66 62 68 83 69 50 70 34 71 35 72 43 73 36 74 37 75 41 76
REMARK SMILES IDX 44 77 38 78 39 79 42 80 40 81 66 82 67 83 75 84 68 85 69 86
REMARK SMILES IDX 73 87 76 88 70 89 71 90 74 91 72 92 51 93 52 94 60 95 53 96
REMARK SMILES IDX 54 97 58 98 61 99 55 100 56 101 59 102 57 103
REMARK H PARENT 2 20 81 56 49 67
REMARK Flexibility Score: inf
ROOT
ATOM      1  C   UNL A   1      40.819  21.493  26.624  1.00  0.00     0.188 C 
ENDROOT
BRANCH   1   2
ATOM      2  O   UNL A   1      39.810  22.162  25.879  1.00  0.00    -0.376 OA
BRANCH   2   3
ATOM      3  C   UNL A   1      38.442  21.821  26.067  1.00  0.00     0.202 C 
BRANCH   3   4
ATOM      4  C   UNL A   1      37.511  21.725  24.853  1.00  0.00     0.261 C 
BRANCH   4   5
ATOM      5  O   UNL A   1      36.377  22.598  24.907  1.00  0.00    -0.463 OA
BRANCH   5   6
ATOM      6  C   UNL A   1      35.721  22.845  23.739  1.00  0.00     0.311 C 
ATOM      7  O   UNL A   1      36.215  22.810  22.622  1.00  0.00    -0.252 OA
BRANCH   6   8
ATOM      8  C   UNL A   1      34.275  23.166  24.021  1.00  0.00     0.128 C 
ATOM      9  N   UNL A   1      32.838  24.584  25.154  1.00  0.00    -0.341 N 
ATOM     10  C   UNL A   1      34.093  24.608  24.439  1.00  0.00     0.135 C 
ATOM     11  C   UNL A   1      32.721  23.315  25.868  1.00  0.00     0.128 C 
ATOM     12  C   UNL A   1      33.706  22.331  25.192  1.00  0.00     0.055 C 
BRANCH   9  13
ATOM     13  C   UNL A   1      32.175  25.704  25.616  1.00  0.00     0.226 C 
ATOM     14  O   UNL A   1      31.704  25.737  26.755  1.00  0.00    -0.275 OA
BRANCH  13  15
ATOM     15  C   UNL A   1      31.825  26.815  24.616  1.00  0.00     0.090 C 
ATOM     16  C   UNL A   1      29.680  29.976  22.630  1.00  0.00     0.332 C 
ATOM     17  N   UNL A   1      30.074  28.841  23.467  1.00  0.00    -0.337 N 
ATOM     18  C   UNL A   1      31.121  29.241  24.414  1.00  0.00     0.262 C 
ATOM     19  C   UNL A   1      30.536  27.717  22.642  1.00  0.00     0.262 C 
ATOM     20  H   UNL A   1      29.254  28.535  23.992  1.00  0.00     0.347 HD
ATOM     21  C   UNL A   1      31.435  28.092  25.372  1.00  0.00     0.075 C 
ATOM     22  C   UNL A   1      30.805  26.495  23.530  1.00  0.00     0.075 C 
ENDBRANCH  13  15
ENDBRANCH   9  13
BRANCH  12  23
ATOM     23  C   UNL A   1      33.205  21.014  24.603  1.00  0.00    -0.038 A 
ATOM     24  C   UNL A   1      32.347  20.933  23.484  1.00  0.00     0.008 A 
ATOM     25  C   UNL A   1      33.803  19.827  25.080  1.00  0.00     0.054 A 
ATOM     26  C   UNL A   1      32.192  19.729  22.780  1.00  0.00     0.051 A 
ATOM     27  C   UNL A   1      33.713  18.690  24.313  1.00  0.00     0.166 A 
ATOM     28  C   UNL A   1      32.941  18.646  23.181  1.00  0.00     0.165 A 
ATOM     29  O   UNL A   1      34.430  17.549  24.501  1.00  0.00    -0.454 OA
ATOM     30  O   UNL A   1      33.071  17.463  22.521  1.00  0.00    -0.454 OA
ATOM     31  C   UNL A   1      34.192  16.899  23.235  1.00  0.00     0.468 C 
ENDBRANCH  12  23
ENDBRANCH   6   8
ENDBRANCH   5   6
ENDBRANCH   4   5
ENDBRANCH   3   4
ENDBRANCH   2   3
ENDBRANCH   1   2
BRANCH   1  32
ATOM     32  C   UNL A   1      41.413  20.156  26.123  1.00  0.00     0.188 C 
BRANCH  32  33
ATOM     33  O   UNL A   1      42.629  20.290  25.432  1.00  0.00    -0.376 OA
BRANCH  33  34
ATOM     34  C   UNL A   1      43.409  21.456  25.619  1.00  0.00     0.202 C 
BRANCH  34  35
ATOM     35  C   UNL A   1      43.809  22.433  24.490  1.00  0.00     0.261 C 
BRANCH  35  36
ATOM     36  O   UNL A   1      43.326  23.781  24.548  1.00  0.00    -0.460 OA
BRANCH  36  37
ATOM     37  C   UNL A   1      44.158  24.711  25.063  1.00  0.00     0.338 C 
ATOM     38  O   UNL A   1      45.283  24.998  24.671  1.00  0.00    -0.246 OA
BRANCH  37  39
ATOM     39  C   UNL A   1      43.435  25.482  26.091  1.00  0.00     0.060 A 
ATOM     40  C   UNL A   1      43.849  26.791  26.361  1.00  0.00     0.016 A 
ATOM     41  C   UNL A   1      42.374  24.921  26.805  1.00  0.00     0.016 A 
ATOM     42  C   UNL A   1      43.215  27.538  27.355  1.00  0.00     0.010 A 
ATOM     43  C   UNL A   1      41.760  25.664  27.823  1.00  0.00     0.010 A 
ATOM     44  C   UNL A   1      42.195  26.967  28.122  1.00  0.00    -0.014 A 
BRANCH  44  45
ATOM     45  C   UNL A   1      41.737  27.660  29.357  1.00  0.00     0.031 A 
ATOM     46  C   UNL A   1      40.469  28.468  29.291  1.00  0.00     0.074 A 
ATOM     47  C   UNL A   1      42.397  27.542  30.524  1.00  0.00     0.049 A 
ATOM     48  N   UNL A   1      39.917  29.230  30.201  1.00  0.00    -0.248 NA
ATOM     49  C   UNL A   1      39.717  28.401  28.028  1.00  0.00     0.031 C 
ATOM     50  C   UNL A   1      43.585  26.723  30.749  1.00  0.00     0.029 A 
ATOM     51  N   UNL A   1      42.157  28.128  31.744  1.00  0.00    -0.354 N 
ATOM     52  C   UNL A   1      38.776  29.758  29.608  1.00  0.00     0.074 A 
ATOM     53  C   UNL A   1      38.714  29.233  28.262  1.00  0.00     0.031 C 
ATOM     54  C   UNL A   1      43.983  26.871  32.026  1.00  0.00     0.029 A 
ATOM     55  C   UNL A   1      43.107  27.833  32.694  1.00  0.00     0.049 A 
ATOM     56  H   UNL A   1      41.379  28.704  31.922  1.00  0.00     0.167 HD
ATOM     57  C   UNL A   1      37.868  30.609  30.139  1.00  0.00     0.037 A 
ATOM     58  C   UNL A   1      43.268  28.315  33.943  1.00  0.00     0.037 A 
ATOM     59  C   UNL A   1      37.916  31.112  31.486  1.00  0.00     0.049 A 
ATOM     60  C   UNL A   1      42.284  29.330  34.478  1.00  0.00     0.074 A 
ATOM     61  C   UNL A   1      37.024  31.958  32.121  1.00  0.00     0.029 A 
ATOM     62  N   UNL A   1      38.915  30.822  32.402  1.00  0.00    -0.354 N 
ATOM     63  N   UNL A   1      41.204  29.819  33.917  1.00  0.00    -0.248 NA
ATOM     64  C   UNL A   1      42.545  29.863  35.825  1.00  0.00     0.031 C 
ATOM     65  C   UNL A   1      37.517  32.232  33.400  1.00  0.00     0.029 A 
ATOM     66  C   UNL A   1      38.677  31.499  33.587  1.00  0.00     0.049 A 
ATOM     67  H   UNL A   1      39.679  30.223  32.237  1.00  0.00     0.167 HD
ATOM     68  C   UNL A   1      40.637  30.674  34.855  1.00  0.00     0.074 A 
ATOM     69  C   UNL A   1      41.487  30.634  36.025  1.00  0.00     0.031 C 
ATOM     70  C   UNL A   1      39.513  31.425  34.758  1.00  0.00     0.037 A 
BRANCH  57  71
ATOM     71  C   UNL A   1      36.759  31.097  29.252  1.00  0.00     0.064 A 
ATOM     72  C   UNL A   1      35.677  30.281  28.896  1.00  0.00     0.173 A 
ATOM     73  C   UNL A   1      36.754  32.429  28.810  1.00  0.00     0.173 A 
ATOM     74  F   UNL A   1      35.644  28.996  29.279  1.00  0.00    -0.203 F 
ATOM     75  C   UNL A   1      34.633  30.779  28.119  1.00  0.00     0.198 A 
ATOM     76  C   UNL A   1      35.695  32.931  28.060  1.00  0.00     0.198 A 
ATOM     77  F   UNL A   1      37.767  33.250  29.126  1.00  0.00    -0.203 F 
ATOM     78  F   UNL A   1      33.624  29.974  27.760  1.00  0.00    -0.200 F 
ATOM     79  C   UNL A   1      34.638  32.106  27.712  1.00  0.00     0.200 A 
ATOM     80  F   UNL A   1      35.695  34.216  27.681  1.00  0.00    -0.200 F 
ATOM     81  F   UNL A   1      33.624  32.587  26.981  1.00  0.00    -0.200 F 
ENDBRANCH  57  71
BRANCH  58  82
ATOM     82  C   UNL A   1      44.428  27.893  34.779  1.00  0.00     0.064 A 
ATOM     83  C   UNL A   1      44.341  26.785  35.635  1.00  0.00     0.173 A 
ATOM     84  C   UNL A   1      45.617  28.637  34.801  1.00  0.00     0.173 A 
ATOM     85  F   UNL A   1      43.214  26.060  35.679  1.00  0.00    -0.203 F 
ATOM     86  C   UNL A   1      45.381  26.462  36.506  1.00  0.00     0.198 A 
ATOM     87  C   UNL A   1      46.671  28.292  35.646  1.00  0.00     0.198 A 
ATOM     88  F   UNL A   1      45.753  29.713  34.012  1.00  0.00    -0.203 F 
ATOM     89  F   UNL A   1      45.237  25.448  37.371  1.00  0.00    -0.200 F 
ATOM     90  C   UNL A   1      46.546  27.214  36.509  1.00  0.00     0.200 A 
ATOM     91  F   UNL A   1      47.797  29.017  35.640  1.00  0.00    -0.200 F 
ATOM     92  F   UNL A   1      47.538  26.913  37.357  1.00  0.00    -0.200 F 
ENDBRANCH  58  82
BRANCH  70  93
ATOM     93  C   UNL A   1      39.087  32.208  35.969  1.00  0.00     0.064 A 
ATOM     94  C   UNL A   1      38.279  31.652  36.970  1.00  0.00     0.173 A 
ATOM     95  C   UNL A   1      39.539  33.526  36.150  1.00  0.00     0.173 A 
ATOM     96  F   UNL A   1      37.811  30.401  36.843  1.00  0.00    -0.203 F 
ATOM     97  C   UNL A   1      37.912  32.394  38.091  1.00  0.00     0.198 A 
ATOM     98  C   UNL A   1      39.201  34.253  37.287  1.00  0.00     0.198 A 
ATOM     99  F   UNL A   1      40.326  34.104  35.228  1.00  0.00    -0.203 F 
ATOM    100  F   UNL A   1      37.095  31.860  39.009  1.00  0.00    -0.200 F 
ATOM    101  C   UNL A   1      38.380  33.690  38.252  1.00  0.00     0.200 A 
ATOM    102  F   UNL A   1      39.671  35.497  37.450  1.00  0.00    -0.200 F 
ATOM    103  F   UNL A   1      38.035  34.399  39.335  1.00  0.00    -0.200 F 
ENDBRANCH  70  93
ENDBRANCH  44  45
ENDBRANCH  37  39
ENDBRANCH  36  37
ENDBRANCH  35  36
ENDBRANCH  34  35
ENDBRANCH  33  34
ENDBRANCH  32  33
ENDBRANCH   1  32
TORSDOF 20
ENDMDL
