MODEL 1
REMARK VINA RESULT:     -10.4      0.000      0.000
REMARK SMILES O=C(/C=C/c1ccc(O)c(O)c1)OCCOCCOCCOC(=O)c1ccc(-c2c3nc(c(-c4c(F)c(F)c(F)c(F)c4F)c4ccc([nH]4)c(-c4c(F)c(F)c(F)c(F)c4F)c4nc(c(-c5c(F)c(F)c(F)c(F)c5F)c5ccc2[nH]5)C=C4)C=C3)cc1
REMARK SMILES IDX 17 1 16 2 15 3 14 4 13 5 2 6 1 7 3 8 4 9 5 10 6 11 12 12
REMARK SMILES IDX 7 13 10 14 8 15 11 16 9 18 18 20 19 21 20 22 21 23 22 24
REMARK SMILES IDX 23 25 24 26 25 27 26 28 87 29 27 30 86 31 28 32 29 33 30 34
REMARK SMILES IDX 80 35 31 36 85 37 79 38 81 39 32 40 84 41 78 42 77 43 33 45
REMARK SMILES IDX 65 46 45 47 64 48 46 49 49 50 63 51 82 52 47 53 48 54 62 56
REMARK SMILES IDX 83 57 50 58 34 59 35 60 43 61 36 62 37 63 41 64 44 65 38 66
REMARK SMILES IDX 39 67 42 68 40 69 66 70 67 71 75 72 68 73 69 74 73 75 76 76
REMARK SMILES IDX 70 77 71 78 74 79 72 80 51 81 52 82 60 83 53 84 54 85 58 86
REMARK SMILES IDX 61 87 55 88 56 89 59 90 57 91
REMARK H PARENT 11 17 9 19 81 44 49 55
REMARK Flexibility Score: inf
ROOT
ATOM      1  C   UNL A   1      35.138  32.190  28.143  1.00  0.00     0.188 C 
ENDROOT
BRANCH   1   2
ATOM      2  O   UNL A   1      34.505  30.933  28.289  1.00  0.00    -0.376 OA
BRANCH   2   3
ATOM      3  C   UNL A   1      34.336  30.107  27.142  1.00  0.00     0.202 C 
BRANCH   3   4
ATOM      4  C   UNL A   1      32.974  29.976  26.458  1.00  0.00     0.261 C 
BRANCH   4   5
ATOM      5  O   UNL A   1      32.526  28.772  25.781  1.00  0.00    -0.460 OA
BRANCH   5   6
ATOM      6  C   UNL A   1      31.507  28.488  24.956  1.00  0.00     0.330 C 
ATOM      7  O   UNL A   1      31.083  27.341  24.849  1.00  0.00    -0.247 OA
BRANCH   6   8
ATOM      8  C   UNL A   1      30.872  29.539  24.170  1.00  0.00     0.094 C 
ATOM      9  C   UNL A   1      29.640  29.429  23.664  1.00  0.00     0.016 C 
BRANCH   9  10
ATOM     10  C   UNL A   1      29.085  30.491  22.826  1.00  0.00    -0.021 A 
ATOM     11  C   UNL A   1      28.619  30.208  21.531  1.00  0.00     0.012 A 
ATOM     12  C   UNL A   1      29.012  31.797  23.320  1.00  0.00     0.058 A 
ATOM     13  C   UNL A   1      28.057  31.218  20.743  1.00  0.00     0.051 A 
ATOM     14  C   UNL A   1      28.454  32.791  22.531  1.00  0.00     0.157 A 
ATOM     15  C   UNL A   1      27.972  32.506  21.256  1.00  0.00     0.157 A 
BRANCH  14  16
ATOM     16  O   UNL A   1      28.371  34.062  23.023  1.00  0.00    -0.504 OA
ATOM     17  H   UNL A   1      29.149  34.568  23.150  1.00  0.00     0.293 HD
ENDBRANCH  14  16
BRANCH  15  18
ATOM     18  O   UNL A   1      27.410  33.530  20.546  1.00  0.00    -0.504 OA
ATOM     19  H   UNL A   1      27.426  34.402  20.888  1.00  0.00     0.293 HD
ENDBRANCH  15  18
ENDBRANCH   9  10
ENDBRANCH   6   8
ENDBRANCH   5   6
ENDBRANCH   4   5
ENDBRANCH   3   4
ENDBRANCH   2   3
ENDBRANCH   1   2
BRANCH   1  20
ATOM     20  C   UNL A   1      34.272  33.454  28.102  1.00  0.00     0.188 C 
BRANCH  20  21
ATOM     21  O   UNL A   1      34.640  34.544  28.926  1.00  0.00    -0.376 OA
BRANCH  21  22
ATOM     22  C   UNL A   1      34.007  35.800  28.678  1.00  0.00     0.202 C 
BRANCH  22  23
ATOM     23  C   UNL A   1      32.891  36.256  29.625  1.00  0.00     0.261 C 
BRANCH  23  24
ATOM     24  O   UNL A   1      32.621  35.280  30.653  1.00  0.00    -0.460 OA
BRANCH  24  25
ATOM     25  C   UNL A   1      32.789  35.722  31.923  1.00  0.00     0.338 C 
ATOM     26  O   UNL A   1      32.080  36.492  32.543  1.00  0.00    -0.246 OA
BRANCH  25  27
ATOM     27  C   UNL A   1      33.943  35.050  32.542  1.00  0.00     0.060 A 
ATOM     28  C   UNL A   1      35.216  35.611  32.380  1.00  0.00     0.016 A 
ATOM     29  C   UNL A   1      33.786  33.803  33.147  1.00  0.00     0.016 A 
ATOM     30  C   UNL A   1      36.344  34.911  32.812  1.00  0.00     0.010 A 
ATOM     31  C   UNL A   1      34.918  33.099  33.566  1.00  0.00     0.010 A 
ATOM     32  C   UNL A   1      36.204  33.637  33.382  1.00  0.00    -0.014 A 
BRANCH  32  33
ATOM     33  C   UNL A   1      37.398  32.824  33.720  1.00  0.00     0.031 A 
ATOM     34  C   UNL A   1      38.154  33.103  34.990  1.00  0.00     0.074 A 
ATOM     35  C   UNL A   1      37.821  31.862  32.882  1.00  0.00     0.049 A 
ATOM     36  N   UNL A   1      39.277  32.584  35.415  1.00  0.00    -0.248 NA
ATOM     37  C   UNL A   1      37.568  34.099  35.900  1.00  0.00     0.031 C 
ATOM     38  C   UNL A   1      37.157  31.474  31.640  1.00  0.00     0.029 A 
ATOM     39  N   UNL A   1      38.927  31.050  32.942  1.00  0.00    -0.354 N 
ATOM     40  C   UNL A   1      39.537  33.193  36.636  1.00  0.00     0.074 A 
ATOM     41  C   UNL A   1      38.461  34.130  36.879  1.00  0.00     0.031 C 
ATOM     42  C   UNL A   1      37.882  30.516  31.040  1.00  0.00     0.029 A 
ATOM     43  C   UNL A   1      39.083  30.255  31.835  1.00  0.00     0.049 A 
ATOM     44  H   UNL A   1      39.549  31.040  33.706  1.00  0.00     0.167 HD
ATOM     45  C   UNL A   1      40.580  32.988  37.475  1.00  0.00     0.037 A 
ATOM     46  C   UNL A   1      40.099  29.443  31.481  1.00  0.00     0.037 A 
ATOM     47  C   UNL A   1      41.646  32.051  37.240  1.00  0.00     0.049 A 
ATOM     48  C   UNL A   1      41.288  29.298  32.397  1.00  0.00     0.074 A 
ATOM     49  C   UNL A   1      42.711  31.731  38.065  1.00  0.00     0.029 A 
ATOM     50  N   UNL A   1      41.789  31.292  36.089  1.00  0.00    -0.354 N 
ATOM     51  N   UNL A   1      41.504  29.845  33.568  1.00  0.00    -0.248 NA
ATOM     52  C   UNL A   1      42.382  28.429  31.933  1.00  0.00     0.031 C 
ATOM     53  C   UNL A   1      43.527  30.817  37.390  1.00  0.00     0.029 A 
ATOM     54  C   UNL A   1      42.948  30.537  36.164  1.00  0.00     0.049 A 
ATOM     55  H   UNL A   1      41.162  31.291  35.331  1.00  0.00     0.167 HD
ATOM     56  C   UNL A   1      42.743  29.377  33.986  1.00  0.00     0.074 A 
ATOM     57  C   UNL A   1      43.226  28.486  32.953  1.00  0.00     0.031 C 
ATOM     58  C   UNL A   1      43.421  29.660  35.125  1.00  0.00     0.037 A 
BRANCH  45  59
ATOM     59  C   UNL A   1      40.642  33.804  38.730  1.00  0.00     0.064 A 
ATOM     60  C   UNL A   1      41.326  35.026  38.777  1.00  0.00     0.173 A 
ATOM     61  C   UNL A   1      39.936  33.397  39.872  1.00  0.00     0.173 A 
ATOM     62  F   UNL A   1      42.020  35.454  37.712  1.00  0.00    -0.203 F 
ATOM     63  C   UNL A   1      41.307  35.810  39.928  1.00  0.00     0.198 A 
ATOM     64  C   UNL A   1      39.904  34.192  41.014  1.00  0.00     0.198 A 
ATOM     65  F   UNL A   1      39.262  32.237  39.872  1.00  0.00    -0.203 F 
ATOM     66  F   UNL A   1      41.981  36.968  39.960  1.00  0.00    -0.200 F 
ATOM     67  C   UNL A   1      40.590  35.397  41.042  1.00  0.00     0.200 A 
ATOM     68  F   UNL A   1      39.202  33.797  42.085  1.00  0.00    -0.200 F 
ATOM     69  F   UNL A   1      40.559  36.161  42.143  1.00  0.00    -0.200 F 
ENDBRANCH  45  59
BRANCH  46  70
ATOM     70  C   UNL A   1      40.067  28.740  30.172  1.00  0.00     0.064 A 
ATOM     71  C   UNL A   1      39.466  27.481  30.041  1.00  0.00     0.173 A 
ATOM     72  C   UNL A   1      40.673  29.298  29.037  1.00  0.00     0.173 A 
ATOM     73  F   UNL A   1      38.897  26.896  31.104  1.00  0.00    -0.203 F 
ATOM     74  C   UNL A   1      39.494  26.796  28.827  1.00  0.00     0.198 A 
ATOM     75  C   UNL A   1      40.674  28.624  27.818  1.00  0.00     0.198 A 
ATOM     76  F   UNL A   1      41.256  30.504  29.104  1.00  0.00    -0.203 F 
ATOM     77  F   UNL A   1      38.959  25.571  28.740  1.00  0.00    -0.200 F 
ATOM     78  C   UNL A   1      40.095  27.370  27.717  1.00  0.00     0.200 A 
ATOM     79  F   UNL A   1      41.239  29.196  26.746  1.00  0.00    -0.200 F 
ATOM     80  F   UNL A   1      40.124  26.710  26.551  1.00  0.00    -0.200 F 
ENDBRANCH  46  70
BRANCH  58  81
ATOM     81  C   UNL A   1      44.754  28.999  35.319  1.00  0.00     0.064 A 
ATOM     82  C   UNL A   1      44.856  27.716  35.874  1.00  0.00     0.173 A 
ATOM     83  C   UNL A   1      45.934  29.633  34.903  1.00  0.00     0.173 A 
ATOM     84  F   UNL A   1      43.757  27.077  36.303  1.00  0.00    -0.203 F 
ATOM     85  C   UNL A   1      46.094  27.097  36.021  1.00  0.00     0.198 A 
ATOM     86  C   UNL A   1      47.168  29.001  35.028  1.00  0.00     0.198 A 
ATOM     87  F   UNL A   1      45.889  30.859  34.361  1.00  0.00    -0.203 F 
ATOM     88  F   UNL A   1      46.173  25.885  36.588  1.00  0.00    -0.200 F 
ATOM     89  C   UNL A   1      47.248  27.736  35.591  1.00  0.00     0.200 A 
ATOM     90  F   UNL A   1      48.281  29.615  34.604  1.00  0.00    -0.200 F 
ATOM     91  F   UNL A   1      48.439  27.135  35.726  1.00  0.00    -0.200 F 
ENDBRANCH  58  81
ENDBRANCH  32  33
ENDBRANCH  25  27
ENDBRANCH  24  25
ENDBRANCH  23  24
ENDBRANCH  22  23
ENDBRANCH  21  22
ENDBRANCH  20  21
ENDBRANCH   1  20
TORSDOF 20
ENDMDL
MODEL 2
REMARK VINA RESULT:     -10.4      4.747     10.166
REMARK SMILES O=C(/C=C/c1ccc(O)c(O)c1)OCCOCCOCCOC(=O)c1ccc(-c2c3nc(c(-c4c(F)c(F)c(F)c(F)c4F)c4ccc([nH]4)c(-c4c(F)c(F)c(F)c(F)c4F)c4nc(c(-c5c(F)c(F)c(F)c(F)c5F)c5ccc2[nH]5)C=C4)C=C3)cc1
REMARK SMILES IDX 17 1 16 2 15 3 14 4 13 5 2 6 1 7 3 8 4 9 5 10 6 11 12 12
REMARK SMILES IDX 7 13 10 14 8 15 11 16 9 18 18 20 19 21 20 22 21 23 22 24
REMARK SMILES IDX 23 25 24 26 25 27 26 28 87 29 27 30 86 31 28 32 29 33 30 34
REMARK SMILES IDX 80 35 31 36 85 37 79 38 81 39 32 40 84 41 78 42 77 43 33 45
REMARK SMILES IDX 65 46 45 47 64 48 46 49 49 50 63 51 82 52 47 53 48 54 62 56
REMARK SMILES IDX 83 57 50 58 34 59 35 60 43 61 36 62 37 63 41 64 44 65 38 66
REMARK SMILES IDX 39 67 42 68 40 69 66 70 67 71 75 72 68 73 69 74 73 75 76 76
REMARK SMILES IDX 70 77 71 78 74 79 72 80 51 81 52 82 60 83 53 84 54 85 58 86
REMARK SMILES IDX 61 87 55 88 56 89 59 90 57 91
REMARK H PARENT 11 17 9 19 81 44 49 55
REMARK Flexibility Score: inf
ROOT
ATOM      1  C   UNL A   1      31.167  25.187  25.702  1.00  0.00     0.188 C 
ENDROOT
BRANCH   1   2
ATOM      2  O   UNL A   1      31.370  24.333  26.812  1.00  0.00    -0.376 OA
BRANCH   2   3
ATOM      3  C   UNL A   1      31.995  23.071  26.607  1.00  0.00     0.202 C 
BRANCH   3   4
ATOM      4  C   UNL A   1      33.335  22.963  25.877  1.00  0.00     0.261 C 
BRANCH   4   5
ATOM      5  O   UNL A   1      33.502  22.305  24.594  1.00  0.00    -0.460 OA
BRANCH   5   6
ATOM      6  C   UNL A   1      32.741  21.479  23.861  1.00  0.00     0.330 C 
ATOM      7  O   UNL A   1      32.098  21.898  22.902  1.00  0.00    -0.247 OA
BRANCH   6   8
ATOM      8  C   UNL A   1      32.662  20.059  24.182  1.00  0.00     0.094 C 
ATOM      9  C   UNL A   1      33.663  19.383  24.755  1.00  0.00     0.016 C 
BRANCH   9  10
ATOM     10  C   UNL A   1      33.547  17.944  24.990  1.00  0.00    -0.021 A 
ATOM     11  C   UNL A   1      32.298  17.363  25.263  1.00  0.00     0.012 A 
ATOM     12  C   UNL A   1      34.690  17.140  24.936  1.00  0.00     0.058 A 
ATOM     13  C   UNL A   1      32.184  15.983  25.454  1.00  0.00     0.051 A 
ATOM     14  C   UNL A   1      34.567  15.773  25.128  1.00  0.00     0.157 A 
ATOM     15  C   UNL A   1      33.325  15.193  25.376  1.00  0.00     0.157 A 
BRANCH  14  16
ATOM     16  O   UNL A   1      35.683  14.988  25.059  1.00  0.00    -0.504 OA
ATOM     17  H   UNL A   1      36.518  15.340  25.296  1.00  0.00     0.293 HD
ENDBRANCH  14  16
BRANCH  15  18
ATOM     18  O   UNL A   1      33.275  13.836  25.528  1.00  0.00    -0.504 OA
ATOM     19  H   UNL A   1      33.577  13.442  26.322  1.00  0.00     0.293 HD
ENDBRANCH  15  18
ENDBRANCH   9  10
ENDBRANCH   6   8
ENDBRANCH   5   6
ENDBRANCH   4   5
ENDBRANCH   3   4
ENDBRANCH   2   3
ENDBRANCH   1   2
BRANCH   1  20
ATOM     20  C   UNL A   1      30.925  26.680  25.951  1.00  0.00     0.188 C 
BRANCH  20  21
ATOM     21  O   UNL A   1      30.979  27.560  24.844  1.00  0.00    -0.376 OA
BRANCH  21  22
ATOM     22  C   UNL A   1      32.000  28.560  24.847  1.00  0.00     0.202 C 
BRANCH  22  23
ATOM     23  C   UNL A   1      31.702  29.905  25.520  1.00  0.00     0.261 C 
BRANCH  23  24
ATOM     24  O   UNL A   1      32.304  30.002  26.828  1.00  0.00    -0.460 OA
BRANCH  24  25
ATOM     25  C   UNL A   1      32.929  31.176  27.087  1.00  0.00     0.338 C 
ATOM     26  O   UNL A   1      32.465  32.299  27.015  1.00  0.00    -0.246 OA
BRANCH  25  27
ATOM     27  C   UNL A   1      34.288  30.922  27.592  1.00  0.00     0.060 A 
ATOM     28  C   UNL A   1      34.708  29.597  27.761  1.00  0.00     0.016 A 
ATOM     29  C   UNL A   1      35.080  31.982  28.035  1.00  0.00     0.016 A 
ATOM     30  C   UNL A   1      35.924  29.328  28.393  1.00  0.00     0.010 A 
ATOM     31  C   UNL A   1      36.291  31.709  28.677  1.00  0.00     0.010 A 
ATOM     32  C   UNL A   1      36.710  30.383  28.880  1.00  0.00    -0.014 A 
BRANCH  32  33
ATOM     33  C   UNL A   1      37.935  30.110  29.672  1.00  0.00     0.031 A 
ATOM     34  C   UNL A   1      38.970  29.159  29.139  1.00  0.00     0.074 A 
ATOM     35  C   UNL A   1      38.105  30.686  30.874  1.00  0.00     0.049 A 
ATOM     36  N   UNL A   1      40.052  28.704  29.717  1.00  0.00    -0.248 NA
ATOM     37  C   UNL A   1      38.758  28.653  27.774  1.00  0.00     0.031 C 
ATOM     38  C   UNL A   1      37.192  31.650  31.485  1.00  0.00     0.029 A 
ATOM     39  N   UNL A   1      39.101  30.525  31.807  1.00  0.00    -0.354 N 
ATOM     40  C   UNL A   1      40.646  27.854  28.794  1.00  0.00     0.074 A 
ATOM     41  C   UNL A   1      39.799  27.846  27.619  1.00  0.00     0.031 C 
ATOM     42  C   UNL A   1      37.656  31.976  32.703  1.00  0.00     0.029 A 
ATOM     43  C   UNL A   1      38.873  31.212  32.973  1.00  0.00     0.049 A 
ATOM     44  H   UNL A   1      39.900  29.971  31.654  1.00  0.00     0.167 HD
ATOM     45  C   UNL A   1      41.794  27.146  28.916  1.00  0.00     0.037 A 
ATOM     46  C   UNL A   1      39.546  31.192  34.141  1.00  0.00     0.037 A 
ATOM     47  C   UNL A   1      42.643  27.160  30.078  1.00  0.00     0.049 A 
ATOM     48  C   UNL A   1      40.774  30.327  34.277  1.00  0.00     0.074 A 
ATOM     49  C   UNL A   1      43.857  26.522  30.267  1.00  0.00     0.029 A 
ATOM     50  N   UNL A   1      42.359  27.836  31.253  1.00  0.00    -0.354 N 
ATOM     51  N   UNL A   1      41.352  29.561  33.385  1.00  0.00    -0.248 NA
ATOM     52  C   UNL A   1      41.438  30.319  35.591  1.00  0.00     0.031 C 
ATOM     53  C   UNL A   1      44.282  26.771  31.576  1.00  0.00     0.029 A 
ATOM     54  C   UNL A   1      43.354  27.596  32.187  1.00  0.00     0.049 A 
ATOM     55  H   UNL A   1      41.567  28.402  31.403  1.00  0.00     0.167 HD
ATOM     56  C   UNL A   1      42.449  28.994  34.019  1.00  0.00     0.074 A 
ATOM     57  C   UNL A   1      42.470  29.517  35.369  1.00  0.00     0.031 C 
ATOM     58  C   UNL A   1      43.358  28.117  33.529  1.00  0.00     0.037 A 
BRANCH  45  59
ATOM     59  C   UNL A   1      42.205  26.272  27.771  1.00  0.00     0.064 A 
ATOM     60  C   UNL A   1      43.169  26.685  26.842  1.00  0.00     0.173 A 
ATOM     61  C   UNL A   1      41.687  24.973  27.653  1.00  0.00     0.173 A 
ATOM     62  F   UNL A   1      43.688  27.920  26.910  1.00  0.00    -0.203 F 
ATOM     63  C   UNL A   1      43.597  25.830  25.829  1.00  0.00     0.198 A 
ATOM     64  C   UNL A   1      42.131  24.115  26.652  1.00  0.00     0.198 A 
ATOM     65  F   UNL A   1      40.766  24.532  28.523  1.00  0.00    -0.203 F 
ATOM     66  F   UNL A   1      44.508  26.248  24.941  1.00  0.00    -0.200 F 
ATOM     67  C   UNL A   1      43.085  24.544  25.740  1.00  0.00     0.200 A 
ATOM     68  F   UNL A   1      41.644  22.869  26.573  1.00  0.00    -0.200 F 
ATOM     69  F   UNL A   1      43.511  23.716  24.775  1.00  0.00    -0.200 F 
ENDBRANCH  45  59
BRANCH  46  70
ATOM     70  C   UNL A   1      39.045  31.975  35.300  1.00  0.00     0.064 A 
ATOM     71  C   UNL A   1      39.360  33.333  35.448  1.00  0.00     0.173 A 
ATOM     72  C   UNL A   1      38.275  31.370  36.304  1.00  0.00     0.173 A 
ATOM     73  F   UNL A   1      40.116  33.948  34.527  1.00  0.00    -0.203 F 
ATOM     74  C   UNL A   1      38.943  34.049  36.568  1.00  0.00     0.198 A 
ATOM     75  C   UNL A   1      37.834  32.094  37.408  1.00  0.00     0.198 A 
ATOM     76  F   UNL A   1      37.937  30.074  36.210  1.00  0.00    -0.203 F 
ATOM     77  F   UNL A   1      39.301  35.331  36.712  1.00  0.00    -0.200 F 
ATOM     78  C   UNL A   1      38.177  33.430  37.545  1.00  0.00     0.200 A 
ATOM     79  F   UNL A   1      37.078  31.493  38.337  1.00  0.00    -0.200 F 
ATOM     80  F   UNL A   1      37.778  34.118  38.624  1.00  0.00    -0.200 F 
ENDBRANCH  46  70
BRANCH  58  81
ATOM     81  C   UNL A   1      44.455  27.671  34.450  1.00  0.00     0.064 A 
ATOM     82  C   UNL A   1      45.658  28.384  34.548  1.00  0.00     0.173 A 
ATOM     83  C   UNL A   1      44.285  26.550  35.275  1.00  0.00     0.173 A 
ATOM     84  F   UNL A   1      45.875  29.453  33.766  1.00  0.00    -0.203 F 
ATOM     85  C   UNL A   1      46.658  27.982  35.429  1.00  0.00     0.198 A 
ATOM     86  C   UNL A   1      45.277  26.164  36.172  1.00  0.00     0.198 A 
ATOM     87  F   UNL A   1      43.150  25.837  35.221  1.00  0.00    -0.203 F 
ATOM     88  F   UNL A   1      47.815  28.656  35.480  1.00  0.00    -0.200 F 
ATOM     89  C   UNL A   1      46.464  26.877  36.245  1.00  0.00     0.200 A 
ATOM     90  F   UNL A   1      45.084  25.103  36.968  1.00  0.00    -0.200 F 
ATOM     91  F   UNL A   1      47.425  26.495  37.099  1.00  0.00    -0.200 F 
ENDBRANCH  58  81
ENDBRANCH  32  33
ENDBRANCH  25  27
ENDBRANCH  24  25
ENDBRANCH  23  24
ENDBRANCH  22  23
ENDBRANCH  21  22
ENDBRANCH  20  21
ENDBRANCH   1  20
TORSDOF 20
ENDMDL
MODEL 3
REMARK VINA RESULT:     -10.2      3.956      9.632
REMARK SMILES O=C(/C=C/c1ccc(O)c(O)c1)OCCOCCOCCOC(=O)c1ccc(-c2c3nc(c(-c4c(F)c(F)c(F)c(F)c4F)c4ccc([nH]4)c(-c4c(F)c(F)c(F)c(F)c4F)c4nc(c(-c5c(F)c(F)c(F)c(F)c5F)c5ccc2[nH]5)C=C4)C=C3)cc1
REMARK SMILES IDX 17 1 16 2 15 3 14 4 13 5 2 6 1 7 3 8 4 9 5 10 6 11 12 12
REMARK SMILES IDX 7 13 10 14 8 15 11 16 9 18 18 20 19 21 20 22 21 23 22 24
REMARK SMILES IDX 23 25 24 26 25 27 26 28 87 29 27 30 86 31 28 32 29 33 30 34
REMARK SMILES IDX 80 35 31 36 85 37 79 38 81 39 32 40 84 41 78 42 77 43 33 45
REMARK SMILES IDX 65 46 45 47 64 48 46 49 49 50 63 51 82 52 47 53 48 54 62 56
REMARK SMILES IDX 83 57 50 58 34 59 35 60 43 61 36 62 37 63 41 64 44 65 38 66
REMARK SMILES IDX 39 67 42 68 40 69 66 70 67 71 75 72 68 73 69 74 73 75 76 76
REMARK SMILES IDX 70 77 71 78 74 79 72 80 51 81 52 82 60 83 53 84 54 85 58 86
REMARK SMILES IDX 61 87 55 88 56 89 59 90 57 91
REMARK H PARENT 11 17 9 19 81 44 49 55
REMARK Flexibility Score: inf
ROOT
ATOM      1  C   UNL A   1      33.949  28.537  22.861  1.00  0.00     0.188 C 
ENDROOT
BRANCH   1   2
ATOM      2  O   UNL A   1      33.840  27.559  21.844  1.00  0.00    -0.376 OA
BRANCH   2   3
ATOM      3  C   UNL A   1      32.617  26.844  21.701  1.00  0.00     0.202 C 
BRANCH   3   4
ATOM      4  C   UNL A   1      32.584  25.457  21.058  1.00  0.00     0.261 C 
BRANCH   4   5
ATOM      5  O   UNL A   1      33.380  24.335  21.521  1.00  0.00    -0.460 OA
BRANCH   5   6
ATOM      6  C   UNL A   1      33.584  23.765  22.718  1.00  0.00     0.330 C 
ATOM      7  O   UNL A   1      33.976  24.428  23.675  1.00  0.00    -0.247 OA
BRANCH   6   8
ATOM      8  C   UNL A   1      33.337  22.341  22.914  1.00  0.00     0.094 C 
ATOM      9  C   UNL A   1      32.970  21.819  24.088  1.00  0.00     0.016 C 
BRANCH   9  10
ATOM     10  C   UNL A   1      32.804  20.374  24.238  1.00  0.00    -0.021 A 
ATOM     11  C   UNL A   1      32.998  19.758  25.485  1.00  0.00     0.012 A 
ATOM     12  C   UNL A   1      32.443  19.599  23.130  1.00  0.00     0.058 A 
ATOM     13  C   UNL A   1      32.807  18.381  25.634  1.00  0.00     0.051 A 
ATOM     14  C   UNL A   1      32.257  18.235  23.288  1.00  0.00     0.157 A 
ATOM     15  C   UNL A   1      32.427  17.628  24.530  1.00  0.00     0.157 A 
BRANCH  14  16
ATOM     16  O   UNL A   1      31.889  17.485  22.207  1.00  0.00    -0.504 OA
ATOM     17  H   UNL A   1      31.079  17.658  21.771  1.00  0.00     0.293 HD
ENDBRANCH  14  16
BRANCH  15  18
ATOM     18  O   UNL A   1      32.199  16.283  24.617  1.00  0.00    -0.504 OA
ATOM     19  H   UNL A   1      31.624  15.948  25.274  1.00  0.00     0.293 HD
ENDBRANCH  15  18
ENDBRANCH   9  10
ENDBRANCH   6   8
ENDBRANCH   5   6
ENDBRANCH   4   5
ENDBRANCH   3   4
ENDBRANCH   2   3
ENDBRANCH   1   2
BRANCH   1  20
ATOM     20  C   UNL A   1      32.685  28.972  23.609  1.00  0.00     0.188 C 
BRANCH  20  21
ATOM     21  O   UNL A   1      32.239  28.174  24.690  1.00  0.00    -0.376 OA
BRANCH  21  22
ATOM     22  C   UNL A   1      31.800  28.849  25.870  1.00  0.00     0.202 C 
BRANCH  22  23
ATOM     23  C   UNL A   1      31.991  30.368  25.956  1.00  0.00     0.261 C 
BRANCH  23  24
ATOM     24  O   UNL A   1      32.457  30.782  27.256  1.00  0.00    -0.460 OA
BRANCH  24  25
ATOM     25  C   UNL A   1      33.289  31.852  27.255  1.00  0.00     0.338 C 
ATOM     26  O   UNL A   1      33.021  33.004  26.966  1.00  0.00    -0.246 OA
BRANCH  25  27
ATOM     27  C   UNL A   1      34.612  31.462  27.768  1.00  0.00     0.060 A 
ATOM     28  C   UNL A   1      34.817  30.134  28.163  1.00  0.00     0.016 A 
ATOM     29  C   UNL A   1      35.590  32.431  27.994  1.00  0.00     0.016 A 
ATOM     30  C   UNL A   1      36.004  29.776  28.806  1.00  0.00     0.010 A 
ATOM     31  C   UNL A   1      36.771  32.072  28.649  1.00  0.00     0.010 A 
ATOM     32  C   UNL A   1      36.977  30.749  29.078  1.00  0.00    -0.014 A 
BRANCH  32  33
ATOM     33  C   UNL A   1      38.180  30.413  29.878  1.00  0.00     0.031 A 
ATOM     34  C   UNL A   1      39.191  29.444  29.332  1.00  0.00     0.074 A 
ATOM     35  C   UNL A   1      38.351  30.948  31.100  1.00  0.00     0.049 A 
ATOM     36  N   UNL A   1      40.249  28.937  29.912  1.00  0.00    -0.248 NA
ATOM     37  C   UNL A   1      38.983  28.985  27.950  1.00  0.00     0.031 C 
ATOM     38  C   UNL A   1      37.461  31.923  31.725  1.00  0.00     0.029 A 
ATOM     39  N   UNL A   1      39.326  30.727  32.041  1.00  0.00    -0.354 N 
ATOM     40  C   UNL A   1      40.829  28.095  28.972  1.00  0.00     0.074 A 
ATOM     41  C   UNL A   1      39.999  28.148  27.786  1.00  0.00     0.031 C 
ATOM     42  C   UNL A   1      37.916  32.199  32.958  1.00  0.00     0.029 A 
ATOM     43  C   UNL A   1      39.103  31.386  33.224  1.00  0.00     0.049 A 
ATOM     44  H   UNL A   1      40.109  30.151  31.883  1.00  0.00     0.167 HD
ATOM     45  C   UNL A   1      41.950  27.345  29.090  1.00  0.00     0.037 A 
ATOM     46  C   UNL A   1      39.757  31.310  34.400  1.00  0.00     0.037 A 
ATOM     47  C   UNL A   1      42.781  27.297  30.264  1.00  0.00     0.049 A 
ATOM     48  C   UNL A   1      40.954  30.402  34.528  1.00  0.00     0.074 A 
ATOM     49  C   UNL A   1      43.971  26.614  30.451  1.00  0.00     0.029 A 
ATOM     50  N   UNL A   1      42.502  27.948  31.455  1.00  0.00    -0.354 N 
ATOM     51  N   UNL A   1      41.520  29.643  33.622  1.00  0.00    -0.248 NA
ATOM     52  C   UNL A   1      41.598  30.333  35.850  1.00  0.00     0.031 C 
ATOM     53  C   UNL A   1      44.385  26.810  31.773  1.00  0.00     0.029 A 
ATOM     54  C   UNL A   1      43.474  27.648  32.395  1.00  0.00     0.049 A 
ATOM     55  H   UNL A   1      41.727  28.535  31.610  1.00  0.00     0.167 HD
ATOM     56  C   UNL A   1      42.588  29.022  34.255  1.00  0.00     0.074 A 
ATOM     57  C   UNL A   1      42.606  29.505  35.619  1.00  0.00     0.031 C 
ATOM     58  C   UNL A   1      43.476  28.130  33.751  1.00  0.00     0.037 A 
BRANCH  45  59
ATOM     59  C   UNL A   1      42.349  26.491  27.926  1.00  0.00     0.064 A 
ATOM     60  C   UNL A   1      41.819  25.207  27.742  1.00  0.00     0.173 A 
ATOM     61  C   UNL A   1      43.208  26.999  26.939  1.00  0.00     0.173 A 
ATOM     62  F   UNL A   1      40.999  24.676  28.661  1.00  0.00    -0.203 F 
ATOM     63  C   UNL A   1      42.139  24.457  26.613  1.00  0.00     0.198 A 
ATOM     64  C   UNL A   1      43.510  26.255  25.803  1.00  0.00     0.198 A 
ATOM     65  F   UNL A   1      43.735  28.226  27.069  1.00  0.00    -0.203 F 
ATOM     66  F   UNL A   1      41.635  23.225  26.462  1.00  0.00    -0.200 F 
ATOM     67  C   UNL A   1      42.977  24.984  25.641  1.00  0.00     0.200 A 
ATOM     68  F   UNL A   1      44.311  26.770  24.859  1.00  0.00    -0.200 F 
ATOM     69  F   UNL A   1      43.271  24.269  24.546  1.00  0.00    -0.200 F 
ENDBRANCH  45  59
BRANCH  46  70
ATOM     70  C   UNL A   1      39.265  32.076  35.574  1.00  0.00     0.064 A 
ATOM     71  C   UNL A   1      39.666  33.400  35.796  1.00  0.00     0.173 A 
ATOM     72  C   UNL A   1      38.415  31.483  36.520  1.00  0.00     0.173 A 
ATOM     73  F   UNL A   1      40.499  34.001  34.934  1.00  0.00    -0.203 F 
ATOM     74  C   UNL A   1      39.254  34.095  36.932  1.00  0.00     0.198 A 
ATOM     75  C   UNL A   1      37.981  32.189  37.639  1.00  0.00     0.198 A 
ATOM     76  F   UNL A   1      37.994  30.220  36.354  1.00  0.00    -0.203 F 
ATOM     77  F   UNL A   1      39.693  35.341  37.147  1.00  0.00    -0.200 F 
ATOM     78  C   UNL A   1      38.409  33.489  37.850  1.00  0.00     0.200 A 
ATOM     79  F   UNL A   1      37.149  31.602  38.510  1.00  0.00    -0.200 F 
ATOM     80  F   UNL A   1      38.015  34.156  38.943  1.00  0.00    -0.200 F 
ENDBRANCH  46  70
BRANCH  58  81
ATOM     81  C   UNL A   1      44.544  27.621  34.674  1.00  0.00     0.064 A 
ATOM     82  C   UNL A   1      45.751  28.313  34.841  1.00  0.00     0.173 A 
ATOM     83  C   UNL A   1      44.340  26.459  35.433  1.00  0.00     0.173 A 
ATOM     84  F   UNL A   1      46.000  29.419  34.125  1.00  0.00    -0.203 F 
ATOM     85  C   UNL A   1      46.724  27.851  35.724  1.00  0.00     0.198 A 
ATOM     86  C   UNL A   1      45.303  26.013  36.333  1.00  0.00     0.198 A 
ATOM     87  F   UNL A   1      43.198  25.764  35.312  1.00  0.00    -0.203 F 
ATOM     88  F   UNL A   1      47.886  28.507  35.841  1.00  0.00    -0.200 F 
ATOM     89  C   UNL A   1      46.496  26.706  36.474  1.00  0.00     0.200 A 
ATOM     90  F   UNL A   1      45.078  24.913  37.064  1.00  0.00    -0.200 F 
ATOM     91  F   UNL A   1      47.430  26.267  37.330  1.00  0.00    -0.200 F 
ENDBRANCH  58  81
ENDBRANCH  32  33
ENDBRANCH  25  27
ENDBRANCH  24  25
ENDBRANCH  23  24
ENDBRANCH  22  23
ENDBRANCH  21  22
ENDBRANCH  20  21
ENDBRANCH   1  20
TORSDOF 20
ENDMDL
