MODEL 1
REMARK VINA RESULT:     -11.2      0.000      0.000
REMARK SMILES Cc1ccc([C@@H](C)Nc2ccc(N)cc2C(=O)OCCOCCOCCOC(=O)c2ccc(-c3c4nc(c(-c5c(F)c(F)c(F)c(F)c5F)c5ccc([nH]5)c(-c5c(F)c(F)c(F)c(F)c5F)c5nc(c(-c6c(F)c(F)c(F)c(F)c6F)c6ccc3[nH]6)C=C5)C=C4)cc2)cc1F
REMARK SMILES IDX 22 1 21 2 20 3 19 4 18 5 16 6 17 7 15 8 9 9 10 10 11 11
REMARK SMILES IDX 14 12 12 13 8 14 6 16 7 17 5 18 1 19 2 20 3 21 94 22 4 23
REMARK SMILES IDX 93 24 95 25 13 26 23 29 24 30 25 31 26 32 27 33 28 34 29 35
REMARK SMILES IDX 30 36 31 37 92 38 32 39 91 40 33 41 34 42 35 43 85 44 36 45
REMARK SMILES IDX 90 46 84 47 86 48 37 49 89 50 83 51 82 52 38 54 70 55 50 56
REMARK SMILES IDX 69 57 51 58 54 59 68 60 87 61 52 62 53 63 67 65 88 66 55 67
REMARK SMILES IDX 39 68 40 69 48 70 41 71 42 72 46 73 49 74 43 75 44 76 47 77
REMARK SMILES IDX 45 78 71 79 72 80 80 81 73 82 74 83 78 84 81 85 75 86 76 87
REMARK SMILES IDX 79 88 77 89 56 90 57 91 65 92 58 93 59 94 63 95 66 96 60 97
REMARK SMILES IDX 61 98 64 99 62 100
REMARK H PARENT 8 15 13 27 13 28 86 53 54 64
REMARK Flexibility Score: inf
ROOT
ATOM      1  C   UNL A   1      37.889  21.839  25.783  1.00  0.00     0.188 C 
ENDROOT
BRANCH   1   2
ATOM      2  O   UNL A   1      37.354  22.014  24.473  1.00  0.00    -0.376 OA
BRANCH   2   3
ATOM      3  C   UNL A   1      36.522  23.161  24.286  1.00  0.00     0.202 C 
BRANCH   3   4
ATOM      4  C   UNL A   1      35.653  23.202  23.012  1.00  0.00     0.261 C 
BRANCH   4   5
ATOM      5  O   UNL A   1      34.306  23.685  23.238  1.00  0.00    -0.460 OA
BRANCH   5   6
ATOM      6  C   UNL A   1      34.046  24.997  23.006  1.00  0.00     0.340 C 
ATOM      7  O   UNL A   1      34.005  25.508  21.897  1.00  0.00    -0.246 OA
BRANCH   6   8
ATOM      8  C   UNL A   1      33.503  25.698  24.220  1.00  0.00     0.085 A 
ATOM      9  C   UNL A   1      32.845  25.163  25.343  1.00  0.00     0.049 A 
ATOM     10  C   UNL A   1      32.592  26.102  26.389  1.00  0.00     0.029 A 
ATOM     11  C   UNL A   1      32.862  27.473  26.312  1.00  0.00     0.027 A 
ATOM     12  C   UNL A   1      33.736  27.114  24.144  1.00  0.00     0.043 A 
ATOM     13  C   UNL A   1      33.376  28.008  25.152  1.00  0.00     0.032 A 
BRANCH   9  14
ATOM     14  N   UNL A   1      32.410  23.898  25.660  1.00  0.00    -0.378 N 
ATOM     15  H   UNL A   1      31.483  23.790  25.346  1.00  0.00     0.161 HD
BRANCH  14  16
ATOM     16  C   UNL A   1      32.842  22.657  26.300  1.00  0.00     0.106 C 
ATOM     17  C   UNL A   1      34.092  22.727  27.154  1.00  0.00     0.036 C 
BRANCH  16  18
ATOM     18  C   UNL A   1      32.732  21.420  25.401  1.00  0.00    -0.023 A 
ATOM     19  C   UNL A   1      32.450  18.044  22.671  1.00  0.00     0.047 C 
ATOM     20  C   UNL A   1      32.590  19.218  23.590  1.00  0.00    -0.015 A 
ATOM     21  C   UNL A   1      32.160  20.486  23.199  1.00  0.00     0.007 A 
ATOM     22  C   UNL A   1      33.093  19.064  24.883  1.00  0.00     0.126 A 
ATOM     23  C   UNL A   1      32.246  21.567  24.085  1.00  0.00     0.006 A 
ATOM     24  C   UNL A   1      33.170  20.138  25.776  1.00  0.00     0.045 A 
ATOM     25  F   UNL A   1      33.494  17.851  25.294  1.00  0.00    -0.207 F 
ENDBRANCH  16  18
ENDBRANCH  14  16
ENDBRANCH   9  14
BRANCH  13  26
ATOM     26  N   UNL A   1      33.641  29.362  25.060  1.00  0.00    -0.399 N 
ATOM     27  H   UNL A   1      33.732  29.902  25.878  1.00  0.00     0.156 HD
ATOM     28  H   UNL A   1      33.739  29.785  24.177  1.00  0.00     0.156 HD
ENDBRANCH  13  26
ENDBRANCH   6   8
ENDBRANCH   5   6
ENDBRANCH   4   5
ENDBRANCH   3   4
ENDBRANCH   2   3
ENDBRANCH   1   2
BRANCH   1  29
ATOM     29  C   UNL A   1      39.411  22.035  26.012  1.00  0.00     0.188 C 
BRANCH  29  30
ATOM     30  O   UNL A   1      39.882  21.401  27.185  1.00  0.00    -0.376 OA
BRANCH  30  31
ATOM     31  C   UNL A   1      41.234  20.996  27.269  1.00  0.00     0.202 C 
BRANCH  31  32
ATOM     32  C   UNL A   1      42.096  20.822  26.019  1.00  0.00     0.261 C 
BRANCH  32  33
ATOM     33  O   UNL A   1      43.457  21.213  26.145  1.00  0.00    -0.460 OA
BRANCH  33  34
ATOM     34  C   UNL A   1      43.784  22.194  25.288  1.00  0.00     0.338 C 
ATOM     35  O   UNL A   1      43.047  22.665  24.407  1.00  0.00    -0.246 OA
BRANCH  34  36
ATOM     36  C   UNL A   1      45.206  22.617  25.394  1.00  0.00     0.060 A 
ATOM     37  C   UNL A   1      45.619  22.520  26.745  1.00  0.00     0.016 A 
ATOM     38  C   UNL A   1      45.283  23.829  24.720  1.00  0.00     0.016 A 
ATOM     39  C   UNL A   1      45.426  23.621  27.542  1.00  0.00     0.010 A 
ATOM     40  C   UNL A   1      45.033  24.927  25.493  1.00  0.00     0.010 A 
ATOM     41  C   UNL A   1      45.025  24.782  26.895  1.00  0.00    -0.014 A 
BRANCH  41  42
ATOM     42  C   UNL A   1      44.886  26.017  27.601  1.00  0.00     0.031 A 
ATOM     43  C   UNL A   1      43.546  26.596  27.475  1.00  0.00     0.074 A 
ATOM     44  C   UNL A   1      45.878  26.407  28.420  1.00  0.00     0.049 A 
ATOM     45  N   UNL A   1      43.285  27.849  27.552  1.00  0.00    -0.248 NA
ATOM     46  C   UNL A   1      42.384  25.792  27.065  1.00  0.00     0.031 C 
ATOM     47  C   UNL A   1      45.769  27.249  29.595  1.00  0.00     0.029 A 
ATOM     48  N   UNL A   1      47.249  26.149  28.298  1.00  0.00    -0.354 N 
ATOM     49  C   UNL A   1      41.914  27.926  27.651  1.00  0.00     0.074 A 
ATOM     50  C   UNL A   1      41.413  26.702  27.087  1.00  0.00     0.031 C 
ATOM     51  C   UNL A   1      47.001  27.623  29.979  1.00  0.00     0.029 A 
ATOM     52  C   UNL A   1      47.939  27.192  28.956  1.00  0.00     0.049 A 
ATOM     53  H   UNL A   1      47.657  25.381  27.838  1.00  0.00     0.167 HD
ATOM     54  C   UNL A   1      41.382  28.869  28.476  1.00  0.00     0.037 A 
ATOM     55  C   UNL A   1      48.721  28.056  28.232  1.00  0.00     0.037 A 
ATOM     56  C   UNL A   1      42.464  29.641  29.097  1.00  0.00     0.049 A 
ATOM     57  C   UNL A   1      48.101  29.414  28.013  1.00  0.00     0.074 A 
ATOM     58  C   UNL A   1      43.104  29.572  30.325  1.00  0.00     0.029 A 
ATOM     59  N   UNL A   1      43.321  30.354  28.278  1.00  0.00    -0.354 N 
ATOM     60  N   UNL A   1      46.922  29.764  28.441  1.00  0.00    -0.248 NA
ATOM     61  C   UNL A   1      48.735  30.446  27.201  1.00  0.00     0.031 C 
ATOM     62  C   UNL A   1      44.330  30.298  30.233  1.00  0.00     0.029 A 
ATOM     63  C   UNL A   1      44.431  30.815  28.955  1.00  0.00     0.049 A 
ATOM     64  H   UNL A   1      43.157  30.512  27.321  1.00  0.00     0.167 HD
ATOM     65  C   UNL A   1      46.604  31.001  27.951  1.00  0.00     0.074 A 
ATOM     66  C   UNL A   1      47.764  31.373  27.156  1.00  0.00     0.031 C 
ATOM     67  C   UNL A   1      45.403  31.603  28.213  1.00  0.00     0.037 A 
BRANCH  54  68
ATOM     68  C   UNL A   1      39.957  28.859  28.975  1.00  0.00     0.064 A 
ATOM     69  C   UNL A   1      38.909  29.254  28.117  1.00  0.00     0.173 A 
ATOM     70  C   UNL A   1      39.545  28.489  30.272  1.00  0.00     0.173 A 
ATOM     71  F   UNL A   1      39.131  29.536  26.827  1.00  0.00    -0.203 F 
ATOM     72  C   UNL A   1      37.586  29.362  28.546  1.00  0.00     0.198 A 
ATOM     73  C   UNL A   1      38.227  28.645  30.717  1.00  0.00     0.198 A 
ATOM     74  F   UNL A   1      40.379  27.901  31.137  1.00  0.00    -0.203 F 
ATOM     75  F   UNL A   1      36.639  29.741  27.677  1.00  0.00    -0.200 F 
ATOM     76  C   UNL A   1      37.248  29.086  29.853  1.00  0.00     0.200 A 
ATOM     77  F   UNL A   1      37.914  28.347  31.987  1.00  0.00    -0.200 F 
ATOM     78  F   UNL A   1      35.981  29.210  30.268  1.00  0.00    -0.200 F 
ENDBRANCH  54  68
BRANCH  55  79
ATOM     79  C   UNL A   1      49.564  27.347  27.228  1.00  0.00     0.064 A 
ATOM     80  C   UNL A   1      49.067  27.376  25.915  1.00  0.00     0.173 A 
ATOM     81  C   UNL A   1      50.951  27.322  27.415  1.00  0.00     0.173 A 
ATOM     82  F   UNL A   1      47.745  27.283  25.695  1.00  0.00    -0.203 F 
ATOM     83  C   UNL A   1      49.907  27.706  24.863  1.00  0.00     0.198 A 
ATOM     84  C   UNL A   1      51.796  27.636  26.354  1.00  0.00     0.198 A 
ATOM     85  F   UNL A   1      51.465  27.162  28.644  1.00  0.00    -0.203 F 
ATOM     86  F   UNL A   1      49.388  27.975  23.657  1.00  0.00    -0.200 F 
ATOM     87  C   UNL A   1      51.262  27.882  25.091  1.00  0.00     0.200 A 
ATOM     88  F   UNL A   1      53.107  27.799  26.582  1.00  0.00    -0.200 F 
ATOM     89  F   UNL A   1      52.036  28.312  24.087  1.00  0.00    -0.200 F 
ENDBRANCH  55  79
BRANCH  67  90
ATOM     90  C   UNL A   1      45.018  32.981  27.725  1.00  0.00     0.064 A 
ATOM     91  C   UNL A   1      45.322  34.150  28.438  1.00  0.00     0.173 A 
ATOM     92  C   UNL A   1      44.251  33.182  26.551  1.00  0.00     0.173 A 
ATOM     93  F   UNL A   1      45.854  34.097  29.666  1.00  0.00    -0.203 F 
ATOM     94  C   UNL A   1      45.039  35.420  27.929  1.00  0.00     0.198 A 
ATOM     95  C   UNL A   1      43.919  34.445  26.075  1.00  0.00     0.198 A 
ATOM     96  F   UNL A   1      43.783  32.173  25.807  1.00  0.00    -0.203 F 
ATOM     97  F   UNL A   1      45.436  36.505  28.607  1.00  0.00    -0.200 F 
ATOM     98  C   UNL A   1      44.348  35.567  26.743  1.00  0.00     0.200 A 
ATOM     99  F   UNL A   1      43.188  34.556  24.956  1.00  0.00    -0.200 F 
ATOM    100  F   UNL A   1      44.074  36.784  26.257  1.00  0.00    -0.200 F 
ENDBRANCH  67  90
ENDBRANCH  41  42
ENDBRANCH  34  36
ENDBRANCH  33  34
ENDBRANCH  32  33
ENDBRANCH  31  32
ENDBRANCH  30  31
ENDBRANCH  29  30
ENDBRANCH   1  29
TORSDOF 21
ENDMDL
MODEL 2
REMARK VINA RESULT:     -11.2      5.670     10.679
REMARK SMILES Cc1ccc([C@@H](C)Nc2ccc(N)cc2C(=O)OCCOCCOCCOC(=O)c2ccc(-c3c4nc(c(-c5c(F)c(F)c(F)c(F)c5F)c5ccc([nH]5)c(-c5c(F)c(F)c(F)c(F)c5F)c5nc(c(-c6c(F)c(F)c(F)c(F)c6F)c6ccc3[nH]6)C=C5)C=C4)cc2)cc1F
REMARK SMILES IDX 22 1 21 2 20 3 19 4 18 5 16 6 17 7 15 8 9 9 10 10 11 11
REMARK SMILES IDX 14 12 12 13 8 14 6 16 7 17 5 18 1 19 2 20 3 21 94 22 4 23
REMARK SMILES IDX 93 24 95 25 13 26 23 29 24 30 25 31 26 32 27 33 28 34 29 35
REMARK SMILES IDX 30 36 31 37 92 38 32 39 91 40 33 41 34 42 35 43 85 44 36 45
REMARK SMILES IDX 90 46 84 47 86 48 37 49 89 50 83 51 82 52 38 54 70 55 50 56
REMARK SMILES IDX 69 57 51 58 54 59 68 60 87 61 52 62 53 63 67 65 88 66 55 67
REMARK SMILES IDX 39 68 40 69 48 70 41 71 42 72 46 73 49 74 43 75 44 76 47 77
REMARK SMILES IDX 45 78 71 79 72 80 80 81 73 82 74 83 78 84 81 85 75 86 76 87
REMARK SMILES IDX 79 88 77 89 56 90 57 91 65 92 58 93 59 94 63 95 66 96 60 97
REMARK SMILES IDX 61 98 64 99 62 100
REMARK H PARENT 8 15 13 27 13 28 86 53 54 64
REMARK Flexibility Score: inf
ROOT
ATOM      1  C   UNL A   1      33.919  29.703  26.296  1.00  0.00     0.188 C 
ENDROOT
BRANCH   1   2
ATOM      2  O   UNL A   1      32.769  28.915  25.997  1.00  0.00    -0.376 OA
BRANCH   2   3
ATOM      3  C   UNL A   1      32.728  27.617  26.596  1.00  0.00     0.202 C 
BRANCH   3   4
ATOM      4  C   UNL A   1      31.342  26.962  26.763  1.00  0.00     0.261 C 
BRANCH   4   5
ATOM      5  O   UNL A   1      31.174  25.745  25.995  1.00  0.00    -0.460 OA
BRANCH   5   6
ATOM      6  C   UNL A   1      31.685  24.592  26.497  1.00  0.00     0.340 C 
ATOM      7  O   UNL A   1      31.088  23.843  27.256  1.00  0.00    -0.246 OA
BRANCH   6   8
ATOM      8  C   UNL A   1      32.937  24.161  25.785  1.00  0.00     0.085 A 
ATOM      9  C   UNL A   1      33.503  24.650  24.593  1.00  0.00     0.049 A 
ATOM     10  C   UNL A   1      34.785  24.109  24.277  1.00  0.00     0.029 A 
ATOM     11  C   UNL A   1      35.426  23.098  25.001  1.00  0.00     0.027 A 
ATOM     12  C   UNL A   1      33.591  23.096  26.494  1.00  0.00     0.043 A 
ATOM     13  C   UNL A   1      34.798  22.528  26.086  1.00  0.00     0.032 A 
BRANCH   9  14
ATOM     14  N   UNL A   1      33.082  25.575  23.667  1.00  0.00    -0.378 N 
ATOM     15  H   UNL A   1      33.616  26.395  23.769  1.00  0.00     0.161 HD
BRANCH  14  16
ATOM     16  C   UNL A   1      32.121  25.768  22.583  1.00  0.00     0.106 C 
ATOM     17  C   UNL A   1      32.651  25.641  21.168  1.00  0.00     0.036 C 
BRANCH  16  18
ATOM     18  C   UNL A   1      31.143  26.926  22.813  1.00  0.00    -0.023 A 
ATOM     19  C   UNL A   1      28.485  30.333  23.318  1.00  0.00     0.047 C 
ATOM     20  C   UNL A   1      29.392  29.162  23.096  1.00  0.00    -0.015 A 
ATOM     21  C   UNL A   1      30.737  29.350  22.780  1.00  0.00     0.007 A 
ATOM     22  C   UNL A   1      28.932  27.854  23.262  1.00  0.00     0.126 A 
ATOM     23  C   UNL A   1      31.590  28.250  22.627  1.00  0.00     0.006 A 
ATOM     24  C   UNL A   1      29.783  26.751  23.122  1.00  0.00     0.045 A 
ATOM     25  F   UNL A   1      27.648  27.643  23.588  1.00  0.00    -0.207 F 
ENDBRANCH  16  18
ENDBRANCH  14  16
ENDBRANCH   9  14
BRANCH  13  26
ATOM     26  N   UNL A   1      35.417  21.523  26.807  1.00  0.00    -0.399 N 
ATOM     27  H   UNL A   1      35.955  20.843  26.341  1.00  0.00     0.156 HD
ATOM     28  H   UNL A   1      35.319  21.489  27.786  1.00  0.00     0.156 HD
ENDBRANCH  13  26
ENDBRANCH   6   8
ENDBRANCH   5   6
ENDBRANCH   4   5
ENDBRANCH   3   4
ENDBRANCH   2   3
ENDBRANCH   1   2
BRANCH   1  29
ATOM     29  C   UNL A   1      33.826  30.792  27.397  1.00  0.00     0.188 C 
BRANCH  29  30
ATOM     30  O   UNL A   1      35.009  31.557  27.523  1.00  0.00    -0.376 OA
BRANCH  30  31
ATOM     31  C   UNL A   1      35.049  32.644  28.426  1.00  0.00     0.202 C 
BRANCH  31  32
ATOM     32  C   UNL A   1      34.731  32.462  29.910  1.00  0.00     0.261 C 
BRANCH  32  33
ATOM     33  O   UNL A   1      34.724  33.650  30.692  1.00  0.00    -0.460 OA
BRANCH  33  34
ATOM     34  C   UNL A   1      34.666  33.390  32.008  1.00  0.00     0.338 C 
ATOM     35  O   UNL A   1      33.875  32.608  32.560  1.00  0.00    -0.246 OA
BRANCH  34  36
ATOM     36  C   UNL A   1      35.584  34.238  32.815  1.00  0.00     0.060 A 
ATOM     37  C   UNL A   1      36.546  34.825  31.958  1.00  0.00     0.016 A 
ATOM     38  C   UNL A   1      35.981  33.443  33.881  1.00  0.00     0.016 A 
ATOM     39  C   UNL A   1      37.701  34.117  31.732  1.00  0.00     0.010 A 
ATOM     40  C   UNL A   1      37.096  32.689  33.643  1.00  0.00     0.010 A 
ATOM     41  C   UNL A   1      37.891  32.989  32.520  1.00  0.00    -0.014 A 
BRANCH  41  42
ATOM     42  C   UNL A   1      39.097  32.226  32.446  1.00  0.00     0.031 A 
ATOM     43  C   UNL A   1      38.925  30.958  31.731  1.00  0.00     0.074 A 
ATOM     44  C   UNL A   1      40.246  32.796  32.847  1.00  0.00     0.049 A 
ATOM     45  N   UNL A   1      39.630  29.907  31.935  1.00  0.00    -0.248 NA
ATOM     46  C   UNL A   1      37.791  30.722  30.824  1.00  0.00     0.031 C 
ATOM     47  C   UNL A   1      41.587  32.489  32.389  1.00  0.00     0.029 A 
ATOM     48  N   UNL A   1      40.428  33.766  33.840  1.00  0.00    -0.354 N 
ATOM     49  C   UNL A   1      39.326  29.062  30.891  1.00  0.00     0.074 A 
ATOM     50  C   UNL A   1      38.036  29.479  30.413  1.00  0.00     0.031 C 
ATOM     51  C   UNL A   1      42.473  33.075  33.212  1.00  0.00     0.029 A 
ATOM     52  C   UNL A   1      41.742  33.624  34.340  1.00  0.00     0.049 A 
ATOM     53  H   UNL A   1      39.761  34.426  34.136  1.00  0.00     0.167 HD
ATOM     54  C   UNL A   1      40.331  28.316  30.356  1.00  0.00     0.037 A 
ATOM     55  C   UNL A   1      41.939  33.225  35.638  1.00  0.00     0.037 A 
ATOM     56  C   UNL A   1      41.581  28.595  31.072  1.00  0.00     0.049 A 
ATOM     57  C   UNL A   1      42.370  31.787  35.783  1.00  0.00     0.074 A 
ATOM     58  C   UNL A   1      42.664  29.423  30.817  1.00  0.00     0.029 A 
ATOM     59  N   UNL A   1      41.642  28.322  32.426  1.00  0.00    -0.354 N 
ATOM     60  N   UNL A   1      42.533  30.962  34.789  1.00  0.00    -0.248 NA
ATOM     61  C   UNL A   1      42.553  31.148  37.081  1.00  0.00     0.031 C 
ATOM     62  C   UNL A   1      43.394  29.594  32.031  1.00  0.00     0.029 A 
ATOM     63  C   UNL A   1      42.762  28.864  33.021  1.00  0.00     0.049 A 
ATOM     64  H   UNL A   1      40.962  27.801  32.910  1.00  0.00     0.167 HD
ATOM     65  C   UNL A   1      42.784  29.706  35.270  1.00  0.00     0.074 A 
ATOM     66  C   UNL A   1      42.758  29.872  36.715  1.00  0.00     0.031 C 
ATOM     67  C   UNL A   1      42.960  28.630  34.444  1.00  0.00     0.037 A 
BRANCH  54  68
ATOM     68  C   UNL A   1      40.262  27.631  29.012  1.00  0.00     0.064 A 
ATOM     69  C   UNL A   1      39.564  26.413  28.880  1.00  0.00     0.173 A 
ATOM     70  C   UNL A   1      40.859  28.098  27.823  1.00  0.00     0.173 A 
ATOM     71  F   UNL A   1      38.861  25.896  29.896  1.00  0.00    -0.203 F 
ATOM     72  C   UNL A   1      39.547  25.681  27.692  1.00  0.00     0.198 A 
ATOM     73  C   UNL A   1      40.884  27.340  26.646  1.00  0.00     0.198 A 
ATOM     74  F   UNL A   1      41.380  29.325  27.729  1.00  0.00    -0.203 F 
ATOM     75  F   UNL A   1      38.861  24.531  27.635  1.00  0.00    -0.200 F 
ATOM     76  C   UNL A   1      40.230  26.129  26.583  1.00  0.00     0.200 A 
ATOM     77  F   UNL A   1      41.535  27.806  25.569  1.00  0.00    -0.200 F 
ATOM     78  F   UNL A   1      40.230  25.415  25.450  1.00  0.00    -0.200 F 
ENDBRANCH  54  68
BRANCH  55  79
ATOM     79  C   UNL A   1      41.030  33.928  36.588  1.00  0.00     0.064 A 
ATOM     80  C   UNL A   1      39.920  33.177  37.006  1.00  0.00     0.173 A 
ATOM     81  C   UNL A   1      41.581  34.857  37.479  1.00  0.00     0.173 A 
ATOM     82  F   UNL A   1      39.294  32.363  36.140  1.00  0.00    -0.203 F 
ATOM     83  C   UNL A   1      39.592  33.115  38.351  1.00  0.00     0.198 A 
ATOM     84  C   UNL A   1      41.239  34.806  38.828  1.00  0.00     0.198 A 
ATOM     85  F   UNL A   1      42.556  35.685  37.076  1.00  0.00    -0.203 F 
ATOM     86  F   UNL A   1      38.697  32.212  38.777  1.00  0.00    -0.200 F 
ATOM     87  C   UNL A   1      40.283  33.892  39.267  1.00  0.00     0.200 A 
ATOM     88  F   UNL A   1      41.908  35.565  39.706  1.00  0.00    -0.200 F 
ATOM     89  F   UNL A   1      40.031  33.731  40.572  1.00  0.00    -0.200 F 
ENDBRANCH  55  79
BRANCH  67  90
ATOM     90  C   UNL A   1      43.274  27.231  34.924  1.00  0.00     0.064 A 
ATOM     91  C   UNL A   1      42.287  26.254  35.113  1.00  0.00     0.173 A 
ATOM     92  C   UNL A   1      44.583  26.834  35.294  1.00  0.00     0.173 A 
ATOM     93  F   UNL A   1      40.985  26.552  35.008  1.00  0.00    -0.203 F 
ATOM     94  C   UNL A   1      42.605  24.941  35.470  1.00  0.00     0.198 A 
ATOM     95  C   UNL A   1      44.891  25.542  35.704  1.00  0.00     0.198 A 
ATOM     96  F   UNL A   1      45.628  27.670  35.278  1.00  0.00    -0.203 F 
ATOM     97  F   UNL A   1      41.631  24.024  35.544  1.00  0.00    -0.200 F 
ATOM     98  C   UNL A   1      43.908  24.584  35.754  1.00  0.00     0.200 A 
ATOM     99  F   UNL A   1      46.154  25.241  36.040  1.00  0.00    -0.200 F 
ATOM    100  F   UNL A   1      44.212  23.326  36.098  1.00  0.00    -0.200 F 
ENDBRANCH  67  90
ENDBRANCH  41  42
ENDBRANCH  34  36
ENDBRANCH  33  34
ENDBRANCH  32  33
ENDBRANCH  31  32
ENDBRANCH  30  31
ENDBRANCH  29  30
ENDBRANCH   1  29
TORSDOF 21
ENDMDL
MODEL 3
REMARK VINA RESULT:     -11.2      2.973      5.390
REMARK SMILES Cc1ccc([C@@H](C)Nc2ccc(N)cc2C(=O)OCCOCCOCCOC(=O)c2ccc(-c3c4nc(c(-c5c(F)c(F)c(F)c(F)c5F)c5ccc([nH]5)c(-c5c(F)c(F)c(F)c(F)c5F)c5nc(c(-c6c(F)c(F)c(F)c(F)c6F)c6ccc3[nH]6)C=C5)C=C4)cc2)cc1F
REMARK SMILES IDX 22 1 21 2 20 3 19 4 18 5 16 6 17 7 15 8 9 9 10 10 11 11
REMARK SMILES IDX 14 12 12 13 8 14 6 16 7 17 5 18 1 19 2 20 3 21 94 22 4 23
REMARK SMILES IDX 93 24 95 25 13 26 23 29 24 30 25 31 26 32 27 33 28 34 29 35
REMARK SMILES IDX 30 36 31 37 92 38 32 39 91 40 33 41 34 42 35 43 85 44 36 45
REMARK SMILES IDX 90 46 84 47 86 48 37 49 89 50 83 51 82 52 38 54 70 55 50 56
REMARK SMILES IDX 69 57 51 58 54 59 68 60 87 61 52 62 53 63 67 65 88 66 55 67
REMARK SMILES IDX 39 68 40 69 48 70 41 71 42 72 46 73 49 74 43 75 44 76 47 77
REMARK SMILES IDX 45 78 71 79 72 80 80 81 73 82 74 83 78 84 81 85 75 86 76 87
REMARK SMILES IDX 79 88 77 89 56 90 57 91 65 92 58 93 59 94 63 95 66 96 60 97
REMARK SMILES IDX 61 98 64 99 62 100
REMARK H PARENT 8 15 13 27 13 28 86 53 54 64
REMARK Flexibility Score: inf
ROOT
ATOM      1  C   UNL A   1      39.880  20.088  26.231  1.00  0.00     0.188 C 
ENDROOT
BRANCH   1   2
ATOM      2  O   UNL A   1      39.214  21.314  26.523  1.00  0.00    -0.376 OA
BRANCH   2   3
ATOM      3  C   UNL A   1      38.635  21.992  25.406  1.00  0.00     0.202 C 
BRANCH   3   4
ATOM      4  C   UNL A   1      37.330  21.409  24.826  1.00  0.00     0.261 C 
BRANCH   4   5
ATOM      5  O   UNL A   1      36.356  21.038  25.834  1.00  0.00    -0.460 OA
BRANCH   5   6
ATOM      6  C   UNL A   1      35.129  21.614  25.783  1.00  0.00     0.340 C 
ATOM      7  O   UNL A   1      34.889  22.765  26.118  1.00  0.00    -0.246 OA
BRANCH   6   8
ATOM      8  C   UNL A   1      34.147  20.804  24.983  1.00  0.00     0.085 A 
ATOM      9  C   UNL A   1      33.019  21.229  24.255  1.00  0.00     0.049 A 
ATOM     10  C   UNL A   1      32.388  20.207  23.484  1.00  0.00     0.029 A 
ATOM     11  C   UNL A   1      32.754  18.857  23.497  1.00  0.00     0.027 A 
ATOM     12  C   UNL A   1      34.484  19.408  25.014  1.00  0.00     0.043 A 
ATOM     13  C   UNL A   1      33.770  18.429  24.324  1.00  0.00     0.032 A 
BRANCH   9  14
ATOM     14  N   UNL A   1      32.405  22.451  24.107  1.00  0.00    -0.378 N 
ATOM     15  H   UNL A   1      31.678  22.524  24.766  1.00  0.00     0.161 HD
BRANCH  14  16
ATOM     16  C   UNL A   1      32.453  23.678  23.316  1.00  0.00     0.106 C 
ATOM     17  C   UNL A   1      33.207  23.615  22.001  1.00  0.00     0.036 C 
BRANCH  16  18
ATOM     18  C   UNL A   1      32.687  24.947  24.143  1.00  0.00    -0.023 A 
ATOM     19  C   UNL A   1      33.338  28.422  26.678  1.00  0.00     0.047 C 
ATOM     20  C   UNL A   1      33.151  27.203  25.828  1.00  0.00    -0.015 A 
ATOM     21  C   UNL A   1      32.383  26.130  26.277  1.00  0.00     0.007 A 
ATOM     22  C   UNL A   1      33.687  27.135  24.540  1.00  0.00     0.126 A 
ATOM     23  C   UNL A   1      32.169  25.018  25.453  1.00  0.00     0.006 A 
ATOM     24  C   UNL A   1      33.467  26.032  23.708  1.00  0.00     0.045 A 
ATOM     25  F   UNL A   1      34.412  28.163  24.073  1.00  0.00    -0.207 F 
ENDBRANCH  16  18
ENDBRANCH  14  16
ENDBRANCH   9  14
BRANCH  13  26
ATOM     26  N   UNL A   1      34.138  17.096  24.352  1.00  0.00    -0.399 N 
ATOM     27  H   UNL A   1      34.781  16.749  23.692  1.00  0.00     0.156 HD
ATOM     28  H   UNL A   1      33.756  16.495  25.032  1.00  0.00     0.156 HD
ENDBRANCH  13  26
ENDBRANCH   6   8
ENDBRANCH   5   6
ENDBRANCH   4   5
ENDBRANCH   3   4
ENDBRANCH   2   3
ENDBRANCH   1   2
BRANCH   1  29
ATOM     29  C   UNL A   1      41.366  19.916  26.645  1.00  0.00     0.188 C 
BRANCH  29  30
ATOM     30  O   UNL A   1      42.268  20.516  25.736  1.00  0.00    -0.376 OA
BRANCH  30  31
ATOM     31  C   UNL A   1      42.847  21.768  26.045  1.00  0.00     0.202 C 
BRANCH  31  32
ATOM     32  C   UNL A   1      42.260  23.074  25.511  1.00  0.00     0.261 C 
BRANCH  32  33
ATOM     33  O   UNL A   1      42.246  24.165  26.423  1.00  0.00    -0.460 OA
BRANCH  33  34
ATOM     34  C   UNL A   1      41.216  24.095  27.281  1.00  0.00     0.338 C 
ATOM     35  O   UNL A   1      41.131  23.325  28.252  1.00  0.00    -0.246 OA
BRANCH  34  36
ATOM     36  C   UNL A   1      40.072  24.965  26.899  1.00  0.00     0.060 A 
ATOM     37  C   UNL A   1      40.549  26.037  26.108  1.00  0.00     0.016 A 
ATOM     38  C   UNL A   1      39.384  25.212  28.080  1.00  0.00     0.016 A 
ATOM     39  C   UNL A   1      40.951  27.173  26.766  1.00  0.00     0.010 A 
ATOM     40  C   UNL A   1      39.819  26.307  28.771  1.00  0.00     0.010 A 
ATOM     41  C   UNL A   1      40.667  27.227  28.123  1.00  0.00    -0.014 A 
BRANCH  41  42
ATOM     42  C   UNL A   1      40.948  28.396  28.896  1.00  0.00     0.031 A 
ATOM     43  C   UNL A   1      39.852  29.367  28.878  1.00  0.00     0.074 A 
ATOM     44  C   UNL A   1      42.046  28.407  29.673  1.00  0.00     0.049 A 
ATOM     45  N   UNL A   1      39.998  30.631  29.031  1.00  0.00    -0.248 NA
ATOM     46  C   UNL A   1      38.481  28.989  28.498  1.00  0.00     0.031 C 
ATOM     47  C   UNL A   1      42.252  29.163  30.892  1.00  0.00     0.029 A 
ATOM     48  N   UNL A   1      43.262  27.746  29.458  1.00  0.00    -0.354 N 
ATOM     49  C   UNL A   1      38.724  31.121  29.214  1.00  0.00     0.074 A 
ATOM     50  C   UNL A   1      37.844  30.151  28.622  1.00  0.00     0.031 C 
ATOM     51  C   UNL A   1      43.555  29.113  31.220  1.00  0.00     0.029 A 
ATOM     52  C   UNL A   1      44.269  28.481  30.124  1.00  0.00     0.049 A 
ATOM     53  H   UNL A   1      43.391  26.921  28.938  1.00  0.00     0.167 HD
ATOM     54  C   UNL A   1      38.547  32.127  30.114  1.00  0.00     0.037 A 
ATOM     55  C   UNL A   1      45.251  29.106  29.398  1.00  0.00     0.037 A 
ATOM     56  C   UNL A   1      39.840  32.486  30.707  1.00  0.00     0.049 A 
ATOM     57  C   UNL A   1      45.076  30.600  29.283  1.00  0.00     0.074 A 
ATOM     58  C   UNL A   1      40.476  32.143  31.890  1.00  0.00     0.029 A 
ATOM     59  N   UNL A   1      40.842  32.950  29.875  1.00  0.00    -0.354 N 
ATOM     60  N   UNL A   1      44.083  31.269  29.796  1.00  0.00    -0.248 NA
ATOM     61  C   UNL A   1      45.966  31.436  28.486  1.00  0.00     0.031 C 
ATOM     62  C   UNL A   1      41.862  32.459  31.762  1.00  0.00     0.029 A 
ATOM     63  C   UNL A   1      42.067  33.002  30.507  1.00  0.00     0.049 A 
ATOM     64  H   UNL A   1      40.697  33.213  28.938  1.00  0.00     0.167 HD
ATOM     65  C   UNL A   1      44.147  32.572  29.387  1.00  0.00     0.074 A 
ATOM     66  C   UNL A   1      45.331  32.618  28.544  1.00  0.00     0.031 C 
ATOM     67  C   UNL A   1      43.205  33.497  29.747  1.00  0.00     0.037 A 
BRANCH  54  68
ATOM     68  C   UNL A   1      37.211  32.525  30.695  1.00  0.00     0.064 A 
ATOM     69  C   UNL A   1      36.303  33.276  29.920  1.00  0.00     0.173 A 
ATOM     70  C   UNL A   1      36.759  32.219  31.996  1.00  0.00     0.173 A 
ATOM     71  F   UNL A   1      36.548  33.558  28.634  1.00  0.00    -0.203 F 
ATOM     72  C   UNL A   1      35.099  33.760  30.431  1.00  0.00     0.198 A 
ATOM     73  C   UNL A   1      35.574  32.745  32.524  1.00  0.00     0.198 A 
ATOM     74  F   UNL A   1      37.404  31.350  32.781  1.00  0.00    -0.203 F 
ATOM     75  F   UNL A   1      34.281  34.467  29.638  1.00  0.00    -0.200 F 
ATOM     76  C   UNL A   1      34.746  33.520  31.741  1.00  0.00     0.200 A 
ATOM     77  F   UNL A   1      35.237  32.479  33.795  1.00  0.00    -0.200 F 
ATOM     78  F   UNL A   1      33.598  34.002  32.236  1.00  0.00    -0.200 F 
ENDBRANCH  54  68
BRANCH  55  79
ATOM     79  C   UNL A   1      45.788  28.238  28.313  1.00  0.00     0.064 A 
ATOM     80  C   UNL A   1      46.595  27.177  28.751  1.00  0.00     0.173 A 
ATOM     81  C   UNL A   1      45.019  28.057  27.156  1.00  0.00     0.173 A 
ATOM     82  F   UNL A   1      47.433  27.353  29.786  1.00  0.00    -0.203 F 
ATOM     83  C   UNL A   1      46.386  25.898  28.260  1.00  0.00     0.198 A 
ATOM     84  C   UNL A   1      44.823  26.775  26.652  1.00  0.00     0.198 A 
ATOM     85  F   UNL A   1      44.337  29.086  26.630  1.00  0.00    -0.203 F 
ATOM     86  F   UNL A   1      46.980  24.852  28.853  1.00  0.00    -0.200 F 
ATOM     87  C   UNL A   1      45.466  25.690  27.245  1.00  0.00     0.200 A 
ATOM     88  F   UNL A   1      43.935  26.584  25.666  1.00  0.00    -0.200 F 
ATOM     89  F   UNL A   1      45.195  24.436  26.864  1.00  0.00    -0.200 F 
ENDBRANCH  55  79
BRANCH  67  90
ATOM     90  C   UNL A   1      43.249  34.956  29.351  1.00  0.00     0.064 A 
ATOM     91  C   UNL A   1      43.036  35.392  28.036  1.00  0.00     0.173 A 
ATOM     92  C   UNL A   1      43.590  35.979  30.270  1.00  0.00     0.173 A 
ATOM     93  F   UNL A   1      42.917  34.520  27.026  1.00  0.00    -0.203 F 
ATOM     94  C   UNL A   1      42.991  36.748  27.705  1.00  0.00     0.198 A 
ATOM     95  C   UNL A   1      43.601  37.326  29.927  1.00  0.00     0.198 A 
ATOM     96  F   UNL A   1      43.928  35.732  31.541  1.00  0.00    -0.203 F 
ATOM     97  F   UNL A   1      42.690  37.112  26.452  1.00  0.00    -0.200 F 
ATOM     98  C   UNL A   1      43.262  37.715  28.653  1.00  0.00     0.200 A 
ATOM     99  F   UNL A   1      43.936  38.238  30.851  1.00  0.00    -0.200 F 
ATOM    100  F   UNL A   1      43.222  39.014  28.336  1.00  0.00    -0.200 F 
ENDBRANCH  67  90
ENDBRANCH  41  42
ENDBRANCH  34  36
ENDBRANCH  33  34
ENDBRANCH  32  33
ENDBRANCH  31  32
ENDBRANCH  30  31
ENDBRANCH  29  30
ENDBRANCH   1  29
TORSDOF 21
ENDMDL
