MODEL 1
REMARK VINA RESULT:     -11.4      0.000      0.000
REMARK SMILES O=C(OCCOCCOCCOC(=O)c1ccc(-c2c3nc(c(-c4c(F)c(F)c(F)c(F)c4F)c4ccc([nH]4)c(-c4c(F)c(F)c(F)c(F)c4F)c4nc(c(-c5c(F)c(F)c(F)c(F)c5F)c5ccc2[nH]5)C=C4)C=C3)cc1)C1=C[C@H]2C(=N1)C=CC(Cl)=C2Cl
REMARK SMILES IDX 8 1 7 2 6 3 5 4 4 5 3 6 2 7 1 8 78 9 79 10 82 11 80 12 81 13
REMARK SMILES IDX 87 14 83 15 85 16 88 17 84 18 86 19 9 20 10 21 11 22 12 23
REMARK SMILES IDX 13 24 14 25 15 26 16 27 77 28 17 29 76 30 18 31 19 32 20 33
REMARK SMILES IDX 70 34 21 35 75 36 69 37 71 38 22 39 74 40 68 41 67 42 23 44
REMARK SMILES IDX 55 45 35 46 54 47 36 48 39 49 53 50 72 51 37 52 38 53 52 55
REMARK SMILES IDX 73 56 40 57 24 58 25 59 33 60 26 61 27 62 31 63 34 64 28 65
REMARK SMILES IDX 29 66 32 67 30 68 56 69 57 70 65 71 58 72 59 73 63 74 66 75
REMARK SMILES IDX 60 76 61 77 64 78 62 79 41 80 42 81 50 82 43 83 44 84 48 85
REMARK SMILES IDX 51 86 45 87 46 88 49 89 47 90
REMARK H PARENT 71 43 39 54
REMARK Flexibility Score: inf
ROOT
ATOM      1  C   UNL A   1      44.055  18.694  25.064  1.00  0.00     0.188 C 
ENDROOT
BRANCH   1   2
ATOM      2  C   UNL A   1      42.952  18.820  26.127  1.00  0.00     0.188 C 
BRANCH   2   3
ATOM      3  O   UNL A   1      41.775  19.408  25.607  1.00  0.00    -0.376 OA
BRANCH   3   4
ATOM      4  C   UNL A   1      40.828  19.898  26.535  1.00  0.00     0.202 C 
BRANCH   4   5
ATOM      5  C   UNL A   1      40.156  21.215  26.121  1.00  0.00     0.261 C 
BRANCH   5   6
ATOM      6  O   UNL A   1      38.762  21.167  25.745  1.00  0.00    -0.459 OA
BRANCH   6   7
ATOM      7  C   UNL A   1      37.889  22.192  25.639  1.00  0.00     0.356 C 
ATOM      8  O   UNL A   1      38.180  23.302  26.080  1.00  0.00    -0.244 OA
BRANCH   7   9
ATOM      9  C   UNL A   1      36.526  21.934  25.116  1.00  0.00     0.145 C 
ATOM     10  C   UNL A   1      35.819  22.976  24.654  1.00  0.00     0.024 C 
ATOM     11  N   UNL A   1      35.811  20.753  25.193  1.00  0.00    -0.245 NA
ATOM     12  C   UNL A   1      34.476  22.502  24.262  1.00  0.00     0.107 C 
ATOM     13  C   UNL A   1      34.609  21.090  24.834  1.00  0.00     0.054 C 
ATOM     14  C   UNL A   1      33.239  23.063  24.918  1.00  0.00     0.050 C 
ATOM     15  C   UNL A   1      33.377  20.278  25.073  1.00  0.00     0.026 C 
ATOM     16  C   UNL A   1      32.146  22.336  24.578  1.00  0.00     0.056 C 
ATOM     17  Cl  UNL A   1      33.455  23.398  26.640  1.00  0.00    -0.086 Cl
ATOM     18  C   UNL A   1      32.199  20.930  24.995  1.00  0.00     0.023 C 
ATOM     19  Cl  UNL A   1      31.681  22.410  22.878  1.00  0.00    -0.083 Cl
ENDBRANCH   7   9
ENDBRANCH   6   7
ENDBRANCH   5   6
ENDBRANCH   4   5
ENDBRANCH   3   4
ENDBRANCH   2   3
ENDBRANCH   1   2
BRANCH   1  20
ATOM     20  O   UNL A   1      44.452  19.866  24.362  1.00  0.00    -0.376 OA
BRANCH  20  21
ATOM     21  C   UNL A   1      45.686  20.483  24.729  1.00  0.00     0.202 C 
BRANCH  21  22
ATOM     22  C   UNL A   1      45.657  21.914  25.301  1.00  0.00     0.261 C 
BRANCH  22  23
ATOM     23  O   UNL A   1      44.476  22.277  26.055  1.00  0.00    -0.460 OA
BRANCH  23  24
ATOM     24  C   UNL A   1      43.539  22.975  25.361  1.00  0.00     0.338 C 
ATOM     25  O   UNL A   1      43.068  22.695  24.272  1.00  0.00    -0.246 OA
BRANCH  24  26
ATOM     26  C   UNL A   1      43.037  24.134  26.137  1.00  0.00     0.060 A 
ATOM     27  C   UNL A   1      43.723  25.355  26.055  1.00  0.00     0.016 A 
ATOM     28  C   UNL A   1      42.014  23.977  27.070  1.00  0.00     0.016 A 
ATOM     29  C   UNL A   1      43.399  26.419  26.915  1.00  0.00     0.010 A 
ATOM     30  C   UNL A   1      41.697  25.040  27.933  1.00  0.00     0.010 A 
ATOM     31  C   UNL A   1      42.398  26.266  27.882  1.00  0.00    -0.014 A 
BRANCH  31  32
ATOM     32  C   UNL A   1      42.117  27.300  28.922  1.00  0.00     0.031 A 
ATOM     33  C   UNL A   1      42.717  27.157  30.293  1.00  0.00     0.074 A 
ATOM     34  C   UNL A   1      41.276  28.331  28.710  1.00  0.00     0.049 A 
ATOM     35  N   UNL A   1      42.449  27.835  31.381  1.00  0.00    -0.248 NA
ATOM     36  C   UNL A   1      43.790  26.164  30.447  1.00  0.00     0.031 C 
ATOM     37  C   UNL A   1      40.738  28.750  27.427  1.00  0.00     0.029 A 
ATOM     38  N   UNL A   1      40.654  29.172  29.609  1.00  0.00    -0.354 N 
ATOM     39  C   UNL A   1      43.368  27.407  32.325  1.00  0.00     0.074 A 
ATOM     40  C   UNL A   1      44.141  26.346  31.714  1.00  0.00     0.031 C 
ATOM     41  C   UNL A   1      39.723  29.609  27.630  1.00  0.00     0.029 A 
ATOM     42  C   UNL A   1      39.570  29.822  29.060  1.00  0.00     0.049 A 
ATOM     43  H   UNL A   1      40.950  29.294  30.540  1.00  0.00     0.167 HD
ATOM     44  C   UNL A   1      43.582  27.901  33.568  1.00  0.00     0.037 A 
ATOM     45  C   UNL A   1      38.547  30.465  29.654  1.00  0.00     0.037 A 
ATOM     46  C   UNL A   1      42.811  28.949  34.185  1.00  0.00     0.049 A 
ATOM     47  C   UNL A   1      38.611  30.765  31.117  1.00  0.00     0.074 A 
ATOM     48  C   UNL A   1      43.028  29.588  35.395  1.00  0.00     0.029 A 
ATOM     49  N   UNL A   1      41.652  29.490  33.655  1.00  0.00    -0.354 N 
ATOM     50  N   UNL A   1      39.521  30.419  31.989  1.00  0.00    -0.248 NA
ATOM     51  C   UNL A   1      37.542  31.617  31.661  1.00  0.00     0.031 C 
ATOM     52  C   UNL A   1      41.961  30.463  35.630  1.00  0.00     0.029 A 
ATOM     53  C   UNL A   1      41.106  30.404  34.545  1.00  0.00     0.049 A 
ATOM     54  H   UNL A   1      41.271  29.259  32.778  1.00  0.00     0.167 HD
ATOM     55  C   UNL A   1      39.182  31.073  33.161  1.00  0.00     0.074 A 
ATOM     56  C   UNL A   1      37.954  31.796  32.907  1.00  0.00     0.031 C 
ATOM     57  C   UNL A   1      39.873  31.109  34.324  1.00  0.00     0.037 A 
BRANCH  44  58
ATOM     58  C   UNL A   1      44.727  27.336  34.350  1.00  0.00     0.064 A 
ATOM     59  C   UNL A   1      46.013  27.885  34.246  1.00  0.00     0.173 A 
ATOM     60  C   UNL A   1      44.519  26.306  35.275  1.00  0.00     0.173 A 
ATOM     61  F   UNL A   1      46.260  28.872  33.369  1.00  0.00    -0.203 F 
ATOM     62  C   UNL A   1      47.056  27.415  35.039  1.00  0.00     0.198 A 
ATOM     63  C   UNL A   1      45.558  25.852  36.081  1.00  0.00     0.198 A 
ATOM     64  F   UNL A   1      43.302  25.757  35.414  1.00  0.00    -0.203 F 
ATOM     65  F   UNL A   1      48.282  27.941  34.913  1.00  0.00    -0.200 F 
ATOM     66  C   UNL A   1      46.825  26.406  35.962  1.00  0.00     0.200 A 
ATOM     67  F   UNL A   1      45.332  24.886  36.981  1.00  0.00    -0.200 F 
ATOM     68  F   UNL A   1      47.824  25.966  36.738  1.00  0.00    -0.200 F 
ENDBRANCH  44  58
BRANCH  45  69
ATOM     69  C   UNL A   1      37.321  30.837  28.912  1.00  0.00     0.064 A 
ATOM     70  C   UNL A   1      37.031  32.159  28.566  1.00  0.00     0.173 A 
ATOM     71  C   UNL A   1      36.341  29.860  28.671  1.00  0.00     0.173 A 
ATOM     72  F   UNL A   1      37.916  33.130  28.837  1.00  0.00    -0.203 F 
ATOM     73  C   UNL A   1      35.801  32.496  28.003  1.00  0.00     0.198 A 
ATOM     74  C   UNL A   1      35.113  30.199  28.106  1.00  0.00     0.198 A 
ATOM     75  F   UNL A   1      36.579  28.579  28.989  1.00  0.00    -0.203 F 
ATOM     76  F   UNL A   1      35.528  33.776  27.714  1.00  0.00    -0.200 F 
ATOM     77  C   UNL A   1      34.845  31.517  27.770  1.00  0.00     0.200 A 
ATOM     78  F   UNL A   1      34.200  29.246  27.869  1.00  0.00    -0.200 F 
ATOM     79  F   UNL A   1      33.664  31.844  27.230  1.00  0.00    -0.200 F 
ENDBRANCH  45  69
BRANCH  57  80
ATOM     80  C   UNL A   1      39.343  32.003  35.402  1.00  0.00     0.064 A 
ATOM     81  C   UNL A   1      39.675  33.363  35.462  1.00  0.00     0.173 A 
ATOM     82  C   UNL A   1      38.502  31.485  36.398  1.00  0.00     0.173 A 
ATOM     83  F   UNL A   1      40.507  33.896  34.553  1.00  0.00    -0.203 F 
ATOM     84  C   UNL A   1      39.200  34.169  36.493  1.00  0.00     0.198 A 
ATOM     85  C   UNL A   1      38.005  32.300  37.410  1.00  0.00     0.198 A 
ATOM     86  F   UNL A   1      38.166  30.186  36.393  1.00  0.00    -0.203 F 
ATOM     87  F   UNL A   1      39.575  35.453  36.564  1.00  0.00    -0.200 F 
ATOM     88  C   UNL A   1      38.359  33.638  37.461  1.00  0.00     0.200 A 
ATOM     89  F   UNL A   1      37.191  31.785  38.342  1.00  0.00    -0.200 F 
ATOM     90  F   UNL A   1      37.903  34.416  38.452  1.00  0.00    -0.200 F 
ENDBRANCH  57  80
ENDBRANCH  31  32
ENDBRANCH  24  26
ENDBRANCH  23  24
ENDBRANCH  22  23
ENDBRANCH  21  22
ENDBRANCH  20  21
ENDBRANCH   1  20
TORSDOF 17
ENDMDL
MODEL 2
REMARK VINA RESULT:     -10.8      4.100      9.520
REMARK SMILES O=C(OCCOCCOCCOC(=O)c1ccc(-c2c3nc(c(-c4c(F)c(F)c(F)c(F)c4F)c4ccc([nH]4)c(-c4c(F)c(F)c(F)c(F)c4F)c4nc(c(-c5c(F)c(F)c(F)c(F)c5F)c5ccc2[nH]5)C=C4)C=C3)cc1)C1=C[C@H]2C(=N1)C=CC(Cl)=C2Cl
REMARK SMILES IDX 8 1 7 2 6 3 5 4 4 5 3 6 2 7 1 8 78 9 79 10 82 11 80 12 81 13
REMARK SMILES IDX 87 14 83 15 85 16 88 17 84 18 86 19 9 20 10 21 11 22 12 23
REMARK SMILES IDX 13 24 14 25 15 26 16 27 77 28 17 29 76 30 18 31 19 32 20 33
REMARK SMILES IDX 70 34 21 35 75 36 69 37 71 38 22 39 74 40 68 41 67 42 23 44
REMARK SMILES IDX 55 45 35 46 54 47 36 48 39 49 53 50 72 51 37 52 38 53 52 55
REMARK SMILES IDX 73 56 40 57 24 58 25 59 33 60 26 61 27 62 31 63 34 64 28 65
REMARK SMILES IDX 29 66 32 67 30 68 56 69 57 70 65 71 58 72 59 73 63 74 66 75
REMARK SMILES IDX 60 76 61 77 64 78 62 79 41 80 42 81 50 82 43 83 44 84 48 85
REMARK SMILES IDX 51 86 45 87 46 88 49 89 47 90
REMARK H PARENT 71 43 39 54
REMARK Flexibility Score: inf
ROOT
ATOM      1  C   UNL A   1      34.753  29.309  27.286  1.00  0.00     0.188 C 
ENDROOT
BRANCH   1   2
ATOM      2  C   UNL A   1      34.242  28.953  25.880  1.00  0.00     0.188 C 
BRANCH   2   3
ATOM      3  O   UNL A   1      33.339  27.865  25.900  1.00  0.00    -0.376 OA
BRANCH   3   4
ATOM      4  C   UNL A   1      31.957  28.165  25.898  1.00  0.00     0.202 C 
BRANCH   4   5
ATOM      5  C   UNL A   1      31.501  29.044  24.725  1.00  0.00     0.261 C 
BRANCH   5   6
ATOM      6  O   UNL A   1      31.860  28.621  23.391  1.00  0.00    -0.459 OA
BRANCH   6   7
ATOM      7  C   UNL A   1      31.273  27.676  22.627  1.00  0.00     0.356 C 
ATOM      8  O   UNL A   1      30.249  27.935  21.998  1.00  0.00    -0.244 OA
BRANCH   7   9
ATOM      9  C   UNL A   1      31.790  26.287  22.664  1.00  0.00     0.145 C 
ATOM     10  C   UNL A   1      30.976  25.321  23.112  1.00  0.00     0.024 C 
ATOM     11  N   UNL A   1      33.091  25.875  22.442  1.00  0.00    -0.245 NA
ATOM     12  C   UNL A   1      31.720  24.045  23.136  1.00  0.00     0.107 C 
ATOM     13  C   UNL A   1      33.098  24.635  22.829  1.00  0.00     0.054 C 
ATOM     14  C   UNL A   1      31.910  23.287  24.426  1.00  0.00     0.050 C 
ATOM     15  C   UNL A   1      34.322  23.829  23.127  1.00  0.00     0.026 C 
ATOM     16  C   UNL A   1      32.803  22.281  24.263  1.00  0.00     0.056 C 
ATOM     17  Cl  UNL A   1      32.162  24.342  25.822  1.00  0.00    -0.086 Cl
ATOM     18  C   UNL A   1      34.148  22.720  23.873  1.00  0.00     0.023 C 
ATOM     19  Cl  UNL A   1      32.295  20.979  23.187  1.00  0.00    -0.083 Cl
ENDBRANCH   7   9
ENDBRANCH   6   7
ENDBRANCH   5   6
ENDBRANCH   4   5
ENDBRANCH   3   4
ENDBRANCH   2   3
ENDBRANCH   1   2
BRANCH   1  20
ATOM     20  O   UNL A   1      34.482  30.610  27.793  1.00  0.00    -0.376 OA
BRANCH  20  21
ATOM     21  C   UNL A   1      33.211  31.192  27.504  1.00  0.00     0.202 C 
BRANCH  21  22
ATOM     22  C   UNL A   1      33.131  32.710  27.252  1.00  0.00     0.261 C 
BRANCH  22  23
ATOM     23  O   UNL A   1      32.354  33.475  28.204  1.00  0.00    -0.460 OA
BRANCH  23  24
ATOM     24  C   UNL A   1      32.961  34.593  28.683  1.00  0.00     0.338 C 
ATOM     25  O   UNL A   1      32.537  35.735  28.645  1.00  0.00    -0.246 OA
BRANCH  24  26
ATOM     26  C   UNL A   1      34.226  34.269  29.384  1.00  0.00     0.060 A 
ATOM     27  C   UNL A   1      35.445  34.517  28.735  1.00  0.00     0.016 A 
ATOM     28  C   UNL A   1      34.214  33.567  30.587  1.00  0.00     0.016 A 
ATOM     29  C   UNL A   1      36.655  34.051  29.279  1.00  0.00     0.010 A 
ATOM     30  C   UNL A   1      35.423  33.096  31.125  1.00  0.00     0.010 A 
ATOM     31  C   UNL A   1      36.656  33.313  30.469  1.00  0.00    -0.014 A 
BRANCH  31  32
ATOM     32  C   UNL A   1      37.885  32.660  31.012  1.00  0.00     0.031 A 
ATOM     33  C   UNL A   1      38.401  31.401  30.375  1.00  0.00     0.074 A 
ATOM     34  C   UNL A   1      38.520  33.111  32.112  1.00  0.00     0.049 A 
ATOM     35  N   UNL A   1      39.331  30.584  30.803  1.00  0.00    -0.248 NA
ATOM     36  C   UNL A   1      37.839  31.043  29.064  1.00  0.00     0.031 C 
ATOM     37  C   UNL A   1      38.299  34.390  32.766  1.00  0.00     0.029 A 
ATOM     38  N   UNL A   1      39.437  32.486  32.929  1.00  0.00    -0.354 N 
ATOM     39  C   UNL A   1      39.520  29.663  29.787  1.00  0.00     0.074 A 
ATOM     40  C   UNL A   1      38.546  29.962  28.757  1.00  0.00     0.031 C 
ATOM     41  C   UNL A   1      38.883  34.376  33.977  1.00  0.00     0.029 A 
ATOM     42  C   UNL A   1      39.547  33.095  34.160  1.00  0.00     0.049 A 
ATOM     43  H   UNL A   1      39.956  31.693  32.664  1.00  0.00     0.167 HD
ATOM     44  C   UNL A   1      40.462  28.694  29.700  1.00  0.00     0.037 A 
ATOM     45  C   UNL A   1      40.075  32.642  35.313  1.00  0.00     0.037 A 
ATOM     46  C   UNL A   1      41.427  28.386  30.723  1.00  0.00     0.049 A 
ATOM     47  C   UNL A   1      40.885  31.385  35.312  1.00  0.00     0.074 A 
ATOM     48  C   UNL A   1      42.489  27.498  30.675  1.00  0.00     0.029 A 
ATOM     49  N   UNL A   1      41.426  28.931  31.996  1.00  0.00    -0.354 N 
ATOM     50  N   UNL A   1      41.119  30.558  34.329  1.00  0.00    -0.248 NA
ATOM     51  C   UNL A   1      41.570  31.044  36.569  1.00  0.00     0.031 C 
ATOM     52  C   UNL A   1      43.086  27.453  31.940  1.00  0.00     0.029 A 
ATOM     53  C   UNL A   1      42.426  28.348  32.762  1.00  0.00     0.049 A 
ATOM     54  H   UNL A   1      40.807  29.628  32.311  1.00  0.00     0.167 HD
ATOM     55  C   UNL A   1      42.039  29.647  34.819  1.00  0.00     0.074 A 
ATOM     56  C   UNL A   1      42.282  29.989  36.204  1.00  0.00     0.031 C 
ATOM     57  C   UNL A   1      42.664  28.652  34.147  1.00  0.00     0.037 A 
BRANCH  44  58
ATOM     58  C   UNL A   1      40.528  27.904  28.430  1.00  0.00     0.064 A 
ATOM     59  C   UNL A   1      41.281  28.356  27.336  1.00  0.00     0.173 A 
ATOM     60  C   UNL A   1      39.916  26.648  28.340  1.00  0.00     0.173 A 
ATOM     61  F   UNL A   1      41.882  29.555  27.377  1.00  0.00    -0.203 F 
ATOM     62  C   UNL A   1      41.412  27.578  26.190  1.00  0.00     0.198 A 
ATOM     63  C   UNL A   1      40.065  25.864  27.201  1.00  0.00     0.198 A 
ATOM     64  F   UNL A   1      39.193  26.173  29.366  1.00  0.00    -0.203 F 
ATOM     65  F   UNL A   1      42.121  28.033  25.149  1.00  0.00    -0.200 F 
ATOM     66  C   UNL A   1      40.812  26.328  26.128  1.00  0.00     0.200 A 
ATOM     67  F   UNL A   1      39.495  24.652  27.145  1.00  0.00    -0.200 F 
ATOM     68  F   UNL A   1      40.952  25.571  25.031  1.00  0.00    -0.200 F 
ENDBRANCH  44  58
BRANCH  45  69
ATOM     69  C   UNL A   1      39.829  33.321  36.606  1.00  0.00     0.064 A 
ATOM     70  C   UNL A   1      38.771  32.963  37.447  1.00  0.00     0.173 A 
ATOM     71  C   UNL A   1      40.585  34.456  36.941  1.00  0.00     0.173 A 
ATOM     72  F   UNL A   1      37.988  31.922  37.128  1.00  0.00    -0.203 F 
ATOM     73  C   UNL A   1      38.475  33.717  38.581  1.00  0.00     0.198 A 
ATOM     74  C   UNL A   1      40.288  35.207  38.077  1.00  0.00     0.198 A 
ATOM     75  F   UNL A   1      41.608  34.835  36.161  1.00  0.00    -0.203 F 
ATOM     76  F   UNL A   1      37.433  33.379  39.353  1.00  0.00    -0.200 F 
ATOM     77  C   UNL A   1      39.235  34.835  38.898  1.00  0.00     0.200 A 
ATOM     78  F   UNL A   1      41.036  36.276  38.385  1.00  0.00    -0.200 F 
ATOM     79  F   UNL A   1      38.947  35.558  39.988  1.00  0.00    -0.200 F 
ENDBRANCH  45  69
BRANCH  57  80
ATOM     80  C   UNL A   1      43.717  27.889  34.888  1.00  0.00     0.064 A 
ATOM     81  C   UNL A   1      43.427  26.697  35.563  1.00  0.00     0.173 A 
ATOM     82  C   UNL A   1      45.035  28.370  34.934  1.00  0.00     0.173 A 
ATOM     83  F   UNL A   1      42.173  26.218  35.580  1.00  0.00    -0.203 F 
ATOM     84  C   UNL A   1      44.414  26.022  36.276  1.00  0.00     0.198 A 
ATOM     85  C   UNL A   1      46.025  27.677  35.622  1.00  0.00     0.198 A 
ATOM     86  F   UNL A   1      45.361  29.514  34.315  1.00  0.00    -0.203 F 
ATOM     87  F   UNL A   1      44.103  24.913  36.962  1.00  0.00    -0.200 F 
ATOM     88  C   UNL A   1      45.714  26.508  36.298  1.00  0.00     0.200 A 
ATOM     89  F   UNL A   1      47.281  28.147  35.639  1.00  0.00    -0.200 F 
ATOM     90  F   UNL A   1      46.662  25.856  36.985  1.00  0.00    -0.200 F 
ENDBRANCH  57  80
ENDBRANCH  31  32
ENDBRANCH  24  26
ENDBRANCH  23  24
ENDBRANCH  22  23
ENDBRANCH  21  22
ENDBRANCH  20  21
ENDBRANCH   1  20
TORSDOF 17
ENDMDL
MODEL 3
REMARK VINA RESULT:     -10.7      4.965      9.300
REMARK SMILES O=C(OCCOCCOCCOC(=O)c1ccc(-c2c3nc(c(-c4c(F)c(F)c(F)c(F)c4F)c4ccc([nH]4)c(-c4c(F)c(F)c(F)c(F)c4F)c4nc(c(-c5c(F)c(F)c(F)c(F)c5F)c5ccc2[nH]5)C=C4)C=C3)cc1)C1=C[C@H]2C(=N1)C=CC(Cl)=C2Cl
REMARK SMILES IDX 8 1 7 2 6 3 5 4 4 5 3 6 2 7 1 8 78 9 79 10 82 11 80 12 81 13
REMARK SMILES IDX 87 14 83 15 85 16 88 17 84 18 86 19 9 20 10 21 11 22 12 23
REMARK SMILES IDX 13 24 14 25 15 26 16 27 77 28 17 29 76 30 18 31 19 32 20 33
REMARK SMILES IDX 70 34 21 35 75 36 69 37 71 38 22 39 74 40 68 41 67 42 23 44
REMARK SMILES IDX 55 45 35 46 54 47 36 48 39 49 53 50 72 51 37 52 38 53 52 55
REMARK SMILES IDX 73 56 40 57 24 58 25 59 33 60 26 61 27 62 31 63 34 64 28 65
REMARK SMILES IDX 29 66 32 67 30 68 56 69 57 70 65 71 58 72 59 73 63 74 66 75
REMARK SMILES IDX 60 76 61 77 64 78 62 79 41 80 42 81 50 82 43 83 44 84 48 85
REMARK SMILES IDX 51 86 45 87 46 88 49 89 47 90
REMARK H PARENT 71 43 39 54
REMARK Flexibility Score: inf
ROOT
ATOM      1  C   UNL A   1      37.211  21.372  24.675  1.00  0.00     0.188 C 
ENDROOT
BRANCH   1   2
ATOM      2  C   UNL A   1      35.815  21.882  24.285  1.00  0.00     0.188 C 
BRANCH   2   3
ATOM      3  O   UNL A   1      35.437  23.025  25.028  1.00  0.00    -0.376 OA
BRANCH   3   4
ATOM      4  C   UNL A   1      34.076  23.407  24.988  1.00  0.00     0.202 C 
BRANCH   4   5
ATOM      5  C   UNL A   1      33.251  22.946  26.198  1.00  0.00     0.261 C 
BRANCH   5   6
ATOM      6  O   UNL A   1      31.814  22.917  26.058  1.00  0.00    -0.459 OA
BRANCH   6   7
ATOM      7  C   UNL A   1      30.905  23.762  26.590  1.00  0.00     0.356 C 
ATOM      8  O   UNL A   1      30.090  23.355  27.416  1.00  0.00    -0.244 OA
BRANCH   7   9
ATOM      9  C   UNL A   1      30.807  25.146  26.070  1.00  0.00     0.145 C 
ATOM     10  C   UNL A   1      30.636  25.314  24.750  1.00  0.00     0.024 C 
ATOM     11  N   UNL A   1      31.038  26.318  26.765  1.00  0.00    -0.245 NA
ATOM     12  C   UNL A   1      30.648  26.760  24.450  1.00  0.00     0.107 C 
ATOM     13  C   UNL A   1      31.079  27.229  25.841  1.00  0.00     0.054 C 
ATOM     14  C   UNL A   1      31.676  27.346  23.515  1.00  0.00     0.050 C 
ATOM     15  C   UNL A   1      31.640  28.606  26.008  1.00  0.00     0.026 C 
ATOM     16  C   UNL A   1      31.648  28.701  23.561  1.00  0.00     0.056 C 
ATOM     17  Cl  UNL A   1      33.266  26.588  23.667  1.00  0.00    -0.086 Cl
ATOM     18  C   UNL A   1      31.956  29.270  24.878  1.00  0.00     0.023 C 
ATOM     19  Cl  UNL A   1      30.176  29.453  22.945  1.00  0.00    -0.083 Cl
ENDBRANCH   7   9
ENDBRANCH   6   7
ENDBRANCH   5   6
ENDBRANCH   4   5
ENDBRANCH   3   4
ENDBRANCH   2   3
ENDBRANCH   1   2
BRANCH   1  20
ATOM     20  O   UNL A   1      38.026  22.201  25.496  1.00  0.00    -0.376 OA
BRANCH  20  21
ATOM     21  C   UNL A   1      39.196  21.626  26.078  1.00  0.00     0.202 C 
BRANCH  21  22
ATOM     22  C   UNL A   1      39.602  20.197  25.668  1.00  0.00     0.261 C 
BRANCH  22  23
ATOM     23  O   UNL A   1      40.635  19.573  26.468  1.00  0.00    -0.460 OA
BRANCH  23  24
ATOM     24  C   UNL A   1      41.897  19.688  25.977  1.00  0.00     0.338 C 
ATOM     25  O   UNL A   1      42.444  18.953  25.173  1.00  0.00    -0.246 OA
BRANCH  24  26
ATOM     26  C   UNL A   1      42.563  20.918  26.466  1.00  0.00     0.060 A 
ATOM     27  C   UNL A   1      42.506  21.224  27.834  1.00  0.00     0.016 A 
ATOM     28  C   UNL A   1      43.082  21.851  25.571  1.00  0.00     0.016 A 
ATOM     29  C   UNL A   1      42.954  22.468  28.311  1.00  0.00     0.010 A 
ATOM     30  C   UNL A   1      43.523  23.097  26.049  1.00  0.00     0.010 A 
ATOM     31  C   UNL A   1      43.445  23.430  27.420  1.00  0.00    -0.014 A 
BRANCH  31  32
ATOM     32  C   UNL A   1      43.789  24.821  27.843  1.00  0.00     0.031 A 
ATOM     33  C   UNL A   1      42.688  25.802  28.136  1.00  0.00     0.074 A 
ATOM     34  C   UNL A   1      45.058  25.268  27.901  1.00  0.00     0.049 A 
ATOM     35  N   UNL A   1      42.769  27.094  28.332  1.00  0.00    -0.248 NA
ATOM     36  C   UNL A   1      41.331  25.252  28.279  1.00  0.00     0.031 C 
ATOM     37  C   UNL A   1      46.259  24.453  27.832  1.00  0.00     0.029 A 
ATOM     38  N   UNL A   1      45.547  26.557  27.948  1.00  0.00    -0.354 N 
ATOM     39  C   UNL A   1      41.496  27.500  28.696  1.00  0.00     0.074 A 
ATOM     40  C   UNL A   1      40.638  26.336  28.605  1.00  0.00     0.031 C 
ATOM     41  C   UNL A   1      47.324  25.248  27.628  1.00  0.00     0.029 A 
ATOM     42  C   UNL A   1      46.875  26.630  27.588  1.00  0.00     0.049 A 
ATOM     43  H   UNL A   1      45.007  27.338  28.208  1.00  0.00     0.167 HD
ATOM     44  C   UNL A   1      41.098  28.721  29.125  1.00  0.00     0.037 A 
ATOM     45  C   UNL A   1      47.621  27.688  27.218  1.00  0.00     0.037 A 
ATOM     46  C   UNL A   1      41.943  29.883  29.210  1.00  0.00     0.049 A 
ATOM     47  C   UNL A   1      47.082  29.072  27.397  1.00  0.00     0.074 A 
ATOM     48  C   UNL A   1      41.653  31.130  29.738  1.00  0.00     0.029 A 
ATOM     49  N   UNL A   1      43.237  29.953  28.721  1.00  0.00    -0.354 N 
ATOM     50  N   UNL A   1      45.902  29.448  27.811  1.00  0.00    -0.248 NA
ATOM     51  C   UNL A   1      48.014  30.179  27.131  1.00  0.00     0.031 C 
ATOM     52  C   UNL A   1      42.744  31.975  29.504  1.00  0.00     0.029 A 
ATOM     53  C   UNL A   1      43.732  31.240  28.874  1.00  0.00     0.049 A 
ATOM     54  H   UNL A   1      43.732  29.201  28.323  1.00  0.00     0.167 HD
ATOM     55  C   UNL A   1      45.971  30.825  27.934  1.00  0.00     0.074 A 
ATOM     56  C   UNL A   1      47.292  31.227  27.501  1.00  0.00     0.031 C 
ATOM     57  C   UNL A   1      45.030  31.666  28.423  1.00  0.00     0.037 A 
BRANCH  44  58
ATOM     58  C   UNL A   1      39.678  28.867  29.576  1.00  0.00     0.064 A 
ATOM     59  C   UNL A   1      39.315  28.626  30.909  1.00  0.00     0.173 A 
ATOM     60  C   UNL A   1      38.697  29.342  28.697  1.00  0.00     0.173 A 
ATOM     61  F   UNL A   1      40.222  28.167  31.786  1.00  0.00    -0.203 F 
ATOM     62  C   UNL A   1      38.012  28.848  31.345  1.00  0.00     0.198 A 
ATOM     63  C   UNL A   1      37.400  29.582  29.141  1.00  0.00     0.198 A 
ATOM     64  F   UNL A   1      39.002  29.594  27.415  1.00  0.00    -0.203 F 
ATOM     65  F   UNL A   1      37.680  28.595  32.618  1.00  0.00    -0.200 F 
ATOM     66  C   UNL A   1      37.059  29.334  30.462  1.00  0.00     0.200 A 
ATOM     67  F   UNL A   1      36.482  30.063  28.291  1.00  0.00    -0.200 F 
ATOM     68  F   UNL A   1      35.809  29.565  30.886  1.00  0.00    -0.200 F 
ENDBRANCH  44  58
BRANCH  45  69
ATOM     69  C   UNL A   1      48.945  27.526  26.577  1.00  0.00     0.064 A 
ATOM     70  C   UNL A   1      49.089  27.335  25.200  1.00  0.00     0.173 A 
ATOM     71  C   UNL A   1      50.089  27.411  27.383  1.00  0.00     0.173 A 
ATOM     72  F   UNL A   1      48.010  27.374  24.404  1.00  0.00    -0.203 F 
ATOM     73  C   UNL A   1      50.333  27.034  24.647  1.00  0.00     0.198 A 
ATOM     74  C   UNL A   1      51.332  27.113  26.828  1.00  0.00     0.198 A 
ATOM     75  F   UNL A   1      49.995  27.586  28.710  1.00  0.00    -0.203 F 
ATOM     76  F   UNL A   1      50.442  26.817  23.329  1.00  0.00    -0.200 F 
ATOM     77  C   UNL A   1      51.454  26.927  25.460  1.00  0.00     0.200 A 
ATOM     78  F   UNL A   1      52.413  27.027  27.617  1.00  0.00    -0.200 F 
ATOM     79  F   UNL A   1      52.647  26.637  24.926  1.00  0.00    -0.200 F 
ENDBRANCH  45  69
BRANCH  57  80
ATOM     80  C   UNL A   1      45.413  33.106  28.566  1.00  0.00     0.064 A 
ATOM     81  C   UNL A   1      46.095  33.580  29.694  1.00  0.00     0.173 A 
ATOM     82  C   UNL A   1      45.077  34.028  27.563  1.00  0.00     0.173 A 
ATOM     83  F   UNL A   1      46.404  32.743  30.697  1.00  0.00    -0.203 F 
ATOM     84  C   UNL A   1      46.411  34.929  29.823  1.00  0.00     0.198 A 
ATOM     85  C   UNL A   1      45.421  35.371  27.681  1.00  0.00     0.198 A 
ATOM     86  F   UNL A   1      44.412  33.627  26.469  1.00  0.00    -0.203 F 
ATOM     87  F   UNL A   1      47.014  35.371  30.935  1.00  0.00    -0.200 F 
ATOM     88  C   UNL A   1      46.080  35.822  28.813  1.00  0.00     0.200 A 
ATOM     89  F   UNL A   1      45.102  36.230  26.702  1.00  0.00    -0.200 F 
ATOM     90  F   UNL A   1      46.386  37.120  28.939  1.00  0.00    -0.200 F 
ENDBRANCH  57  80
ENDBRANCH  31  32
ENDBRANCH  24  26
ENDBRANCH  23  24
ENDBRANCH  22  23
ENDBRANCH  21  22
ENDBRANCH  20  21
ENDBRANCH   1  20
TORSDOF 17
ENDMDL
