MODEL 1
REMARK VINA RESULT:     -12.9      0.000      0.000
REMARK SMILES Cc1cnn(C2(C(=O)OCCOCCOCCOC(=O)c3ccc(-c4c5nc(c(-c6c(F)c(F)c(F)c(F)c6F)c6ccc([nH]6)c(-c6c(F)c(F)c(F)c(F)c6F)c6nc(c(-c7c(F)c(F)c(F)c(F)c7F)c7ccc4[nH]7)C=C6)C=C5)cc3)CCN(C(=O)c3cc4ccccc4[nH]3)CC2)c1
REMARK SMILES IDX 14 1 13 2 12 3 11 4 10 5 9 6 7 7 8 8 6 9 84 10 99 11 85 12
REMARK SMILES IDX 98 13 86 14 87 15 88 16 5 17 1 18 2 19 3 20 100 21 4 22
REMARK SMILES IDX 89 23 90 24 97 25 91 26 96 27 92 29 95 30 93 31 94 32 15 33
REMARK SMILES IDX 16 34 17 35 18 36 19 37 20 38 21 39 22 40 83 41 23 42 82 43
REMARK SMILES IDX 24 44 25 45 26 46 76 47 27 48 81 49 75 50 77 51 28 52 80 53
REMARK SMILES IDX 74 54 73 55 29 57 61 58 41 59 60 60 42 61 45 62 59 63 78 64
REMARK SMILES IDX 43 65 44 66 58 68 79 69 46 70 30 71 31 72 39 73 32 74 33 75
REMARK SMILES IDX 37 76 40 77 34 78 35 79 38 80 36 81 62 82 63 83 71 84 64 85
REMARK SMILES IDX 65 86 69 87 72 88 66 89 67 90 70 91 68 92 47 93 48 94 56 95
REMARK SMILES IDX 49 96 50 97 54 98 57 99 51 100 52 101 55 102 53 103
REMARK H PARENT 97 28 77 56 45 67
REMARK Flexibility Score: inf
ROOT
ATOM      1  C   UNL A   1      41.001  21.419  26.708  1.00  0.00     0.188 C 
ENDROOT
BRANCH   1   2
ATOM      2  C   UNL A   1      39.613  21.965  26.375  1.00  0.00     0.188 C 
BRANCH   2   3
ATOM      3  O   UNL A   1      38.874  21.150  25.467  1.00  0.00    -0.376 OA
BRANCH   3   4
ATOM      4  C   UNL A   1      37.550  21.601  25.182  1.00  0.00     0.202 C 
BRANCH   4   5
ATOM      5  C   UNL A   1      37.148  22.976  25.752  1.00  0.00     0.261 C 
BRANCH   5   6
ATOM      6  O   UNL A   1      36.579  23.894  24.787  1.00  0.00    -0.461 OA
BRANCH   6   7
ATOM      7  C   UNL A   1      35.668  23.393  23.904  1.00  0.00     0.334 C 
ATOM      8  O   UNL A   1      35.970  23.070  22.756  1.00  0.00    -0.249 OA
BRANCH   7   9
ATOM      9  C   UNL A   1      34.201  23.392  24.428  1.00  0.00     0.163 C 
ATOM     10  C   UNL A   1      34.026  24.006  25.840  1.00  0.00     0.064 C 
ATOM     11  C   UNL A   1      33.539  24.297  23.370  1.00  0.00     0.064 C 
ATOM     12  C   UNL A   1      32.610  24.514  26.130  1.00  0.00     0.123 C 
ATOM     13  C   UNL A   1      32.165  24.816  23.709  1.00  0.00     0.123 C 
ATOM     14  N   UNL A   1      32.095  25.362  25.058  1.00  0.00    -0.337 N 
ATOM     15  C   UNL A   1      31.532  26.607  25.370  1.00  0.00     0.270 C 
ATOM     16  O   UNL A   1      31.650  27.116  26.483  1.00  0.00    -0.267 OA
BRANCH   9  17
ATOM     17  N   UNL A   1      33.652  22.014  24.399  1.00  0.00    -0.255 N 
ATOM     18  C   UNL A   1      33.014  18.569  25.482  1.00  0.00     0.048 C 
ATOM     19  C   UNL A   1      33.131  19.901  24.850  1.00  0.00    -0.013 A 
ATOM     20  C   UNL A   1      32.503  20.370  23.685  1.00  0.00     0.138 A 
ATOM     21  C   UNL A   1      33.902  20.969  25.257  1.00  0.00     0.113 A 
ATOM     22  N   UNL A   1      32.863  21.615  23.379  1.00  0.00    -0.180 NA
ENDBRANCH   9  17
BRANCH  15  23
ATOM     23  C   UNL A   1      30.873  27.321  24.296  1.00  0.00     0.105 A 
ATOM     24  C   UNL A   1      31.364  28.207  23.348  1.00  0.00     0.042 A 
ATOM     25  N   UNL A   1      29.521  27.216  24.054  1.00  0.00    -0.351 N 
ATOM     26  C   UNL A   1      30.258  28.880  22.773  1.00  0.00     0.000 A 
ATOM     27  C   UNL A   1      29.109  28.231  23.221  1.00  0.00     0.046 A 
ATOM     28  H   UNL A   1      28.935  26.515  24.422  1.00  0.00     0.167 HD
ATOM     29  C   UNL A   1      30.127  30.009  21.942  1.00  0.00     0.010 A 
ATOM     30  C   UNL A   1      27.823  28.634  22.846  1.00  0.00     0.026 A 
ATOM     31  C   UNL A   1      28.848  30.448  21.589  1.00  0.00     0.001 A 
ATOM     32  C   UNL A   1      27.716  29.763  22.027  1.00  0.00     0.002 A 
ENDBRANCH  15  23
ENDBRANCH   7   9
ENDBRANCH   6   7
ENDBRANCH   5   6
ENDBRANCH   4   5
ENDBRANCH   3   4
ENDBRANCH   2   3
ENDBRANCH   1   2
BRANCH   1  33
ATOM     33  O   UNL A   1      41.051  20.015  26.905  1.00  0.00    -0.376 OA
BRANCH  33  34
ATOM     34  C   UNL A   1      41.776  19.144  26.036  1.00  0.00     0.202 C 
BRANCH  34  35
ATOM     35  C   UNL A   1      43.278  19.272  25.746  1.00  0.00     0.261 C 
BRANCH  35  36
ATOM     36  O   UNL A   1      43.675  20.385  24.967  1.00  0.00    -0.460 OA
BRANCH  36  37
ATOM     37  C   UNL A   1      44.963  20.761  24.991  1.00  0.00     0.338 C 
ATOM     38  O   UNL A   1      45.952  20.052  25.109  1.00  0.00    -0.246 OA
BRANCH  37  39
ATOM     39  C   UNL A   1      44.945  22.224  24.838  1.00  0.00     0.060 A 
ATOM     40  C   UNL A   1      46.079  22.912  25.243  1.00  0.00     0.016 A 
ATOM     41  C   UNL A   1      43.737  22.887  24.518  1.00  0.00     0.016 A 
ATOM     42  C   UNL A   1      45.901  24.205  25.666  1.00  0.00     0.010 A 
ATOM     43  C   UNL A   1      43.559  24.176  24.925  1.00  0.00     0.010 A 
ATOM     44  C   UNL A   1      44.606  24.741  25.628  1.00  0.00    -0.014 A 
BRANCH  44  45
ATOM     45  C   UNL A   1      44.321  25.820  26.533  1.00  0.00     0.031 A 
ATOM     46  C   UNL A   1      45.302  26.904  26.509  1.00  0.00     0.074 A 
ATOM     47  C   UNL A   1      43.225  25.788  27.312  1.00  0.00     0.049 A 
ATOM     48  N   UNL A   1      46.164  27.186  27.423  1.00  0.00    -0.248 NA
ATOM     49  C   UNL A   1      45.450  27.662  25.261  1.00  0.00     0.031 C 
ATOM     50  C   UNL A   1      42.051  24.916  27.224  1.00  0.00     0.029 A 
ATOM     51  N   UNL A   1      42.912  26.625  28.329  1.00  0.00    -0.354 N 
ATOM     52  C   UNL A   1      46.869  28.275  26.939  1.00  0.00     0.074 A 
ATOM     53  C   UNL A   1      46.509  28.416  25.552  1.00  0.00     0.031 C 
ATOM     54  C   UNL A   1      41.069  25.422  28.005  1.00  0.00     0.029 A 
ATOM     55  C   UNL A   1      41.589  26.573  28.725  1.00  0.00     0.049 A 
ATOM     56  H   UNL A   1      43.571  27.222  28.751  1.00  0.00     0.167 HD
ATOM     57  C   UNL A   1      47.521  29.112  27.786  1.00  0.00     0.037 A 
ATOM     58  C   UNL A   1      40.977  27.503  29.496  1.00  0.00     0.037 A 
ATOM     59  C   UNL A   1      47.717  28.508  29.080  1.00  0.00     0.049 A 
ATOM     60  C   UNL A   1      42.048  28.243  30.226  1.00  0.00     0.074 A 
ATOM     61  C   UNL A   1      48.377  27.375  29.519  1.00  0.00     0.029 A 
ATOM     62  N   UNL A   1      46.876  28.869  30.107  1.00  0.00    -0.354 N 
ATOM     63  N   UNL A   1      42.784  27.715  31.168  1.00  0.00    -0.248 NA
ATOM     64  C   UNL A   1      42.621  29.422  29.585  1.00  0.00     0.031 C 
ATOM     65  C   UNL A   1      47.565  26.850  30.566  1.00  0.00     0.029 A 
ATOM     66  C   UNL A   1      46.482  27.712  30.733  1.00  0.00     0.049 A 
ATOM     67  H   UNL A   1      46.607  29.784  30.348  1.00  0.00     0.167 HD
ATOM     68  C   UNL A   1      44.060  28.224  30.957  1.00  0.00     0.074 A 
ATOM     69  C   UNL A   1      43.879  29.334  30.026  1.00  0.00     0.031 C 
ATOM     70  C   UNL A   1      45.174  27.521  31.317  1.00  0.00     0.037 A 
BRANCH  57  71
ATOM     71  C   UNL A   1      47.672  30.585  27.539  1.00  0.00     0.064 A 
ATOM     72  C   UNL A   1      46.522  31.362  27.319  1.00  0.00     0.173 A 
ATOM     73  C   UNL A   1      48.904  31.208  27.237  1.00  0.00     0.173 A 
ATOM     74  F   UNL A   1      45.301  30.857  27.550  1.00  0.00    -0.203 F 
ATOM     75  C   UNL A   1      46.598  32.644  26.771  1.00  0.00     0.198 A 
ATOM     76  C   UNL A   1      48.979  32.509  26.750  1.00  0.00     0.198 A 
ATOM     77  F   UNL A   1      50.069  30.551  27.287  1.00  0.00    -0.203 F 
ATOM     78  F   UNL A   1      45.472  33.300  26.461  1.00  0.00    -0.200 F 
ATOM     79  C   UNL A   1      47.826  33.215  26.486  1.00  0.00     0.200 A 
ATOM     80  F   UNL A   1      50.177  33.036  26.463  1.00  0.00    -0.200 F 
ATOM     81  F   UNL A   1      47.897  34.421  25.909  1.00  0.00    -0.200 F 
ENDBRANCH  57  71
BRANCH  58  82
ATOM     82  C   UNL A   1      39.589  28.008  29.355  1.00  0.00     0.064 A 
ATOM     83  C   UNL A   1      38.747  28.120  30.473  1.00  0.00     0.173 A 
ATOM     84  C   UNL A   1      39.134  28.626  28.171  1.00  0.00     0.173 A 
ATOM     85  F   UNL A   1      39.122  27.603  31.652  1.00  0.00    -0.203 F 
ATOM     86  C   UNL A   1      37.539  28.824  30.415  1.00  0.00     0.198 A 
ATOM     87  C   UNL A   1      37.922  29.314  28.111  1.00  0.00     0.198 A 
ATOM     88  F   UNL A   1      39.893  28.662  27.068  1.00  0.00    -0.203 F 
ATOM     89  F   UNL A   1      36.795  28.964  31.522  1.00  0.00    -0.200 F 
ATOM     90  C   UNL A   1      37.130  29.425  29.236  1.00  0.00     0.200 A 
ATOM     91  F   UNL A   1      37.557  29.918  26.971  1.00  0.00    -0.200 F 
ATOM     92  F   UNL A   1      36.001  30.144  29.196  1.00  0.00    -0.200 F 
ENDBRANCH  58  82
BRANCH  70  93
ATOM     93  C   UNL A   1      44.988  26.295  32.167  1.00  0.00     0.064 A 
ATOM     94  C   UNL A   1      44.928  26.326  33.572  1.00  0.00     0.173 A 
ATOM     95  C   UNL A   1      44.700  25.076  31.538  1.00  0.00     0.173 A 
ATOM     96  F   UNL A   1      45.076  27.476  34.241  1.00  0.00    -0.203 F 
ATOM     97  C   UNL A   1      44.647  25.178  34.310  1.00  0.00     0.198 A 
ATOM     98  C   UNL A   1      44.381  23.940  32.277  1.00  0.00     0.198 A 
ATOM     99  F   UNL A   1      44.677  25.000  30.198  1.00  0.00    -0.203 F 
ATOM    100  F   UNL A   1      44.609  25.235  35.650  1.00  0.00    -0.200 F 
ATOM    101  C   UNL A   1      44.366  23.989  33.662  1.00  0.00     0.200 A 
ATOM    102  F   UNL A   1      44.056  22.803  31.645  1.00  0.00    -0.200 F 
ATOM    103  F   UNL A   1      44.051  22.895  34.371  1.00  0.00    -0.200 F 
ENDBRANCH  70  93
ENDBRANCH  44  45
ENDBRANCH  37  39
ENDBRANCH  36  37
ENDBRANCH  35  36
ENDBRANCH  34  35
ENDBRANCH  33  34
ENDBRANCH   1  33
TORSDOF 19
ENDMDL
MODEL 2
REMARK VINA RESULT:     -12.6      3.571      7.875
REMARK SMILES Cc1cnn(C2(C(=O)OCCOCCOCCOC(=O)c3ccc(-c4c5nc(c(-c6c(F)c(F)c(F)c(F)c6F)c6ccc([nH]6)c(-c6c(F)c(F)c(F)c(F)c6F)c6nc(c(-c7c(F)c(F)c(F)c(F)c7F)c7ccc4[nH]7)C=C6)C=C5)cc3)CCN(C(=O)c3cc4ccccc4[nH]3)CC2)c1
REMARK SMILES IDX 14 1 13 2 12 3 11 4 10 5 9 6 7 7 8 8 6 9 84 10 99 11 85 12
REMARK SMILES IDX 98 13 86 14 87 15 88 16 5 17 1 18 2 19 3 20 100 21 4 22
REMARK SMILES IDX 89 23 90 24 97 25 91 26 96 27 92 29 95 30 93 31 94 32 15 33
REMARK SMILES IDX 16 34 17 35 18 36 19 37 20 38 21 39 22 40 83 41 23 42 82 43
REMARK SMILES IDX 24 44 25 45 26 46 76 47 27 48 81 49 75 50 77 51 28 52 80 53
REMARK SMILES IDX 74 54 73 55 29 57 61 58 41 59 60 60 42 61 45 62 59 63 78 64
REMARK SMILES IDX 43 65 44 66 58 68 79 69 46 70 30 71 31 72 39 73 32 74 33 75
REMARK SMILES IDX 37 76 40 77 34 78 35 79 38 80 36 81 62 82 63 83 71 84 64 85
REMARK SMILES IDX 65 86 69 87 72 88 66 89 67 90 70 91 68 92 47 93 48 94 56 95
REMARK SMILES IDX 49 96 50 97 54 98 57 99 51 100 52 101 55 102 53 103
REMARK H PARENT 97 28 77 56 45 67
REMARK Flexibility Score: inf
ROOT
ATOM      1  C   UNL A   1      40.243  21.824  26.639  1.00  0.00     0.188 C 
ENDROOT
BRANCH   1   2
ATOM      2  C   UNL A   1      39.213  22.954  26.639  1.00  0.00     0.188 C 
BRANCH   2   3
ATOM      3  O   UNL A   1      38.170  22.785  25.680  1.00  0.00    -0.376 OA
BRANCH   3   4
ATOM      4  C   UNL A   1      37.835  21.431  25.376  1.00  0.00     0.202 C 
BRANCH   4   5
ATOM      5  C   UNL A   1      36.420  21.177  24.817  1.00  0.00     0.261 C 
BRANCH   5   6
ATOM      6  O   UNL A   1      35.523  22.312  24.887  1.00  0.00    -0.461 OA
BRANCH   6   7
ATOM      7  C   UNL A   1      34.695  22.394  25.967  1.00  0.00     0.334 C 
ATOM      8  O   UNL A   1      35.118  22.493  27.118  1.00  0.00    -0.249 OA
BRANCH   7   9
ATOM      9  C   UNL A   1      33.184  22.220  25.631  1.00  0.00     0.163 C 
ATOM     10  C   UNL A   1      32.235  22.396  26.843  1.00  0.00     0.064 C 
ATOM     11  C   UNL A   1      32.996  23.384  24.637  1.00  0.00     0.064 C 
ATOM     12  C   UNL A   1      30.800  22.778  26.464  1.00  0.00     0.123 C 
ATOM     13  C   UNL A   1      31.572  23.761  24.322  1.00  0.00     0.123 C 
ATOM     14  N   UNL A   1      30.754  23.893  25.521  1.00  0.00    -0.337 N 
ATOM     15  C   UNL A   1      29.917  24.986  25.781  1.00  0.00     0.270 C 
ATOM     16  O   UNL A   1      29.383  25.152  26.876  1.00  0.00    -0.267 OA
BRANCH   9  17
ATOM     17  N   UNL A   1      32.954  20.902  24.990  1.00  0.00    -0.255 N 
ATOM     18  C   UNL A   1      32.163  18.477  22.356  1.00  0.00     0.048 C 
ATOM     19  C   UNL A   1      32.504  19.257  23.565  1.00  0.00    -0.013 A 
ATOM     20  C   UNL A   1      32.859  18.781  24.837  1.00  0.00     0.138 A 
ATOM     21  C   UNL A   1      32.528  20.628  23.713  1.00  0.00     0.113 A 
ATOM     22  N   UNL A   1      33.068  19.765  25.709  1.00  0.00    -0.180 NA
ENDBRANCH   9  17
BRANCH  15  23
ATOM     23  C   UNL A   1      29.770  25.971  24.730  1.00  0.00     0.105 A 
ATOM     24  C   UNL A   1      30.711  26.723  24.042  1.00  0.00     0.042 A 
ATOM     25  N   UNL A   1      28.543  26.343  24.225  1.00  0.00    -0.351 N 
ATOM     26  C   UNL A   1      30.025  27.774  23.384  1.00  0.00     0.000 A 
ATOM     27  C   UNL A   1      28.663  27.507  23.501  1.00  0.00     0.046 A 
ATOM     28  H   UNL A   1      27.704  25.847  24.362  1.00  0.00     0.167 HD
ATOM     29  C   UNL A   1      30.439  28.951  22.732  1.00  0.00     0.010 A 
ATOM     30  C   UNL A   1      27.682  28.346  22.961  1.00  0.00     0.026 A 
ATOM     31  C   UNL A   1      29.471  29.820  22.220  1.00  0.00     0.001 A 
ATOM     32  C   UNL A   1      28.115  29.514  22.325  1.00  0.00     0.002 A 
ENDBRANCH  15  23
ENDBRANCH   7   9
ENDBRANCH   6   7
ENDBRANCH   5   6
ENDBRANCH   4   5
ENDBRANCH   3   4
ENDBRANCH   2   3
ENDBRANCH   1   2
BRANCH   1  33
ATOM     33  O   UNL A   1      41.561  22.229  26.975  1.00  0.00    -0.376 OA
BRANCH  33  34
ATOM     34  C   UNL A   1      42.549  22.522  25.988  1.00  0.00     0.202 C 
BRANCH  34  35
ATOM     35  C   UNL A   1      42.775  23.914  25.382  1.00  0.00     0.261 C 
BRANCH  35  36
ATOM     36  O   UNL A   1      42.085  24.986  25.997  1.00  0.00    -0.460 OA
BRANCH  36  37
ATOM     37  C   UNL A   1      42.203  26.214  25.469  1.00  0.00     0.338 C 
ATOM     38  O   UNL A   1      43.001  26.599  24.627  1.00  0.00    -0.246 OA
BRANCH  37  39
ATOM     39  C   UNL A   1      41.153  27.018  26.116  1.00  0.00     0.060 A 
ATOM     40  C   UNL A   1      41.246  28.396  25.983  1.00  0.00     0.016 A 
ATOM     41  C   UNL A   1      40.249  26.408  27.016  1.00  0.00     0.016 A 
ATOM     42  C   UNL A   1      40.701  29.152  26.989  1.00  0.00     0.010 A 
ATOM     43  C   UNL A   1      39.694  27.159  28.010  1.00  0.00     0.010 A 
ATOM     44  C   UNL A   1      40.069  28.488  28.049  1.00  0.00    -0.014 A 
BRANCH  44  45
ATOM     45  C   UNL A   1      39.997  29.184  29.304  1.00  0.00     0.031 A 
ATOM     46  C   UNL A   1      38.846  30.077  29.435  1.00  0.00     0.074 A 
ATOM     47  C   UNL A   1      40.935  28.990  30.248  1.00  0.00     0.049 A 
ATOM     48  N   UNL A   1      38.863  31.364  29.427  1.00  0.00    -0.248 NA
ATOM     49  C   UNL A   1      37.509  29.473  29.411  1.00  0.00     0.031 C 
ATOM     50  C   UNL A   1      41.950  27.938  30.343  1.00  0.00     0.029 A 
ATOM     51  N   UNL A   1      41.107  29.690  31.394  1.00  0.00    -0.354 N 
ATOM     52  C   UNL A   1      37.540  31.749  29.565  1.00  0.00     0.074 A 
ATOM     53  C   UNL A   1      36.744  30.562  29.379  1.00  0.00     0.031 C 
ATOM     54  C   UNL A   1      42.475  27.946  31.591  1.00  0.00     0.029 A 
ATOM     55  C   UNL A   1      41.917  29.069  32.326  1.00  0.00     0.049 A 
ATOM     56  H   UNL A   1      40.691  30.568  31.551  1.00  0.00     0.167 HD
ATOM     57  C   UNL A   1      37.220  32.976  30.048  1.00  0.00     0.037 A 
ATOM     58  C   UNL A   1      41.997  29.417  33.633  1.00  0.00     0.037 A 
ATOM     59  C   UNL A   1      38.341  33.879  29.981  1.00  0.00     0.049 A 
ATOM     60  C   UNL A   1      41.504  30.822  33.745  1.00  0.00     0.074 A 
ATOM     61  C   UNL A   1      39.118  34.369  28.946  1.00  0.00     0.029 A 
ATOM     62  N   UNL A   1      39.059  34.122  31.129  1.00  0.00    -0.354 N 
ATOM     63  N   UNL A   1      42.142  31.856  33.265  1.00  0.00    -0.248 NA
ATOM     64  C   UNL A   1      40.076  31.027  33.970  1.00  0.00     0.031 C 
ATOM     65  C   UNL A   1      40.441  34.440  29.471  1.00  0.00     0.029 A 
ATOM     66  C   UNL A   1      40.389  34.030  30.803  1.00  0.00     0.049 A 
ATOM     67  H   UNL A   1      38.688  34.323  32.018  1.00  0.00     0.167 HD
ATOM     68  C   UNL A   1      41.151  32.682  32.746  1.00  0.00     0.074 A 
ATOM     69  C   UNL A   1      39.898  32.162  33.287  1.00  0.00     0.031 C 
ATOM     70  C   UNL A   1      41.402  33.520  31.698  1.00  0.00     0.037 A 
BRANCH  57  71
ATOM     71  C   UNL A   1      36.002  33.245  30.883  1.00  0.00     0.064 A 
ATOM     72  C   UNL A   1      34.980  34.055  30.358  1.00  0.00     0.173 A 
ATOM     73  C   UNL A   1      35.922  32.972  32.266  1.00  0.00     0.173 A 
ATOM     74  F   UNL A   1      34.976  34.395  29.060  1.00  0.00    -0.203 F 
ATOM     75  C   UNL A   1      33.991  34.606  31.173  1.00  0.00     0.198 A 
ATOM     76  C   UNL A   1      34.898  33.472  33.064  1.00  0.00     0.198 A 
ATOM     77  F   UNL A   1      36.885  32.313  32.923  1.00  0.00    -0.203 F 
ATOM     78  F   UNL A   1      33.111  35.472  30.655  1.00  0.00    -0.200 F 
ATOM     79  C   UNL A   1      33.951  34.315  32.525  1.00  0.00     0.200 A 
ATOM     80  F   UNL A   1      34.890  33.193  34.375  1.00  0.00    -0.200 F 
ATOM     81  F   UNL A   1      33.037  34.887  33.319  1.00  0.00    -0.200 F 
ENDBRANCH  57  71
BRANCH  58  82
ATOM     82  C   UNL A   1      42.125  28.503  34.795  1.00  0.00     0.064 A 
ATOM     83  C   UNL A   1      41.382  27.314  34.860  1.00  0.00     0.173 A 
ATOM     84  C   UNL A   1      43.157  28.644  35.747  1.00  0.00     0.173 A 
ATOM     85  F   UNL A   1      40.413  27.075  33.964  1.00  0.00    -0.203 F 
ATOM     86  C   UNL A   1      41.668  26.320  35.803  1.00  0.00     0.198 A 
ATOM     87  C   UNL A   1      43.430  27.659  36.697  1.00  0.00     0.198 A 
ATOM     88  F   UNL A   1      43.988  29.694  35.723  1.00  0.00    -0.203 F 
ATOM     89  F   UNL A   1      40.978  25.171  35.791  1.00  0.00    -0.200 F 
ATOM     90  C   UNL A   1      42.695  26.491  36.717  1.00  0.00     0.200 A 
ATOM     91  F   UNL A   1      44.449  27.827  37.552  1.00  0.00    -0.200 F 
ATOM     92  F   UNL A   1      43.002  25.518  37.584  1.00  0.00    -0.200 F 
ENDBRANCH  58  82
BRANCH  70  93
ATOM     93  C   UNL A   1      42.833  33.710  31.276  1.00  0.00     0.064 A 
ATOM     94  C   UNL A   1      43.497  32.854  30.379  1.00  0.00     0.173 A 
ATOM     95  C   UNL A   1      43.500  34.880  31.662  1.00  0.00     0.173 A 
ATOM     96  F   UNL A   1      42.883  31.777  29.874  1.00  0.00    -0.203 F 
ATOM     97  C   UNL A   1      44.789  33.131  29.936  1.00  0.00     0.198 A 
ATOM     98  C   UNL A   1      44.775  35.174  31.186  1.00  0.00     0.198 A 
ATOM     99  F   UNL A   1      42.891  35.768  32.464  1.00  0.00    -0.203 F 
ATOM    100  F   UNL A   1      45.403  32.290  29.091  1.00  0.00    -0.200 F 
ATOM    101  C   UNL A   1      45.423  34.295  30.333  1.00  0.00     0.200 A 
ATOM    102  F   UNL A   1      45.365  36.328  31.530  1.00  0.00    -0.200 F 
ATOM    103  F   UNL A   1      46.648  34.585  29.871  1.00  0.00    -0.200 F 
ENDBRANCH  70  93
ENDBRANCH  44  45
ENDBRANCH  37  39
ENDBRANCH  36  37
ENDBRANCH  35  36
ENDBRANCH  34  35
ENDBRANCH  33  34
ENDBRANCH   1  33
TORSDOF 19
ENDMDL
MODEL 3
REMARK VINA RESULT:     -12.6      2.970      9.309
REMARK SMILES Cc1cnn(C2(C(=O)OCCOCCOCCOC(=O)c3ccc(-c4c5nc(c(-c6c(F)c(F)c(F)c(F)c6F)c6ccc([nH]6)c(-c6c(F)c(F)c(F)c(F)c6F)c6nc(c(-c7c(F)c(F)c(F)c(F)c7F)c7ccc4[nH]7)C=C6)C=C5)cc3)CCN(C(=O)c3cc4ccccc4[nH]3)CC2)c1
REMARK SMILES IDX 14 1 13 2 12 3 11 4 10 5 9 6 7 7 8 8 6 9 84 10 99 11 85 12
REMARK SMILES IDX 98 13 86 14 87 15 88 16 5 17 1 18 2 19 3 20 100 21 4 22
REMARK SMILES IDX 89 23 90 24 97 25 91 26 96 27 92 29 95 30 93 31 94 32 15 33
REMARK SMILES IDX 16 34 17 35 18 36 19 37 20 38 21 39 22 40 83 41 23 42 82 43
REMARK SMILES IDX 24 44 25 45 26 46 76 47 27 48 81 49 75 50 77 51 28 52 80 53
REMARK SMILES IDX 74 54 73 55 29 57 61 58 41 59 60 60 42 61 45 62 59 63 78 64
REMARK SMILES IDX 43 65 44 66 58 68 79 69 46 70 30 71 31 72 39 73 32 74 33 75
REMARK SMILES IDX 37 76 40 77 34 78 35 79 38 80 36 81 62 82 63 83 71 84 64 85
REMARK SMILES IDX 65 86 69 87 72 88 66 89 67 90 70 91 68 92 47 93 48 94 56 95
REMARK SMILES IDX 49 96 50 97 54 98 57 99 51 100 52 101 55 102 53 103
REMARK H PARENT 97 28 77 56 45 67
REMARK Flexibility Score: inf
ROOT
ATOM      1  C   UNL A   1      34.293  33.645  28.213  1.00  0.00     0.188 C 
ENDROOT
BRANCH   1   2
ATOM      2  C   UNL A   1      35.553  32.844  27.882  1.00  0.00     0.188 C 
BRANCH   2   3
ATOM      3  O   UNL A   1      35.299  31.483  27.539  1.00  0.00    -0.376 OA
BRANCH   3   4
ATOM      4  C   UNL A   1      33.924  31.099  27.547  1.00  0.00     0.202 C 
BRANCH   4   5
ATOM      5  C   UNL A   1      33.620  29.606  27.308  1.00  0.00     0.261 C 
BRANCH   5   6
ATOM      6  O   UNL A   1      32.698  29.337  26.224  1.00  0.00    -0.461 OA
BRANCH   6   7
ATOM      7  C   UNL A   1      32.048  28.138  26.234  1.00  0.00     0.334 C 
ATOM      8  O   UNL A   1      31.628  27.623  27.269  1.00  0.00    -0.249 OA
BRANCH   7   9
ATOM      9  C   UNL A   1      32.001  27.423  24.850  1.00  0.00     0.163 C 
ATOM     10  C   UNL A   1      33.361  27.375  24.109  1.00  0.00     0.064 C 
ATOM     11  C   UNL A   1      31.589  26.006  25.296  1.00  0.00     0.064 C 
ATOM     12  C   UNL A   1      33.471  26.248  23.076  1.00  0.00     0.123 C 
ATOM     13  C   UNL A   1      31.753  24.915  24.269  1.00  0.00     0.123 C 
ATOM     14  N   UNL A   1      33.056  24.957  23.619  1.00  0.00    -0.337 N 
ATOM     15  C   UNL A   1      33.885  23.838  23.455  1.00  0.00     0.270 C 
ATOM     16  O   UNL A   1      35.047  23.940  23.067  1.00  0.00    -0.267 OA
BRANCH   9  17
ATOM     17  N   UNL A   1      30.972  28.053  23.987  1.00  0.00    -0.255 N 
ATOM     18  C   UNL A   1      27.643  28.885  22.693  1.00  0.00     0.048 C 
ATOM     19  C   UNL A   1      29.069  28.695  23.034  1.00  0.00    -0.013 A 
ATOM     20  C   UNL A   1      30.192  29.304  22.451  1.00  0.00     0.138 A 
ATOM     21  C   UNL A   1      29.611  27.859  23.987  1.00  0.00     0.113 A 
ATOM     22  N   UNL A   1      31.336  28.873  22.978  1.00  0.00    -0.180 NA
ENDBRANCH   9  17
BRANCH  15  23
ATOM     23  C   UNL A   1      33.345  22.553  23.846  1.00  0.00     0.105 A 
ATOM     24  C   UNL A   1      33.322  21.904  25.071  1.00  0.00     0.042 A 
ATOM     25  N   UNL A   1      32.725  21.705  22.954  1.00  0.00    -0.351 N 
ATOM     26  C   UNL A   1      33.002  20.544  24.833  1.00  0.00     0.000 A 
ATOM     27  C   UNL A   1      32.616  20.445  23.497  1.00  0.00     0.046 A 
ATOM     28  H   UNL A   1      32.406  21.964  22.059  1.00  0.00     0.167 HD
ATOM     29  C   UNL A   1      33.042  19.380  25.622  1.00  0.00     0.010 A 
ATOM     30  C   UNL A   1      32.229  19.235  22.914  1.00  0.00     0.026 A 
ATOM     31  C   UNL A   1      32.694  18.155  25.044  1.00  0.00     0.001 A 
ATOM     32  C   UNL A   1      32.284  18.088  23.714  1.00  0.00     0.002 A 
ENDBRANCH  15  23
ENDBRANCH   7   9
ENDBRANCH   6   7
ENDBRANCH   5   6
ENDBRANCH   4   5
ENDBRANCH   3   4
ENDBRANCH   2   3
ENDBRANCH   1   2
BRANCH   1  33
ATOM     33  O   UNL A   1      34.480  34.662  29.185  1.00  0.00    -0.376 OA
BRANCH  33  34
ATOM     34  C   UNL A   1      33.933  34.575  30.501  1.00  0.00     0.202 C 
BRANCH  34  35
ATOM     35  C   UNL A   1      34.546  33.740  31.634  1.00  0.00     0.261 C 
BRANCH  35  36
ATOM     36  O   UNL A   1      34.877  32.400  31.319  1.00  0.00    -0.460 OA
BRANCH  36  37
ATOM     37  C   UNL A   1      35.895  31.819  31.973  1.00  0.00     0.338 C 
ATOM     38  O   UNL A   1      36.078  31.758  33.180  1.00  0.00    -0.246 OA
BRANCH  37  39
ATOM     39  C   UNL A   1      36.758  31.253  30.924  1.00  0.00     0.060 A 
ATOM     40  C   UNL A   1      36.542  29.926  30.580  1.00  0.00     0.016 A 
ATOM     41  C   UNL A   1      37.892  31.971  30.479  1.00  0.00     0.016 A 
ATOM     42  C   UNL A   1      37.620  29.229  30.098  1.00  0.00     0.010 A 
ATOM     43  C   UNL A   1      38.962  31.283  29.987  1.00  0.00     0.010 A 
ATOM     44  C   UNL A   1      38.839  29.906  29.960  1.00  0.00    -0.014 A 
BRANCH  44  45
ATOM     45  C   UNL A   1      40.035  29.111  29.995  1.00  0.00     0.031 A 
ATOM     46  C   UNL A   1      40.616  28.950  31.328  1.00  0.00     0.074 A 
ATOM     47  C   UNL A   1      40.534  28.577  28.866  1.00  0.00     0.049 A 
ATOM     48  N   UNL A   1      41.701  29.487  31.767  1.00  0.00    -0.248 NA
ATOM     49  C   UNL A   1      39.820  28.242  32.337  1.00  0.00     0.031 C 
ATOM     50  C   UNL A   1      39.904  28.433  27.551  1.00  0.00     0.029 A 
ATOM     51  N   UNL A   1      41.730  27.963  28.704  1.00  0.00    -0.354 N 
ATOM     52  C   UNL A   1      41.821  29.052  33.076  1.00  0.00     0.074 A 
ATOM     53  C   UNL A   1      40.565  28.438  33.424  1.00  0.00     0.031 C 
ATOM     54  C   UNL A   1      40.639  27.579  26.803  1.00  0.00     0.029 A 
ATOM     55  C   UNL A   1      41.837  27.218  27.544  1.00  0.00     0.049 A 
ATOM     56  H   UNL A   1      42.462  28.039  29.357  1.00  0.00     0.167 HD
ATOM     57  C   UNL A   1      43.030  29.032  33.692  1.00  0.00     0.037 A 
ATOM     58  C   UNL A   1      42.797  26.292  27.307  1.00  0.00     0.037 A 
ATOM     59  C   UNL A   1      43.988  29.860  33.004  1.00  0.00     0.049 A 
ATOM     60  C   UNL A   1      43.935  26.594  28.225  1.00  0.00     0.074 A 
ATOM     61  C   UNL A   1      44.045  31.208  32.697  1.00  0.00     0.029 A 
ATOM     62  N   UNL A   1      44.912  29.254  32.185  1.00  0.00    -0.354 N 
ATOM     63  N   UNL A   1      44.699  27.648  28.114  1.00  0.00    -0.248 NA
ATOM     64  C   UNL A   1      43.926  25.975  29.547  1.00  0.00     0.031 C 
ATOM     65  C   UNL A   1      44.639  31.273  31.403  1.00  0.00     0.029 A 
ATOM     66  C   UNL A   1      44.945  29.969  31.013  1.00  0.00     0.049 A 
ATOM     67  H   UNL A   1      45.447  28.457  32.398  1.00  0.00     0.167 HD
ATOM     68  C   UNL A   1      44.933  28.063  29.419  1.00  0.00     0.074 A 
ATOM     69  C   UNL A   1      44.506  26.947  30.257  1.00  0.00     0.031 C 
ATOM     70  C   UNL A   1      45.169  29.375  29.716  1.00  0.00     0.037 A 
BRANCH  57  71
ATOM     71  C   UNL A   1      43.421  28.003  34.712  1.00  0.00     0.064 A 
ATOM     72  C   UNL A   1      43.771  28.423  36.007  1.00  0.00     0.173 A 
ATOM     73  C   UNL A   1      43.732  26.661  34.395  1.00  0.00     0.173 A 
ATOM     74  F   UNL A   1      43.542  29.685  36.401  1.00  0.00    -0.203 F 
ATOM     75  C   UNL A   1      44.444  27.581  36.893  1.00  0.00     0.198 A 
ATOM     76  C   UNL A   1      44.347  25.807  35.304  1.00  0.00     0.198 A 
ATOM     77  F   UNL A   1      43.563  26.159  33.166  1.00  0.00    -0.203 F 
ATOM     78  F   UNL A   1      44.869  28.061  38.069  1.00  0.00    -0.200 F 
ATOM     79  C   UNL A   1      44.732  26.275  36.541  1.00  0.00     0.200 A 
ATOM     80  F   UNL A   1      44.634  24.550  34.935  1.00  0.00    -0.200 F 
ATOM     81  F   UNL A   1      45.427  25.484  37.368  1.00  0.00    -0.200 F 
ENDBRANCH  57  71
BRANCH  58  82
ATOM     82  C   UNL A   1      42.631  24.992  26.614  1.00  0.00     0.064 A 
ATOM     83  C   UNL A   1      43.378  24.688  25.465  1.00  0.00     0.173 A 
ATOM     84  C   UNL A   1      41.926  23.917  27.196  1.00  0.00     0.173 A 
ATOM     85  F   UNL A   1      44.118  25.638  24.872  1.00  0.00    -0.203 F 
ATOM     86  C   UNL A   1      43.434  23.390  24.945  1.00  0.00     0.198 A 
ATOM     87  C   UNL A   1      41.969  22.627  26.668  1.00  0.00     0.198 A 
ATOM     88  F   UNL A   1      41.253  24.067  28.345  1.00  0.00    -0.203 F 
ATOM     89  F   UNL A   1      44.211  23.128  23.885  1.00  0.00    -0.200 F 
ATOM     90  C   UNL A   1      42.734  22.359  25.551  1.00  0.00     0.200 A 
ATOM     91  F   UNL A   1      41.313  21.634  27.287  1.00  0.00    -0.200 F 
ATOM     92  F   UNL A   1      42.830  21.107  25.086  1.00  0.00    -0.200 F 
ENDBRANCH  58  82
BRANCH  70  93
ATOM     93  C   UNL A   1      45.413  30.321  28.573  1.00  0.00     0.064 A 
ATOM     94  C   UNL A   1      44.382  30.960  27.861  1.00  0.00     0.173 A 
ATOM     95  C   UNL A   1      46.728  30.719  28.296  1.00  0.00     0.173 A 
ATOM     96  F   UNL A   1      43.097  30.720  28.149  1.00  0.00    -0.203 F 
ATOM     97  C   UNL A   1      44.660  31.911  26.881  1.00  0.00     0.198 A 
ATOM     98  C   UNL A   1      47.001  31.697  27.344  1.00  0.00     0.198 A 
ATOM     99  F   UNL A   1      47.750  30.193  28.990  1.00  0.00    -0.203 F 
ATOM    100  F   UNL A   1      43.657  32.494  26.208  1.00  0.00    -0.200 F 
ATOM    101  C   UNL A   1      45.969  32.284  26.629  1.00  0.00     0.200 A 
ATOM    102  F   UNL A   1      48.265  32.096  27.141  1.00  0.00    -0.200 F 
ATOM    103  F   UNL A   1      46.234  33.232  25.718  1.00  0.00    -0.200 F 
ENDBRANCH  70  93
ENDBRANCH  44  45
ENDBRANCH  37  39
ENDBRANCH  36  37
ENDBRANCH  35  36
ENDBRANCH  34  35
ENDBRANCH  33  34
ENDBRANCH   1  33
TORSDOF 19
ENDMDL
