MODEL 1
REMARK VINA RESULT:     -11.3      0.000      0.000
REMARK SMILES Cc1cc(NC(=O)c2ccc(Br)nc2)sc1C(=O)OCCOCCOCCOC(=O)c1ccc(-c2c3nc(c(-c4c(F)c(F)c(F)c(F)c4F)c4ccc([nH]4)c(-c4c(F)c(F)c(F)c(F)c4F)c4nc(c(-c5c(F)c(F)c(F)c(F)c5F)c5ccc2[nH]5)C=C4)C=C3)cc1
REMARK SMILES IDX 23 1 22 2 21 3 20 4 19 5 17 6 18 7 16 8 1 9 2 10 3 11 4 12
REMARK SMILES IDX 15 13 5 14 6 15 7 17 8 18 9 19 14 20 10 21 13 22 11 23 12 24
REMARK SMILES IDX 24 25 25 26 26 27 27 28 28 29 29 30 30 31 31 32 32 33 93 34
REMARK SMILES IDX 33 35 92 36 34 37 35 38 36 39 86 40 37 41 91 42 85 43 87 44
REMARK SMILES IDX 38 45 90 46 84 47 83 48 39 50 71 51 51 52 70 53 52 54 55 55
REMARK SMILES IDX 69 56 88 57 53 58 54 59 68 61 89 62 56 63 40 64 41 65 49 66
REMARK SMILES IDX 42 67 43 68 47 69 50 70 44 71 45 72 48 73 46 74 72 75 73 76
REMARK SMILES IDX 81 77 74 78 75 79 79 80 82 81 76 82 77 83 80 84 78 85 57 86
REMARK SMILES IDX 58 87 66 88 59 89 60 90 64 91 67 92 61 93 62 94 65 95 63 96
REMARK H PARENT 5 16 87 49 55 60
REMARK Flexibility Score: inf
ROOT
ATOM      1  C   UNL A   1      39.659  21.740  26.472  1.00  0.00     0.188 C 
ENDROOT
BRANCH   1   2
ATOM      2  O   UNL A   1      38.677  21.237  25.574  1.00  0.00    -0.376 OA
BRANCH   2   3
ATOM      3  C   UNL A   1      37.435  21.924  25.446  1.00  0.00     0.202 C 
BRANCH   3   4
ATOM      4  C   UNL A   1      36.216  21.063  25.107  1.00  0.00     0.261 C 
BRANCH   4   5
ATOM      5  O   UNL A   1      35.118  21.360  25.983  1.00  0.00    -0.459 OA
BRANCH   5   6
ATOM      6  C   UNL A   1      34.607  22.620  25.900  1.00  0.00     0.348 C 
ATOM      7  O   UNL A   1      34.905  23.536  26.659  1.00  0.00    -0.245 OA
BRANCH   6   8
ATOM      8  C   UNL A   1      33.771  22.738  24.717  1.00  0.00     0.117 A 
ATOM      9  C   UNL A   1      31.546  21.577  25.371  1.00  0.00     0.046 C 
ATOM     10  C   UNL A   1      32.487  22.276  24.438  1.00  0.00    -0.023 A 
ATOM     11  C   UNL A   1      32.124  22.577  23.081  1.00  0.00     0.042 A 
ATOM     12  C   UNL A   1      33.051  23.364  22.449  1.00  0.00     0.096 A 
ATOM     13  S   UNL A   1      34.465  23.537  23.354  1.00  0.00    -0.111 S 
BRANCH  12  14
ATOM     14  N   UNL A   1      33.057  24.032  21.248  1.00  0.00    -0.313 N 
ATOM     15  C   UNL A   1      32.574  25.301  21.006  1.00  0.00     0.257 C 
ATOM     16  H   UNL A   1      33.448  23.555  20.480  1.00  0.00     0.171 HD
ATOM     17  O   UNL A   1      32.393  25.704  19.860  1.00  0.00    -0.269 OA
BRANCH  15  18
ATOM     18  C   UNL A   1      32.339  26.228  22.127  1.00  0.00     0.058 A 
ATOM     19  C   UNL A   1      31.130  26.252  22.829  1.00  0.00     0.018 A 
ATOM     20  C   UNL A   1      33.319  27.145  22.468  1.00  0.00     0.126 A 
ATOM     21  C   UNL A   1      30.909  27.257  23.767  1.00  0.00     0.037 A 
ATOM     22  N   UNL A   1      33.130  28.129  23.381  1.00  0.00    -0.249 NA
ATOM     23  C   UNL A   1      31.926  28.174  23.998  1.00  0.00     0.106 A 
ATOM     24  Br  UNL A   1      31.605  29.601  25.203  1.00  0.00    -0.029 Br
ENDBRANCH  15  18
ENDBRANCH  12  14
ENDBRANCH   6   8
ENDBRANCH   5   6
ENDBRANCH   4   5
ENDBRANCH   3   4
ENDBRANCH   2   3
ENDBRANCH   1   2
BRANCH   1  25
ATOM     25  C   UNL A   1      40.866  20.857  26.838  1.00  0.00     0.188 C 
BRANCH  25  26
ATOM     26  O   UNL A   1      41.746  20.582  25.759  1.00  0.00    -0.376 OA
BRANCH  26  27
ATOM     27  C   UNL A   1      43.132  20.659  26.068  1.00  0.00     0.202 C 
BRANCH  27  28
ATOM     28  C   UNL A   1      43.848  21.771  25.296  1.00  0.00     0.261 C 
BRANCH  28  29
ATOM     29  O   UNL A   1      43.070  22.967  25.116  1.00  0.00    -0.460 OA
BRANCH  29  30
ATOM     30  C   UNL A   1      43.749  24.134  25.069  1.00  0.00     0.338 C 
ATOM     31  O   UNL A   1      44.629  24.446  24.288  1.00  0.00    -0.246 OA
BRANCH  30  32
ATOM     32  C   UNL A   1      43.122  25.062  26.031  1.00  0.00     0.060 A 
ATOM     33  C   UNL A   1      43.600  26.375  26.118  1.00  0.00     0.016 A 
ATOM     34  C   UNL A   1      42.068  24.635  26.844  1.00  0.00     0.016 A 
ATOM     35  C   UNL A   1      43.037  27.260  27.040  1.00  0.00     0.010 A 
ATOM     36  C   UNL A   1      41.518  25.516  27.776  1.00  0.00     0.010 A 
ATOM     37  C   UNL A   1      42.015  26.825  27.897  1.00  0.00    -0.014 A 
BRANCH  37  38
ATOM     38  C   UNL A   1      41.574  27.676  29.027  1.00  0.00     0.031 A 
ATOM     39  C   UNL A   1      42.310  27.575  30.333  1.00  0.00     0.074 A 
ATOM     40  C   UNL A   1      40.530  28.514  28.904  1.00  0.00     0.049 A 
ATOM     41  N   UNL A   1      42.074  28.178  31.470  1.00  0.00    -0.248 NA
ATOM     42  C   UNL A   1      43.467  26.668  30.361  1.00  0.00     0.031 C 
ATOM     43  C   UNL A   1      39.747  28.719  27.689  1.00  0.00     0.029 A 
ATOM     44  N   UNL A   1      39.941  29.340  29.830  1.00  0.00    -0.354 N 
ATOM     45  C   UNL A   1      43.053  27.728  32.345  1.00  0.00     0.074 A 
ATOM     46  C   UNL A   1      43.868  26.779  31.618  1.00  0.00     0.031 C 
ATOM     47  C   UNL A   1      38.768  29.604  27.948  1.00  0.00     0.029 A 
ATOM     48  C   UNL A   1      38.841  30.007  29.351  1.00  0.00     0.049 A 
ATOM     49  H   UNL A   1      40.277  29.445  30.750  1.00  0.00     0.167 HD
ATOM     50  C   UNL A   1      43.261  28.080  33.636  1.00  0.00     0.037 A 
ATOM     51  C   UNL A   1      37.981  30.829  29.984  1.00  0.00     0.037 A 
ATOM     52  C   UNL A   1      42.445  29.011  34.367  1.00  0.00     0.049 A 
ATOM     53  C   UNL A   1      38.192  31.151  31.442  1.00  0.00     0.074 A 
ATOM     54  C   UNL A   1      42.586  29.440  35.676  1.00  0.00     0.029 A 
ATOM     55  N   UNL A   1      41.328  29.650  33.854  1.00  0.00    -0.354 N 
ATOM     56  N   UNL A   1      39.140  30.748  32.251  1.00  0.00    -0.248 NA
ATOM     57  C   UNL A   1      37.208  32.045  32.073  1.00  0.00     0.031 C 
ATOM     58  C   UNL A   1      41.527  30.307  35.967  1.00  0.00     0.029 A 
ATOM     59  C   UNL A   1      40.754  30.453  34.827  1.00  0.00     0.049 A 
ATOM     60  H   UNL A   1      40.991  29.549  32.935  1.00  0.00     0.167 HD
ATOM     61  C   UNL A   1      38.885  31.358  33.474  1.00  0.00     0.074 A 
ATOM     62  C   UNL A   1      37.697  32.165  33.299  1.00  0.00     0.031 C 
ATOM     63  C   UNL A   1      39.576  31.258  34.636  1.00  0.00     0.037 A 
BRANCH  50  64
ATOM     64  C   UNL A   1      44.411  27.433  34.345  1.00  0.00     0.064 A 
ATOM     65  C   UNL A   1      45.690  28.009  34.342  1.00  0.00     0.173 A 
ATOM     66  C   UNL A   1      44.229  26.237  35.054  1.00  0.00     0.173 A 
ATOM     67  F   UNL A   1      45.918  29.144  33.663  1.00  0.00    -0.203 F 
ATOM     68  C   UNL A   1      46.751  27.399  35.006  1.00  0.00     0.198 A 
ATOM     69  C   UNL A   1      45.286  25.642  35.736  1.00  0.00     0.198 A 
ATOM     70  F   UNL A   1      43.024  25.647  35.087  1.00  0.00    -0.203 F 
ATOM     71  F   UNL A   1      47.975  27.943  34.954  1.00  0.00    -0.200 F 
ATOM     72  C   UNL A   1      46.547  26.219  35.706  1.00  0.00     0.200 A 
ATOM     73  F   UNL A   1      45.086  24.506  36.419  1.00  0.00    -0.200 F 
ATOM     74  F   UNL A   1      47.568  25.633  36.346  1.00  0.00    -0.200 F 
ENDBRANCH  50  64
BRANCH  51  75
ATOM     75  C   UNL A   1      36.827  31.405  29.246  1.00  0.00     0.064 A 
ATOM     76  C   UNL A   1      36.798  32.762  28.895  1.00  0.00     0.173 A 
ATOM     77  C   UNL A   1      35.718  30.617  28.905  1.00  0.00     0.173 A 
ATOM     78  F   UNL A   1      37.823  33.561  29.229  1.00  0.00    -0.203 F 
ATOM     79  C   UNL A   1      35.697  33.313  28.243  1.00  0.00     0.198 A 
ATOM     80  C   UNL A   1      34.628  31.164  28.231  1.00  0.00     0.198 A 
ATOM     81  F   UNL A   1      35.695  29.316  29.226  1.00  0.00    -0.203 F 
ATOM     82  F   UNL A   1      35.675  34.622  27.960  1.00  0.00    -0.200 F 
ATOM     83  C   UNL A   1      34.615  32.513  27.907  1.00  0.00     0.200 A 
ATOM     84  F   UNL A   1      33.586  30.387  27.903  1.00  0.00    -0.200 F 
ATOM     85  F   UNL A   1      33.555  33.043  27.282  1.00  0.00    -0.200 F 
ENDBRANCH  51  75
BRANCH  63  86
ATOM     86  C   UNL A   1      39.088  32.065  35.804  1.00  0.00     0.064 A 
ATOM     87  C   UNL A   1      38.263  31.507  36.791  1.00  0.00     0.173 A 
ATOM     88  C   UNL A   1      39.493  33.399  35.963  1.00  0.00     0.173 A 
ATOM     89  F   UNL A   1      37.837  30.239  36.676  1.00  0.00    -0.203 F 
ATOM     90  C   UNL A   1      37.846  32.260  37.885  1.00  0.00     0.198 A 
ATOM     91  C   UNL A   1      39.095  34.142  37.072  1.00  0.00     0.198 A 
ATOM     92  F   UNL A   1      40.288  33.978  35.050  1.00  0.00    -0.203 F 
ATOM     93  F   UNL A   1      37.027  31.717  38.796  1.00  0.00    -0.200 F 
ATOM     94  C   UNL A   1      38.268  33.574  38.028  1.00  0.00     0.200 A 
ATOM     95  F   UNL A   1      39.513  35.407  37.214  1.00  0.00    -0.200 F 
ATOM     96  F   UNL A   1      37.872  34.295  39.087  1.00  0.00    -0.200 F 
ENDBRANCH  63  86
ENDBRANCH  37  38
ENDBRANCH  30  32
ENDBRANCH  29  30
ENDBRANCH  28  29
ENDBRANCH  27  28
ENDBRANCH  26  27
ENDBRANCH  25  26
ENDBRANCH   1  25
TORSDOF 19
ENDMDL
MODEL 2
REMARK VINA RESULT:     -10.9      3.835      9.148
REMARK SMILES Cc1cc(NC(=O)c2ccc(Br)nc2)sc1C(=O)OCCOCCOCCOC(=O)c1ccc(-c2c3nc(c(-c4c(F)c(F)c(F)c(F)c4F)c4ccc([nH]4)c(-c4c(F)c(F)c(F)c(F)c4F)c4nc(c(-c5c(F)c(F)c(F)c(F)c5F)c5ccc2[nH]5)C=C4)C=C3)cc1
REMARK SMILES IDX 23 1 22 2 21 3 20 4 19 5 17 6 18 7 16 8 1 9 2 10 3 11 4 12
REMARK SMILES IDX 15 13 5 14 6 15 7 17 8 18 9 19 14 20 10 21 13 22 11 23 12 24
REMARK SMILES IDX 24 25 25 26 26 27 27 28 28 29 29 30 30 31 31 32 32 33 93 34
REMARK SMILES IDX 33 35 92 36 34 37 35 38 36 39 86 40 37 41 91 42 85 43 87 44
REMARK SMILES IDX 38 45 90 46 84 47 83 48 39 50 71 51 51 52 70 53 52 54 55 55
REMARK SMILES IDX 69 56 88 57 53 58 54 59 68 61 89 62 56 63 40 64 41 65 49 66
REMARK SMILES IDX 42 67 43 68 47 69 50 70 44 71 45 72 48 73 46 74 72 75 73 76
REMARK SMILES IDX 81 77 74 78 75 79 79 80 82 81 76 82 77 83 80 84 78 85 57 86
REMARK SMILES IDX 58 87 66 88 59 89 60 90 64 91 67 92 61 93 62 94 65 95 63 96
REMARK H PARENT 5 16 87 49 55 60
REMARK Flexibility Score: inf
ROOT
ATOM      1  C   UNL A   1      35.157  31.571  27.945  1.00  0.00     0.188 C 
ENDROOT
BRANCH   1   2
ATOM      2  O   UNL A   1      33.893  30.966  27.699  1.00  0.00    -0.376 OA
BRANCH   2   3
ATOM      3  C   UNL A   1      33.843  29.613  27.258  1.00  0.00     0.202 C 
BRANCH   3   4
ATOM      4  C   UNL A   1      33.787  29.394  25.745  1.00  0.00     0.261 C 
BRANCH   4   5
ATOM      5  O   UNL A   1      33.703  27.995  25.430  1.00  0.00    -0.459 OA
BRANCH   5   6
ATOM      6  C   UNL A   1      33.183  27.684  24.210  1.00  0.00     0.348 C 
ATOM      7  O   UNL A   1      33.609  28.120  23.147  1.00  0.00    -0.245 OA
BRANCH   6   8
ATOM      8  C   UNL A   1      32.149  26.673  24.357  1.00  0.00     0.117 A 
ATOM      9  C   UNL A   1      31.775  25.766  21.956  1.00  0.00     0.046 C 
ATOM     10  C   UNL A   1      31.497  25.870  23.425  1.00  0.00    -0.023 A 
ATOM     11  C   UNL A   1      30.479  25.080  24.060  1.00  0.00     0.042 A 
ATOM     12  C   UNL A   1      30.497  25.195  25.426  1.00  0.00     0.096 A 
ATOM     13  S   UNL A   1      31.532  26.421  25.949  1.00  0.00    -0.111 S 
BRANCH  12  14
ATOM     14  N   UNL A   1      29.854  24.521  26.436  1.00  0.00    -0.313 N 
ATOM     15  C   UNL A   1      30.144  23.255  26.900  1.00  0.00     0.257 C 
ATOM     16  H   UNL A   1      29.109  24.992  26.876  1.00  0.00     0.171 HD
ATOM     17  O   UNL A   1      29.359  22.647  27.621  1.00  0.00    -0.269 OA
BRANCH  15  18
ATOM     18  C   UNL A   1      31.448  22.639  26.597  1.00  0.00     0.058 A 
ATOM     19  C   UNL A   1      32.584  22.889  27.375  1.00  0.00     0.018 A 
ATOM     20  C   UNL A   1      31.577  21.831  25.480  1.00  0.00     0.126 A 
ATOM     21  C   UNL A   1      33.819  22.411  26.945  1.00  0.00     0.037 A 
ATOM     22  N   UNL A   1      32.766  21.350  25.045  1.00  0.00    -0.249 NA
ATOM     23  C   UNL A   1      33.863  21.662  25.775  1.00  0.00     0.106 A 
ATOM     24  Br  UNL A   1      35.548  21.084  25.131  1.00  0.00    -0.029 Br
ENDBRANCH  15  18
ENDBRANCH  12  14
ENDBRANCH   6   8
ENDBRANCH   5   6
ENDBRANCH   4   5
ENDBRANCH   3   4
ENDBRANCH   2   3
ENDBRANCH   1   2
BRANCH   1  25
ATOM     25  C   UNL A   1      35.212  32.952  28.623  1.00  0.00     0.188 C 
BRANCH  25  26
ATOM     26  O   UNL A   1      34.550  33.986  27.910  1.00  0.00    -0.376 OA
BRANCH  26  27
ATOM     27  C   UNL A   1      33.244  34.304  28.373  1.00  0.00     0.202 C 
BRANCH  27  28
ATOM     28  C   UNL A   1      33.248  35.381  29.463  1.00  0.00     0.261 C 
BRANCH  28  29
ATOM     29  O   UNL A   1      32.409  35.085  30.594  1.00  0.00    -0.460 OA
BRANCH  29  30
ATOM     30  C   UNL A   1      32.740  35.671  31.765  1.00  0.00     0.338 C 
ATOM     31  O   UNL A   1      32.120  36.531  32.364  1.00  0.00    -0.246 OA
BRANCH  30  32
ATOM     32  C   UNL A   1      33.917  34.964  32.308  1.00  0.00     0.060 A 
ATOM     33  C   UNL A   1      35.172  35.580  32.237  1.00  0.00     0.016 A 
ATOM     34  C   UNL A   1      33.780  33.697  32.882  1.00  0.00     0.016 A 
ATOM     35  C   UNL A   1      36.301  34.917  32.721  1.00  0.00     0.010 A 
ATOM     36  C   UNL A   1      34.913  33.028  33.350  1.00  0.00     0.010 A 
ATOM     37  C   UNL A   1      36.181  33.623  33.250  1.00  0.00    -0.014 A 
BRANCH  37  38
ATOM     38  C   UNL A   1      37.393  32.822  33.549  1.00  0.00     0.031 A 
ATOM     39  C   UNL A   1      38.144  33.103  34.819  1.00  0.00     0.074 A 
ATOM     40  C   UNL A   1      37.829  31.873  32.703  1.00  0.00     0.049 A 
ATOM     41  N   UNL A   1      39.254  32.572  35.266  1.00  0.00    -0.248 NA
ATOM     42  C   UNL A   1      37.567  34.127  35.705  1.00  0.00     0.031 C 
ATOM     43  C   UNL A   1      37.181  31.491  31.451  1.00  0.00     0.029 A 
ATOM     44  N   UNL A   1      38.939  31.066  32.771  1.00  0.00    -0.354 N 
ATOM     45  C   UNL A   1      39.504  33.190  36.483  1.00  0.00     0.074 A 
ATOM     46  C   UNL A   1      38.449  34.158  36.692  1.00  0.00     0.031 C 
ATOM     47  C   UNL A   1      37.915  30.532  30.858  1.00  0.00     0.029 A 
ATOM     48  C   UNL A   1      39.094  30.252  31.676  1.00  0.00     0.049 A 
ATOM     49  H   UNL A   1      39.563  31.071  33.532  1.00  0.00     0.167 HD
ATOM     50  C   UNL A   1      40.517  32.966  37.352  1.00  0.00     0.037 A 
ATOM     51  C   UNL A   1      40.088  29.398  31.365  1.00  0.00     0.037 A 
ATOM     52  C   UNL A   1      41.576  32.016  37.142  1.00  0.00     0.049 A 
ATOM     53  C   UNL A   1      41.243  29.217  32.316  1.00  0.00     0.074 A 
ATOM     54  C   UNL A   1      42.640  31.710  37.973  1.00  0.00     0.029 A 
ATOM     55  N   UNL A   1      41.710  31.225  36.012  1.00  0.00    -0.354 N 
ATOM     56  N   UNL A   1      41.454  29.780  33.481  1.00  0.00    -0.248 NA
ATOM     57  C   UNL A   1      42.300  28.278  31.907  1.00  0.00     0.031 C 
ATOM     58  C   UNL A   1      43.441  30.763  37.326  1.00  0.00     0.029 A 
ATOM     59  C   UNL A   1      42.852  30.446  36.113  1.00  0.00     0.049 A 
ATOM     60  H   UNL A   1      41.087  31.216  35.250  1.00  0.00     0.167 HD
ATOM     61  C   UNL A   1      42.647  29.246  33.954  1.00  0.00     0.074 A 
ATOM     62  C   UNL A   1      43.111  28.308  32.955  1.00  0.00     0.031 C 
ATOM     63  C   UNL A   1      43.297  29.511  35.114  1.00  0.00     0.037 A 
BRANCH  50  64
ATOM     64  C   UNL A   1      40.536  33.784  38.608  1.00  0.00     0.064 A 
ATOM     65  C   UNL A   1      41.315  34.945  38.712  1.00  0.00     0.173 A 
ATOM     66  C   UNL A   1      39.750  33.415  39.709  1.00  0.00     0.173 A 
ATOM     67  F   UNL A   1      42.097  35.329  37.692  1.00  0.00    -0.203 F 
ATOM     68  C   UNL A   1      41.323  35.697  39.884  1.00  0.00     0.198 A 
ATOM     69  C   UNL A   1      39.742  34.182  40.870  1.00  0.00     0.198 A 
ATOM     70  F   UNL A   1      38.988  32.313  39.657  1.00  0.00    -0.203 F 
ATOM     71  F   UNL A   1      42.108  36.780  39.979  1.00  0.00    -0.200 F 
ATOM     72  C   UNL A   1      40.533  35.318  40.960  1.00  0.00     0.200 A 
ATOM     73  F   UNL A   1      38.973  33.819  41.906  1.00  0.00    -0.200 F 
ATOM     74  F   UNL A   1      40.540  36.043  42.086  1.00  0.00    -0.200 F 
ENDBRANCH  50  64
BRANCH  51  75
ATOM     75  C   UNL A   1      40.046  28.647  30.083  1.00  0.00     0.064 A 
ATOM     76  C   UNL A   1      39.445  27.383  30.005  1.00  0.00     0.173 A 
ATOM     77  C   UNL A   1      40.632  29.166  28.919  1.00  0.00     0.173 A 
ATOM     78  F   UNL A   1      38.901  26.833  31.100  1.00  0.00    -0.203 F 
ATOM     79  C   UNL A   1      39.445  26.659  28.815  1.00  0.00     0.198 A 
ATOM     80  C   UNL A   1      40.609  28.452  27.723  1.00  0.00     0.198 A 
ATOM     81  F   UNL A   1      41.226  30.368  28.944  1.00  0.00    -0.203 F 
ATOM     82  F   UNL A   1      38.905  25.433  28.779  1.00  0.00    -0.200 F 
ATOM     83  C   UNL A   1      40.022  27.196  27.673  1.00  0.00     0.200 A 
ATOM     84  F   UNL A   1      41.163  28.975  26.621  1.00  0.00    -0.200 F 
ATOM     85  F   UNL A   1      40.023  26.499  26.529  1.00  0.00    -0.200 F 
ENDBRANCH  51  75
BRANCH  63  86
ATOM     86  C   UNL A   1      44.564  28.752  35.387  1.00  0.00     0.064 A 
ATOM     87  C   UNL A   1      45.820  29.267  35.034  1.00  0.00     0.173 A 
ATOM     88  C   UNL A   1      44.523  27.519  36.053  1.00  0.00     0.173 A 
ATOM     89  F   UNL A   1      45.910  30.437  34.382  1.00  0.00    -0.203 F 
ATOM     90  C   UNL A   1      46.988  28.566  35.324  1.00  0.00     0.198 A 
ATOM     91  C   UNL A   1      45.694  26.832  36.364  1.00  0.00     0.198 A 
ATOM     92  F   UNL A   1      43.347  26.985  36.418  1.00  0.00    -0.203 F 
ATOM     93  F   UNL A   1      48.174  29.060  34.944  1.00  0.00    -0.200 F 
ATOM     94  C   UNL A   1      46.924  27.353  35.994  1.00  0.00     0.200 A 
ATOM     95  F   UNL A   1      45.631  25.667  37.022  1.00  0.00    -0.200 F 
ATOM     96  F   UNL A   1      48.050  26.684  36.279  1.00  0.00    -0.200 F 
ENDBRANCH  63  86
ENDBRANCH  37  38
ENDBRANCH  30  32
ENDBRANCH  29  30
ENDBRANCH  28  29
ENDBRANCH  27  28
ENDBRANCH  26  27
ENDBRANCH  25  26
ENDBRANCH   1  25
TORSDOF 19
ENDMDL
MODEL 3
REMARK VINA RESULT:     -10.7      5.205      7.556
REMARK SMILES Cc1cc(NC(=O)c2ccc(Br)nc2)sc1C(=O)OCCOCCOCCOC(=O)c1ccc(-c2c3nc(c(-c4c(F)c(F)c(F)c(F)c4F)c4ccc([nH]4)c(-c4c(F)c(F)c(F)c(F)c4F)c4nc(c(-c5c(F)c(F)c(F)c(F)c5F)c5ccc2[nH]5)C=C4)C=C3)cc1
REMARK SMILES IDX 23 1 22 2 21 3 20 4 19 5 17 6 18 7 16 8 1 9 2 10 3 11 4 12
REMARK SMILES IDX 15 13 5 14 6 15 7 17 8 18 9 19 14 20 10 21 13 22 11 23 12 24
REMARK SMILES IDX 24 25 25 26 26 27 27 28 28 29 29 30 30 31 31 32 32 33 93 34
REMARK SMILES IDX 33 35 92 36 34 37 35 38 36 39 86 40 37 41 91 42 85 43 87 44
REMARK SMILES IDX 38 45 90 46 84 47 83 48 39 50 71 51 51 52 70 53 52 54 55 55
REMARK SMILES IDX 69 56 88 57 53 58 54 59 68 61 89 62 56 63 40 64 41 65 49 66
REMARK SMILES IDX 42 67 43 68 47 69 50 70 44 71 45 72 48 73 46 74 72 75 73 76
REMARK SMILES IDX 81 77 74 78 75 79 79 80 82 81 76 82 77 83 80 84 78 85 57 86
REMARK SMILES IDX 58 87 66 88 59 89 60 90 64 91 67 92 61 93 62 94 65 95 63 96
REMARK H PARENT 5 16 87 49 55 60
REMARK Flexibility Score: inf
ROOT
ATOM      1  C   UNL A   1      39.533  20.783  25.938  1.00  0.00     0.188 C 
ENDROOT
BRANCH   1   2
ATOM      2  O   UNL A   1      38.533  21.594  25.333  1.00  0.00    -0.376 OA
BRANCH   2   3
ATOM      3  C   UNL A   1      37.274  21.015  25.002  1.00  0.00     0.202 C 
BRANCH   3   4
ATOM      4  C   UNL A   1      36.034  21.745  25.524  1.00  0.00     0.261 C 
BRANCH   4   5
ATOM      5  O   UNL A   1      34.940  21.623  24.602  1.00  0.00    -0.459 OA
BRANCH   5   6
ATOM      6  C   UNL A   1      33.810  21.036  25.086  1.00  0.00     0.348 C 
ATOM      7  O   UNL A   1      33.701  19.838  25.322  1.00  0.00    -0.245 OA
BRANCH   6   8
ATOM      8  C   UNL A   1      32.817  22.053  25.393  1.00  0.00     0.117 A 
ATOM      9  C   UNL A   1      32.953  22.344  27.967  1.00  0.00     0.046 C 
ATOM     10  C   UNL A   1      32.395  22.604  26.600  1.00  0.00    -0.023 A 
ATOM     11  C   UNL A   1      31.315  23.527  26.387  1.00  0.00     0.042 A 
ATOM     12  C   UNL A   1      31.066  23.750  25.058  1.00  0.00     0.096 A 
ATOM     13  S   UNL A   1      31.922  22.688  24.062  1.00  0.00    -0.111 S 
BRANCH  12  14
ATOM     14  N   UNL A   1      30.277  24.651  24.386  1.00  0.00    -0.313 N 
ATOM     15  C   UNL A   1      30.202  26.010  24.608  1.00  0.00     0.257 C 
ATOM     16  H   UNL A   1      29.705  24.289  23.670  1.00  0.00     0.171 HD
ATOM     17  O   UNL A   1      29.289  26.682  24.136  1.00  0.00    -0.269 OA
BRANCH  15  18
ATOM     18  C   UNL A   1      31.271  26.696  25.356  1.00  0.00     0.058 A 
ATOM     19  C   UNL A   1      31.077  27.172  26.657  1.00  0.00     0.018 A 
ATOM     20  C   UNL A   1      32.489  26.930  24.741  1.00  0.00     0.126 A 
ATOM     21  C   UNL A   1      32.067  27.952  27.248  1.00  0.00     0.037 A 
ATOM     22  N   UNL A   1      33.469  27.682  25.298  1.00  0.00    -0.249 NA
ATOM     23  C   UNL A   1      33.232  28.190  26.530  1.00  0.00     0.106 A 
ATOM     24  Br  UNL A   1      34.547  29.326  27.286  1.00  0.00    -0.029 Br
ENDBRANCH  15  18
ENDBRANCH  12  14
ENDBRANCH   6   8
ENDBRANCH   5   6
ENDBRANCH   4   5
ENDBRANCH   3   4
ENDBRANCH   2   3
ENDBRANCH   1   2
BRANCH   1  25
ATOM     25  C   UNL A   1      40.664  21.454  26.739  1.00  0.00     0.188 C 
BRANCH  25  26
ATOM     26  O   UNL A   1      41.943  20.863  26.564  1.00  0.00    -0.376 OA
BRANCH  26  27
ATOM     27  C   UNL A   1      42.016  19.473  26.853  1.00  0.00     0.202 C 
BRANCH  27  28
ATOM     28  C   UNL A   1      43.000  18.731  25.943  1.00  0.00     0.261 C 
BRANCH  28  29
ATOM     29  O   UNL A   1      43.227  19.364  24.671  1.00  0.00    -0.460 OA
BRANCH  29  30
ATOM     30  C   UNL A   1      44.513  19.590  24.325  1.00  0.00     0.338 C 
ATOM     31  O   UNL A   1      45.255  18.848  23.707  1.00  0.00    -0.246 OA
BRANCH  30  32
ATOM     32  C   UNL A   1      44.836  20.988  24.675  1.00  0.00     0.060 A 
ATOM     33  C   UNL A   1      45.519  21.248  25.868  1.00  0.00     0.016 A 
ATOM     34  C   UNL A   1      44.462  22.034  23.828  1.00  0.00     0.016 A 
ATOM     35  C   UNL A   1      45.811  22.565  26.230  1.00  0.00     0.010 A 
ATOM     36  C   UNL A   1      44.739  23.351  24.199  1.00  0.00     0.010 A 
ATOM     37  C   UNL A   1      45.392  23.626  25.412  1.00  0.00    -0.014 A 
BRANCH  37  38
ATOM     38  C   UNL A   1      45.488  25.024  25.894  1.00  0.00     0.031 A 
ATOM     39  C   UNL A   1      46.826  25.706  25.859  1.00  0.00     0.074 A 
ATOM     40  C   UNL A   1      44.412  25.675  26.368  1.00  0.00     0.049 A 
ATOM     41  N   UNL A   1      47.163  26.901  26.274  1.00  0.00    -0.248 NA
ATOM     42  C   UNL A   1      47.937  24.934  25.280  1.00  0.00     0.031 C 
ATOM     43  C   UNL A   1      43.057  25.133  26.438  1.00  0.00     0.029 A 
ATOM     44  N   UNL A   1      44.300  26.937  26.899  1.00  0.00    -0.354 N 
ATOM     45  C   UNL A   1      48.518  27.025  26.003  1.00  0.00     0.074 A 
ATOM     46  C   UNL A   1      48.951  25.775  25.416  1.00  0.00     0.031 C 
ATOM     47  C   UNL A   1      42.250  26.053  26.995  1.00  0.00     0.029 A 
ATOM     48  C   UNL A   1      43.036  27.236  27.344  1.00  0.00     0.049 A 
ATOM     49  H   UNL A   1      45.054  27.567  26.954  1.00  0.00     0.167 HD
ATOM     50  C   UNL A   1      49.330  28.088  26.216  1.00  0.00     0.037 A 
ATOM     51  C   UNL A   1      42.577  28.331  27.980  1.00  0.00     0.037 A 
ATOM     52  C   UNL A   1      48.909  29.327  26.813  1.00  0.00     0.049 A 
ATOM     53  C   UNL A   1      43.516  29.475  28.270  1.00  0.00     0.074 A 
ATOM     54  C   UNL A   1      49.657  30.466  27.058  1.00  0.00     0.029 A 
ATOM     55  N   UNL A   1      47.626  29.585  27.269  1.00  0.00    -0.354 N 
ATOM     56  N   UNL A   1      44.788  29.598  27.979  1.00  0.00    -0.248 NA
ATOM     57  C   UNL A   1      42.951  30.634  28.980  1.00  0.00     0.031 C 
ATOM     58  C   UNL A   1      48.835  31.398  27.701  1.00  0.00     0.029 A 
ATOM     59  C   UNL A   1      47.565  30.857  27.815  1.00  0.00     0.049 A 
ATOM     60  H   UNL A   1      46.869  28.958  27.213  1.00  0.00     0.167 HD
ATOM     61  C   UNL A   1      45.167  30.852  28.443  1.00  0.00     0.074 A 
ATOM     62  C   UNL A   1      43.989  31.456  29.027  1.00  0.00     0.031 C 
ATOM     63  C   UNL A   1      46.384  31.448  28.386  1.00  0.00     0.037 A 
BRANCH  50  64
ATOM     64  C   UNL A   1      50.767  27.944  25.816  1.00  0.00     0.064 A 
ATOM     65  C   UNL A   1      51.169  28.069  24.479  1.00  0.00     0.173 A 
ATOM     66  C   UNL A   1      51.753  27.701  26.782  1.00  0.00     0.173 A 
ATOM     67  F   UNL A   1      50.260  28.284  23.516  1.00  0.00    -0.203 F 
ATOM     68  C   UNL A   1      52.508  27.934  24.120  1.00  0.00     0.198 A 
ATOM     69  C   UNL A   1      53.093  27.590  26.423  1.00  0.00     0.198 A 
ATOM     70  F   UNL A   1      51.418  27.574  28.075  1.00  0.00    -0.203 F 
ATOM     71  F   UNL A   1      52.866  28.014  22.830  1.00  0.00    -0.200 F 
ATOM     72  C   UNL A   1      53.469  27.700  25.092  1.00  0.00     0.200 A 
ATOM     73  F   UNL A   1      54.022  27.371  27.364  1.00  0.00    -0.200 F 
ATOM     74  F   UNL A   1      54.757  27.572  24.746  1.00  0.00    -0.200 F 
ENDBRANCH  50  64
BRANCH  51  75
ATOM     75  C   UNL A   1      41.153  28.403  28.400  1.00  0.00     0.064 A 
ATOM     76  C   UNL A   1      40.173  28.922  27.544  1.00  0.00     0.173 A 
ATOM     77  C   UNL A   1      40.752  27.982  29.676  1.00  0.00     0.173 A 
ATOM     78  F   UNL A   1      40.516  29.365  26.326  1.00  0.00    -0.203 F 
ATOM     79  C   UNL A   1      38.845  29.031  27.953  1.00  0.00     0.198 A 
ATOM     80  C   UNL A   1      39.420  28.069  30.076  1.00  0.00     0.198 A 
ATOM     81  F   UNL A   1      41.654  27.486  30.535  1.00  0.00    -0.203 F 
ATOM     82  F   UNL A   1      37.936  29.573  27.132  1.00  0.00    -0.200 F 
ATOM     83  C   UNL A   1      38.469  28.599  29.216  1.00  0.00     0.200 A 
ATOM     84  F   UNL A   1      39.059  27.647  31.296  1.00  0.00    -0.200 F 
ATOM     85  F   UNL A   1      37.193  28.706  29.611  1.00  0.00    -0.200 F 
ENDBRANCH  51  75
BRANCH  63  86
ATOM     86  C   UNL A   1      46.500  32.839  28.939  1.00  0.00     0.064 A 
ATOM     87  C   UNL A   1      46.879  33.072  30.269  1.00  0.00     0.173 A 
ATOM     88  C   UNL A   1      46.277  33.951  28.115  1.00  0.00     0.173 A 
ATOM     89  F   UNL A   1      47.088  32.040  31.102  1.00  0.00    -0.203 F 
ATOM     90  C   UNL A   1      47.014  34.369  30.758  1.00  0.00     0.198 A 
ATOM     91  C   UNL A   1      46.438  35.247  28.599  1.00  0.00     0.198 A 
ATOM     92  F   UNL A   1      45.919  33.783  26.832  1.00  0.00    -0.203 F 
ATOM     93  F   UNL A   1      47.341  34.568  32.042  1.00  0.00    -0.200 F 
ATOM     94  C   UNL A   1      46.800  35.455  29.921  1.00  0.00     0.200 A 
ATOM     95  F   UNL A   1      46.243  36.294  27.786  1.00  0.00    -0.200 F 
ATOM     96  F   UNL A   1      46.939  36.702  30.391  1.00  0.00    -0.200 F 
ENDBRANCH  63  86
ENDBRANCH  37  38
ENDBRANCH  30  32
ENDBRANCH  29  30
ENDBRANCH  28  29
ENDBRANCH  27  28
ENDBRANCH  26  27
ENDBRANCH  25  26
ENDBRANCH   1  25
TORSDOF 19
ENDMDL
