MODEL 1
REMARK VINA RESULT:     -10.9      0.000      0.000
REMARK SMILES CC(=O)N[C@@H](Cc1cc(Br)c(O)c(Br)c1)C(=O)OCCOCCOCCOC(=O)c1ccc(-c2c3nc(c(-c4c(F)c(F)c(F)c(F)c4F)c4ccc([nH]4)c(-c4c(F)c(F)c(F)c(F)c4F)c4nc(c(-c5c(F)c(F)c(F)c(F)c5F)c5ccc2[nH]5)C=C4)C=C3)cc1
REMARK SMILES IDX 22 1 21 2 20 3 19 4 18 5 16 6 17 7 5 8 4 9 1 10 2 11 3 12
REMARK SMILES IDX 6 14 7 15 8 16 15 17 9 18 13 19 10 20 11 21 14 22 12 23
REMARK SMILES IDX 23 25 24 26 25 27 26 28 27 29 28 30 29 31 30 32 31 33 92 34
REMARK SMILES IDX 32 35 91 36 33 37 34 38 35 39 85 40 36 41 90 42 84 43 86 44
REMARK SMILES IDX 37 45 89 46 83 47 82 48 38 50 70 51 50 52 69 53 51 54 54 55
REMARK SMILES IDX 68 56 87 57 52 58 53 59 67 61 88 62 55 63 39 64 40 65 48 66
REMARK SMILES IDX 41 67 42 68 46 69 49 70 43 71 44 72 47 73 45 74 71 75 72 76
REMARK SMILES IDX 80 77 73 78 74 79 78 80 81 81 75 82 76 83 79 84 77 85 56 86
REMARK SMILES IDX 57 87 65 88 58 89 59 90 63 91 66 92 60 93 61 94 64 95 62 96
REMARK H PARENT 4 13 12 24 86 49 54 60
REMARK Flexibility Score: inf
ROOT
ATOM      1  C   UNL A   1      40.506  21.473  26.845  1.00  0.00     0.188 C 
ENDROOT
BRANCH   1   2
ATOM      2  O   UNL A   1      39.498  22.292  26.263  1.00  0.00    -0.376 OA
BRANCH   2   3
ATOM      3  C   UNL A   1      38.328  21.682  25.732  1.00  0.00     0.202 C 
BRANCH   3   4
ATOM      4  C   UNL A   1      37.339  22.582  24.986  1.00  0.00     0.261 C 
BRANCH   4   5
ATOM      5  O   UNL A   1      36.380  23.262  25.823  1.00  0.00    -0.462 OA
BRANCH   5   6
ATOM      6  C   UNL A   1      35.172  22.657  25.987  1.00  0.00     0.329 C 
ATOM      7  O   UNL A   1      34.982  21.664  26.683  1.00  0.00    -0.250 OA
BRANCH   6   8
ATOM      8  C   UNL A   1      34.062  23.238  25.085  1.00  0.00     0.196 C 
BRANCH   8   9
ATOM      9  N   UNL A   1      33.221  22.293  24.334  1.00  0.00    -0.343 N 
ATOM     10  C   UNL A   1      33.359  23.421  22.141  1.00  0.00     0.114 C 
ATOM     11  C   UNL A   1      32.837  22.325  23.026  1.00  0.00     0.217 C 
ATOM     12  O   UNL A   1      32.101  21.443  22.590  1.00  0.00    -0.275 OA
ATOM     13  H   UNL A   1      32.886  21.526  24.853  1.00  0.00     0.164 HD
ENDBRANCH   8   9
BRANCH   8  14
ATOM     14  C   UNL A   1      33.177  24.159  25.951  1.00  0.00     0.072 C 
BRANCH  14  15
ATOM     15  C   UNL A   1      32.595  25.328  25.177  1.00  0.00    -0.043 A 
ATOM     16  C   UNL A   1      33.440  26.243  24.534  1.00  0.00     0.023 A 
ATOM     17  C   UNL A   1      31.207  25.463  25.021  1.00  0.00     0.023 A 
ATOM     18  C   UNL A   1      32.904  27.254  23.731  1.00  0.00     0.061 A 
ATOM     19  C   UNL A   1      30.675  26.455  24.192  1.00  0.00     0.061 A 
ATOM     20  Br  UNL A   1      34.088  28.467  22.884  1.00  0.00    -0.047 Br
ATOM     21  C   UNL A   1      31.523  27.354  23.544  1.00  0.00     0.143 A 
ATOM     22  Br  UNL A   1      28.795  26.507  23.949  1.00  0.00    -0.047 Br
BRANCH  21  23
ATOM     23  O   UNL A   1      30.989  28.318  22.731  1.00  0.00    -0.506 OA
ATOM     24  H   UNL A   1      30.893  29.195  23.046  1.00  0.00     0.293 HD
ENDBRANCH  21  23
ENDBRANCH  14  15
ENDBRANCH   8  14
ENDBRANCH   6   8
ENDBRANCH   5   6
ENDBRANCH   4   5
ENDBRANCH   3   4
ENDBRANCH   2   3
ENDBRANCH   1   2
BRANCH   1  25
ATOM     25  C   UNL A   1      40.861  20.117  26.202  1.00  0.00     0.188 C 
BRANCH  25  26
ATOM     26  O   UNL A   1      42.109  20.095  25.541  1.00  0.00    -0.376 OA
BRANCH  26  27
ATOM     27  C   UNL A   1      43.093  20.985  26.035  1.00  0.00     0.202 C 
BRANCH  27  28
ATOM     28  C   UNL A   1      43.741  21.897  24.982  1.00  0.00     0.261 C 
BRANCH  28  29
ATOM     29  O   UNL A   1      43.110  23.180  24.799  1.00  0.00    -0.460 OA
BRANCH  29  30
ATOM     30  C   UNL A   1      43.880  24.277  24.985  1.00  0.00     0.338 C 
ATOM     31  O   UNL A   1      44.907  24.558  24.402  1.00  0.00    -0.246 OA
BRANCH  30  32
ATOM     32  C   UNL A   1      43.151  25.201  25.889  1.00  0.00     0.060 A 
ATOM     33  C   UNL A   1      43.611  26.519  26.027  1.00  0.00     0.016 A 
ATOM     34  C   UNL A   1      42.026  24.773  26.600  1.00  0.00     0.016 A 
ATOM     35  C   UNL A   1      42.973  27.399  26.906  1.00  0.00     0.010 A 
ATOM     36  C   UNL A   1      41.403  25.648  27.498  1.00  0.00     0.010 A 
ATOM     37  C   UNL A   1      41.895  26.954  27.684  1.00  0.00    -0.014 A 
BRANCH  37  38
ATOM     38  C   UNL A   1      41.442  27.765  28.844  1.00  0.00     0.031 A 
ATOM     39  C   UNL A   1      42.201  27.639  30.139  1.00  0.00     0.074 A 
ATOM     40  C   UNL A   1      40.402  28.616  28.761  1.00  0.00     0.049 A 
ATOM     41  N   UNL A   1      41.979  28.204  31.298  1.00  0.00    -0.248 NA
ATOM     42  C   UNL A   1      43.372  26.748  30.119  1.00  0.00     0.031 C 
ATOM     43  C   UNL A   1      39.607  28.867  27.564  1.00  0.00     0.029 A 
ATOM     44  N   UNL A   1      39.835  29.423  29.719  1.00  0.00    -0.354 N 
ATOM     45  C   UNL A   1      42.974  27.730  32.144  1.00  0.00     0.074 A 
ATOM     46  C   UNL A   1      43.783  26.811  31.375  1.00  0.00     0.031 C 
ATOM     47  C   UNL A   1      38.643  29.758  27.861  1.00  0.00     0.029 A 
ATOM     48  C   UNL A   1      38.735  30.115  29.277  1.00  0.00     0.049 A 
ATOM     49  H   UNL A   1      40.185  29.496  30.637  1.00  0.00     0.167 HD
ATOM     50  C   UNL A   1      43.200  28.038  33.444  1.00  0.00     0.037 A 
ATOM     51  C   UNL A   1      37.888  30.924  29.946  1.00  0.00     0.037 A 
ATOM     52  C   UNL A   1      42.399  28.951  34.214  1.00  0.00     0.049 A 
ATOM     53  C   UNL A   1      38.120  31.200  31.412  1.00  0.00     0.074 A 
ATOM     54  C   UNL A   1      42.561  29.341  35.532  1.00  0.00     0.029 A 
ATOM     55  N   UNL A   1      41.277  29.611  33.737  1.00  0.00    -0.354 N 
ATOM     56  N   UNL A   1      39.077  30.770  32.198  1.00  0.00    -0.248 NA
ATOM     57  C   UNL A   1      37.151  32.080  32.083  1.00  0.00     0.031 C 
ATOM     58  C   UNL A   1      41.505  30.194  35.869  1.00  0.00     0.029 A 
ATOM     59  C   UNL A   1      40.721  30.385  34.742  1.00  0.00     0.049 A 
ATOM     60  H   UNL A   1      40.928  29.541  32.819  1.00  0.00     0.167 HD
ATOM     61  C   UNL A   1      38.845  31.348  33.441  1.00  0.00     0.074 A 
ATOM     62  C   UNL A   1      37.663  32.172  33.302  1.00  0.00     0.031 C 
ATOM     63  C   UNL A   1      39.549  31.211  34.592  1.00  0.00     0.037 A 
BRANCH  50  64
ATOM     64  C   UNL A   1      44.345  27.348  34.126  1.00  0.00     0.064 A 
ATOM     65  C   UNL A   1      45.630  27.910  34.169  1.00  0.00     0.173 A 
ATOM     66  C   UNL A   1      44.149  26.114  34.764  1.00  0.00     0.173 A 
ATOM     67  F   UNL A   1      45.874  29.081  33.560  1.00  0.00    -0.203 F 
ATOM     68  C   UNL A   1      46.681  27.249  34.800  1.00  0.00     0.198 A 
ATOM     69  C   UNL A   1      45.194  25.471  35.421  1.00  0.00     0.198 A 
ATOM     70  F   UNL A   1      42.940  25.532  34.755  1.00  0.00    -0.203 F 
ATOM     71  F   UNL A   1      47.912  27.781  34.783  1.00  0.00    -0.200 F 
ATOM     72  C   UNL A   1      46.461  26.034  35.431  1.00  0.00     0.200 A 
ATOM     73  F   UNL A   1      44.976  24.303  36.041  1.00  0.00    -0.200 F 
ATOM     74  F   UNL A   1      47.472  25.402  36.042  1.00  0.00    -0.200 F 
ENDBRANCH  50  64
BRANCH  51  75
ATOM     75  C   UNL A   1      36.724  31.529  29.243  1.00  0.00     0.064 A 
ATOM     76  C   UNL A   1      36.686  32.899  28.944  1.00  0.00     0.173 A 
ATOM     77  C   UNL A   1      35.609  30.755  28.889  1.00  0.00     0.173 A 
ATOM     78  F   UNL A   1      37.713  33.687  29.291  1.00  0.00    -0.203 F 
ATOM     79  C   UNL A   1      35.572  33.473  28.335  1.00  0.00     0.198 A 
ATOM     80  C   UNL A   1      34.508  31.324  28.252  1.00  0.00     0.198 A 
ATOM     81  F   UNL A   1      35.590  29.442  29.159  1.00  0.00    -0.203 F 
ATOM     82  F   UNL A   1      35.542  34.793  28.108  1.00  0.00    -0.200 F 
ATOM     83  C   UNL A   1      34.487  32.685  27.984  1.00  0.00     0.200 A 
ATOM     84  F   UNL A   1      33.465  30.557  27.905  1.00  0.00    -0.200 F 
ATOM     85  F   UNL A   1      33.416  33.237  27.397  1.00  0.00    -0.200 F 
ENDBRANCH  51  75
BRANCH  63  86
ATOM     86  C   UNL A   1      39.092  32.001  35.787  1.00  0.00     0.064 A 
ATOM     87  C   UNL A   1      38.257  31.445  36.768  1.00  0.00     0.173 A 
ATOM     88  C   UNL A   1      39.530  33.322  35.972  1.00  0.00     0.173 A 
ATOM     89  F   UNL A   1      37.800  30.192  36.634  1.00  0.00    -0.203 F 
ATOM     90  C   UNL A   1      37.855  32.191  37.873  1.00  0.00     0.198 A 
ATOM     91  C   UNL A   1      39.154  34.053  37.096  1.00  0.00     0.198 A 
ATOM     92  F   UNL A   1      40.338  33.899  35.070  1.00  0.00    -0.203 F 
ATOM     93  F   UNL A   1      37.015  31.657  38.770  1.00  0.00    -0.200 F 
ATOM     94  C   UNL A   1      38.310  33.491  38.040  1.00  0.00     0.200 A 
ATOM     95  F   UNL A   1      39.608  35.303  37.263  1.00  0.00    -0.200 F 
ATOM     96  F   UNL A   1      37.927  34.205  39.108  1.00  0.00    -0.200 F 
ENDBRANCH  63  86
ENDBRANCH  37  38
ENDBRANCH  30  32
ENDBRANCH  29  30
ENDBRANCH  28  29
ENDBRANCH  27  28
ENDBRANCH  26  27
ENDBRANCH  25  26
ENDBRANCH   1  25
TORSDOF 21
ENDMDL
MODEL 2
REMARK VINA RESULT:     -10.7      5.111     10.522
REMARK SMILES CC(=O)N[C@@H](Cc1cc(Br)c(O)c(Br)c1)C(=O)OCCOCCOCCOC(=O)c1ccc(-c2c3nc(c(-c4c(F)c(F)c(F)c(F)c4F)c4ccc([nH]4)c(-c4c(F)c(F)c(F)c(F)c4F)c4nc(c(-c5c(F)c(F)c(F)c(F)c5F)c5ccc2[nH]5)C=C4)C=C3)cc1
REMARK SMILES IDX 22 1 21 2 20 3 19 4 18 5 16 6 17 7 5 8 4 9 1 10 2 11 3 12
REMARK SMILES IDX 6 14 7 15 8 16 15 17 9 18 13 19 10 20 11 21 14 22 12 23
REMARK SMILES IDX 23 25 24 26 25 27 26 28 27 29 28 30 29 31 30 32 31 33 92 34
REMARK SMILES IDX 32 35 91 36 33 37 34 38 35 39 85 40 36 41 90 42 84 43 86 44
REMARK SMILES IDX 37 45 89 46 83 47 82 48 38 50 70 51 50 52 69 53 51 54 54 55
REMARK SMILES IDX 68 56 87 57 52 58 53 59 67 61 88 62 55 63 39 64 40 65 48 66
REMARK SMILES IDX 41 67 42 68 46 69 49 70 43 71 44 72 47 73 45 74 71 75 72 76
REMARK SMILES IDX 80 77 73 78 74 79 78 80 81 81 75 82 76 83 79 84 77 85 56 86
REMARK SMILES IDX 57 87 65 88 58 89 59 90 63 91 66 92 60 93 61 94 64 95 62 96
REMARK H PARENT 4 13 12 24 86 49 54 60
REMARK Flexibility Score: inf
ROOT
ATOM      1  C   UNL A   1      34.707  31.702  27.638  1.00  0.00     0.188 C 
ENDROOT
BRANCH   1   2
ATOM      2  O   UNL A   1      33.798  30.610  27.556  1.00  0.00    -0.376 OA
BRANCH   2   3
ATOM      3  C   UNL A   1      32.509  30.819  26.993  1.00  0.00     0.202 C 
BRANCH   3   4
ATOM      4  C   UNL A   1      32.141  30.006  25.748  1.00  0.00     0.261 C 
BRANCH   4   5
ATOM      5  O   UNL A   1      33.248  29.341  25.104  1.00  0.00    -0.462 OA
BRANCH   5   6
ATOM      6  C   UNL A   1      33.390  28.011  25.352  1.00  0.00     0.329 C 
ATOM      7  O   UNL A   1      34.151  27.539  26.192  1.00  0.00    -0.250 OA
BRANCH   6   8
ATOM      8  C   UNL A   1      32.617  27.110  24.363  1.00  0.00     0.196 C 
BRANCH   8   9
ATOM      9  N   UNL A   1      31.946  27.755  23.225  1.00  0.00    -0.343 N 
ATOM     10  C   UNL A   1      29.640  27.082  23.794  1.00  0.00     0.114 C 
ATOM     11  C   UNL A   1      30.625  27.761  22.887  1.00  0.00     0.217 C 
ATOM     12  O   UNL A   1      30.264  28.345  21.869  1.00  0.00    -0.275 OA
ATOM     13  H   UNL A   1      32.538  28.256  22.619  1.00  0.00     0.164 HD
ENDBRANCH   8   9
BRANCH   8  14
ATOM     14  C   UNL A   1      33.584  26.018  23.857  1.00  0.00     0.072 C 
BRANCH  14  15
ATOM     15  C   UNL A   1      33.309  24.652  24.458  1.00  0.00    -0.043 A 
ATOM     16  C   UNL A   1      34.297  23.657  24.439  1.00  0.00     0.023 A 
ATOM     17  C   UNL A   1      32.098  24.391  25.118  1.00  0.00     0.023 A 
ATOM     18  C   UNL A   1      34.083  22.439  25.089  1.00  0.00     0.061 A 
ATOM     19  C   UNL A   1      31.900  23.184  25.795  1.00  0.00     0.061 A 
ATOM     20  Br  UNL A   1      35.448  21.125  25.033  1.00  0.00    -0.047 Br
ATOM     21  C   UNL A   1      32.893  22.203  25.782  1.00  0.00     0.143 A 
ATOM     22  Br  UNL A   1      30.279  22.948  26.750  1.00  0.00    -0.047 Br
BRANCH  21  23
ATOM     23  O   UNL A   1      32.688  21.027  26.453  1.00  0.00    -0.506 OA
ATOM     24  H   UNL A   1      32.353  20.280  25.997  1.00  0.00     0.293 HD
ENDBRANCH  21  23
ENDBRANCH  14  15
ENDBRANCH   8  14
ENDBRANCH   6   8
ENDBRANCH   5   6
ENDBRANCH   4   5
ENDBRANCH   3   4
ENDBRANCH   2   3
ENDBRANCH   1   2
BRANCH   1  25
ATOM     25  C   UNL A   1      34.192  33.101  28.033  1.00  0.00     0.188 C 
BRANCH  25  26
ATOM     26  O   UNL A   1      33.758  33.206  29.372  1.00  0.00    -0.376 OA
BRANCH  26  27
ATOM     27  C   UNL A   1      34.458  34.129  30.186  1.00  0.00     0.202 C 
BRANCH  27  28
ATOM     28  C   UNL A   1      34.537  33.764  31.676  1.00  0.00     0.261 C 
BRANCH  28  29
ATOM     29  O   UNL A   1      34.852  32.386  31.962  1.00  0.00    -0.460 OA
BRANCH  29  30
ATOM     30  C   UNL A   1      35.903  32.153  32.782  1.00  0.00     0.338 C 
ATOM     31  O   UNL A   1      35.970  32.387  33.971  1.00  0.00    -0.246 OA
BRANCH  30  32
ATOM     32  C   UNL A   1      36.908  31.365  32.026  1.00  0.00     0.060 A 
ATOM     33  C   UNL A   1      37.898  30.670  32.737  1.00  0.00     0.016 A 
ATOM     34  C   UNL A   1      36.881  31.314  30.630  1.00  0.00     0.016 A 
ATOM     35  C   UNL A   1      38.886  29.956  32.052  1.00  0.00     0.010 A 
ATOM     36  C   UNL A   1      37.885  30.619  29.945  1.00  0.00     0.010 A 
ATOM     37  C   UNL A   1      38.914  29.968  30.650  1.00  0.00    -0.014 A 
BRANCH  37  38
ATOM     38  C   UNL A   1      40.133  29.506  29.936  1.00  0.00     0.031 A 
ATOM     39  C   UNL A   1      41.263  30.486  29.752  1.00  0.00     0.074 A 
ATOM     40  C   UNL A   1      40.262  28.247  29.479  1.00  0.00     0.049 A 
ATOM     41  N   UNL A   1      42.405  30.340  29.132  1.00  0.00    -0.248 NA
ATOM     42  C   UNL A   1      41.070  31.815  30.354  1.00  0.00     0.031 C 
ATOM     43  C   UNL A   1      39.269  27.187  29.622  1.00  0.00     0.029 A 
ATOM     44  N   UNL A   1      41.293  27.653  28.788  1.00  0.00    -0.354 N 
ATOM     45  C   UNL A   1      43.061  31.558  29.259  1.00  0.00     0.074 A 
ATOM     46  C   UNL A   1      42.179  32.440  29.991  1.00  0.00     0.031 C 
ATOM     47  C   UNL A   1      39.732  26.074  29.025  1.00  0.00     0.029 A 
ATOM     48  C   UNL A   1      41.039  26.352  28.431  1.00  0.00     0.049 A 
ATOM     49  H   UNL A   1      42.133  28.118  28.571  1.00  0.00     0.167 HD
ATOM     50  C   UNL A   1      44.291  31.910  28.814  1.00  0.00     0.037 A 
ATOM     51  C   UNL A   1      41.770  25.494  27.689  1.00  0.00     0.037 A 
ATOM     52  C   UNL A   1      45.172  31.037  28.086  1.00  0.00     0.049 A 
ATOM     53  C   UNL A   1      43.109  25.930  27.145  1.00  0.00     0.074 A 
ATOM     54  C   UNL A   1      46.445  31.297  27.610  1.00  0.00     0.029 A 
ATOM     55  N   UNL A   1      44.867  29.735  27.720  1.00  0.00    -0.354 N 
ATOM     56  N   UNL A   1      43.734  27.074  27.292  1.00  0.00    -0.248 NA
ATOM     57  C   UNL A   1      43.847  24.951  26.333  1.00  0.00     0.031 C 
ATOM     58  C   UNL A   1      46.889  30.172  26.908  1.00  0.00     0.029 A 
ATOM     59  C   UNL A   1      45.918  29.188  27.001  1.00  0.00     0.049 A 
ATOM     60  H   UNL A   1      44.029  29.268  27.940  1.00  0.00     0.167 HD
ATOM     61  C   UNL A   1      44.944  26.942  26.622  1.00  0.00     0.074 A 
ATOM     62  C   UNL A   1      44.973  25.601  26.077  1.00  0.00     0.031 C 
ATOM     63  C   UNL A   1      45.942  27.848  26.472  1.00  0.00     0.037 A 
BRANCH  50  64
ATOM     64  C   UNL A   1      44.740  33.319  29.074  1.00  0.00     0.064 A 
ATOM     65  C   UNL A   1      45.455  33.667  30.230  1.00  0.00     0.173 A 
ATOM     66  C   UNL A   1      44.468  34.331  28.141  1.00  0.00     0.173 A 
ATOM     67  F   UNL A   1      45.727  32.739  31.161  1.00  0.00    -0.203 F 
ATOM     68  C   UNL A   1      45.855  34.982  30.455  1.00  0.00     0.198 A 
ATOM     69  C   UNL A   1      44.898  35.638  28.356  1.00  0.00     0.198 A 
ATOM     70  F   UNL A   1      43.790  34.052  27.018  1.00  0.00    -0.203 F 
ATOM     71  F   UNL A   1      46.491  35.301  31.592  1.00  0.00    -0.200 F 
ATOM     72  C   UNL A   1      45.582  35.964  29.516  1.00  0.00     0.200 A 
ATOM     73  F   UNL A   1      44.644  36.583  27.439  1.00  0.00    -0.200 F 
ATOM     74  F   UNL A   1      45.973  37.227  29.732  1.00  0.00    -0.200 F 
ENDBRANCH  50  64
BRANCH  51  75
ATOM     75  C   UNL A   1      41.249  24.131  27.397  1.00  0.00     0.064 A 
ATOM     76  C   UNL A   1      40.150  23.939  26.547  1.00  0.00     0.173 A 
ATOM     77  C   UNL A   1      41.819  22.995  27.991  1.00  0.00     0.173 A 
ATOM     78  F   UNL A   1      39.551  24.995  25.980  1.00  0.00    -0.203 F 
ATOM     79  C   UNL A   1      39.630  22.667  26.318  1.00  0.00     0.198 A 
ATOM     80  C   UNL A   1      41.317  21.720  27.736  1.00  0.00     0.198 A 
ATOM     81  F   UNL A   1      42.867  23.123  28.817  1.00  0.00    -0.203 F 
ATOM     82  F   UNL A   1      38.547  22.518  25.543  1.00  0.00    -0.200 F 
ATOM     83  C   UNL A   1      40.217  21.557  26.907  1.00  0.00     0.200 A 
ATOM     84  F   UNL A   1      41.894  20.650  28.300  1.00  0.00    -0.200 F 
ATOM     85  F   UNL A   1      39.718  20.334  26.685  1.00  0.00    -0.200 F 
ENDBRANCH  51  75
BRANCH  63  86
ATOM     86  C   UNL A   1      47.174  27.411  25.728  1.00  0.00     0.064 A 
ATOM     87  C   UNL A   1      47.327  27.635  24.352  1.00  0.00     0.173 A 
ATOM     88  C   UNL A   1      48.235  26.798  26.414  1.00  0.00     0.173 A 
ATOM     89  F   UNL A   1      46.340  28.206  23.647  1.00  0.00    -0.203 F 
ATOM     90  C   UNL A   1      48.482  27.233  23.685  1.00  0.00     0.198 A 
ATOM     91  C   UNL A   1      49.402  26.429  25.749  1.00  0.00     0.198 A 
ATOM     92  F   UNL A   1      48.146  26.569  27.732  1.00  0.00    -0.203 F 
ATOM     93  F   UNL A   1      48.584  27.409  22.360  1.00  0.00    -0.200 F 
ATOM     94  C   UNL A   1      49.520  26.638  24.385  1.00  0.00     0.200 A 
ATOM     95  F   UNL A   1      50.411  25.869  26.432  1.00  0.00    -0.200 F 
ATOM     96  F   UNL A   1      50.634  26.258  23.742  1.00  0.00    -0.200 F 
ENDBRANCH  63  86
ENDBRANCH  37  38
ENDBRANCH  30  32
ENDBRANCH  29  30
ENDBRANCH  28  29
ENDBRANCH  27  28
ENDBRANCH  26  27
ENDBRANCH  25  26
ENDBRANCH   1  25
TORSDOF 21
ENDMDL
MODEL 3
REMARK VINA RESULT:     -10.4      5.066     10.317
REMARK SMILES CC(=O)N[C@@H](Cc1cc(Br)c(O)c(Br)c1)C(=O)OCCOCCOCCOC(=O)c1ccc(-c2c3nc(c(-c4c(F)c(F)c(F)c(F)c4F)c4ccc([nH]4)c(-c4c(F)c(F)c(F)c(F)c4F)c4nc(c(-c5c(F)c(F)c(F)c(F)c5F)c5ccc2[nH]5)C=C4)C=C3)cc1
REMARK SMILES IDX 22 1 21 2 20 3 19 4 18 5 16 6 17 7 5 8 4 9 1 10 2 11 3 12
REMARK SMILES IDX 6 14 7 15 8 16 15 17 9 18 13 19 10 20 11 21 14 22 12 23
REMARK SMILES IDX 23 25 24 26 25 27 26 28 27 29 28 30 29 31 30 32 31 33 92 34
REMARK SMILES IDX 32 35 91 36 33 37 34 38 35 39 85 40 36 41 90 42 84 43 86 44
REMARK SMILES IDX 37 45 89 46 83 47 82 48 38 50 70 51 50 52 69 53 51 54 54 55
REMARK SMILES IDX 68 56 87 57 52 58 53 59 67 61 88 62 55 63 39 64 40 65 48 66
REMARK SMILES IDX 41 67 42 68 46 69 49 70 43 71 44 72 47 73 45 74 71 75 72 76
REMARK SMILES IDX 80 77 73 78 74 79 78 80 81 81 75 82 76 83 79 84 77 85 56 86
REMARK SMILES IDX 57 87 65 88 58 89 59 90 63 91 66 92 60 93 61 94 64 95 62 96
REMARK H PARENT 4 13 12 24 86 49 54 60
REMARK Flexibility Score: inf
ROOT
ATOM      1  C   UNL A   1      34.374  30.326  27.298  1.00  0.00     0.188 C 
ENDROOT
BRANCH   1   2
ATOM      2  O   UNL A   1      33.242  29.592  27.750  1.00  0.00    -0.376 OA
BRANCH   2   3
ATOM      3  C   UNL A   1      31.995  29.758  27.086  1.00  0.00     0.202 C 
BRANCH   3   4
ATOM      4  C   UNL A   1      32.030  30.161  25.609  1.00  0.00     0.261 C 
BRANCH   4   5
ATOM      5  O   UNL A   1      31.948  29.063  24.675  1.00  0.00    -0.462 OA
BRANCH   5   6
ATOM      6  C   UNL A   1      33.127  28.541  24.240  1.00  0.00     0.329 C 
ATOM      7  O   UNL A   1      34.108  29.208  23.927  1.00  0.00    -0.250 OA
BRANCH   6   8
ATOM      8  C   UNL A   1      33.082  27.014  24.017  1.00  0.00     0.196 C 
BRANCH   8   9
ATOM      9  N   UNL A   1      33.454  26.500  22.690  1.00  0.00    -0.343 N 
ATOM     10  C   UNL A   1      31.402  25.192  22.271  1.00  0.00     0.114 C 
ATOM     11  C   UNL A   1      32.771  25.659  21.864  1.00  0.00     0.217 C 
ATOM     12  O   UNL A   1      33.270  25.324  20.792  1.00  0.00    -0.275 OA
ATOM     13  H   UNL A   1      34.324  26.810  22.350  1.00  0.00     0.164 HD
ENDBRANCH   8   9
BRANCH   8  14
ATOM     14  C   UNL A   1      33.954  26.348  25.104  1.00  0.00     0.072 C 
BRANCH  14  15
ATOM     15  C   UNL A   1      33.579  24.901  25.366  1.00  0.00    -0.043 A 
ATOM     16  C   UNL A   1      34.548  23.891  25.281  1.00  0.00     0.023 A 
ATOM     17  C   UNL A   1      32.282  24.561  25.780  1.00  0.00     0.023 A 
ATOM     18  C   UNL A   1      34.228  22.576  25.629  1.00  0.00     0.061 A 
ATOM     19  C   UNL A   1      31.973  23.251  26.158  1.00  0.00     0.061 A 
ATOM     20  Br  UNL A   1      35.572  21.246  25.496  1.00  0.00    -0.047 Br
ATOM     21  C   UNL A   1      32.946  22.254  26.084  1.00  0.00     0.143 A 
ATOM     22  Br  UNL A   1      30.227  22.893  26.806  1.00  0.00    -0.047 Br
BRANCH  21  23
ATOM     23  O   UNL A   1      32.632  20.975  26.462  1.00  0.00    -0.506 OA
ATOM     24  H   UNL A   1      32.008  20.481  25.968  1.00  0.00     0.293 HD
ENDBRANCH  21  23
ENDBRANCH  14  15
ENDBRANCH   8  14
ENDBRANCH   6   8
ENDBRANCH   5   6
ENDBRANCH   4   5
ENDBRANCH   3   4
ENDBRANCH   2   3
ENDBRANCH   1   2
BRANCH   1  25
ATOM     25  C   UNL A   1      34.503  31.825  27.635  1.00  0.00     0.188 C 
BRANCH  25  26
ATOM     26  O   UNL A   1      33.852  32.211  28.827  1.00  0.00    -0.376 OA
BRANCH  26  27
ATOM     27  C   UNL A   1      34.134  33.517  29.298  1.00  0.00     0.202 C 
BRANCH  27  28
ATOM     28  C   UNL A   1      34.476  33.617  30.792  1.00  0.00     0.261 C 
BRANCH  28  29
ATOM     29  O   UNL A   1      34.517  32.364  31.505  1.00  0.00    -0.460 OA
BRANCH  29  30
ATOM     30  C   UNL A   1      35.514  32.200  32.404  1.00  0.00     0.338 C 
ATOM     31  O   UNL A   1      35.498  32.505  33.580  1.00  0.00    -0.246 OA
BRANCH  30  32
ATOM     32  C   UNL A   1      36.579  31.388  31.765  1.00  0.00     0.060 A 
ATOM     33  C   UNL A   1      37.610  30.873  32.563  1.00  0.00     0.016 A 
ATOM     34  C   UNL A   1      36.567  31.140  30.390  1.00  0.00     0.016 A 
ATOM     35  C   UNL A   1      38.652  30.144  31.984  1.00  0.00     0.010 A 
ATOM     36  C   UNL A   1      37.624  30.431  29.806  1.00  0.00     0.010 A 
ATOM     37  C   UNL A   1      38.691  29.961  30.594  1.00  0.00    -0.014 A 
BRANCH  37  38
ATOM     38  C   UNL A   1      39.946  29.493  29.949  1.00  0.00     0.031 A 
ATOM     39  C   UNL A   1      41.083  30.471  29.814  1.00  0.00     0.074 A 
ATOM     40  C   UNL A   1      40.099  28.229  29.512  1.00  0.00     0.049 A 
ATOM     41  N   UNL A   1      42.257  30.320  29.256  1.00  0.00    -0.248 NA
ATOM     42  C   UNL A   1      40.859  31.807  30.391  1.00  0.00     0.031 C 
ATOM     43  C   UNL A   1      39.100  27.170  29.615  1.00  0.00     0.029 A 
ATOM     44  N   UNL A   1      41.165  27.629  28.883  1.00  0.00    -0.354 N 
ATOM     45  C   UNL A   1      42.904  31.541  29.404  1.00  0.00     0.074 A 
ATOM     46  C   UNL A   1      41.984  32.429  30.080  1.00  0.00     0.031 C 
ATOM     47  C   UNL A   1      39.594  26.050  29.055  1.00  0.00     0.029 A 
ATOM     48  C   UNL A   1      40.931  26.324  28.526  1.00  0.00     0.049 A 
ATOM     49  H   UNL A   1      42.015  28.092  28.704  1.00  0.00     0.167 HD
ATOM     50  C   UNL A   1      44.155  31.890  29.020  1.00  0.00     0.037 A 
ATOM     51  C   UNL A   1      41.700  25.459  27.832  1.00  0.00     0.037 A 
ATOM     52  C   UNL A   1      45.074  31.010  28.348  1.00  0.00     0.049 A 
ATOM     53  C   UNL A   1      43.065  25.891  27.354  1.00  0.00     0.074 A 
ATOM     54  C   UNL A   1      46.370  31.266  27.936  1.00  0.00     0.029 A 
ATOM     55  N   UNL A   1      44.789  29.703  27.980  1.00  0.00    -0.354 N 
ATOM     56  N   UNL A   1      43.680  27.037  27.522  1.00  0.00    -0.248 NA
ATOM     57  C   UNL A   1      43.844  24.904  26.592  1.00  0.00     0.031 C 
ATOM     58  C   UNL A   1      46.850  30.134  27.270  1.00  0.00     0.029 A 
ATOM     59  C   UNL A   1      45.875  29.150  27.323  1.00  0.00     0.049 A 
ATOM     60  H   UNL A   1      43.941  29.238  28.161  1.00  0.00     0.167 HD
ATOM     61  C   UNL A   1      44.924  26.899  26.917  1.00  0.00     0.074 A 
ATOM     62  C   UNL A   1      44.982  25.552  26.389  1.00  0.00     0.031 C 
ATOM     63  C   UNL A   1      45.928  27.804  26.810  1.00  0.00     0.037 A 
BRANCH  50  64
ATOM     64  C   UNL A   1      44.590  33.301  29.288  1.00  0.00     0.064 A 
ATOM     65  C   UNL A   1      44.377  34.331  28.358  1.00  0.00     0.173 A 
ATOM     66  C   UNL A   1      45.210  33.632  30.501  1.00  0.00     0.173 A 
ATOM     67  F   UNL A   1      43.802  34.063  27.175  1.00  0.00    -0.203 F 
ATOM     68  C   UNL A   1      44.796  35.632  28.623  1.00  0.00     0.198 A 
ATOM     69  C   UNL A   1      45.599  34.941  30.776  1.00  0.00     0.198 A 
ATOM     70  F   UNL A   1      45.436  32.686  31.426  1.00  0.00    -0.203 F 
ATOM     71  F   UNL A   1      44.629  36.589  27.698  1.00  0.00    -0.200 F 
ATOM     72  C   UNL A   1      45.400  35.937  29.833  1.00  0.00     0.200 A 
ATOM     73  F   UNL A   1      46.171  35.235  31.952  1.00  0.00    -0.200 F 
ATOM     74  F   UNL A   1      45.797  37.191  30.088  1.00  0.00    -0.200 F 
ENDBRANCH  50  64
BRANCH  51  75
ATOM     75  C   UNL A   1      41.196  24.092  27.528  1.00  0.00     0.064 A 
ATOM     76  C   UNL A   1      41.791  22.955  28.094  1.00  0.00     0.173 A 
ATOM     77  C   UNL A   1      40.131  23.894  26.636  1.00  0.00     0.173 A 
ATOM     78  F   UNL A   1      42.832  23.090  28.928  1.00  0.00    -0.203 F 
ATOM     79  C   UNL A   1      41.353  21.674  27.766  1.00  0.00     0.198 A 
ATOM     80  C   UNL A   1      39.674  22.613  26.333  1.00  0.00     0.198 A 
ATOM     81  F   UNL A   1      39.532  24.946  26.061  1.00  0.00    -0.203 F 
ATOM     82  F   UNL A   1      41.973  20.604  28.282  1.00  0.00    -0.200 F 
ATOM     83  C   UNL A   1      40.291  21.503  26.891  1.00  0.00     0.200 A 
ATOM     84  F   UNL A   1      38.641  22.453  25.494  1.00  0.00    -0.200 F 
ATOM     85  F   UNL A   1      39.869  20.271  26.577  1.00  0.00    -0.200 F 
ENDBRANCH  51  75
BRANCH  63  86
ATOM     86  C   UNL A   1      47.197  27.362  26.135  1.00  0.00     0.064 A 
ATOM     87  C   UNL A   1      48.222  26.711  26.839  1.00  0.00     0.173 A 
ATOM     88  C   UNL A   1      47.371  27.556  24.756  1.00  0.00     0.173 A 
ATOM     89  F   UNL A   1      48.112  26.510  28.160  1.00  0.00    -0.203 F 
ATOM     90  C   UNL A   1      49.384  26.298  26.192  1.00  0.00     0.198 A 
ATOM     91  C   UNL A   1      48.520  27.112  24.107  1.00  0.00     0.198 A 
ATOM     92  F   UNL A   1      46.419  28.164  24.033  1.00  0.00    -0.203 F 
ATOM     93  F   UNL A   1      50.372  25.726  26.893  1.00  0.00    -0.200 F 
ATOM     94  C   UNL A   1      49.529  26.492  24.826  1.00  0.00     0.200 A 
ATOM     95  F   UNL A   1      48.650  27.286  22.783  1.00  0.00    -0.200 F 
ATOM     96  F   UNL A   1      50.647  26.089  24.205  1.00  0.00    -0.200 F 
ENDBRANCH  63  86
ENDBRANCH  37  38
ENDBRANCH  30  32
ENDBRANCH  29  30
ENDBRANCH  28  29
ENDBRANCH  27  28
ENDBRANCH  26  27
ENDBRANCH  25  26
ENDBRANCH   1  25
TORSDOF 21
ENDMDL
