MODEL 1
REMARK VINA RESULT:     -10.3      0.000      0.000
REMARK SMILES CC[N@@H+](C[C@@H](C)C(=O)OCCOCCOCCOC(=O)c1ccc(-c2c3nc(c(-c4c(F)c(F)c(F)c(F)c4F)c4ccc([nH]4)c(-c4c(F)c(F)c(F)c(F)c4F)c4nc(c(-c5c(F)c(F)c(F)c(F)c5F)c5ccc2[nH]5)C=C4)C=C3)cc1)[C@@H]1CCC[C@H](S(C)(=O)=O)C1
REMARK SMILES IDX 13 1 12 2 11 3 10 4 9 5 7 6 8 7 5 8 6 9 4 10 3 11 2 13 1 14
REMARK SMILES IDX 84 15 85 16 93 17 86 18 88 19 87 20 89 21 90 22 91 23 92 24
REMARK SMILES IDX 14 25 15 26 16 27 17 28 18 29 19 30 20 31 21 32 22 33 83 34
REMARK SMILES IDX 23 35 82 36 24 37 25 38 26 39 76 40 27 41 81 42 75 43 77 44
REMARK SMILES IDX 28 45 80 46 74 47 73 48 29 50 61 51 41 52 60 53 42 54 45 55
REMARK SMILES IDX 59 56 78 57 43 58 44 59 58 61 79 62 46 63 30 64 31 65 39 66
REMARK SMILES IDX 32 67 33 68 37 69 40 70 34 71 35 72 38 73 36 74 62 75 63 76
REMARK SMILES IDX 71 77 64 78 65 79 69 80 72 81 66 82 67 83 70 84 68 85 47 86
REMARK SMILES IDX 48 87 56 88 49 89 50 90 54 91 57 92 51 93 52 94 55 95 53 96
REMARK H PARENT 3 12 77 49 45 60
REMARK Flexibility Score: inf
ROOT
ATOM      1  C   UNL A   1      34.625  29.742  27.293  1.00  0.00     0.188 C 
ENDROOT
BRANCH   1   2
ATOM      2  O   UNL A   1      33.903  28.552  27.020  1.00  0.00    -0.376 OA
BRANCH   2   3
ATOM      3  C   UNL A   1      33.557  28.276  25.666  1.00  0.00     0.202 C 
BRANCH   3   4
ATOM      4  C   UNL A   1      32.129  27.793  25.355  1.00  0.00     0.261 C 
BRANCH   4   5
ATOM      5  O   UNL A   1      32.003  26.419  24.927  1.00  0.00    -0.463 OA
BRANCH   5   6
ATOM      6  C   UNL A   1      31.518  25.580  25.877  1.00  0.00     0.314 C 
ATOM      7  O   UNL A   1      31.706  25.733  27.082  1.00  0.00    -0.252 OA
BRANCH   6   8
ATOM      8  C   UNL A   1      30.628  24.454  25.357  1.00  0.00     0.151 C 
ATOM      9  C   UNL A   1      30.313  23.598  26.587  1.00  0.00     0.026 C 
BRANCH   8  10
ATOM     10  C   UNL A   1      31.166  23.661  24.132  1.00  0.00     0.277 C 
BRANCH  10  11
ATOM     11  N   UNL A   1      32.619  23.792  23.779  1.00  0.00    -0.332 N 
ATOM     12  H   UNL A   1      33.033  24.607  24.233  1.00  0.00     0.348 HD
BRANCH  11  13
ATOM     13  C   UNL A   1      32.800  24.141  22.360  1.00  0.00     0.259 C 
ATOM     14  C   UNL A   1      33.225  25.573  22.034  1.00  0.00     0.071 C 
ENDBRANCH  11  13
BRANCH  11  15
ATOM     15  C   UNL A   1      33.427  22.715  24.376  1.00  0.00     0.185 C 
ATOM     16  C   UNL A   1      34.930  22.900  24.103  1.00  0.00     0.065 C 
ATOM     17  C   UNL A   1      33.056  21.265  24.048  1.00  0.00     0.084 C 
ATOM     18  C   UNL A   1      35.732  21.953  25.011  1.00  0.00     0.007 C 
ATOM     19  C   UNL A   1      33.777  20.305  24.999  1.00  0.00     0.114 C 
ATOM     20  C   UNL A   1      35.296  20.486  24.895  1.00  0.00     0.020 C 
BRANCH  19  21
ATOM     21  S   UNL A   1      33.239  18.626  24.635  1.00  0.00     0.150 S 
ATOM     22  C   UNL A   1      32.487  18.734  23.031  1.00  0.00     0.158 C 
ATOM     23  O   UNL A   1      34.430  17.810  24.481  1.00  0.00    -0.229 OA
ATOM     24  O   UNL A   1      32.209  18.254  25.584  1.00  0.00    -0.229 OA
ENDBRANCH  19  21
ENDBRANCH  11  15
ENDBRANCH  10  11
ENDBRANCH   8  10
ENDBRANCH   6   8
ENDBRANCH   5   6
ENDBRANCH   4   5
ENDBRANCH   3   4
ENDBRANCH   2   3
ENDBRANCH   1   2
BRANCH   1  25
ATOM     25  C   UNL A   1      33.838  31.034  27.512  1.00  0.00     0.188 C 
BRANCH  25  26
ATOM     26  O   UNL A   1      32.461  30.994  27.177  1.00  0.00    -0.376 OA
BRANCH  26  27
ATOM     27  C   UNL A   1      31.804  32.261  27.079  1.00  0.00     0.202 C 
BRANCH  27  28
ATOM     28  C   UNL A   1      32.715  33.498  27.257  1.00  0.00     0.261 C 
BRANCH  28  29
ATOM     29  O   UNL A   1      32.417  34.337  28.397  1.00  0.00    -0.460 OA
BRANCH  29  30
ATOM     30  C   UNL A   1      33.427  35.099  28.885  1.00  0.00     0.338 C 
ATOM     31  O   UNL A   1      33.358  36.276  29.194  1.00  0.00    -0.246 OA
BRANCH  30  32
ATOM     32  C   UNL A   1      34.564  34.210  29.257  1.00  0.00     0.060 A 
ATOM     33  C   UNL A   1      34.340  33.238  30.244  1.00  0.00     0.016 A 
ATOM     34  C   UNL A   1      35.803  34.263  28.612  1.00  0.00     0.016 A 
ATOM     35  C   UNL A   1      35.361  32.360  30.623  1.00  0.00     0.010 A 
ATOM     36  C   UNL A   1      36.831  33.390  29.000  1.00  0.00     0.010 A 
ATOM     37  C   UNL A   1      36.629  32.457  30.034  1.00  0.00    -0.014 A 
BRANCH  37  38
ATOM     38  C   UNL A   1      37.780  31.722  30.630  1.00  0.00     0.031 A 
ATOM     39  C   UNL A   1      38.180  32.043  32.046  1.00  0.00     0.074 A 
ATOM     40  C   UNL A   1      38.447  30.766  29.960  1.00  0.00     0.049 A 
ATOM     41  N   UNL A   1      39.144  31.542  32.779  1.00  0.00    -0.248 NA
ATOM     42  C   UNL A   1      37.382  33.073  32.728  1.00  0.00     0.031 C 
ATOM     43  C   UNL A   1      38.160  30.326  28.597  1.00  0.00     0.029 A 
ATOM     44  N   UNL A   1      39.519  29.993  30.344  1.00  0.00    -0.354 N 
ATOM     45  C   UNL A   1      39.069  32.195  34.002  1.00  0.00     0.074 A 
ATOM     46  C   UNL A   1      37.988  33.153  33.903  1.00  0.00     0.031 C 
ATOM     47  C   UNL A   1      39.039  29.367  28.254  1.00  0.00     0.029 A 
ATOM     48  C   UNL A   1      39.967  29.141  29.363  1.00  0.00     0.049 A 
ATOM     49  H   UNL A   1      39.926  30.044  31.238  1.00  0.00     0.167 HD
ATOM     50  C   UNL A   1      39.820  32.010  35.114  1.00  0.00     0.037 A 
ATOM     51  C   UNL A   1      41.015  28.291  29.354  1.00  0.00     0.037 A 
ATOM     52  C   UNL A   1      40.900  31.064  35.226  1.00  0.00     0.049 A 
ATOM     53  C   UNL A   1      41.881  28.148  30.583  1.00  0.00     0.074 A 
ATOM     54  C   UNL A   1      41.697  30.792  36.324  1.00  0.00     0.029 A 
ATOM     55  N   UNL A   1      41.343  30.246  34.199  1.00  0.00    -0.354 N 
ATOM     56  N   UNL A   1      41.777  28.742  31.747  1.00  0.00    -0.248 NA
ATOM     57  C   UNL A   1      43.009  27.208  30.494  1.00  0.00     0.031 C 
ATOM     58  C   UNL A   1      42.660  29.850  35.945  1.00  0.00     0.029 A 
ATOM     59  C   UNL A   1      42.424  29.491  34.628  1.00  0.00     0.049 A 
ATOM     60  H   UNL A   1      40.950  30.206  33.297  1.00  0.00     0.167 HD
ATOM     61  C   UNL A   1      42.803  28.228  32.534  1.00  0.00     0.074 A 
ATOM     62  C   UNL A   1      43.509  27.262  31.720  1.00  0.00     0.031 C 
ATOM     63  C   UNL A   1      43.127  28.530  33.816  1.00  0.00     0.037 A 
BRANCH  50  64
ATOM     64  C   UNL A   1      39.517  32.879  36.300  1.00  0.00     0.064 A 
ATOM     65  C   UNL A   1      38.552  32.521  37.253  1.00  0.00     0.173 A 
ATOM     66  C   UNL A   1      40.221  34.078  36.498  1.00  0.00     0.173 A 
ATOM     67  F   UNL A   1      37.841  31.393  37.103  1.00  0.00    -0.203 F 
ATOM     68  C   UNL A   1      38.280  33.345  38.342  1.00  0.00     0.198 A 
ATOM     69  C   UNL A   1      39.968  34.883  37.604  1.00  0.00     0.198 A 
ATOM     70  F   UNL A   1      41.157  34.465  35.618  1.00  0.00    -0.203 F 
ATOM     71  F   UNL A   1      37.315  33.009  39.210  1.00  0.00    -0.200 F 
ATOM     72  C   UNL A   1      38.992  34.521  38.521  1.00  0.00     0.200 A 
ATOM     73  F   UNL A   1      40.666  36.012  37.782  1.00  0.00    -0.200 F 
ATOM     74  F   UNL A   1      38.733  35.311  39.572  1.00  0.00    -0.200 F 
ENDBRANCH  50  64
BRANCH  51  75
ATOM     75  C   UNL A   1      41.321  27.503  28.129  1.00  0.00     0.064 A 
ATOM     76  C   UNL A   1      40.802  26.213  27.946  1.00  0.00     0.173 A 
ATOM     77  C   UNL A   1      42.168  28.012  27.134  1.00  0.00     0.173 A 
ATOM     78  F   UNL A   1      40.018  25.666  28.887  1.00  0.00    -0.203 F 
ATOM     79  C   UNL A   1      41.131  25.457  26.822  1.00  0.00     0.198 A 
ATOM     80  C   UNL A   1      42.473  27.267  25.996  1.00  0.00     0.198 A 
ATOM     81  F   UNL A   1      42.702  29.234  27.267  1.00  0.00    -0.203 F 
ATOM     82  F   UNL A   1      40.664  24.207  26.697  1.00  0.00    -0.200 F 
ATOM     83  C   UNL A   1      41.959  25.988  25.844  1.00  0.00     0.200 A 
ATOM     84  F   UNL A   1      43.270  27.785  25.053  1.00  0.00    -0.200 F 
ATOM     85  F   UNL A   1      42.275  25.261  24.763  1.00  0.00    -0.200 F 
ENDBRANCH  51  75
BRANCH  63  86
ATOM     86  C   UNL A   1      44.279  27.785  34.436  1.00  0.00     0.064 A 
ATOM     87  C   UNL A   1      45.583  28.303  34.436  1.00  0.00     0.173 A 
ATOM     88  C   UNL A   1      44.069  26.546  35.064  1.00  0.00     0.173 A 
ATOM     89  F   UNL A   1      45.843  29.477  33.842  1.00  0.00    -0.203 F 
ATOM     90  C   UNL A   1      46.638  27.594  35.007  1.00  0.00     0.198 A 
ATOM     91  C   UNL A   1      45.119  25.855  35.662  1.00  0.00     0.198 A 
ATOM     92  F   UNL A   1      42.841  26.009  35.104  1.00  0.00    -0.203 F 
ATOM     93  F   UNL A   1      47.884  28.083  34.943  1.00  0.00    -0.200 F 
ATOM     94  C   UNL A   1      46.404  26.374  35.625  1.00  0.00     0.200 A 
ATOM     95  F   UNL A   1      44.888  24.685  36.274  1.00  0.00    -0.200 F 
ATOM     96  F   UNL A   1      47.420  25.695  36.176  1.00  0.00    -0.200 F 
ENDBRANCH  63  86
ENDBRANCH  37  38
ENDBRANCH  30  32
ENDBRANCH  29  30
ENDBRANCH  28  29
ENDBRANCH  27  28
ENDBRANCH  26  27
ENDBRANCH  25  26
ENDBRANCH   1  25
TORSDOF 22
ENDMDL
MODEL 2
REMARK VINA RESULT:     -10.3      1.184      7.245
REMARK SMILES CC[N@@H+](C[C@@H](C)C(=O)OCCOCCOCCOC(=O)c1ccc(-c2c3nc(c(-c4c(F)c(F)c(F)c(F)c4F)c4ccc([nH]4)c(-c4c(F)c(F)c(F)c(F)c4F)c4nc(c(-c5c(F)c(F)c(F)c(F)c5F)c5ccc2[nH]5)C=C4)C=C3)cc1)[C@@H]1CCC[C@H](S(C)(=O)=O)C1
REMARK SMILES IDX 13 1 12 2 11 3 10 4 9 5 7 6 8 7 5 8 6 9 4 10 3 11 2 13 1 14
REMARK SMILES IDX 84 15 85 16 93 17 86 18 88 19 87 20 89 21 90 22 91 23 92 24
REMARK SMILES IDX 14 25 15 26 16 27 17 28 18 29 19 30 20 31 21 32 22 33 83 34
REMARK SMILES IDX 23 35 82 36 24 37 25 38 26 39 76 40 27 41 81 42 75 43 77 44
REMARK SMILES IDX 28 45 80 46 74 47 73 48 29 50 61 51 41 52 60 53 42 54 45 55
REMARK SMILES IDX 59 56 78 57 43 58 44 59 58 61 79 62 46 63 30 64 31 65 39 66
REMARK SMILES IDX 32 67 33 68 37 69 40 70 34 71 35 72 38 73 36 74 62 75 63 76
REMARK SMILES IDX 71 77 64 78 65 79 69 80 72 81 66 82 67 83 70 84 68 85 47 86
REMARK SMILES IDX 48 87 56 88 49 89 50 90 54 91 57 92 51 93 52 94 55 95 53 96
REMARK H PARENT 3 12 77 49 45 60
REMARK Flexibility Score: inf
ROOT
ATOM      1  C   UNL A   1      34.703  30.012  27.287  1.00  0.00     0.188 C 
ENDROOT
BRANCH   1   2
ATOM      2  O   UNL A   1      34.112  28.727  27.169  1.00  0.00    -0.376 OA
BRANCH   2   3
ATOM      3  C   UNL A   1      33.975  28.173  25.863  1.00  0.00     0.202 C 
BRANCH   3   4
ATOM      4  C   UNL A   1      32.705  28.493  25.057  1.00  0.00     0.261 C 
BRANCH   4   5
ATOM      5  O   UNL A   1      31.547  27.679  25.346  1.00  0.00    -0.463 OA
BRANCH   5   6
ATOM      6  C   UNL A   1      30.727  27.478  24.283  1.00  0.00     0.314 C 
ATOM      7  O   UNL A   1      30.502  28.328  23.425  1.00  0.00    -0.252 OA
BRANCH   6   8
ATOM      8  C   UNL A   1      30.151  26.069  24.164  1.00  0.00     0.151 C 
ATOM      9  C   UNL A   1      29.519  25.782  25.528  1.00  0.00     0.026 C 
BRANCH   8  10
ATOM     10  C   UNL A   1      31.125  24.968  23.654  1.00  0.00     0.277 C 
BRANCH  10  11
ATOM     11  N   UNL A   1      32.503  24.903  24.246  1.00  0.00    -0.332 N 
ATOM     12  H   UNL A   1      32.643  25.649  24.929  1.00  0.00     0.348 HD
BRANCH  11  13
ATOM     13  C   UNL A   1      33.534  25.239  23.251  1.00  0.00     0.259 C 
ATOM     14  C   UNL A   1      33.074  25.483  21.813  1.00  0.00     0.071 C 
ENDBRANCH  11  13
BRANCH  11  15
ATOM     15  C   UNL A   1      32.674  23.719  25.106  1.00  0.00     0.185 C 
ATOM     16  C   UNL A   1      33.819  23.900  26.118  1.00  0.00     0.065 C 
ATOM     17  C   UNL A   1      32.842  22.354  24.431  1.00  0.00     0.084 C 
ATOM     18  C   UNL A   1      33.735  22.795  27.183  1.00  0.00     0.007 C 
ATOM     19  C   UNL A   1      32.675  21.231  25.460  1.00  0.00     0.114 C 
ATOM     20  C   UNL A   1      33.701  21.380  26.589  1.00  0.00     0.020 C 
BRANCH  19  21
ATOM     21  S   UNL A   1      32.788  19.650  24.605  1.00  0.00     0.150 S 
ATOM     22  C   UNL A   1      34.516  19.249  24.632  1.00  0.00     0.158 C 
ATOM     23  O   UNL A   1      32.119  18.659  25.430  1.00  0.00    -0.229 OA
ATOM     24  O   UNL A   1      32.397  19.842  23.223  1.00  0.00    -0.229 OA
ENDBRANCH  19  21
ENDBRANCH  11  15
ENDBRANCH  10  11
ENDBRANCH   8  10
ENDBRANCH   6   8
ENDBRANCH   5   6
ENDBRANCH   4   5
ENDBRANCH   3   4
ENDBRANCH   2   3
ENDBRANCH   1   2
BRANCH   1  25
ATOM     25  C   UNL A   1      33.800  31.198  27.624  1.00  0.00     0.188 C 
BRANCH  25  26
ATOM     26  O   UNL A   1      32.452  31.101  27.197  1.00  0.00    -0.376 OA
BRANCH  26  27
ATOM     27  C   UNL A   1      31.775  32.342  26.974  1.00  0.00     0.202 C 
BRANCH  27  28
ATOM     28  C   UNL A   1      32.629  33.613  27.188  1.00  0.00     0.261 C 
BRANCH  28  29
ATOM     29  O   UNL A   1      32.156  34.521  28.211  1.00  0.00    -0.460 OA
BRANCH  29  30
ATOM     30  C   UNL A   1      33.061  35.375  28.747  1.00  0.00     0.338 C 
ATOM     31  O   UNL A   1      32.894  36.563  28.962  1.00  0.00    -0.246 OA
BRANCH  30  32
ATOM     32  C   UNL A   1      34.199  34.585  29.299  1.00  0.00     0.060 A 
ATOM     33  C   UNL A   1      33.942  33.744  30.392  1.00  0.00     0.016 A 
ATOM     34  C   UNL A   1      35.474  34.600  28.727  1.00  0.00     0.016 A 
ATOM     35  C   UNL A   1      34.963  32.962  30.943  1.00  0.00     0.010 A 
ATOM     36  C   UNL A   1      36.501  33.826  29.287  1.00  0.00     0.010 A 
ATOM     37  C   UNL A   1      36.262  33.028  30.421  1.00  0.00    -0.014 A 
BRANCH  37  38
ATOM     38  C   UNL A   1      37.394  32.422  31.176  1.00  0.00     0.031 A 
ATOM     39  C   UNL A   1      38.160  31.293  30.537  1.00  0.00     0.074 A 
ATOM     40  C   UNL A   1      37.772  32.868  32.388  1.00  0.00     0.049 A 
ATOM     41  N   UNL A   1      39.177  30.606  30.995  1.00  0.00    -0.248 NA
ATOM     42  C   UNL A   1      37.713  30.883  29.197  1.00  0.00     0.031 C 
ATOM     43  C   UNL A   1      37.148  33.967  33.120  1.00  0.00     0.029 A 
ATOM     44  N   UNL A   1      38.778  32.437  33.221  1.00  0.00    -0.354 N 
ATOM     45  C   UNL A   1      39.489  29.685  30.002  1.00  0.00     0.074 A 
ATOM     46  C   UNL A   1      38.532  29.877  28.933  1.00  0.00     0.031 C 
ATOM     47  C   UNL A   1      37.780  34.119  34.298  1.00  0.00     0.029 A 
ATOM     48  C   UNL A   1      38.837  33.114  34.415  1.00  0.00     0.049 A 
ATOM     49  H   UNL A   1      39.400  31.711  32.983  1.00  0.00     0.167 HD
ATOM     50  C   UNL A   1      40.487  28.770  29.973  1.00  0.00     0.037 A 
ATOM     51  C   UNL A   1      39.638  32.932  35.486  1.00  0.00     0.037 A 
ATOM     52  C   UNL A   1      41.443  28.565  31.030  1.00  0.00     0.049 A 
ATOM     53  C   UNL A   1      40.702  31.860  35.458  1.00  0.00     0.074 A 
ATOM     54  C   UNL A   1      42.504  27.678  31.073  1.00  0.00     0.029 A 
ATOM     55  N   UNL A   1      41.446  29.248  32.236  1.00  0.00    -0.354 N 
ATOM     56  N   UNL A   1      41.013  31.022  34.501  1.00  0.00    -0.248 NA
ATOM     57  C   UNL A   1      41.530  31.718  36.666  1.00  0.00     0.031 C 
ATOM     58  C   UNL A   1      43.114  27.782  32.328  1.00  0.00     0.029 A 
ATOM     59  C   UNL A   1      42.471  28.778  33.044  1.00  0.00     0.049 A 
ATOM     60  H   UNL A   1      40.814  29.961  32.485  1.00  0.00     0.167 HD
ATOM     61  C   UNL A   1      42.087  30.276  34.976  1.00  0.00     0.074 A 
ATOM     62  C   UNL A   1      42.384  30.771  36.302  1.00  0.00     0.031 C 
ATOM     63  C   UNL A   1      42.765  29.272  34.365  1.00  0.00     0.037 A 
BRANCH  50  64
ATOM     64  C   UNL A   1      40.576  27.889  28.760  1.00  0.00     0.064 A 
ATOM     65  C   UNL A   1      39.878  26.675  28.674  1.00  0.00     0.173 A 
ATOM     66  C   UNL A   1      41.355  28.277  27.659  1.00  0.00     0.173 A 
ATOM     67  F   UNL A   1      39.131  26.251  29.706  1.00  0.00    -0.203 F 
ATOM     68  C   UNL A   1      39.980  25.868  27.544  1.00  0.00     0.198 A 
ATOM     69  C   UNL A   1      41.431  27.482  26.519  1.00  0.00     0.198 A 
ATOM     70  F   UNL A   1      42.041  29.430  27.688  1.00  0.00    -0.203 F 
ATOM     71  F   UNL A   1      39.348  24.687  27.507  1.00  0.00    -0.200 F 
ATOM     72  C   UNL A   1      40.750  26.275  26.466  1.00  0.00     0.200 A 
ATOM     73  F   UNL A   1      42.164  27.884  25.472  1.00  0.00    -0.200 F 
ATOM     74  F   UNL A   1      40.845  25.500  25.376  1.00  0.00    -0.200 F 
ENDBRANCH  50  64
BRANCH  51  75
ATOM     75  C   UNL A   1      39.464  33.781  36.696  1.00  0.00     0.064 A 
ATOM     76  C   UNL A   1      40.101  35.026  36.808  1.00  0.00     0.173 A 
ATOM     77  C   UNL A   1      38.686  33.348  37.779  1.00  0.00     0.173 A 
ATOM     78  F   UNL A   1      40.887  35.468  35.815  1.00  0.00    -0.203 F 
ATOM     79  C   UNL A   1      39.977  35.797  37.963  1.00  0.00     0.198 A 
ATOM     80  C   UNL A   1      38.539  34.133  38.921  1.00  0.00     0.198 A 
ATOM     81  F   UNL A   1      38.067  32.159  37.728  1.00  0.00    -0.203 F 
ATOM     82  F   UNL A   1      40.640  36.957  38.065  1.00  0.00    -0.200 F 
ATOM     83  C   UNL A   1      39.191  35.353  39.015  1.00  0.00     0.200 A 
ATOM     84  F   UNL A   1      37.775  33.702  39.934  1.00  0.00    -0.200 F 
ATOM     85  F   UNL A   1      39.071  36.095  40.125  1.00  0.00    -0.200 F 
ENDBRANCH  51  75
BRANCH  63  86
ATOM     86  C   UNL A   1      43.920  28.659  35.110  1.00  0.00     0.064 A 
ATOM     87  C   UNL A   1      45.231  29.139  34.970  1.00  0.00     0.173 A 
ATOM     88  C   UNL A   1      43.708  27.592  35.998  1.00  0.00     0.173 A 
ATOM     89  F   UNL A   1      45.493  30.150  34.128  1.00  0.00    -0.203 F 
ATOM     90  C   UNL A   1      46.289  28.553  35.661  1.00  0.00     0.198 A 
ATOM     91  C   UNL A   1      44.763  27.029  36.712  1.00  0.00     0.198 A 
ATOM     92  F   UNL A   1      42.474  27.099  36.180  1.00  0.00    -0.203 F 
ATOM     93  F   UNL A   1      47.540  28.992  35.466  1.00  0.00    -0.200 F 
ATOM     94  C   UNL A   1      46.054  27.502  36.535  1.00  0.00     0.200 A 
ATOM     95  F   UNL A   1      44.530  26.025  37.569  1.00  0.00    -0.200 F 
ATOM     96  F   UNL A   1      47.073  26.940  37.201  1.00  0.00    -0.200 F 
ENDBRANCH  63  86
ENDBRANCH  37  38
ENDBRANCH  30  32
ENDBRANCH  29  30
ENDBRANCH  28  29
ENDBRANCH  27  28
ENDBRANCH  26  27
ENDBRANCH  25  26
ENDBRANCH   1  25
TORSDOF 22
ENDMDL
MODEL 3
REMARK VINA RESULT:      -9.9      5.837     11.580
REMARK SMILES CC[N@@H+](C[C@@H](C)C(=O)OCCOCCOCCOC(=O)c1ccc(-c2c3nc(c(-c4c(F)c(F)c(F)c(F)c4F)c4ccc([nH]4)c(-c4c(F)c(F)c(F)c(F)c4F)c4nc(c(-c5c(F)c(F)c(F)c(F)c5F)c5ccc2[nH]5)C=C4)C=C3)cc1)[C@@H]1CCC[C@H](S(C)(=O)=O)C1
REMARK SMILES IDX 13 1 12 2 11 3 10 4 9 5 7 6 8 7 5 8 6 9 4 10 3 11 2 13 1 14
REMARK SMILES IDX 84 15 85 16 93 17 86 18 88 19 87 20 89 21 90 22 91 23 92 24
REMARK SMILES IDX 14 25 15 26 16 27 17 28 18 29 19 30 20 31 21 32 22 33 83 34
REMARK SMILES IDX 23 35 82 36 24 37 25 38 26 39 76 40 27 41 81 42 75 43 77 44
REMARK SMILES IDX 28 45 80 46 74 47 73 48 29 50 61 51 41 52 60 53 42 54 45 55
REMARK SMILES IDX 59 56 78 57 43 58 44 59 58 61 79 62 46 63 30 64 31 65 39 66
REMARK SMILES IDX 32 67 33 68 37 69 40 70 34 71 35 72 38 73 36 74 62 75 63 76
REMARK SMILES IDX 71 77 64 78 65 79 69 80 72 81 66 82 67 83 70 84 68 85 47 86
REMARK SMILES IDX 48 87 56 88 49 89 50 90 54 91 57 92 51 93 52 94 55 95 53 96
REMARK H PARENT 3 12 77 49 45 60
REMARK Flexibility Score: inf
ROOT
ATOM      1  C   UNL A   1      40.926  21.461  26.370  1.00  0.00     0.188 C 
ENDROOT
BRANCH   1   2
ATOM      2  O   UNL A   1      40.400  22.203  27.459  1.00  0.00    -0.376 OA
BRANCH   2   3
ATOM      3  C   UNL A   1      39.450  23.226  27.173  1.00  0.00     0.202 C 
BRANCH   3   4
ATOM      4  C   UNL A   1      38.353  22.940  26.133  1.00  0.00     0.261 C 
BRANCH   4   5
ATOM      5  O   UNL A   1      37.040  23.461  26.436  1.00  0.00    -0.463 OA
BRANCH   5   6
ATOM      6  C   UNL A   1      36.202  23.517  25.370  1.00  0.00     0.314 C 
ATOM      7  O   UNL A   1      36.535  23.221  24.224  1.00  0.00    -0.252 OA
BRANCH   6   8
ATOM      8  C   UNL A   1      34.760  23.897  25.696  1.00  0.00     0.151 C 
ATOM      9  C   UNL A   1      34.269  22.807  26.653  1.00  0.00     0.026 C 
BRANCH   8  10
ATOM     10  C   UNL A   1      33.826  24.164  24.481  1.00  0.00     0.277 C 
BRANCH  10  11
ATOM     11  N   UNL A   1      32.595  24.995  24.696  1.00  0.00    -0.332 N 
ATOM     12  H   UNL A   1      32.560  25.358  25.648  1.00  0.00     0.348 HD
BRANCH  11  13
ATOM     13  C   UNL A   1      31.376  24.169  24.669  1.00  0.00     0.259 C 
ATOM     14  C   UNL A   1      31.025  23.472  23.354  1.00  0.00     0.071 C 
ENDBRANCH  11  13
BRANCH  11  15
ATOM     15  C   UNL A   1      32.642  26.253  23.932  1.00  0.00     0.185 C 
ATOM     16  C   UNL A   1      33.855  27.118  24.317  1.00  0.00     0.065 C 
ATOM     17  C   UNL A   1      31.398  27.146  23.931  1.00  0.00     0.084 C 
ATOM     18  C   UNL A   1      34.034  28.235  23.276  1.00  0.00     0.007 C 
ATOM     19  C   UNL A   1      31.515  28.216  22.840  1.00  0.00     0.114 C 
ATOM     20  C   UNL A   1      32.766  29.073  23.060  1.00  0.00     0.020 C 
BRANCH  19  21
ATOM     21  S   UNL A   1      29.993  29.179  22.817  1.00  0.00     0.150 S 
ATOM     22  C   UNL A   1      28.717  28.010  23.207  1.00  0.00     0.158 C 
ATOM     23  O   UNL A   1      30.052  30.114  23.926  1.00  0.00    -0.229 OA
ATOM     24  O   UNL A   1      29.766  29.652  21.467  1.00  0.00    -0.229 OA
ENDBRANCH  19  21
ENDBRANCH  11  15
ENDBRANCH  10  11
ENDBRANCH   8  10
ENDBRANCH   6   8
ENDBRANCH   5   6
ENDBRANCH   4   5
ENDBRANCH   3   4
ENDBRANCH   2   3
ENDBRANCH   1   2
BRANCH   1  25
ATOM     25  C   UNL A   1      40.644  19.959  26.312  1.00  0.00     0.188 C 
BRANCH  25  26
ATOM     26  O   UNL A   1      41.576  19.174  25.588  1.00  0.00    -0.376 OA
BRANCH  26  27
ATOM     27  C   UNL A   1      42.572  18.506  26.370  1.00  0.00     0.202 C 
BRANCH  27  28
ATOM     28  C   UNL A   1      43.922  18.260  25.657  1.00  0.00     0.261 C 
BRANCH  28  29
ATOM     29  O   UNL A   1      44.065  18.874  24.355  1.00  0.00    -0.460 OA
BRANCH  29  30
ATOM     30  C   UNL A   1      45.211  19.558  24.117  1.00  0.00     0.338 C 
ATOM     31  O   UNL A   1      46.106  19.224  23.360  1.00  0.00    -0.246 OA
BRANCH  30  32
ATOM     32  C   UNL A   1      45.087  20.924  24.703  1.00  0.00     0.060 A 
ATOM     33  C   UNL A   1      44.869  21.996  23.824  1.00  0.00     0.016 A 
ATOM     34  C   UNL A   1      45.108  21.156  26.081  1.00  0.00     0.016 A 
ATOM     35  C   UNL A   1      44.724  23.298  24.314  1.00  0.00     0.010 A 
ATOM     36  C   UNL A   1      44.975  22.464  26.571  1.00  0.00     0.010 A 
ATOM     37  C   UNL A   1      44.819  23.549  25.689  1.00  0.00    -0.014 A 
BRANCH  37  38
ATOM     38  C   UNL A   1      44.948  24.951  26.178  1.00  0.00     0.031 A 
ATOM     39  C   UNL A   1      46.304  25.606  26.129  1.00  0.00     0.074 A 
ATOM     40  C   UNL A   1      43.895  25.654  26.629  1.00  0.00     0.049 A 
ATOM     41  N   UNL A   1      46.666  26.810  26.498  1.00  0.00    -0.248 NA
ATOM     42  C   UNL A   1      47.401  24.788  25.591  1.00  0.00     0.031 C 
ATOM     43  C   UNL A   1      42.520  25.167  26.711  1.00  0.00     0.029 A 
ATOM     44  N   UNL A   1      43.825  26.941  27.113  1.00  0.00    -0.354 N 
ATOM     45  C   UNL A   1      48.028  26.891  26.238  1.00  0.00     0.074 A 
ATOM     46  C   UNL A   1      48.435  25.605  25.714  1.00  0.00     0.031 C 
ATOM     47  C   UNL A   1      41.743  26.139  27.223  1.00  0.00     0.029 A 
ATOM     48  C   UNL A   1      42.568  27.309  27.529  1.00  0.00     0.049 A 
ATOM     49  H   UNL A   1      44.603  27.542  27.157  1.00  0.00     0.167 HD
ATOM     50  C   UNL A   1      48.866  27.942  26.407  1.00  0.00     0.037 A 
ATOM     51  C   UNL A   1      42.136  28.450  28.106  1.00  0.00     0.037 A 
ATOM     52  C   UNL A   1      48.476  29.225  26.931  1.00  0.00     0.049 A 
ATOM     53  C   UNL A   1      43.102  29.585  28.346  1.00  0.00     0.074 A 
ATOM     54  C   UNL A   1      49.255  30.355  27.112  1.00  0.00     0.029 A 
ATOM     55  N   UNL A   1      47.202  29.545  27.372  1.00  0.00    -0.354 N 
ATOM     56  N   UNL A   1      44.378  29.667  28.061  1.00  0.00    -0.248 NA
ATOM     57  C   UNL A   1      42.558  30.794  28.986  1.00  0.00     0.031 C 
ATOM     58  C   UNL A   1      48.466  31.340  27.716  1.00  0.00     0.029 A 
ATOM     59  C   UNL A   1      47.180  30.845  27.855  1.00  0.00     0.049 A 
ATOM     60  H   UNL A   1      46.426  28.939  27.347  1.00  0.00     0.167 HD
ATOM     61  C   UNL A   1      44.781  30.937  28.458  1.00  0.00     0.074 A 
ATOM     62  C   UNL A   1      43.611  31.600  28.990  1.00  0.00     0.031 C 
ATOM     63  C   UNL A   1      46.013  31.503  28.385  1.00  0.00     0.037 A 
BRANCH  50  64
ATOM     64  C   UNL A   1      50.309  27.735  26.048  1.00  0.00     0.064 A 
ATOM     65  C   UNL A   1      50.765  27.843  24.726  1.00  0.00     0.173 A 
ATOM     66  C   UNL A   1      51.253  27.446  27.047  1.00  0.00     0.173 A 
ATOM     67  F   UNL A   1      49.901  28.101  23.733  1.00  0.00    -0.203 F 
ATOM     68  C   UNL A   1      52.107  27.638  24.412  1.00  0.00     0.198 A 
ATOM     69  C   UNL A   1      52.598  27.274  26.733  1.00  0.00     0.198 A 
ATOM     70  F   UNL A   1      50.870  27.335  28.328  1.00  0.00    -0.203 F 
ATOM     71  F   UNL A   1      52.510  27.693  23.135  1.00  0.00    -0.200 F 
ATOM     72  C   UNL A   1      53.022  27.361  25.416  1.00  0.00     0.200 A 
ATOM     73  F   UNL A   1      53.483  27.020  27.706  1.00  0.00    -0.200 F 
ATOM     74  F   UNL A   1      54.314  27.170  25.113  1.00  0.00    -0.200 F 
ENDBRANCH  50  64
BRANCH  51  75
ATOM     75  C   UNL A   1      40.710  28.583  28.512  1.00  0.00     0.064 A 
ATOM     76  C   UNL A   1      39.752  29.121  27.640  1.00  0.00     0.173 A 
ATOM     77  C   UNL A   1      40.285  28.206  29.794  1.00  0.00     0.173 A 
ATOM     78  F   UNL A   1      40.117  29.533  26.416  1.00  0.00    -0.203 F 
ATOM     79  C   UNL A   1      38.428  29.292  28.041  1.00  0.00     0.198 A 
ATOM     80  C   UNL A   1      38.954  28.349  30.184  1.00  0.00     0.198 A 
ATOM     81  F   UNL A   1      41.163  27.699  30.671  1.00  0.00    -0.203 F 
ATOM     82  F   UNL A   1      37.546  29.858  27.207  1.00  0.00    -0.200 F 
ATOM     83  C   UNL A   1      38.029  28.898  29.309  1.00  0.00     0.200 A 
ATOM     84  F   UNL A   1      38.573  27.964  31.409  1.00  0.00    -0.200 F 
ATOM     85  F   UNL A   1      36.756  29.061  29.694  1.00  0.00    -0.200 F 
ENDBRANCH  51  75
BRANCH  63  86
ATOM     86  C   UNL A   1      46.155  32.923  28.862  1.00  0.00     0.064 A 
ATOM     87  C   UNL A   1      46.512  33.229  30.184  1.00  0.00     0.173 A 
ATOM     88  C   UNL A   1      45.956  33.994  27.977  1.00  0.00     0.173 A 
ATOM     89  F   UNL A   1      46.705  32.245  31.076  1.00  0.00    -0.203 F 
ATOM     90  C   UNL A   1      46.630  34.550  30.610  1.00  0.00     0.198 A 
ATOM     91  C   UNL A   1      46.106  35.313  28.396  1.00  0.00     0.198 A 
ATOM     92  F   UNL A   1      45.624  33.761  26.698  1.00  0.00    -0.203 F 
ATOM     93  F   UNL A   1      46.916  34.817  31.891  1.00  0.00    -0.200 F 
ATOM     94  C   UNL A   1      46.433  35.591  29.714  1.00  0.00     0.200 A 
ATOM     95  F   UNL A   1      45.932  36.317  27.525  1.00  0.00    -0.200 F 
ATOM     96  F   UNL A   1      46.549  36.862  30.125  1.00  0.00    -0.200 F 
ENDBRANCH  63  86
ENDBRANCH  37  38
ENDBRANCH  30  32
ENDBRANCH  29  30
ENDBRANCH  28  29
ENDBRANCH  27  28
ENDBRANCH  26  27
ENDBRANCH  25  26
ENDBRANCH   1  25
TORSDOF 22
ENDMDL
