MODEL 1
REMARK VINA RESULT:     -10.8      0.000      0.000
REMARK SMILES C[C@]1(C(=O)OCCOCCOCCOC(=O)c2ccc(-c3c4nc(c(-c5c(F)c(F)c(F)c(F)c5F)c5ccc([nH]5)c(-c5c(F)c(F)c(F)c(F)c5F)c5nc(c(-c6c(F)c(F)c(F)c(F)c6F)c6ccc3[nH]6)C=C5)C=C4)cc2)CCN(c2ccc([N+](=O)[O-])c(N)n2)C1
REMARK SMILES IDX 9 1 8 2 7 3 6 4 5 5 3 6 4 7 2 8 1 9 80 10 93 11 81 12 82 13
REMARK SMILES IDX 83 14 84 15 92 16 85 17 90 18 86 19 91 20 87 23 88 24 89 25
REMARK SMILES IDX 10 26 11 27 12 28 13 29 14 30 15 31 16 32 17 33 18 34 79 35
REMARK SMILES IDX 19 36 78 37 20 38 21 39 22 40 72 41 23 42 77 43 71 44 73 45
REMARK SMILES IDX 24 46 76 47 70 48 69 49 25 51 57 52 37 53 56 54 38 55 41 56
REMARK SMILES IDX 55 57 74 58 39 59 40 60 54 62 75 63 42 64 26 65 27 66 35 67
REMARK SMILES IDX 28 68 29 69 33 70 36 71 30 72 31 73 34 74 32 75 58 76 59 77
REMARK SMILES IDX 67 78 60 79 61 80 65 81 68 82 62 83 63 84 66 85 64 86 43 87
REMARK SMILES IDX 44 88 52 89 45 90 46 91 50 92 53 93 47 94 48 95 51 96 49 97
REMARK H PARENT 91 21 91 22 73 50 41 61
REMARK Flexibility Score: inf
ROOT
ATOM      1  C   UNL A   1      40.113  22.023  26.557  1.00  0.00     0.188 C 
ENDROOT
BRANCH   1   2
ATOM      2  O   UNL A   1      39.053  21.400  25.850  1.00  0.00    -0.376 OA
BRANCH   2   3
ATOM      3  C   UNL A   1      37.862  22.136  25.593  1.00  0.00     0.202 C 
BRANCH   3   4
ATOM      4  C   UNL A   1      36.701  21.493  24.803  1.00  0.00     0.261 C 
BRANCH   4   5
ATOM      5  O   UNL A   1      35.496  21.159  25.543  1.00  0.00    -0.463 OA
BRANCH   5   6
ATOM      6  C   UNL A   1      34.592  20.398  24.881  1.00  0.00     0.313 C 
ATOM      7  O   UNL A   1      34.775  19.208  24.626  1.00  0.00    -0.252 OA
BRANCH   6   8
ATOM      8  C   UNL A   1      33.280  21.082  24.473  1.00  0.00     0.084 C 
ATOM      9  C   UNL A   1      32.528  20.080  23.584  1.00  0.00     0.026 C 
ATOM     10  C   UNL A   1      32.528  21.344  25.801  1.00  0.00     0.042 C 
ATOM     11  C   UNL A   1      33.269  22.464  23.767  1.00  0.00     0.136 C 
ATOM     12  C   UNL A   1      31.603  22.514  25.535  1.00  0.00     0.119 C 
ATOM     13  N   UNL A   1      32.321  23.285  24.536  1.00  0.00    -0.355 N 
BRANCH  13  14
ATOM     14  C   UNL A   1      31.829  24.527  24.219  1.00  0.00     0.131 A 
ATOM     15  C   UNL A   1      31.226  25.344  25.167  1.00  0.00     0.054 A 
ATOM     16  N   UNL A   1      31.983  24.967  22.942  1.00  0.00    -0.207 NA
ATOM     17  C   UNL A   1      30.793  26.622  24.811  1.00  0.00     0.093 A 
ATOM     18  C   UNL A   1      31.526  26.190  22.567  1.00  0.00     0.204 A 
ATOM     19  C   UNL A   1      30.937  27.049  23.489  1.00  0.00     0.311 A 
BRANCH  18  20
ATOM     20  N   UNL A   1      31.785  26.517  21.251  1.00  0.00    -0.378 N 
ATOM     21  H   UNL A   1      32.679  26.837  20.991  1.00  0.00     0.158 HD
ATOM     22  H   UNL A   1      31.076  26.428  20.574  1.00  0.00     0.158 HD
ENDBRANCH  18  20
BRANCH  19  23
ATOM     23  N   UNL A   1      30.444  28.372  23.112  1.00  0.00     0.066 N 
ATOM     24  O   UNL A   1      29.904  28.484  22.001  1.00  0.00    -0.258 OA
ATOM     25  O   UNL A   1      30.618  29.318  23.895  1.00  0.00    -0.258 OA
ENDBRANCH  19  23
ENDBRANCH  13  14
ENDBRANCH   6   8
ENDBRANCH   5   6
ENDBRANCH   4   5
ENDBRANCH   3   4
ENDBRANCH   2   3
ENDBRANCH   1   2
BRANCH   1  26
ATOM     26  C   UNL A   1      41.511  21.397  26.497  1.00  0.00     0.188 C 
BRANCH  26  27
ATOM     27  O   UNL A   1      41.631  20.282  25.646  1.00  0.00    -0.376 OA
BRANCH  27  28
ATOM     28  C   UNL A   1      42.165  19.080  26.173  1.00  0.00     0.202 C 
BRANCH  28  29
ATOM     29  C   UNL A   1      43.402  18.416  25.535  1.00  0.00     0.261 C 
BRANCH  29  30
ATOM     30  O   UNL A   1      43.822  18.907  24.252  1.00  0.00    -0.460 OA
BRANCH  30  31
ATOM     31  C   UNL A   1      45.043  19.485  24.173  1.00  0.00     0.338 C 
ATOM     32  O   UNL A   1      46.025  19.050  23.593  1.00  0.00    -0.246 OA
BRANCH  31  33
ATOM     33  C   UNL A   1      44.915  20.864  24.705  1.00  0.00     0.060 A 
ATOM     34  C   UNL A   1      44.406  21.875  23.874  1.00  0.00     0.016 A 
ATOM     35  C   UNL A   1      45.259  21.150  26.028  1.00  0.00     0.016 A 
ATOM     36  C   UNL A   1      44.269  23.178  24.356  1.00  0.00     0.010 A 
ATOM     37  C   UNL A   1      45.149  22.462  26.501  1.00  0.00     0.010 A 
ATOM     38  C   UNL A   1      44.687  23.489  25.657  1.00  0.00    -0.014 A 
BRANCH  38  39
ATOM     39  C   UNL A   1      44.846  24.910  26.062  1.00  0.00     0.031 A 
ATOM     40  C   UNL A   1      46.204  25.543  25.905  1.00  0.00     0.074 A 
ATOM     41  C   UNL A   1      43.820  25.635  26.538  1.00  0.00     0.049 A 
ATOM     42  N   UNL A   1      46.609  26.744  26.230  1.00  0.00    -0.248 NA
ATOM     43  C   UNL A   1      47.247  24.697  25.302  1.00  0.00     0.031 C 
ATOM     44  C   UNL A   1      42.450  25.160  26.700  1.00  0.00     0.029 A 
ATOM     45  N   UNL A   1      43.782  26.935  26.985  1.00  0.00    -0.354 N 
ATOM     46  C   UNL A   1      47.952  26.795  25.875  1.00  0.00     0.074 A 
ATOM     47  C   UNL A   1      48.302  25.495  25.347  1.00  0.00     0.031 C 
ATOM     48  C   UNL A   1      41.704  26.152  27.220  1.00  0.00     0.029 A 
ATOM     49  C   UNL A   1      42.553  27.319  27.460  1.00  0.00     0.049 A 
ATOM     50  H   UNL A   1      44.563  27.534  26.964  1.00  0.00     0.167 HD
ATOM     51  C   UNL A   1      48.813  27.836  25.971  1.00  0.00     0.037 A 
ATOM     52  C   UNL A   1      42.168  28.473  28.042  1.00  0.00     0.037 A 
ATOM     53  C   UNL A   1      48.469  29.127  26.504  1.00  0.00     0.049 A 
ATOM     54  C   UNL A   1      43.169  29.590  28.216  1.00  0.00     0.074 A 
ATOM     55  C   UNL A   1      49.269  30.249  26.632  1.00  0.00     0.029 A 
ATOM     56  N   UNL A   1      47.222  29.467  27.009  1.00  0.00    -0.354 N 
ATOM     57  N   UNL A   1      44.428  29.643  27.855  1.00  0.00    -0.248 NA
ATOM     58  C   UNL A   1      42.688  30.813  28.876  1.00  0.00     0.031 C 
ATOM     59  C   UNL A   1      48.526  31.247  27.272  1.00  0.00     0.029 A 
ATOM     60  C   UNL A   1      47.241  30.772  27.476  1.00  0.00     0.049 A 
ATOM     61  H   UNL A   1      46.440  28.869  27.031  1.00  0.00     0.167 HD
ATOM     62  C   UNL A   1      44.878  30.911  28.208  1.00  0.00     0.074 A 
ATOM     63  C   UNL A   1      43.751  31.601  28.800  1.00  0.00     0.031 C 
ATOM     64  C   UNL A   1      46.111  31.455  28.054  1.00  0.00     0.037 A 
BRANCH  51  65
ATOM     65  C   UNL A   1      50.228  27.607  25.517  1.00  0.00     0.064 A 
ATOM     66  C   UNL A   1      51.262  27.338  26.427  1.00  0.00     0.173 A 
ATOM     67  C   UNL A   1      50.545  27.628  24.151  1.00  0.00     0.173 A 
ATOM     68  F   UNL A   1      51.017  27.323  27.746  1.00  0.00    -0.203 F 
ATOM     69  C   UNL A   1      52.567  27.130  25.986  1.00  0.00     0.198 A 
ATOM     70  C   UNL A   1      51.843  27.385  23.712  1.00  0.00     0.198 A 
ATOM     71  F   UNL A   1      49.594  27.878  23.239  1.00  0.00    -0.203 F 
ATOM     72  F   UNL A   1      53.549  26.930  26.875  1.00  0.00    -0.200 F 
ATOM     73  C   UNL A   1      52.855  27.144  24.630  1.00  0.00     0.200 A 
ATOM     74  F   UNL A   1      52.116  27.385  22.400  1.00  0.00    -0.200 F 
ATOM     75  F   UNL A   1      54.108  26.935  24.206  1.00  0.00    -0.200 F 
ENDBRANCH  51  65
BRANCH  52  76
ATOM     76  C   UNL A   1      40.766  28.639  28.518  1.00  0.00     0.064 A 
ATOM     77  C   UNL A   1      40.407  28.327  29.837  1.00  0.00     0.173 A 
ATOM     78  C   UNL A   1      39.751  29.076  27.654  1.00  0.00     0.173 A 
ATOM     79  F   UNL A   1      41.334  27.875  30.695  1.00  0.00    -0.203 F 
ATOM     80  C   UNL A   1      39.084  28.420  30.266  1.00  0.00     0.198 A 
ATOM     81  C   UNL A   1      38.435  29.202  28.093  1.00  0.00     0.198 A 
ATOM     82  F   UNL A   1      40.038  29.382  26.380  1.00  0.00    -0.203 F 
ATOM     83  F   UNL A   1      38.760  28.057  31.514  1.00  0.00    -0.200 F 
ATOM     84  C   UNL A   1      38.100  28.864  29.396  1.00  0.00     0.200 A 
ATOM     85  F   UNL A   1      37.489  29.640  27.252  1.00  0.00    -0.200 F 
ATOM     86  F   UNL A   1      36.829  28.954  29.808  1.00  0.00    -0.200 F 
ENDBRANCH  52  76
BRANCH  64  87
ATOM     87  C   UNL A   1      46.299  32.885  28.483  1.00  0.00     0.064 A 
ATOM     88  C   UNL A   1      46.729  33.226  29.773  1.00  0.00     0.173 A 
ATOM     89  C   UNL A   1      46.075  33.931  27.572  1.00  0.00     0.173 A 
ATOM     90  F   UNL A   1      46.948  32.268  30.687  1.00  0.00    -0.203 F 
ATOM     91  C   UNL A   1      46.892  34.558  30.147  1.00  0.00     0.198 A 
ATOM     92  C   UNL A   1      46.276  35.259  27.938  1.00  0.00     0.198 A 
ATOM     93  F   UNL A   1      45.674  33.664  26.320  1.00  0.00    -0.203 F 
ATOM     94  F   UNL A   1      47.245  34.860  31.405  1.00  0.00    -0.200 F 
ATOM     95  C   UNL A   1      46.673  35.573  29.228  1.00  0.00     0.200 A 
ATOM     96  F   UNL A   1      46.081  36.237  27.041  1.00  0.00    -0.200 F 
ATOM     97  F   UNL A   1      46.835  36.853  29.589  1.00  0.00    -0.200 F 
ENDBRANCH  64  87
ENDBRANCH  38  39
ENDBRANCH  31  33
ENDBRANCH  30  31
ENDBRANCH  29  30
ENDBRANCH  28  29
ENDBRANCH  27  28
ENDBRANCH  26  27
ENDBRANCH   1  26
TORSDOF 20
ENDMDL
MODEL 2
REMARK VINA RESULT:     -10.5      4.959      8.598
REMARK SMILES C[C@]1(C(=O)OCCOCCOCCOC(=O)c2ccc(-c3c4nc(c(-c5c(F)c(F)c(F)c(F)c5F)c5ccc([nH]5)c(-c5c(F)c(F)c(F)c(F)c5F)c5nc(c(-c6c(F)c(F)c(F)c(F)c6F)c6ccc3[nH]6)C=C5)C=C4)cc2)CCN(c2ccc([N+](=O)[O-])c(N)n2)C1
REMARK SMILES IDX 9 1 8 2 7 3 6 4 5 5 3 6 4 7 2 8 1 9 80 10 93 11 81 12 82 13
REMARK SMILES IDX 83 14 84 15 92 16 85 17 90 18 86 19 91 20 87 23 88 24 89 25
REMARK SMILES IDX 10 26 11 27 12 28 13 29 14 30 15 31 16 32 17 33 18 34 79 35
REMARK SMILES IDX 19 36 78 37 20 38 21 39 22 40 72 41 23 42 77 43 71 44 73 45
REMARK SMILES IDX 24 46 76 47 70 48 69 49 25 51 57 52 37 53 56 54 38 55 41 56
REMARK SMILES IDX 55 57 74 58 39 59 40 60 54 62 75 63 42 64 26 65 27 66 35 67
REMARK SMILES IDX 28 68 29 69 33 70 36 71 30 72 31 73 34 74 32 75 58 76 59 77
REMARK SMILES IDX 67 78 60 79 61 80 65 81 68 82 62 83 63 84 66 85 64 86 43 87
REMARK SMILES IDX 44 88 52 89 45 90 46 91 50 92 53 93 47 94 48 95 51 96 49 97
REMARK H PARENT 91 21 91 22 73 50 41 61
REMARK Flexibility Score: inf
ROOT
ATOM      1  C   UNL A   1      43.847  19.828  24.866  1.00  0.00     0.188 C 
ENDROOT
BRANCH   1   2
ATOM      2  O   UNL A   1      43.538  21.209  24.962  1.00  0.00    -0.376 OA
BRANCH   2   3
ATOM      3  C   UNL A   1      44.493  22.096  25.535  1.00  0.00     0.202 C 
BRANCH   3   4
ATOM      4  C   UNL A   1      44.377  22.519  27.015  1.00  0.00     0.261 C 
BRANCH   4   5
ATOM      5  O   UNL A   1      44.624  23.916  27.331  1.00  0.00    -0.463 OA
BRANCH   5   6
ATOM      6  C   UNL A   1      45.821  24.407  26.928  1.00  0.00     0.313 C 
ATOM      7  O   UNL A   1      46.889  23.841  27.158  1.00  0.00    -0.252 OA
BRANCH   6   8
ATOM      8  C   UNL A   1      45.797  25.715  26.128  1.00  0.00     0.084 C 
ATOM      9  C   UNL A   1      46.830  25.552  25.002  1.00  0.00     0.026 C 
ATOM     10  C   UNL A   1      44.357  25.826  25.571  1.00  0.00     0.042 C 
ATOM     11  C   UNL A   1      46.032  27.090  26.809  1.00  0.00     0.136 C 
ATOM     12  C   UNL A   1      44.107  27.302  25.342  1.00  0.00     0.119 C 
ATOM     13  N   UNL A   1      44.915  27.938  26.366  1.00  0.00    -0.355 N 
BRANCH  13  14
ATOM     14  C   UNL A   1      44.756  29.290  26.552  1.00  0.00     0.131 A 
ATOM     15  C   UNL A   1      43.568  29.833  27.025  1.00  0.00     0.054 A 
ATOM     16  N   UNL A   1      45.819  30.098  26.297  1.00  0.00    -0.207 NA
ATOM     17  C   UNL A   1      43.473  31.206  27.253  1.00  0.00     0.093 A 
ATOM     18  C   UNL A   1      45.728  31.442  26.469  1.00  0.00     0.204 A 
ATOM     19  C   UNL A   1      44.567  32.025  26.962  1.00  0.00     0.311 A 
BRANCH  18  20
ATOM     20  N   UNL A   1      46.896  32.130  26.207  1.00  0.00    -0.378 N 
ATOM     21  H   UNL A   1      47.703  31.641  25.927  1.00  0.00     0.158 HD
ATOM     22  H   UNL A   1      46.922  33.110  26.301  1.00  0.00     0.158 HD
ENDBRANCH  18  20
BRANCH  19  23
ATOM     23  N   UNL A   1      44.447  33.468  27.163  1.00  0.00     0.066 N 
ATOM     24  O   UNL A   1      43.763  33.855  28.123  1.00  0.00    -0.258 OA
ATOM     25  O   UNL A   1      44.997  34.230  26.353  1.00  0.00    -0.258 OA
ENDBRANCH  19  23
ENDBRANCH  13  14
ENDBRANCH   6   8
ENDBRANCH   5   6
ENDBRANCH   4   5
ENDBRANCH   3   4
ENDBRANCH   2   3
ENDBRANCH   1   2
BRANCH   1  26
ATOM     26  C   UNL A   1      43.221  18.857  25.874  1.00  0.00     0.188 C 
BRANCH  26  27
ATOM     27  O   UNL A   1      41.924  19.195  26.302  1.00  0.00    -0.376 OA
BRANCH  27  28
ATOM     28  C   UNL A   1      41.777  19.946  27.496  1.00  0.00     0.202 C 
BRANCH  28  29
ATOM     29  C   UNL A   1      40.778  21.118  27.577  1.00  0.00     0.261 C 
BRANCH  29  30
ATOM     30  O   UNL A   1      40.790  22.066  26.497  1.00  0.00    -0.460 OA
BRANCH  30  31
ATOM     31  C   UNL A   1      39.642  22.736  26.241  1.00  0.00     0.338 C 
ATOM     32  O   UNL A   1      38.618  22.279  25.757  1.00  0.00    -0.246 OA
BRANCH  31  33
ATOM     33  C   UNL A   1      39.756  24.070  26.879  1.00  0.00     0.060 A 
ATOM     34  C   UNL A   1      40.483  25.080  26.229  1.00  0.00     0.016 A 
ATOM     35  C   UNL A   1      39.118  24.334  28.093  1.00  0.00     0.016 A 
ATOM     36  C   UNL A   1      40.598  26.346  26.807  1.00  0.00     0.010 A 
ATOM     37  C   UNL A   1      39.258  25.594  28.685  1.00  0.00     0.010 A 
ATOM     38  C   UNL A   1      40.027  26.595  28.062  1.00  0.00    -0.014 A 
BRANCH  38  39
ATOM     39  C   UNL A   1      40.411  27.814  28.820  1.00  0.00     0.031 A 
ATOM     40  C   UNL A   1      41.809  27.891  29.375  1.00  0.00     0.074 A 
ATOM     41  C   UNL A   1      39.561  28.839  29.001  1.00  0.00     0.049 A 
ATOM     42  N   UNL A   1      42.367  28.820  30.109  1.00  0.00    -0.248 NA
ATOM     43  C   UNL A   1      42.695  26.758  29.060  1.00  0.00     0.031 C 
ATOM     44  C   UNL A   1      38.199  28.912  28.482  1.00  0.00     0.029 A 
ATOM     45  N   UNL A   1      39.724  30.019  29.688  1.00  0.00    -0.354 N 
ATOM     46  C   UNL A   1      43.664  28.382  30.346  1.00  0.00     0.074 A 
ATOM     47  C   UNL A   1      43.799  27.089  29.712  1.00  0.00     0.031 C 
ATOM     48  C   UNL A   1      37.644  30.071  28.877  1.00  0.00     0.029 A 
ATOM     49  C   UNL A   1      38.600  30.806  29.706  1.00  0.00     0.049 A 
ATOM     50  H   UNL A   1      40.568  30.275  30.125  1.00  0.00     0.167 HD
ATOM     51  C   UNL A   1      44.658  29.006  31.023  1.00  0.00     0.037 A 
ATOM     52  C   UNL A   1      38.367  31.974  30.339  1.00  0.00     0.037 A 
ATOM     53  C   UNL A   1      44.524  30.288  31.660  1.00  0.00     0.049 A 
ATOM     54  C   UNL A   1      39.465  32.609  31.158  1.00  0.00     0.074 A 
ATOM     55  C   UNL A   1      45.477  31.008  32.360  1.00  0.00     0.029 A 
ATOM     56  N   UNL A   1      43.358  31.040  31.687  1.00  0.00    -0.354 N 
ATOM     57  N   UNL A   1      40.696  32.205  31.356  1.00  0.00    -0.248 NA
ATOM     58  C   UNL A   1      39.137  33.872  31.838  1.00  0.00     0.031 C 
ATOM     59  C   UNL A   1      44.871  32.164  32.863  1.00  0.00     0.029 A 
ATOM     60  C   UNL A   1      43.561  32.201  32.416  1.00  0.00     0.049 A 
ATOM     61  H   UNL A   1      42.512  30.785  31.252  1.00  0.00     0.167 HD
ATOM     62  C   UNL A   1      41.299  33.176  32.149  1.00  0.00     0.074 A 
ATOM     63  C   UNL A   1      40.300  34.198  32.383  1.00  0.00     0.031 C 
ATOM     64  C   UNL A   1      42.564  33.219  32.636  1.00  0.00     0.037 A 
BRANCH  51  65
ATOM     65  C   UNL A   1      45.974  28.289  31.134  1.00  0.00     0.064 A 
ATOM     66  C   UNL A   1      47.034  28.545  30.249  1.00  0.00     0.173 A 
ATOM     67  C   UNL A   1      46.188  27.355  32.159  1.00  0.00     0.173 A 
ATOM     68  F   UNL A   1      46.878  29.417  29.242  1.00  0.00    -0.203 F 
ATOM     69  C   UNL A   1      48.246  27.869  30.369  1.00  0.00     0.198 A 
ATOM     70  C   UNL A   1      47.412  26.708  32.297  1.00  0.00     0.198 A 
ATOM     71  F   UNL A   1      45.210  27.075  33.034  1.00  0.00    -0.203 F 
ATOM     72  F   UNL A   1      49.224  28.088  29.480  1.00  0.00    -0.200 F 
ATOM     73  C   UNL A   1      48.437  26.958  31.397  1.00  0.00     0.200 A 
ATOM     74  F   UNL A   1      47.599  25.838  33.300  1.00  0.00    -0.200 F 
ATOM     75  F   UNL A   1      49.606  26.315  31.517  1.00  0.00    -0.200 F 
ENDBRANCH  51  65
BRANCH  52  76
ATOM     76  C   UNL A   1      37.032  32.627  30.237  1.00  0.00     0.064 A 
ATOM     77  C   UNL A   1      36.054  32.433  31.224  1.00  0.00     0.173 A 
ATOM     78  C   UNL A   1      36.694  33.424  29.133  1.00  0.00     0.173 A 
ATOM     79  F   UNL A   1      36.316  31.655  32.283  1.00  0.00    -0.203 F 
ATOM     80  C   UNL A   1      34.782  32.991  31.097  1.00  0.00     0.198 A 
ATOM     81  C   UNL A   1      35.434  34.008  29.026  1.00  0.00     0.198 A 
ATOM     82  F   UNL A   1      37.589  33.636  28.158  1.00  0.00    -0.203 F 
ATOM     83  F   UNL A   1      33.849  32.740  32.025  1.00  0.00    -0.200 F 
ATOM     84  C   UNL A   1      34.475  33.783  30.002  1.00  0.00     0.200 A 
ATOM     85  F   UNL A   1      35.144  34.781  27.970  1.00  0.00    -0.200 F 
ATOM     86  F   UNL A   1      33.254  34.319  29.880  1.00  0.00    -0.200 F 
ENDBRANCH  52  76
BRANCH  64  87
ATOM     87  C   UNL A   1      42.964  34.434  33.428  1.00  0.00     0.064 A 
ATOM     88  C   UNL A   1      42.881  34.471  34.828  1.00  0.00     0.173 A 
ATOM     89  C   UNL A   1      43.470  35.569  32.774  1.00  0.00     0.173 A 
ATOM     90  F   UNL A   1      42.396  33.419  35.504  1.00  0.00    -0.203 F 
ATOM     91  C   UNL A   1      43.254  35.610  35.539  1.00  0.00     0.198 A 
ATOM     92  C   UNL A   1      43.877  36.691  33.491  1.00  0.00     0.198 A 
ATOM     93  F   UNL A   1      43.583  35.586  31.437  1.00  0.00    -0.203 F 
ATOM     94  F   UNL A   1      43.108  35.643  36.871  1.00  0.00    -0.200 F 
ATOM     95  C   UNL A   1      43.758  36.715  34.871  1.00  0.00     0.200 A 
ATOM     96  F   UNL A   1      44.382  37.751  32.843  1.00  0.00    -0.200 F 
ATOM     97  F   UNL A   1      44.121  37.808  35.558  1.00  0.00    -0.200 F 
ENDBRANCH  64  87
ENDBRANCH  38  39
ENDBRANCH  31  33
ENDBRANCH  30  31
ENDBRANCH  29  30
ENDBRANCH  28  29
ENDBRANCH  27  28
ENDBRANCH  26  27
ENDBRANCH   1  26
TORSDOF 20
ENDMDL
MODEL 3
REMARK VINA RESULT:     -10.2      4.878      9.471
REMARK SMILES C[C@]1(C(=O)OCCOCCOCCOC(=O)c2ccc(-c3c4nc(c(-c5c(F)c(F)c(F)c(F)c5F)c5ccc([nH]5)c(-c5c(F)c(F)c(F)c(F)c5F)c5nc(c(-c6c(F)c(F)c(F)c(F)c6F)c6ccc3[nH]6)C=C5)C=C4)cc2)CCN(c2ccc([N+](=O)[O-])c(N)n2)C1
REMARK SMILES IDX 9 1 8 2 7 3 6 4 5 5 3 6 4 7 2 8 1 9 80 10 93 11 81 12 82 13
REMARK SMILES IDX 83 14 84 15 92 16 85 17 90 18 86 19 91 20 87 23 88 24 89 25
REMARK SMILES IDX 10 26 11 27 12 28 13 29 14 30 15 31 16 32 17 33 18 34 79 35
REMARK SMILES IDX 19 36 78 37 20 38 21 39 22 40 72 41 23 42 77 43 71 44 73 45
REMARK SMILES IDX 24 46 76 47 70 48 69 49 25 51 57 52 37 53 56 54 38 55 41 56
REMARK SMILES IDX 55 57 74 58 39 59 40 60 54 62 75 63 42 64 26 65 27 66 35 67
REMARK SMILES IDX 28 68 29 69 33 70 36 71 30 72 31 73 34 74 32 75 58 76 59 77
REMARK SMILES IDX 67 78 60 79 61 80 65 81 68 82 62 83 63 84 66 85 64 86 43 87
REMARK SMILES IDX 44 88 52 89 45 90 46 91 50 92 53 93 47 94 48 95 51 96 49 97
REMARK H PARENT 91 21 91 22 73 50 41 61
REMARK Flexibility Score: inf
ROOT
ATOM      1  C   UNL A   1      40.018  21.521  26.857  1.00  0.00     0.188 C 
ENDROOT
BRANCH   1   2
ATOM      2  O   UNL A   1      39.480  22.793  26.532  1.00  0.00    -0.376 OA
BRANCH   2   3
ATOM      3  C   UNL A   1      38.170  22.874  25.982  1.00  0.00     0.202 C 
BRANCH   3   4
ATOM      4  C   UNL A   1      37.601  21.707  25.145  1.00  0.00     0.261 C 
BRANCH   4   5
ATOM      5  O   UNL A   1      36.365  21.948  24.419  1.00  0.00    -0.463 OA
BRANCH   5   6
ATOM      6  C   UNL A   1      35.341  21.110  24.708  1.00  0.00     0.313 C 
ATOM      7  O   UNL A   1      35.499  19.911  24.936  1.00  0.00    -0.252 OA
BRANCH   6   8
ATOM      8  C   UNL A   1      33.939  21.730  24.773  1.00  0.00     0.084 C 
ATOM      9  C   UNL A   1      32.946  20.558  24.717  1.00  0.00     0.026 C 
ATOM     10  C   UNL A   1      33.880  22.464  26.134  1.00  0.00     0.042 C 
ATOM     11  C   UNL A   1      33.478  22.807  23.755  1.00  0.00     0.136 C 
ATOM     12  C   UNL A   1      32.843  23.558  25.977  1.00  0.00     0.119 C 
ATOM     13  N   UNL A   1      32.937  23.905  24.571  1.00  0.00    -0.355 N 
BRANCH  13  14
ATOM     14  C   UNL A   1      32.249  25.014  24.144  1.00  0.00     0.131 A 
ATOM     15  C   UNL A   1      32.891  26.097  23.555  1.00  0.00     0.054 A 
ATOM     16  N   UNL A   1      30.896  25.015  24.274  1.00  0.00    -0.207 NA
ATOM     17  C   UNL A   1      32.145  27.177  23.084  1.00  0.00     0.093 A 
ATOM     18  C   UNL A   1      30.159  26.079  23.861  1.00  0.00     0.204 A 
ATOM     19  C   UNL A   1      30.758  27.173  23.247  1.00  0.00     0.311 A 
BRANCH  18  20
ATOM     20  N   UNL A   1      28.796  25.923  24.022  1.00  0.00    -0.378 N 
ATOM     21  H   UNL A   1      28.416  25.814  24.923  1.00  0.00     0.158 HD
ATOM     22  H   UNL A   1      28.205  25.923  23.234  1.00  0.00     0.158 HD
ENDBRANCH  18  20
BRANCH  19  23
ATOM     23  N   UNL A   1      29.985  28.326  22.790  1.00  0.00     0.066 N 
ATOM     24  O   UNL A   1      29.108  28.762  23.550  1.00  0.00    -0.258 OA
ATOM     25  O   UNL A   1      30.215  28.788  21.661  1.00  0.00    -0.258 OA
ENDBRANCH  19  23
ENDBRANCH  13  14
ENDBRANCH   6   8
ENDBRANCH   5   6
ENDBRANCH   4   5
ENDBRANCH   3   4
ENDBRANCH   2   3
ENDBRANCH   1   2
BRANCH   1  26
ATOM     26  C   UNL A   1      41.537  21.322  26.794  1.00  0.00     0.188 C 
BRANCH  26  27
ATOM     27  O   UNL A   1      42.244  22.326  26.106  1.00  0.00    -0.376 OA
BRANCH  27  28
ATOM     28  C   UNL A   1      43.300  21.943  25.242  1.00  0.00     0.202 C 
BRANCH  28  29
ATOM     29  C   UNL A   1      44.282  22.990  24.679  1.00  0.00     0.261 C 
BRANCH  29  30
ATOM     30  O   UNL A   1      43.841  24.357  24.653  1.00  0.00    -0.460 OA
BRANCH  30  31
ATOM     31  C   UNL A   1      44.665  25.290  25.181  1.00  0.00     0.338 C 
ATOM     32  O   UNL A   1      45.753  25.639  24.747  1.00  0.00    -0.246 OA
BRANCH  31  33
ATOM     33  C   UNL A   1      43.910  25.998  26.244  1.00  0.00     0.060 A 
ATOM     34  C   UNL A   1      44.085  27.382  26.402  1.00  0.00     0.016 A 
ATOM     35  C   UNL A   1      43.008  25.307  27.055  1.00  0.00     0.016 A 
ATOM     36  C   UNL A   1      43.379  28.071  27.391  1.00  0.00     0.010 A 
ATOM     37  C   UNL A   1      42.323  25.992  28.064  1.00  0.00     0.010 A 
ATOM     38  C   UNL A   1      42.532  27.371  28.260  1.00  0.00    -0.014 A 
BRANCH  38  39
ATOM     39  C   UNL A   1      42.037  28.027  29.498  1.00  0.00     0.031 A 
ATOM     40  C   UNL A   1      40.741  28.790  29.425  1.00  0.00     0.074 A 
ATOM     41  C   UNL A   1      42.698  27.939  30.665  1.00  0.00     0.049 A 
ATOM     42  N   UNL A   1      40.128  29.487  30.348  1.00  0.00    -0.248 NA
ATOM     43  C   UNL A   1      40.047  28.766  28.127  1.00  0.00     0.031 C 
ATOM     44  C   UNL A   1      43.936  27.198  30.883  1.00  0.00     0.029 A 
ATOM     45  N   UNL A   1      42.415  28.494  31.891  1.00  0.00    -0.354 N 
ATOM     46  C   UNL A   1      38.982  29.986  29.742  1.00  0.00     0.074 A 
ATOM     47  C   UNL A   1      39.003  29.546  28.364  1.00  0.00     0.031 C 
ATOM     48  C   UNL A   1      44.315  27.352  32.165  1.00  0.00     0.029 A 
ATOM     49  C   UNL A   1      43.364  28.230  32.847  1.00  0.00     0.049 A 
ATOM     50  H   UNL A   1      41.608  29.028  32.066  1.00  0.00     0.167 HD
ATOM     51  C   UNL A   1      37.993  30.735  30.287  1.00  0.00     0.037 A 
ATOM     52  C   UNL A   1      43.462  28.668  34.118  1.00  0.00     0.037 A 
ATOM     53  C   UNL A   1      37.974  31.180  31.655  1.00  0.00     0.049 A 
ATOM     54  C   UNL A   1      42.391  29.573  34.679  1.00  0.00     0.074 A 
ATOM     55  C   UNL A   1      37.011  31.934  32.303  1.00  0.00     0.029 A 
ATOM     56  N   UNL A   1      38.972  30.923  32.584  1.00  0.00    -0.354 N 
ATOM     57  N   UNL A   1      41.297  30.019  34.110  1.00  0.00    -0.248 NA
ATOM     58  C   UNL A   1      42.569  30.031  36.065  1.00  0.00     0.031 C 
ATOM     59  C   UNL A   1      37.455  32.186  33.605  1.00  0.00     0.029 A 
ATOM     60  C   UNL A   1      38.660  31.528  33.791  1.00  0.00     0.049 A 
ATOM     61  H   UNL A   1      39.780  30.390  32.410  1.00  0.00     0.167 HD
ATOM     62  C   UNL A   1      40.641  30.775  35.076  1.00  0.00     0.074 A 
ATOM     63  C   UNL A   1      41.454  30.715  36.272  1.00  0.00     0.031 C 
ATOM     64  C   UNL A   1      39.470  31.455  34.981  1.00  0.00     0.037 A 
BRANCH  51  65
ATOM     65  C   UNL A   1      36.863  31.148  29.387  1.00  0.00     0.064 A 
ATOM     66  C   UNL A   1      35.858  30.248  29.001  1.00  0.00     0.173 A 
ATOM     67  C   UNL A   1      36.769  32.471  28.930  1.00  0.00     0.173 A 
ATOM     68  F   UNL A   1      35.908  28.967  29.397  1.00  0.00    -0.203 F 
ATOM     69  C   UNL A   1      34.818  30.650  28.165  1.00  0.00     0.198 A 
ATOM     70  C   UNL A   1      35.710  32.878  28.123  1.00  0.00     0.198 A 
ATOM     71  F   UNL A   1      37.701  33.373  29.271  1.00  0.00    -0.203 F 
ATOM     72  F   UNL A   1      33.900  29.761  27.764  1.00  0.00    -0.200 F 
ATOM     73  C   UNL A   1      34.741  31.966  27.735  1.00  0.00     0.200 A 
ATOM     74  F   UNL A   1      35.628  34.154  27.720  1.00  0.00    -0.200 F 
ATOM     75  F   UNL A   1      33.735  32.355  26.938  1.00  0.00    -0.200 F 
ENDBRANCH  51  65
BRANCH  52  76
ATOM     76  C   UNL A   1      44.624  28.270  34.960  1.00  0.00     0.064 A 
ATOM     77  C   UNL A   1      45.778  29.064  35.025  1.00  0.00     0.173 A 
ATOM     78  C   UNL A   1      44.620  27.068  35.684  1.00  0.00     0.173 A 
ATOM     79  F   UNL A   1      45.845  30.207  34.327  1.00  0.00    -0.203 F 
ATOM     80  C   UNL A   1      46.891  28.660  35.761  1.00  0.00     0.198 A 
ATOM     81  C   UNL A   1      45.720  26.682  36.447  1.00  0.00     0.198 A 
ATOM     82  F   UNL A   1      43.545  26.268  35.651  1.00  0.00    -0.203 F 
ATOM     83  F   UNL A   1      48.002  29.409  35.757  1.00  0.00    -0.200 F 
ATOM     84  C   UNL A   1      46.859  27.473  36.477  1.00  0.00     0.200 A 
ATOM     85  F   UNL A   1      45.682  25.539  37.144  1.00  0.00    -0.200 F 
ATOM     86  F   UNL A   1      47.929  27.085  37.183  1.00  0.00    -0.200 F 
ENDBRANCH  52  76
BRANCH  64  87
ATOM     87  C   UNL A   1      38.966  32.148  36.218  1.00  0.00     0.064 A 
ATOM     88  C   UNL A   1      38.119  31.511  37.136  1.00  0.00     0.173 A 
ATOM     89  C   UNL A   1      39.367  33.463  36.505  1.00  0.00     0.173 A 
ATOM     90  F   UNL A   1      37.696  30.258  36.909  1.00  0.00    -0.203 F 
ATOM     91  C   UNL A   1      37.663  32.175  38.273  1.00  0.00     0.198 A 
ATOM     92  C   UNL A   1      38.940  34.110  37.661  1.00  0.00     0.198 A 
ATOM     93  F   UNL A   1      40.187  34.118  35.668  1.00  0.00    -0.203 F 
ATOM     94  F   UNL A   1      36.805  31.565  39.104  1.00  0.00    -0.200 F 
ATOM     95  C   UNL A   1      38.079  33.470  38.538  1.00  0.00     0.200 A 
ATOM     96  F   UNL A   1      39.360  35.356  37.923  1.00  0.00    -0.200 F 
ATOM     97  F   UNL A   1      37.643  34.106  39.634  1.00  0.00    -0.200 F 
ENDBRANCH  64  87
ENDBRANCH  38  39
ENDBRANCH  31  33
ENDBRANCH  30  31
ENDBRANCH  29  30
ENDBRANCH  28  29
ENDBRANCH  27  28
ENDBRANCH  26  27
ENDBRANCH   1  26
TORSDOF 20
ENDMDL
