MODEL 1
REMARK VINA RESULT:     -11.1      0.000      0.000
REMARK SMILES C[NH+]1CC[NH+]([C@]2(C(=O)OCCOCCOCCOC(=O)c3ccc(-c4c5nc(c(-c6c(F)c(F)c(F)c(F)c6F)c6ccc([nH]6)c(-c6c(F)c(F)c(F)c(F)c6F)c6nc(c(-c7c(F)c(F)c(F)c(F)c7F)c7ccc4[nH]7)C=C6)C=C5)cc3)CCCC2(C)C)CC1
REMARK SMILES IDX 14 1 13 2 12 3 11 4 10 5 9 6 7 7 8 8 6 9 84 10 87 11 85 12
REMARK SMILES IDX 86 13 88 14 89 15 5 16 1 17 2 18 3 19 91 20 4 22 90 23 15 25
REMARK SMILES IDX 16 26 17 27 18 28 19 29 20 30 21 31 22 32 83 33 23 34 82 35
REMARK SMILES IDX 24 36 25 37 26 38 76 39 27 40 81 41 75 42 77 43 28 44 80 45
REMARK SMILES IDX 74 46 73 47 29 49 61 50 41 51 60 52 42 53 45 54 59 55 78 56
REMARK SMILES IDX 43 57 44 58 58 60 79 61 46 62 30 63 31 64 39 65 32 66 33 67
REMARK SMILES IDX 37 68 40 69 34 70 35 71 38 72 36 73 62 74 63 75 71 76 64 77
REMARK SMILES IDX 65 78 69 79 72 80 66 81 67 82 70 83 68 84 47 85 48 86 56 87
REMARK SMILES IDX 49 88 50 89 54 90 57 91 51 92 52 93 55 94 53 95
REMARK H PARENT 2 21 5 24 77 48 45 59
REMARK Flexibility Score: inf
ROOT
ATOM      1  C   UNL A   1      30.551  29.281  23.829  1.00  0.00     0.188 C 
ENDROOT
BRANCH   1   2
ATOM      2  C   UNL A   1      30.564  28.692  22.405  1.00  0.00     0.188 C 
BRANCH   2   3
ATOM      3  O   UNL A   1      30.643  27.281  22.233  1.00  0.00    -0.376 OA
BRANCH   3   4
ATOM      4  C   UNL A   1      31.831  26.733  21.676  1.00  0.00     0.202 C 
BRANCH   4   5
ATOM      5  C   UNL A   1      33.064  26.632  22.589  1.00  0.00     0.261 C 
BRANCH   5   6
ATOM      6  O   UNL A   1      32.947  25.669  23.664  1.00  0.00    -0.459 OA
BRANCH   6   7
ATOM      7  C   UNL A   1      33.639  24.512  23.519  1.00  0.00     0.368 C 
ATOM      8  O   UNL A   1      34.246  24.256  22.479  1.00  0.00    -0.245 OA
BRANCH   7   9
ATOM      9  C   UNL A   1      33.539  23.473  24.775  1.00  0.00     0.201 C 
ATOM     10  C   UNL A   1      33.213  24.089  26.179  1.00  0.00     0.082 C 
ATOM     11  C   UNL A   1      32.246  22.543  24.499  1.00  0.00     0.031 C 
ATOM     12  C   UNL A   1      31.813  23.665  26.603  1.00  0.00     0.008 C 
ATOM     13  C   UNL A   1      31.126  23.221  25.333  1.00  0.00     0.014 C 
ATOM     14  C   UNL A   1      31.784  22.480  23.029  1.00  0.00     0.018 C 
ATOM     15  C   UNL A   1      32.322  21.088  24.992  1.00  0.00     0.018 C 
BRANCH   9  16
ATOM     16  N   UNL A   1      34.955  22.933  24.826  1.00  0.00    -0.311 N 
ATOM     17  C   UNL A   1      38.945  21.778  26.079  1.00  0.00     0.333 C 
ATOM     18  N   UNL A   1      37.550  22.204  26.105  1.00  0.00    -0.328 N 
ATOM     19  C   UNL A   1      36.688  21.199  25.462  1.00  0.00     0.324 C 
ATOM     20  C   UNL A   1      37.377  23.477  25.390  1.00  0.00     0.324 C 
ATOM     21  H   UNL A   1      37.287  22.315  27.084  1.00  0.00     0.348 HD
ATOM     22  C   UNL A   1      35.195  21.617  25.432  1.00  0.00     0.325 C 
ATOM     23  C   UNL A   1      35.904  23.919  25.442  1.00  0.00     0.325 C 
ATOM     24  H   UNL A   1      35.129  22.784  23.831  1.00  0.00     0.349 HD
ENDBRANCH   9  16
ENDBRANCH   7   9
ENDBRANCH   6   7
ENDBRANCH   5   6
ENDBRANCH   4   5
ENDBRANCH   3   4
ENDBRANCH   2   3
ENDBRANCH   1   2
BRANCH   1  25
ATOM     25  O   UNL A   1      30.938  28.354  24.819  1.00  0.00    -0.376 OA
BRANCH  25  26
ATOM     26  C   UNL A   1      32.073  28.702  25.582  1.00  0.00     0.202 C 
BRANCH  26  27
ATOM     27  C   UNL A   1      32.175  30.209  25.851  1.00  0.00     0.261 C 
BRANCH  27  28
ATOM     28  O   UNL A   1      32.541  30.587  27.195  1.00  0.00    -0.460 OA
BRANCH  28  29
ATOM     29  C   UNL A   1      33.282  31.707  27.350  1.00  0.00     0.338 C 
ATOM     30  O   UNL A   1      32.893  32.862  27.237  1.00  0.00    -0.246 OA
BRANCH  29  31
ATOM     31  C   UNL A   1      34.606  31.323  27.899  1.00  0.00     0.060 A 
ATOM     32  C   UNL A   1      34.851  29.985  28.246  1.00  0.00     0.016 A 
ATOM     33  C   UNL A   1      35.603  32.283  28.080  1.00  0.00     0.016 A 
ATOM     34  C   UNL A   1      36.077  29.614  28.811  1.00  0.00     0.010 A 
ATOM     35  C   UNL A   1      36.820  31.915  28.662  1.00  0.00     0.010 A 
ATOM     36  C   UNL A   1      37.055  30.586  29.063  1.00  0.00    -0.014 A 
BRANCH  36  37
ATOM     37  C   UNL A   1      38.242  30.273  29.903  1.00  0.00     0.031 A 
ATOM     38  C   UNL A   1      39.268  29.311  29.366  1.00  0.00     0.074 A 
ATOM     39  C   UNL A   1      38.410  30.809  31.125  1.00  0.00     0.049 A 
ATOM     40  N   UNL A   1      40.318  28.793  29.952  1.00  0.00    -0.248 NA
ATOM     41  C   UNL A   1      39.078  28.872  27.974  1.00  0.00     0.031 C 
ATOM     42  C   UNL A   1      37.526  31.790  31.748  1.00  0.00     0.029 A 
ATOM     43  N   UNL A   1      39.384  30.584  32.070  1.00  0.00    -0.354 N 
ATOM     44  C   UNL A   1      40.903  27.958  29.007  1.00  0.00     0.074 A 
ATOM     45  C   UNL A   1      40.078  28.017  27.821  1.00  0.00     0.031 C 
ATOM     46  C   UNL A   1      37.987  32.070  32.980  1.00  0.00     0.029 A 
ATOM     47  C   UNL A   1      39.172  31.255  33.249  1.00  0.00     0.049 A 
ATOM     48  H   UNL A   1      40.159  29.997  31.915  1.00  0.00     0.167 HD
ATOM     49  C   UNL A   1      42.029  27.212  29.118  1.00  0.00     0.037 A 
ATOM     50  C   UNL A   1      39.838  31.193  34.421  1.00  0.00     0.037 A 
ATOM     51  C   UNL A   1      42.850  27.149  30.299  1.00  0.00     0.049 A 
ATOM     52  C   UNL A   1      41.037  30.284  34.550  1.00  0.00     0.074 A 
ATOM     53  C   UNL A   1      44.018  26.433  30.501  1.00  0.00     0.029 A 
ATOM     54  N   UNL A   1      42.584  27.820  31.484  1.00  0.00    -0.354 N 
ATOM     55  N   UNL A   1      41.595  29.509  33.650  1.00  0.00    -0.248 NA
ATOM     56  C   UNL A   1      41.701  30.242  35.863  1.00  0.00     0.031 C 
ATOM     57  C   UNL A   1      44.422  26.619  31.826  1.00  0.00     0.029 A 
ATOM     58  C   UNL A   1      43.548  27.508  32.429  1.00  0.00     0.049 A 
ATOM     59  H   UNL A   1      41.824  28.427  31.631  1.00  0.00     0.167 HD
ATOM     60  C   UNL A   1      42.689  28.920  34.275  1.00  0.00     0.074 A 
ATOM     61  C   UNL A   1      42.724  29.434  35.626  1.00  0.00     0.031 C 
ATOM     62  C   UNL A   1      43.585  28.035  33.771  1.00  0.00     0.037 A 
BRANCH  49  63
ATOM     63  C   UNL A   1      42.422  26.370  27.937  1.00  0.00     0.064 A 
ATOM     64  C   UNL A   1      41.905  25.079  27.744  1.00  0.00     0.173 A 
ATOM     65  C   UNL A   1      43.304  26.874  26.971  1.00  0.00     0.173 A 
ATOM     66  F   UNL A   1      41.069  24.543  28.645  1.00  0.00    -0.203 F 
ATOM     67  C   UNL A   1      42.283  24.315  26.642  1.00  0.00     0.198 A 
ATOM     68  C   UNL A   1      43.652  26.121  25.853  1.00  0.00     0.198 A 
ATOM     69  F   UNL A   1      43.824  28.104  27.103  1.00  0.00    -0.203 F 
ATOM     70  F   UNL A   1      41.819  23.065  26.505  1.00  0.00    -0.200 F 
ATOM     71  C   UNL A   1      43.148  24.839  25.693  1.00  0.00     0.200 A 
ATOM     72  F   UNL A   1      44.476  26.635  24.930  1.00  0.00    -0.200 F 
ATOM     73  F   UNL A   1      43.504  24.105  24.630  1.00  0.00    -0.200 F 
ENDBRANCH  49  63
BRANCH  50  74
ATOM     74  C   UNL A   1      39.377  31.996  35.586  1.00  0.00     0.064 A 
ATOM     75  C   UNL A   1      38.469  31.470  36.516  1.00  0.00     0.173 A 
ATOM     76  C   UNL A   1      39.802  33.320  35.771  1.00  0.00     0.173 A 
ATOM     77  F   UNL A   1      38.005  30.220  36.365  1.00  0.00    -0.203 F 
ATOM     78  C   UNL A   1      37.989  32.242  37.573  1.00  0.00     0.198 A 
ATOM     79  C   UNL A   1      39.348  34.081  36.847  1.00  0.00     0.198 A 
ATOM     80  F   UNL A   1      40.662  33.878  34.906  1.00  0.00    -0.203 F 
ATOM     81  F   UNL A   1      37.078  31.732  38.412  1.00  0.00    -0.200 F 
ATOM     82  C   UNL A   1      38.434  33.544  37.742  1.00  0.00     0.200 A 
ATOM     83  F   UNL A   1      39.787  35.336  37.011  1.00  0.00    -0.200 F 
ATOM     84  F   UNL A   1      37.972  34.287  38.757  1.00  0.00    -0.200 F 
ENDBRANCH  50  74
BRANCH  62  85
ATOM     85  C   UNL A   1      44.716  27.600  34.662  1.00  0.00     0.064 A 
ATOM     86  C   UNL A   1      45.917  28.321  34.746  1.00  0.00     0.173 A 
ATOM     87  C   UNL A   1      44.576  26.467  35.482  1.00  0.00     0.173 A 
ATOM     88  F   UNL A   1      46.110  29.403  33.978  1.00  0.00    -0.203 F 
ATOM     89  C   UNL A   1      46.943  27.908  35.593  1.00  0.00     0.198 A 
ATOM     90  C   UNL A   1      45.590  26.080  36.353  1.00  0.00     0.198 A 
ATOM     91  F   UNL A   1      43.446  25.746  35.450  1.00  0.00    -0.203 F 
ATOM     92  F   UNL A   1      48.101  28.584  35.618  1.00  0.00    -0.200 F 
ATOM     93  C   UNL A   1      46.776  26.795  36.402  1.00  0.00     0.200 A 
ATOM     94  F   UNL A   1      45.417  25.013  37.147  1.00  0.00    -0.200 F 
ATOM     95  F   UNL A   1      47.761  26.406  37.225  1.00  0.00    -0.200 F 
ENDBRANCH  62  85
ENDBRANCH  36  37
ENDBRANCH  29  31
ENDBRANCH  28  29
ENDBRANCH  27  28
ENDBRANCH  26  27
ENDBRANCH  25  26
ENDBRANCH   1  25
TORSDOF 18
ENDMDL
MODEL 2
REMARK VINA RESULT:     -10.9      2.846      7.700
REMARK SMILES C[NH+]1CC[NH+]([C@]2(C(=O)OCCOCCOCCOC(=O)c3ccc(-c4c5nc(c(-c6c(F)c(F)c(F)c(F)c6F)c6ccc([nH]6)c(-c6c(F)c(F)c(F)c(F)c6F)c6nc(c(-c7c(F)c(F)c(F)c(F)c7F)c7ccc4[nH]7)C=C6)C=C5)cc3)CCCC2(C)C)CC1
REMARK SMILES IDX 14 1 13 2 12 3 11 4 10 5 9 6 7 7 8 8 6 9 84 10 87 11 85 12
REMARK SMILES IDX 86 13 88 14 89 15 5 16 1 17 2 18 3 19 91 20 4 22 90 23 15 25
REMARK SMILES IDX 16 26 17 27 18 28 19 29 20 30 21 31 22 32 83 33 23 34 82 35
REMARK SMILES IDX 24 36 25 37 26 38 76 39 27 40 81 41 75 42 77 43 28 44 80 45
REMARK SMILES IDX 74 46 73 47 29 49 61 50 41 51 60 52 42 53 45 54 59 55 78 56
REMARK SMILES IDX 43 57 44 58 58 60 79 61 46 62 30 63 31 64 39 65 32 66 33 67
REMARK SMILES IDX 37 68 40 69 34 70 35 71 38 72 36 73 62 74 63 75 71 76 64 77
REMARK SMILES IDX 65 78 69 79 72 80 66 81 67 82 70 83 68 84 47 85 48 86 56 87
REMARK SMILES IDX 49 88 50 89 54 90 57 91 51 92 52 93 55 94 53 95
REMARK H PARENT 2 21 5 24 77 48 45 59
REMARK Flexibility Score: inf
ROOT
ATOM      1  C   UNL A   1      31.324  27.003  26.522  1.00  0.00     0.188 C 
ENDROOT
BRANCH   1   2
ATOM      2  C   UNL A   1      31.030  27.602  25.133  1.00  0.00     0.188 C 
BRANCH   2   3
ATOM      3  O   UNL A   1      31.251  26.810  23.970  1.00  0.00    -0.376 OA
BRANCH   3   4
ATOM      4  C   UNL A   1      32.337  27.148  23.118  1.00  0.00     0.202 C 
BRANCH   4   5
ATOM      5  C   UNL A   1      33.224  26.001  22.607  1.00  0.00     0.261 C 
BRANCH   5   6
ATOM      6  O   UNL A   1      32.742  24.673  22.924  1.00  0.00    -0.459 OA
BRANCH   6   7
ATOM      7  C   UNL A   1      33.683  23.706  23.070  1.00  0.00     0.368 C 
ATOM      8  O   UNL A   1      34.365  23.329  22.116  1.00  0.00    -0.245 OA
BRANCH   7   9
ATOM      9  C   UNL A   1      33.779  23.040  24.558  1.00  0.00     0.201 C 
ATOM     10  C   UNL A   1      33.300  23.924  25.761  1.00  0.00     0.082 C 
ATOM     11  C   UNL A   1      32.719  21.820  24.584  1.00  0.00     0.031 C 
ATOM     12  C   UNL A   1      32.013  23.342  26.332  1.00  0.00     0.008 C 
ATOM     13  C   UNL A   1      31.463  22.444  25.250  1.00  0.00     0.014 C 
ATOM     14  C   UNL A   1      32.312  21.274  23.200  1.00  0.00     0.018 C 
ATOM     15  C   UNL A   1      33.092  20.597  25.439  1.00  0.00     0.018 C 
BRANCH   9  16
ATOM     16  N   UNL A   1      35.276  22.843  24.697  1.00  0.00    -0.311 N 
ATOM     17  C   UNL A   1      39.274  22.137  26.229  1.00  0.00     0.333 C 
ATOM     18  N   UNL A   1      37.821  22.206  26.118  1.00  0.00    -0.328 N 
ATOM     19  C   UNL A   1      37.348  21.414  24.971  1.00  0.00     0.324 C 
ATOM     20  C   UNL A   1      37.374  23.594  25.929  1.00  0.00     0.324 C 
ATOM     21  H   UNL A   1      37.435  21.830  26.984  1.00  0.00     0.348 HD
ATOM     22  C   UNL A   1      35.810  21.479  24.787  1.00  0.00     0.325 C 
ATOM     23  C   UNL A   1      35.839  23.649  25.832  1.00  0.00     0.325 C 
ATOM     24  H   UNL A   1      35.589  23.173  23.784  1.00  0.00     0.349 HD
ENDBRANCH   9  16
ENDBRANCH   7   9
ENDBRANCH   6   7
ENDBRANCH   5   6
ENDBRANCH   4   5
ENDBRANCH   3   4
ENDBRANCH   2   3
ENDBRANCH   1   2
BRANCH   1  25
ATOM     25  O   UNL A   1      31.421  27.976  27.539  1.00  0.00    -0.376 OA
BRANCH  25  26
ATOM     26  C   UNL A   1      32.005  29.205  27.166  1.00  0.00     0.202 C 
BRANCH  26  27
ATOM     27  C   UNL A   1      33.534  29.203  27.289  1.00  0.00     0.261 C 
BRANCH  27  28
ATOM     28  O   UNL A   1      34.184  30.477  27.098  1.00  0.00    -0.460 OA
BRANCH  28  29
ATOM     29  C   UNL A   1      34.793  31.037  28.168  1.00  0.00     0.338 C 
ATOM     30  O   UNL A   1      34.320  31.877  28.921  1.00  0.00    -0.246 OA
BRANCH  29  31
ATOM     31  C   UNL A   1      36.060  30.309  28.422  1.00  0.00     0.060 A 
ATOM     32  C   UNL A   1      36.256  29.665  29.654  1.00  0.00     0.016 A 
ATOM     33  C   UNL A   1      37.061  30.269  27.449  1.00  0.00     0.016 A 
ATOM     34  C   UNL A   1      37.466  29.016  29.928  1.00  0.00     0.010 A 
ATOM     35  C   UNL A   1      38.276  29.636  27.732  1.00  0.00     0.010 A 
ATOM     36  C   UNL A   1      38.501  29.034  28.984  1.00  0.00    -0.014 A 
BRANCH  36  37
ATOM     37  C   UNL A   1      39.874  28.598  29.351  1.00  0.00     0.031 A 
ATOM     38  C   UNL A   1      40.713  29.509  30.206  1.00  0.00     0.074 A 
ATOM     39  C   UNL A   1      40.386  27.427  28.928  1.00  0.00     0.049 A 
ATOM     40  N   UNL A   1      41.970  29.406  30.558  1.00  0.00    -0.248 NA
ATOM     41  C   UNL A   1      40.037  30.704  30.735  1.00  0.00     0.031 C 
ATOM     42  C   UNL A   1      39.672  26.427  28.139  1.00  0.00     0.029 A 
ATOM     43  N   UNL A   1      41.643  26.895  29.091  1.00  0.00    -0.354 N 
ATOM     44  C   UNL A   1      42.238  30.528  31.333  1.00  0.00     0.074 A 
ATOM     45  C   UNL A   1      41.023  31.311  31.379  1.00  0.00     0.031 C 
ATOM     46  C   UNL A   1      40.508  25.408  27.871  1.00  0.00     0.029 A 
ATOM     47  C   UNL A   1      41.827  25.705  28.430  1.00  0.00     0.049 A 
ATOM     48  H   UNL A   1      42.345  27.325  29.631  1.00  0.00     0.167 HD
ATOM     49  C   UNL A   1      43.392  30.872  31.955  1.00  0.00     0.037 A 
ATOM     50  C   UNL A   1      42.939  24.959  28.268  1.00  0.00     0.037 A 
ATOM     51  C   UNL A   1      44.604  30.096  31.908  1.00  0.00     0.049 A 
ATOM     52  C   UNL A   1      44.238  25.410  28.894  1.00  0.00     0.074 A 
ATOM     53  C   UNL A   1      45.819  30.356  32.518  1.00  0.00     0.029 A 
ATOM     54  N   UNL A   1      44.758  28.912  31.202  1.00  0.00    -0.354 N 
ATOM     55  N   UNL A   1      44.481  26.461  29.638  1.00  0.00    -0.248 NA
ATOM     56  C   UNL A   1      45.419  24.565  28.654  1.00  0.00     0.031 C 
ATOM     57  C   UNL A   1      46.726  29.366  32.129  1.00  0.00     0.029 A 
ATOM     58  C   UNL A   1      46.057  28.449  31.335  1.00  0.00     0.049 A 
ATOM     59  H   UNL A   1      44.050  28.467  30.683  1.00  0.00     0.167 HD
ATOM     60  C   UNL A   1      45.827  26.386  29.983  1.00  0.00     0.074 A 
ATOM     61  C   UNL A   1      46.345  25.179  29.377  1.00  0.00     0.031 C 
ATOM     62  C   UNL A   1      46.564  27.237  30.738  1.00  0.00     0.037 A 
BRANCH  49  63
ATOM     63  C   UNL A   1      43.411  32.169  32.713  1.00  0.00     0.064 A 
ATOM     64  C   UNL A   1      43.066  32.239  34.072  1.00  0.00     0.173 A 
ATOM     65  C   UNL A   1      43.810  33.354  32.077  1.00  0.00     0.173 A 
ATOM     66  F   UNL A   1      42.664  31.139  34.724  1.00  0.00    -0.203 F 
ATOM     67  C   UNL A   1      43.092  33.452  34.755  1.00  0.00     0.198 A 
ATOM     68  C   UNL A   1      43.868  34.559  32.772  1.00  0.00     0.198 A 
ATOM     69  F   UNL A   1      44.156  33.344  30.780  1.00  0.00    -0.203 F 
ATOM     70  F   UNL A   1      42.707  33.505  36.038  1.00  0.00    -0.200 F 
ATOM     71  C   UNL A   1      43.501  34.609  34.108  1.00  0.00     0.200 A 
ATOM     72  F   UNL A   1      44.278  35.672  32.149  1.00  0.00    -0.200 F 
ATOM     73  F   UNL A   1      43.532  35.774  34.769  1.00  0.00    -0.200 F 
ENDBRANCH  49  63
BRANCH  50  74
ATOM     74  C   UNL A   1      42.892  23.712  27.455  1.00  0.00     0.064 A 
ATOM     75  C   UNL A   1      42.514  22.488  28.026  1.00  0.00     0.173 A 
ATOM     76  C   UNL A   1      43.262  23.711  26.102  1.00  0.00     0.173 A 
ATOM     77  F   UNL A   1      42.184  22.429  29.325  1.00  0.00    -0.203 F 
ATOM     78  C   UNL A   1      42.529  21.310  27.282  1.00  0.00     0.198 A 
ATOM     79  C   UNL A   1      43.245  22.538  25.350  1.00  0.00     0.198 A 
ATOM     80  F   UNL A   1      43.642  24.851  25.508  1.00  0.00    -0.203 F 
ATOM     81  F   UNL A   1      42.220  20.146  27.869  1.00  0.00    -0.200 F 
ATOM     82  C   UNL A   1      42.888  21.336  25.943  1.00  0.00     0.200 A 
ATOM     83  F   UNL A   1      43.583  22.570  24.054  1.00  0.00    -0.200 F 
ATOM     84  F   UNL A   1      42.903  20.203  25.228  1.00  0.00    -0.200 F 
ENDBRANCH  50  74
BRANCH  62  85
ATOM     85  C   UNL A   1      48.000  26.877  31.001  1.00  0.00     0.064 A 
ATOM     86  C   UNL A   1      48.370  25.988  32.022  1.00  0.00     0.173 A 
ATOM     87  C   UNL A   1      49.020  27.394  30.185  1.00  0.00     0.173 A 
ATOM     88  F   UNL A   1      47.438  25.474  32.839  1.00  0.00    -0.203 F 
ATOM     89  C   UNL A   1      49.706  25.655  32.234  1.00  0.00     0.198 A 
ATOM     90  C   UNL A   1      50.350  27.029  30.377  1.00  0.00     0.198 A 
ATOM     91  F   UNL A   1      48.724  28.240  29.187  1.00  0.00    -0.203 F 
ATOM     92  F   UNL A   1      50.039  24.844  33.248  1.00  0.00    -0.200 F 
ATOM     93  C   UNL A   1      50.693  26.168  31.407  1.00  0.00     0.200 A 
ATOM     94  F   UNL A   1      51.300  27.513  29.563  1.00  0.00    -0.200 F 
ATOM     95  F   UNL A   1      51.977  25.836  31.606  1.00  0.00    -0.200 F 
ENDBRANCH  62  85
ENDBRANCH  36  37
ENDBRANCH  29  31
ENDBRANCH  28  29
ENDBRANCH  27  28
ENDBRANCH  26  27
ENDBRANCH  25  26
ENDBRANCH   1  25
TORSDOF 18
ENDMDL
MODEL 3
REMARK VINA RESULT:     -10.8      3.030      8.350
REMARK SMILES C[NH+]1CC[NH+]([C@]2(C(=O)OCCOCCOCCOC(=O)c3ccc(-c4c5nc(c(-c6c(F)c(F)c(F)c(F)c6F)c6ccc([nH]6)c(-c6c(F)c(F)c(F)c(F)c6F)c6nc(c(-c7c(F)c(F)c(F)c(F)c7F)c7ccc4[nH]7)C=C6)C=C5)cc3)CCCC2(C)C)CC1
REMARK SMILES IDX 14 1 13 2 12 3 11 4 10 5 9 6 7 7 8 8 6 9 84 10 87 11 85 12
REMARK SMILES IDX 86 13 88 14 89 15 5 16 1 17 2 18 3 19 91 20 4 22 90 23 15 25
REMARK SMILES IDX 16 26 17 27 18 28 19 29 20 30 21 31 22 32 83 33 23 34 82 35
REMARK SMILES IDX 24 36 25 37 26 38 76 39 27 40 81 41 75 42 77 43 28 44 80 45
REMARK SMILES IDX 74 46 73 47 29 49 61 50 41 51 60 52 42 53 45 54 59 55 78 56
REMARK SMILES IDX 43 57 44 58 58 60 79 61 46 62 30 63 31 64 39 65 32 66 33 67
REMARK SMILES IDX 37 68 40 69 34 70 35 71 38 72 36 73 62 74 63 75 71 76 64 77
REMARK SMILES IDX 65 78 69 79 72 80 66 81 67 82 70 83 68 84 47 85 48 86 56 87
REMARK SMILES IDX 49 88 50 89 54 90 57 91 51 92 52 93 55 94 53 95
REMARK H PARENT 2 21 5 24 77 48 45 59
REMARK Flexibility Score: inf
ROOT
ATOM      1  C   UNL A   1      40.698  20.090  26.266  1.00  0.00     0.188 C 
ENDROOT
BRANCH   1   2
ATOM      2  C   UNL A   1      39.328  20.557  25.739  1.00  0.00     0.188 C 
BRANCH   2   3
ATOM      3  O   UNL A   1      38.933  21.912  25.925  1.00  0.00    -0.376 OA
BRANCH   3   4
ATOM      4  C   UNL A   1      37.577  22.262  25.677  1.00  0.00     0.202 C 
BRANCH   4   5
ATOM      5  C   UNL A   1      37.294  23.678  25.150  1.00  0.00     0.261 C 
BRANCH   5   6
ATOM      6  O   UNL A   1      35.891  24.030  25.080  1.00  0.00    -0.459 OA
BRANCH   6   7
ATOM      7  C   UNL A   1      35.138  23.346  24.182  1.00  0.00     0.368 C 
ATOM      8  O   UNL A   1      35.512  23.193  23.019  1.00  0.00    -0.245 OA
BRANCH   7   9
ATOM      9  C   UNL A   1      33.693  22.822  24.734  1.00  0.00     0.201 C 
ATOM     10  C   UNL A   1      33.516  22.745  26.290  1.00  0.00     0.082 C 
ATOM     11  C   UNL A   1      32.609  23.947  24.320  1.00  0.00     0.031 C 
ATOM     12  C   UNL A   1      32.528  23.815  26.738  1.00  0.00     0.008 C 
ATOM     13  C   UNL A   1      32.471  24.810  25.603  1.00  0.00     0.014 C 
ATOM     14  C   UNL A   1      33.031  24.870  23.159  1.00  0.00     0.018 C 
ATOM     15  C   UNL A   1      31.191  23.452  23.986  1.00  0.00     0.018 C 
BRANCH   9  16
ATOM     16  N   UNL A   1      33.667  21.404  24.196  1.00  0.00    -0.311 N 
ATOM     17  C   UNL A   1      33.212  17.114  23.745  1.00  0.00     0.333 C 
ATOM     18  N   UNL A   1      33.113  18.474  24.262  1.00  0.00    -0.328 N 
ATOM     19  C   UNL A   1      32.488  19.364  23.270  1.00  0.00     0.324 C 
ATOM     20  C   UNL A   1      34.444  19.011  24.583  1.00  0.00     0.324 C 
ATOM     21  H   UNL A   1      32.541  18.434  25.105  1.00  0.00     0.348 HD
ATOM     22  C   UNL A   1      32.388  20.833  23.757  1.00  0.00     0.325 C 
ATOM     23  C   UNL A   1      34.319  20.439  25.142  1.00  0.00     0.325 C 
ATOM     24  H   UNL A   1      34.194  21.529  23.331  1.00  0.00     0.349 HD
ENDBRANCH   9  16
ENDBRANCH   7   9
ENDBRANCH   6   7
ENDBRANCH   5   6
ENDBRANCH   4   5
ENDBRANCH   3   4
ENDBRANCH   2   3
ENDBRANCH   1   2
BRANCH   1  25
ATOM     25  O   UNL A   1      41.777  20.848  25.763  1.00  0.00    -0.376 OA
BRANCH  25  26
ATOM     26  C   UNL A   1      43.038  20.215  25.779  1.00  0.00     0.202 C 
BRANCH  26  27
ATOM     27  C   UNL A   1      44.191  21.168  25.442  1.00  0.00     0.261 C 
BRANCH  27  28
ATOM     28  O   UNL A   1      44.204  22.421  26.158  1.00  0.00    -0.460 OA
BRANCH  28  29
ATOM     29  C   UNL A   1      44.063  23.556  25.437  1.00  0.00     0.338 C 
ATOM     30  O   UNL A   1      44.270  23.691  24.238  1.00  0.00    -0.246 OA
BRANCH  29  31
ATOM     31  C   UNL A   1      43.403  24.576  26.289  1.00  0.00     0.060 A 
ATOM     32  C   UNL A   1      43.806  25.917  26.205  1.00  0.00     0.016 A 
ATOM     33  C   UNL A   1      42.394  24.207  27.180  1.00  0.00     0.016 A 
ATOM     34  C   UNL A   1      43.229  26.883  27.037  1.00  0.00     0.010 A 
ATOM     35  C   UNL A   1      41.831  25.170  28.025  1.00  0.00     0.010 A 
ATOM     36  C   UNL A   1      42.267  26.507  27.984  1.00  0.00    -0.014 A 
BRANCH  36  37
ATOM     37  C   UNL A   1      41.842  27.449  29.055  1.00  0.00     0.031 A 
ATOM     38  C   UNL A   1      42.597  27.443  30.357  1.00  0.00     0.074 A 
ATOM     39  C   UNL A   1      40.801  28.286  28.895  1.00  0.00     0.049 A 
ATOM     40  N   UNL A   1      42.347  28.080  31.473  1.00  0.00    -0.248 NA
ATOM     41  C   UNL A   1      43.800  26.596  30.404  1.00  0.00     0.031 C 
ATOM     42  C   UNL A   1      40.014  28.435  27.674  1.00  0.00     0.029 A 
ATOM     43  N   UNL A   1      40.216  29.158  29.782  1.00  0.00    -0.354 N 
ATOM     44  C   UNL A   1      43.350  27.699  32.357  1.00  0.00     0.074 A 
ATOM     45  C   UNL A   1      44.196  26.757  31.658  1.00  0.00     0.031 C 
ATOM     46  C   UNL A   1      39.036  29.331  27.894  1.00  0.00     0.029 A 
ATOM     47  C   UNL A   1      39.101  29.786  29.283  1.00  0.00     0.049 A 
ATOM     48  H   UNL A   1      40.564  29.318  30.689  1.00  0.00     0.167 HD
ATOM     49  C   UNL A   1      43.551  28.102  33.635  1.00  0.00     0.037 A 
ATOM     50  C   UNL A   1      38.216  30.606  29.887  1.00  0.00     0.037 A 
ATOM     51  C   UNL A   1      42.709  29.038  34.334  1.00  0.00     0.049 A 
ATOM     52  C   UNL A   1      38.408  30.969  31.341  1.00  0.00     0.074 A 
ATOM     53  C   UNL A   1      42.840  29.518  35.626  1.00  0.00     0.029 A 
ATOM     54  N   UNL A   1      41.571  29.627  33.803  1.00  0.00    -0.354 N 
ATOM     55  N   UNL A   1      39.366  30.620  32.166  1.00  0.00    -0.248 NA
ATOM     56  C   UNL A   1      37.392  31.844  31.947  1.00  0.00     0.031 C 
ATOM     57  C   UNL A   1      41.747  30.347  35.898  1.00  0.00     0.029 A 
ATOM     58  C   UNL A   1      40.974  30.441  34.753  1.00  0.00     0.049 A 
ATOM     59  H   UNL A   1      41.237  29.488  32.888  1.00  0.00     0.167 HD
ATOM     60  C   UNL A   1      39.088  31.258  33.371  1.00  0.00     0.074 A 
ATOM     61  C   UNL A   1      37.879  32.025  33.166  1.00  0.00     0.031 C 
ATOM     62  C   UNL A   1      39.775  31.214  34.539  1.00  0.00     0.037 A 
BRANCH  49  63
ATOM     63  C   UNL A   1      44.711  27.502  34.378  1.00  0.00     0.064 A 
ATOM     64  C   UNL A   1      45.973  28.115  34.400  1.00  0.00     0.173 A 
ATOM     65  C   UNL A   1      44.547  26.313  35.103  1.00  0.00     0.173 A 
ATOM     66  F   UNL A   1      46.188  29.246  33.712  1.00  0.00    -0.203 F 
ATOM     67  C   UNL A   1      47.035  27.541  35.096  1.00  0.00     0.198 A 
ATOM     68  C   UNL A   1      45.601  25.761  35.826  1.00  0.00     0.198 A 
ATOM     69  F   UNL A   1      43.360  25.687  35.120  1.00  0.00    -0.203 F 
ATOM     70  F   UNL A   1      48.246  28.115  35.059  1.00  0.00    -0.200 F 
ATOM     71  C   UNL A   1      46.847  26.370  35.815  1.00  0.00     0.200 A 
ATOM     72  F   UNL A   1      45.412  24.638  36.532  1.00  0.00    -0.200 F 
ATOM     73  F   UNL A   1      47.867  25.824  36.490  1.00  0.00    -0.200 F 
ENDBRANCH  49  63
BRANCH  50  74
ATOM     74  C   UNL A   1      37.044  31.128  29.133  1.00  0.00     0.064 A 
ATOM     75  C   UNL A   1      36.975  32.472  28.740  1.00  0.00     0.173 A 
ATOM     76  C   UNL A   1      35.951  30.304  28.825  1.00  0.00     0.173 A 
ATOM     77  F   UNL A   1      37.979  33.309  29.040  1.00  0.00    -0.203 F 
ATOM     78  C   UNL A   1      35.851  32.976  28.088  1.00  0.00     0.198 A 
ATOM     79  C   UNL A   1      34.841  30.802  28.143  1.00  0.00     0.198 A 
ATOM     80  F   UNL A   1      35.959  29.013  29.186  1.00  0.00    -0.203 F 
ATOM     81  F   UNL A   1      35.788  34.278  27.777  1.00  0.00    -0.200 F 
ATOM     82  C   UNL A   1      34.788  32.140  27.784  1.00  0.00     0.200 A 
ATOM     83  F   UNL A   1      33.821  29.987  27.844  1.00  0.00    -0.200 F 
ATOM     84  F   UNL A   1      33.707  32.625  27.158  1.00  0.00    -0.200 F 
ENDBRANCH  50  74
BRANCH  62  85
ATOM     85  C   UNL A   1      39.274  32.057  35.679  1.00  0.00     0.064 A 
ATOM     86  C   UNL A   1      38.414  31.543  36.662  1.00  0.00     0.173 A 
ATOM     87  C   UNL A   1      39.698  33.389  35.815  1.00  0.00     0.173 A 
ATOM     88  F   UNL A   1      37.968  30.280  36.576  1.00  0.00    -0.203 F 
ATOM     89  C   UNL A   1      37.978  32.337  37.720  1.00  0.00     0.198 A 
ATOM     90  C   UNL A   1      39.289  34.168  36.894  1.00  0.00     0.198 A 
ATOM     91  F   UNL A   1      40.528  33.930  34.911  1.00  0.00    -0.203 F 
ATOM     92  F   UNL A   1      37.117  31.839  38.619  1.00  0.00    -0.200 F 
ATOM     93  C   UNL A   1      38.422  33.645  37.840  1.00  0.00     0.200 A 
ATOM     94  F   UNL A   1      39.735  35.426  37.017  1.00  0.00    -0.200 F 
ATOM     95  F   UNL A   1      38.010  34.404  38.865  1.00  0.00    -0.200 F 
ENDBRANCH  62  85
ENDBRANCH  36  37
ENDBRANCH  29  31
ENDBRANCH  28  29
ENDBRANCH  27  28
ENDBRANCH  26  27
ENDBRANCH  25  26
ENDBRANCH   1  25
TORSDOF 18
ENDMDL
