MODEL 1
REMARK VINA RESULT:     -13.3      0.000      0.000
REMARK SMILES CC1(C)O[C@@H]2C[C@H]3[C@H]4CCC5=CC(=O)C=C[C@@]5(C)[C@]4(F)[C@H](O)C[C@]3(C)[C@]2(C(=O)OCCOCCOCCOC(=O)c2ccc(-c3c4nc(c(-c5c(F)c(F)c(F)c(F)c5F)c5ccc([nH]5)c(-c5c(F)c(F)c(F)c(F)c5F)c5nc(c(-c6c(F)c(F)c(F)c(F)c6F)c6ccc3[nH]6)C=C5)C=C4)cc2)O1
REMARK SMILES IDX 34 1 33 2 32 3 31 4 30 5 29 6 27 7 28 8 26 9 1 10 2 11 4 12
REMARK SMILES IDX 104 13 3 14 5 15 6 16 24 17 7 18 23 19 25 20 8 21 21 22 9 23
REMARK SMILES IDX 19 24 10 25 17 26 20 27 11 28 16 29 18 30 12 31 15 32 13 33
REMARK SMILES IDX 14 34 22 35 35 37 36 38 37 39 38 40 39 41 40 42 41 43 42 44
REMARK SMILES IDX 103 45 43 46 102 47 44 48 45 49 46 50 96 51 47 52 101 53
REMARK SMILES IDX 95 54 97 55 48 56 100 57 94 58 93 59 49 61 81 62 61 63 80 64
REMARK SMILES IDX 62 65 65 66 79 67 98 68 63 69 64 70 78 72 99 73 66 74 50 75
REMARK SMILES IDX 51 76 59 77 52 78 53 79 57 80 60 81 54 82 55 83 58 84 56 85
REMARK SMILES IDX 82 86 83 87 91 88 84 89 85 90 89 91 92 92 86 93 87 94 90 95
REMARK SMILES IDX 88 96 67 97 68 98 76 99 69 100 70 101 74 102 77 103 71 104
REMARK SMILES IDX 72 105 75 106 73 107
REMARK H PARENT 22 36 97 60 65 71
REMARK Flexibility Score: inf
ROOT
ATOM      1  C   UNL A   1      42.634  18.591  26.133  1.00  0.00     0.188 C 
ENDROOT
BRANCH   1   2
ATOM      2  C   UNL A   1      41.735  19.563  26.910  1.00  0.00     0.188 C 
BRANCH   2   3
ATOM      3  O   UNL A   1      40.688  20.189  26.171  1.00  0.00    -0.376 OA
BRANCH   3   4
ATOM      4  C   UNL A   1      39.910  21.169  26.859  1.00  0.00     0.202 C 
BRANCH   4   5
ATOM      5  C   UNL A   1      38.970  21.969  25.951  1.00  0.00     0.261 C 
BRANCH   5   6
ATOM      6  O   UNL A   1      37.611  21.528  26.126  1.00  0.00    -0.461 OA
BRANCH   6   7
ATOM      7  C   UNL A   1      36.849  21.443  24.994  1.00  0.00     0.341 C 
ATOM      8  O   UNL A   1      37.230  20.970  23.934  1.00  0.00    -0.249 OA
BRANCH   7   9
ATOM      9  C   UNL A   1      35.450  22.033  25.250  1.00  0.00     0.200 C 
ATOM     10  C   UNL A   1      34.072  19.076  24.625  1.00  0.00     0.075 C 
ATOM     11  C   UNL A   1      33.710  20.490  25.054  1.00  0.00     0.165 C 
ATOM     12  O   UNL A   1      33.952  20.620  26.455  1.00  0.00    -0.344 OA
ATOM     13  O   UNL A   1      34.515  21.425  24.316  1.00  0.00    -0.329 OA
ATOM     14  C   UNL A   1      32.223  20.728  24.750  1.00  0.00     0.075 C 
ATOM     15  C   UNL A   1      34.878  21.693  26.653  1.00  0.00     0.166 C 
ATOM     16  C   UNL A   1      34.090  22.954  27.154  1.00  0.00     0.040 C 
ATOM     17  C   UNL A   1      35.333  23.614  25.183  1.00  0.00     0.016 C 
ATOM     18  C   UNL A   1      33.941  23.729  25.857  1.00  0.00     0.008 C 
ATOM     19  C   UNL A   1      35.334  24.262  23.790  1.00  0.00     0.046 C 
ATOM     20  C   UNL A   1      36.491  24.255  25.988  1.00  0.00     0.015 C 
ATOM     21  C   UNL A   1      32.841  24.719  25.469  1.00  0.00     0.035 C 
ATOM     22  C   UNL A   1      33.949  24.537  23.191  1.00  0.00     0.154 C 
ATOM     23  C   UNL A   1      32.232  25.654  26.497  1.00  0.00     0.012 C 
ATOM     24  C   UNL A   1      33.107  25.445  24.134  1.00  0.00     0.152 C 
ATOM     25  C   UNL A   1      30.821  26.014  25.986  1.00  0.00     0.032 C 
ATOM     26  C   UNL A   1      31.755  25.973  23.501  1.00  0.00     0.044 C 
ATOM     27  F   UNL A   1      33.895  26.536  24.427  1.00  0.00    -0.239 F 
ATOM     28  C   UNL A   1      30.792  26.552  24.568  1.00  0.00    -0.053 C 
ATOM     29  C   UNL A   1      32.021  27.040  22.432  1.00  0.00    -0.009 C 
ATOM     30  C   UNL A   1      30.993  24.841  22.759  1.00  0.00     0.024 C 
ATOM     31  C   UNL A   1      29.874  27.481  24.233  1.00  0.00     0.052 C 
ATOM     32  C   UNL A   1      31.125  27.988  22.117  1.00  0.00     0.048 C 
ATOM     33  C   UNL A   1      29.863  28.085  22.881  1.00  0.00     0.178 C 
ATOM     34  O   UNL A   1      28.887  28.679  22.446  1.00  0.00    -0.290 OA
BRANCH  22  35
ATOM     35  O   UNL A   1      33.322  23.309  22.839  1.00  0.00    -0.390 OA
ATOM     36  H   UNL A   1      33.436  22.669  23.560  1.00  0.00     0.211 HD
ENDBRANCH  22  35
ENDBRANCH   7   9
ENDBRANCH   6   7
ENDBRANCH   5   6
ENDBRANCH   4   5
ENDBRANCH   3   4
ENDBRANCH   2   3
ENDBRANCH   1   2
BRANCH   1  37
ATOM     37  O   UNL A   1      43.921  19.156  25.897  1.00  0.00    -0.376 OA
BRANCH  37  38
ATOM     38  C   UNL A   1      43.935  20.122  24.846  1.00  0.00     0.202 C 
BRANCH  38  39
ATOM     39  C   UNL A   1      44.305  21.502  25.396  1.00  0.00     0.261 C 
BRANCH  39  40
ATOM     40  O   UNL A   1      43.223  22.452  25.280  1.00  0.00    -0.460 OA
BRANCH  40  41
ATOM     41  C   UNL A   1      43.612  23.725  25.056  1.00  0.00     0.338 C 
ATOM     42  O   UNL A   1      44.438  24.116  24.253  1.00  0.00    -0.246 OA
BRANCH  41  43
ATOM     43  C   UNL A   1      42.792  24.646  25.862  1.00  0.00     0.060 A 
ATOM     44  C   UNL A   1      43.061  26.007  25.755  1.00  0.00     0.016 A 
ATOM     45  C   UNL A   1      41.923  24.182  26.844  1.00  0.00     0.016 A 
ATOM     46  C   UNL A   1      42.569  26.907  26.699  1.00  0.00     0.010 A 
ATOM     47  C   UNL A   1      41.370  25.094  27.754  1.00  0.00     0.010 A 
ATOM     48  C   UNL A   1      41.735  26.456  27.729  1.00  0.00    -0.014 A 
BRANCH  48  49
ATOM     49  C   UNL A   1      41.370  27.367  28.853  1.00  0.00     0.031 A 
ATOM     50  C   UNL A   1      42.198  27.351  30.113  1.00  0.00     0.074 A 
ATOM     51  C   UNL A   1      40.353  28.246  28.752  1.00  0.00     0.049 A 
ATOM     52  N   UNL A   1      41.971  27.925  31.269  1.00  0.00    -0.248 NA
ATOM     53  C   UNL A   1      43.451  26.580  30.065  1.00  0.00     0.031 C 
ATOM     54  C   UNL A   1      39.516  28.446  27.571  1.00  0.00     0.029 A 
ATOM     55  N   UNL A   1      39.855  29.143  29.669  1.00  0.00    -0.354 N 
ATOM     56  C   UNL A   1      43.019  27.538  32.097  1.00  0.00     0.074 A 
ATOM     57  C   UNL A   1      43.886  26.686  31.312  1.00  0.00     0.031 C 
ATOM     58  C   UNL A   1      38.619  29.413  27.827  1.00  0.00     0.029 A 
ATOM     59  C   UNL A   1      38.770  29.852  29.213  1.00  0.00     0.049 A 
ATOM     60  H   UNL A   1      40.240  29.265  30.566  1.00  0.00     0.167 HD
ATOM     61  C   UNL A   1      43.238  27.861  33.394  1.00  0.00     0.037 A 
ATOM     62  C   UNL A   1      37.964  30.725  29.848  1.00  0.00     0.037 A 
ATOM     63  C   UNL A   1      42.413  28.754  34.165  1.00  0.00     0.049 A 
ATOM     64  C   UNL A   1      38.210  31.045  31.299  1.00  0.00     0.074 A 
ATOM     65  C   UNL A   1      42.548  29.127  35.492  1.00  0.00     0.029 A 
ATOM     66  N   UNL A   1      41.314  29.436  33.668  1.00  0.00    -0.354 N 
ATOM     67  N   UNL A   1      39.155  30.613  32.097  1.00  0.00    -0.248 NA
ATOM     68  C   UNL A   1      37.262  31.967  31.945  1.00  0.00     0.031 C 
ATOM     69  C   UNL A   1      41.512  30.014  35.806  1.00  0.00     0.029 A 
ATOM     70  C   UNL A   1      40.757  30.222  34.663  1.00  0.00     0.049 A 
ATOM     71  H   UNL A   1      40.978  29.371  32.745  1.00  0.00     0.167 HD
ATOM     72  C   UNL A   1      38.927  31.218  33.325  1.00  0.00     0.074 A 
ATOM     73  C   UNL A   1      37.768  32.069  33.166  1.00  0.00     0.031 C 
ATOM     74  C   UNL A   1      39.612  31.075  34.487  1.00  0.00     0.037 A 
BRANCH  61  75
ATOM     75  C   UNL A   1      44.397  27.205  34.082  1.00  0.00     0.064 A 
ATOM     76  C   UNL A   1      45.646  27.831  34.194  1.00  0.00     0.173 A 
ATOM     77  C   UNL A   1      44.239  25.939  34.668  1.00  0.00     0.173 A 
ATOM     78  F   UNL A   1      45.850  29.032  33.635  1.00  0.00    -0.203 F 
ATOM     79  C   UNL A   1      46.703  27.203  34.850  1.00  0.00     0.198 A 
ATOM     80  C   UNL A   1      45.290  25.326  35.344  1.00  0.00     0.198 A 
ATOM     81  F   UNL A   1      43.061  25.301  34.589  1.00  0.00    -0.203 F 
ATOM     82  F   UNL A   1      47.901  27.800  34.912  1.00  0.00    -0.200 F 
ATOM     83  C   UNL A   1      46.522  25.956  35.430  1.00  0.00     0.200 A 
ATOM     84  F   UNL A   1      45.110  24.125  35.910  1.00  0.00    -0.200 F 
ATOM     85  F   UNL A   1      47.538  25.356  36.066  1.00  0.00    -0.200 F 
ENDBRANCH  61  75
BRANCH  62  86
ATOM     86  C   UNL A   1      36.807  31.330  29.134  1.00  0.00     0.064 A 
ATOM     87  C   UNL A   1      36.805  32.686  28.775  1.00  0.00     0.173 A 
ATOM     88  C   UNL A   1      35.664  30.574  28.833  1.00  0.00     0.173 A 
ATOM     89  F   UNL A   1      37.860  33.458  29.069  1.00  0.00    -0.203 F 
ATOM     90  C   UNL A   1      35.696  33.265  28.162  1.00  0.00     0.198 A 
ATOM     91  C   UNL A   1      34.569  31.147  28.191  1.00  0.00     0.198 A 
ATOM     92  F   UNL A   1      35.613  29.275  29.161  1.00  0.00    -0.203 F 
ATOM     93  F   UNL A   1      35.697  34.575  27.878  1.00  0.00    -0.200 F 
ATOM     94  C   UNL A   1      34.581  32.494  27.865  1.00  0.00     0.200 A 
ATOM     95  F   UNL A   1      33.499  30.395  27.897  1.00  0.00    -0.200 F 
ATOM     96  F   UNL A   1      33.516  33.052  27.276  1.00  0.00    -0.200 F 
ENDBRANCH  62  86
BRANCH  74  97
ATOM     97  C   UNL A   1      39.144  31.879  35.664  1.00  0.00     0.064 A 
ATOM     98  C   UNL A   1      39.576  33.198  35.870  1.00  0.00     0.173 A 
ATOM     99  C   UNL A   1      38.236  31.333  36.582  1.00  0.00     0.173 A 
ATOM    100  F   UNL A   1      40.456  33.759  35.027  1.00  0.00    -0.203 F 
ATOM    101  C   UNL A   1      39.136  33.931  36.969  1.00  0.00     0.198 A 
ATOM    102  C   UNL A   1      37.779  32.077  37.666  1.00  0.00     0.198 A 
ATOM    103  F   UNL A   1      37.789  30.078  36.427  1.00  0.00    -0.203 F 
ATOM    104  F   UNL A   1      39.599  35.173  37.172  1.00  0.00    -0.200 F 
ATOM    105  C   UNL A   1      38.235  33.372  37.863  1.00  0.00     0.200 A 
ATOM    106  F   UNL A   1      36.901  31.540  38.525  1.00  0.00    -0.200 F 
ATOM    107  F   UNL A   1      37.814  34.079  38.921  1.00  0.00    -0.200 F 
ENDBRANCH  74  97
ENDBRANCH  48  49
ENDBRANCH  41  43
ENDBRANCH  40  41
ENDBRANCH  39  40
ENDBRANCH  38  39
ENDBRANCH  37  38
ENDBRANCH   1  37
TORSDOF 18
ENDMDL
MODEL 2
REMARK VINA RESULT:     -13.2      3.236      8.800
REMARK SMILES CC1(C)O[C@@H]2C[C@H]3[C@H]4CCC5=CC(=O)C=C[C@@]5(C)[C@]4(F)[C@H](O)C[C@]3(C)[C@]2(C(=O)OCCOCCOCCOC(=O)c2ccc(-c3c4nc(c(-c5c(F)c(F)c(F)c(F)c5F)c5ccc([nH]5)c(-c5c(F)c(F)c(F)c(F)c5F)c5nc(c(-c6c(F)c(F)c(F)c(F)c6F)c6ccc3[nH]6)C=C5)C=C4)cc2)O1
REMARK SMILES IDX 34 1 33 2 32 3 31 4 30 5 29 6 27 7 28 8 26 9 1 10 2 11 4 12
REMARK SMILES IDX 104 13 3 14 5 15 6 16 24 17 7 18 23 19 25 20 8 21 21 22 9 23
REMARK SMILES IDX 19 24 10 25 17 26 20 27 11 28 16 29 18 30 12 31 15 32 13 33
REMARK SMILES IDX 14 34 22 35 35 37 36 38 37 39 38 40 39 41 40 42 41 43 42 44
REMARK SMILES IDX 103 45 43 46 102 47 44 48 45 49 46 50 96 51 47 52 101 53
REMARK SMILES IDX 95 54 97 55 48 56 100 57 94 58 93 59 49 61 81 62 61 63 80 64
REMARK SMILES IDX 62 65 65 66 79 67 98 68 63 69 64 70 78 72 99 73 66 74 50 75
REMARK SMILES IDX 51 76 59 77 52 78 53 79 57 80 60 81 54 82 55 83 58 84 56 85
REMARK SMILES IDX 82 86 83 87 91 88 84 89 85 90 89 91 92 92 86 93 87 94 90 95
REMARK SMILES IDX 88 96 67 97 68 98 76 99 69 100 70 101 74 102 77 103 71 104
REMARK SMILES IDX 72 105 75 106 73 107
REMARK H PARENT 22 36 97 60 65 71
REMARK Flexibility Score: inf
ROOT
ATOM      1  C   UNL A   1      31.392  29.273  23.129  1.00  0.00     0.188 C 
ENDROOT
BRANCH   1   2
ATOM      2  C   UNL A   1      29.899  29.563  23.340  1.00  0.00     0.188 C 
BRANCH   2   3
ATOM      3  O   UNL A   1      29.004  28.473  23.125  1.00  0.00    -0.376 OA
BRANCH   3   4
ATOM      4  C   UNL A   1      29.566  27.161  23.156  1.00  0.00     0.202 C 
BRANCH   4   5
ATOM      5  C   UNL A   1      29.608  26.533  24.553  1.00  0.00     0.261 C 
BRANCH   5   6
ATOM      6  O   UNL A   1      30.514  25.415  24.571  1.00  0.00    -0.461 OA
BRANCH   6   7
ATOM      7  C   UNL A   1      31.810  25.687  24.914  1.00  0.00     0.341 C 
ATOM      8  O   UNL A   1      32.180  26.711  25.470  1.00  0.00    -0.249 OA
BRANCH   7   9
ATOM      9  C   UNL A   1      32.726  24.525  24.494  1.00  0.00     0.200 C 
ATOM     10  C   UNL A   1      32.151  25.205  21.294  1.00  0.00     0.075 C 
ATOM     11  C   UNL A   1      32.959  24.274  22.185  1.00  0.00     0.165 C 
ATOM     12  O   UNL A   1      34.134  24.961  22.617  1.00  0.00    -0.344 OA
ATOM     13  O   UNL A   1      32.157  23.891  23.315  1.00  0.00    -0.329 OA
ATOM     14  C   UNL A   1      33.344  23.030  21.371  1.00  0.00     0.075 C 
ATOM     15  C   UNL A   1      34.143  24.977  24.049  1.00  0.00     0.166 C 
ATOM     16  C   UNL A   1      35.161  23.897  24.560  1.00  0.00     0.040 C 
ATOM     17  C   UNL A   1      33.026  23.432  25.605  1.00  0.00     0.016 C 
ATOM     18  C   UNL A   1      34.218  22.751  24.884  1.00  0.00     0.008 C 
ATOM     19  C   UNL A   1      31.912  22.421  25.918  1.00  0.00     0.046 C 
ATOM     20  C   UNL A   1      33.397  24.133  26.936  1.00  0.00     0.015 C 
ATOM     21  C   UNL A   1      34.518  21.251  24.877  1.00  0.00     0.035 C 
ATOM     22  C   UNL A   1      32.000  21.091  25.159  1.00  0.00     0.154 C 
ATOM     23  C   UNL A   1      35.868  20.721  25.323  1.00  0.00     0.012 C 
ATOM     24  C   UNL A   1      33.364  20.389  25.425  1.00  0.00     0.152 C 
ATOM     25  C   UNL A   1      36.061  19.358  24.623  1.00  0.00     0.032 C 
ATOM     26  C   UNL A   1      33.457  18.906  24.876  1.00  0.00     0.044 C 
ATOM     27  F   UNL A   1      33.516  20.346  26.794  1.00  0.00    -0.239 F 
ATOM     28  C   UNL A   1      34.915  18.386  24.831  1.00  0.00    -0.053 C 
ATOM     29  C   UNL A   1      32.606  17.946  25.717  1.00  0.00    -0.009 C 
ATOM     30  C   UNL A   1      32.883  18.796  23.436  1.00  0.00     0.024 C 
ATOM     31  C   UNL A   1      35.176  17.065  24.901  1.00  0.00     0.052 C 
ATOM     32  C   UNL A   1      32.878  16.636  25.817  1.00  0.00     0.048 C 
ATOM     33  C   UNL A   1      34.095  16.091  25.178  1.00  0.00     0.178 C 
ATOM     34  O   UNL A   1      34.223  14.898  24.945  1.00  0.00    -0.290 OA
BRANCH  22  35
ATOM     35  O   UNL A   1      31.700  21.298  23.784  1.00  0.00    -0.390 OA
ATOM     36  H   UNL A   1      31.515  20.445  23.361  1.00  0.00     0.211 HD
ENDBRANCH  22  35
ENDBRANCH   7   9
ENDBRANCH   6   7
ENDBRANCH   5   6
ENDBRANCH   4   5
ENDBRANCH   3   4
ENDBRANCH   2   3
ENDBRANCH   1   2
BRANCH   1  37
ATOM     37  O   UNL A   1      32.163  29.693  24.252  1.00  0.00    -0.376 OA
BRANCH  37  38
ATOM     38  C   UNL A   1      31.396  29.833  25.448  1.00  0.00     0.202 C 
BRANCH  38  39
ATOM     39  C   UNL A   1      31.757  31.139  26.162  1.00  0.00     0.261 C 
BRANCH  39  40
ATOM     40  O   UNL A   1      32.705  30.940  27.233  1.00  0.00    -0.460 OA
BRANCH  40  41
ATOM     41  C   UNL A   1      33.458  32.020  27.529  1.00  0.00     0.338 C 
ATOM     42  O   UNL A   1      33.090  33.176  27.623  1.00  0.00    -0.246 OA
BRANCH  41  43
ATOM     43  C   UNL A   1      34.832  31.597  27.854  1.00  0.00     0.060 A 
ATOM     44  C   UNL A   1      35.035  30.255  28.161  1.00  0.00     0.016 A 
ATOM     45  C   UNL A   1      35.853  32.521  28.051  1.00  0.00     0.016 A 
ATOM     46  C   UNL A   1      36.211  29.837  28.783  1.00  0.00     0.010 A 
ATOM     47  C   UNL A   1      37.064  32.091  28.611  1.00  0.00     0.010 A 
ATOM     48  C   UNL A   1      37.233  30.758  29.040  1.00  0.00    -0.014 A 
BRANCH  48  49
ATOM     49  C   UNL A   1      38.402  30.366  29.880  1.00  0.00     0.031 A 
ATOM     50  C   UNL A   1      39.450  29.447  29.303  1.00  0.00     0.074 A 
ATOM     51  C   UNL A   1      38.580  30.857  31.123  1.00  0.00     0.049 A 
ATOM     52  N   UNL A   1      40.451  28.845  29.895  1.00  0.00    -0.248 NA
ATOM     53  C   UNL A   1      39.352  29.165  27.861  1.00  0.00     0.031 C 
ATOM     54  C   UNL A   1      37.707  31.823  31.787  1.00  0.00     0.029 A 
ATOM     55  N   UNL A   1      39.567  30.608  32.048  1.00  0.00    -0.354 N 
ATOM     56  C   UNL A   1      41.063  28.073  28.916  1.00  0.00     0.074 A 
ATOM     57  C   UNL A   1      40.328  28.285  27.688  1.00  0.00     0.031 C 
ATOM     58  C   UNL A   1      38.203  32.096  33.006  1.00  0.00     0.029 A 
ATOM     59  C   UNL A   1      39.388  31.273  33.237  1.00  0.00     0.049 A 
ATOM     60  H   UNL A   1      40.329  30.010  31.874  1.00  0.00     0.167 HD
ATOM     61  C   UNL A   1      42.140  27.258  29.028  1.00  0.00     0.037 A 
ATOM     62  C   UNL A   1      40.074  31.199  34.394  1.00  0.00     0.037 A 
ATOM     63  C   UNL A   1      42.913  27.086  30.230  1.00  0.00     0.049 A 
ATOM     64  C   UNL A   1      41.250  30.263  34.504  1.00  0.00     0.074 A 
ATOM     65  C   UNL A   1      44.010  26.268  30.442  1.00  0.00     0.029 A 
ATOM     66  N   UNL A   1      42.685  27.765  31.416  1.00  0.00    -0.354 N 
ATOM     67  N   UNL A   1      41.773  29.476  33.596  1.00  0.00    -0.248 NA
ATOM     68  C   UNL A   1      41.923  30.194  35.810  1.00  0.00     0.031 C 
ATOM     69  C   UNL A   1      44.430  26.432  31.767  1.00  0.00     0.029 A 
ATOM     70  C   UNL A   1      43.617  27.381  32.366  1.00  0.00     0.049 A 
ATOM     71  H   UNL A   1      41.968  28.423  31.562  1.00  0.00     0.167 HD
ATOM     72  C   UNL A   1      42.839  28.835  34.212  1.00  0.00     0.074 A 
ATOM     73  C   UNL A   1      42.907  29.340  35.566  1.00  0.00     0.031 C 
ATOM     74  C   UNL A   1      43.682  27.901  33.705  1.00  0.00     0.037 A 
BRANCH  61  75
ATOM     75  C   UNL A   1      42.521  26.448  27.825  1.00  0.00     0.064 A 
ATOM     76  C   UNL A   1      43.477  26.894  26.902  1.00  0.00     0.173 A 
ATOM     77  C   UNL A   1      41.939  25.188  27.615  1.00  0.00     0.173 A 
ATOM     78  F   UNL A   1      44.047  28.098  27.051  1.00  0.00    -0.203 F 
ATOM     79  C   UNL A   1      43.822  26.116  25.800  1.00  0.00     0.198 A 
ATOM     80  C   UNL A   1      42.304  24.403  26.526  1.00  0.00     0.198 A 
ATOM     81  F   UNL A   1      41.021  24.718  28.472  1.00  0.00    -0.203 F 
ATOM     82  F   UNL A   1      44.709  26.575  24.906  1.00  0.00    -0.200 F 
ATOM     83  C   UNL A   1      43.241  24.869  25.616  1.00  0.00     0.200 A 
ATOM     84  F   UNL A   1      41.747  23.196  26.356  1.00  0.00    -0.200 F 
ATOM     85  F   UNL A   1      43.578  24.119  24.558  1.00  0.00    -0.200 F 
ENDBRANCH  61  75
BRANCH  62  86
ATOM     86  C   UNL A   1      39.643  31.998  35.572  1.00  0.00     0.064 A 
ATOM     87  C   UNL A   1      38.651  31.528  36.444  1.00  0.00     0.173 A 
ATOM     88  C   UNL A   1      40.185  33.267  35.826  1.00  0.00     0.173 A 
ATOM     89  F   UNL A   1      38.078  30.335  36.226  1.00  0.00    -0.203 F 
ATOM     90  C   UNL A   1      38.204  32.305  37.512  1.00  0.00     0.198 A 
ATOM     91  C   UNL A   1      39.761  34.029  36.912  1.00  0.00     0.198 A 
ATOM     92  F   UNL A   1      41.132  33.766  35.018  1.00  0.00    -0.203 F 
ATOM     93  F   UNL A   1      37.217  31.855  38.298  1.00  0.00    -0.200 F 
ATOM     94  C   UNL A   1      38.764  33.552  37.748  1.00  0.00     0.200 A 
ATOM     95  F   UNL A   1      40.313  35.228  37.142  1.00  0.00    -0.200 F 
ATOM     96  F   UNL A   1      38.334  34.298  38.774  1.00  0.00    -0.200 F 
ENDBRANCH  62  86
BRANCH  74  97
ATOM     97  C   UNL A   1      44.768  27.394  34.607  1.00  0.00     0.064 A 
ATOM     98  C   UNL A   1      44.599  26.235  35.380  1.00  0.00     0.173 A 
ATOM     99  C   UNL A   1      46.000  28.060  34.681  1.00  0.00     0.173 A 
ATOM    100  F   UNL A   1      43.434  25.572  35.355  1.00  0.00    -0.203 F 
ATOM    101  C   UNL A   1      45.615  25.778  36.215  1.00  0.00     0.198 A 
ATOM    102  C   UNL A   1      47.022  27.586  35.498  1.00  0.00     0.198 A 
ATOM    103  F   UNL A   1      46.213  29.169  33.958  1.00  0.00    -0.203 F 
ATOM    104  F   UNL A   1      45.414  24.697  36.981  1.00  0.00    -0.200 F 
ATOM    105  C   UNL A   1      46.827  26.451  36.270  1.00  0.00     0.200 A 
ATOM    106  F   UNL A   1      48.197  28.231  35.544  1.00  0.00    -0.200 F 
ATOM    107  F   UNL A   1      47.803  26.010  37.076  1.00  0.00    -0.200 F 
ENDBRANCH  74  97
ENDBRANCH  48  49
ENDBRANCH  41  43
ENDBRANCH  40  41
ENDBRANCH  39  40
ENDBRANCH  38  39
ENDBRANCH  37  38
ENDBRANCH   1  37
TORSDOF 18
ENDMDL
MODEL 3
REMARK VINA RESULT:     -13.1      4.780     10.342
REMARK SMILES CC1(C)O[C@@H]2C[C@H]3[C@H]4CCC5=CC(=O)C=C[C@@]5(C)[C@]4(F)[C@H](O)C[C@]3(C)[C@]2(C(=O)OCCOCCOCCOC(=O)c2ccc(-c3c4nc(c(-c5c(F)c(F)c(F)c(F)c5F)c5ccc([nH]5)c(-c5c(F)c(F)c(F)c(F)c5F)c5nc(c(-c6c(F)c(F)c(F)c(F)c6F)c6ccc3[nH]6)C=C5)C=C4)cc2)O1
REMARK SMILES IDX 34 1 33 2 32 3 31 4 30 5 29 6 27 7 28 8 26 9 1 10 2 11 4 12
REMARK SMILES IDX 104 13 3 14 5 15 6 16 24 17 7 18 23 19 25 20 8 21 21 22 9 23
REMARK SMILES IDX 19 24 10 25 17 26 20 27 11 28 16 29 18 30 12 31 15 32 13 33
REMARK SMILES IDX 14 34 22 35 35 37 36 38 37 39 38 40 39 41 40 42 41 43 42 44
REMARK SMILES IDX 103 45 43 46 102 47 44 48 45 49 46 50 96 51 47 52 101 53
REMARK SMILES IDX 95 54 97 55 48 56 100 57 94 58 93 59 49 61 81 62 61 63 80 64
REMARK SMILES IDX 62 65 65 66 79 67 98 68 63 69 64 70 78 72 99 73 66 74 50 75
REMARK SMILES IDX 51 76 59 77 52 78 53 79 57 80 60 81 54 82 55 83 58 84 56 85
REMARK SMILES IDX 82 86 83 87 91 88 84 89 85 90 89 91 92 92 86 93 87 94 90 95
REMARK SMILES IDX 88 96 67 97 68 98 76 99 69 100 70 101 74 102 77 103 71 104
REMARK SMILES IDX 72 105 75 106 73 107
REMARK H PARENT 22 36 97 60 65 71
REMARK Flexibility Score: inf
ROOT
ATOM      1  C   UNL A   1      33.540  33.207  28.000  1.00  0.00     0.188 C 
ENDROOT
BRANCH   1   2
ATOM      2  C   UNL A   1      33.887  31.753  27.651  1.00  0.00     0.188 C 
BRANCH   2   3
ATOM      3  O   UNL A   1      32.801  30.829  27.623  1.00  0.00    -0.376 OA
BRANCH   3   4
ATOM      4  C   UNL A   1      32.738  29.942  26.506  1.00  0.00     0.202 C 
BRANCH   4   5
ATOM      5  C   UNL A   1      34.086  29.316  26.130  1.00  0.00     0.261 C 
BRANCH   5   6
ATOM      6  O   UNL A   1      33.903  27.955  25.703  1.00  0.00    -0.461 OA
BRANCH   6   7
ATOM      7  C   UNL A   1      33.211  27.770  24.537  1.00  0.00     0.341 C 
ATOM      8  O   UNL A   1      33.043  28.631  23.686  1.00  0.00    -0.249 OA
BRANCH   7   9
ATOM      9  C   UNL A   1      32.676  26.330  24.459  1.00  0.00     0.200 C 
ATOM     10  C   UNL A   1      30.653  26.924  27.025  1.00  0.00     0.075 C 
ATOM     11  C   UNL A   1      31.017  25.838  26.024  1.00  0.00     0.165 C 
ATOM     12  O   UNL A   1      30.327  26.093  24.801  1.00  0.00    -0.344 OA
ATOM     13  O   UNL A   1      32.438  25.851  25.812  1.00  0.00    -0.329 OA
ATOM     14  C   UNL A   1      30.588  24.480  26.599  1.00  0.00     0.075 C 
ATOM     15  C   UNL A   1      31.298  26.214  23.755  1.00  0.00     0.166 C 
ATOM     16  C   UNL A   1      31.308  24.886  22.920  1.00  0.00     0.040 C 
ATOM     17  C   UNL A   1      33.577  25.290  23.667  1.00  0.00     0.016 C 
ATOM     18  C   UNL A   1      32.505  24.177  23.531  1.00  0.00     0.008 C 
ATOM     19  C   UNL A   1      34.836  24.767  24.374  1.00  0.00     0.046 C 
ATOM     20  C   UNL A   1      34.029  25.913  22.323  1.00  0.00     0.015 C 
ATOM     21  C   UNL A   1      32.763  22.673  23.627  1.00  0.00     0.035 C 
ATOM     22  C   UNL A   1      34.668  23.439  25.121  1.00  0.00     0.154 C 
ATOM     23  C   UNL A   1      32.341  21.733  22.513  1.00  0.00     0.012 C 
ATOM     24  C   UNL A   1      34.166  22.321  24.162  1.00  0.00     0.152 C 
ATOM     25  C   UNL A   1      32.154  20.342  23.155  1.00  0.00     0.032 C 
ATOM     26  C   UNL A   1      34.184  20.865  24.784  1.00  0.00     0.044 C 
ATOM     27  F   UNL A   1      35.017  22.331  23.078  1.00  0.00    -0.239 F 
ATOM     28  C   UNL A   1      33.351  19.859  23.951  1.00  0.00    -0.053 C 
ATOM     29  C   UNL A   1      35.617  20.336  24.924  1.00  0.00    -0.009 C 
ATOM     30  C   UNL A   1      33.609  20.856  26.227  1.00  0.00     0.024 C 
ATOM     31  C   UNL A   1      33.633  18.540  23.983  1.00  0.00     0.052 C 
ATOM     32  C   UNL A   1      35.909  19.027  24.924  1.00  0.00     0.048 C 
ATOM     33  C   UNL A   1      34.835  18.038  24.687  1.00  0.00     0.178 C 
ATOM     34  O   UNL A   1      34.957  16.863  25.001  1.00  0.00    -0.290 OA
BRANCH  22  35
ATOM     35  O   UNL A   1      33.859  23.633  26.276  1.00  0.00    -0.390 OA
ATOM     36  H   UNL A   1      33.596  22.772  26.636  1.00  0.00     0.211 HD
ENDBRANCH  22  35
ENDBRANCH   7   9
ENDBRANCH   6   7
ENDBRANCH   5   6
ENDBRANCH   4   5
ENDBRANCH   3   4
ENDBRANCH   2   3
ENDBRANCH   1   2
BRANCH   1  37
ATOM     37  O   UNL A   1      34.497  33.765  28.897  1.00  0.00    -0.376 OA
BRANCH  37  38
ATOM     38  C   UNL A   1      33.914  34.579  29.916  1.00  0.00     0.202 C 
BRANCH  38  39
ATOM     39  C   UNL A   1      34.357  34.096  31.300  1.00  0.00     0.261 C 
BRANCH  39  40
ATOM     40  O   UNL A   1      34.451  32.657  31.380  1.00  0.00    -0.460 OA
BRANCH  40  41
ATOM     41  C   UNL A   1      35.370  32.199  32.256  1.00  0.00     0.338 C 
ATOM     42  O   UNL A   1      35.410  32.395  33.456  1.00  0.00    -0.246 OA
BRANCH  41  43
ATOM     43  C   UNL A   1      36.305  31.290  31.570  1.00  0.00     0.060 A 
ATOM     44  C   UNL A   1      37.186  30.559  32.360  1.00  0.00     0.016 A 
ATOM     45  C   UNL A   1      36.455  31.305  30.187  1.00  0.00     0.016 A 
ATOM     46  C   UNL A   1      38.298  29.935  31.796  1.00  0.00     0.010 A 
ATOM     47  C   UNL A   1      37.532  30.619  29.609  1.00  0.00     0.010 A 
ATOM     48  C   UNL A   1      38.499  29.979  30.412  1.00  0.00    -0.014 A 
BRANCH  48  49
ATOM     49  C   UNL A   1      39.782  29.492  29.824  1.00  0.00     0.031 A 
ATOM     50  C   UNL A   1      40.970  30.420  29.777  1.00  0.00     0.074 A 
ATOM     51  C   UNL A   1      39.926  28.226  29.385  1.00  0.00     0.049 A 
ATOM     52  N   UNL A   1      42.120  30.275  29.166  1.00  0.00    -0.248 NA
ATOM     53  C   UNL A   1      40.842  31.688  30.515  1.00  0.00     0.031 C 
ATOM     54  C   UNL A   1      38.903  27.184  29.445  1.00  0.00     0.029 A 
ATOM     55  N   UNL A   1      41.004  27.601  28.802  1.00  0.00    -0.354 N 
ATOM     56  C   UNL A   1      42.825  31.449  29.399  1.00  0.00     0.074 A 
ATOM     57  C   UNL A   1      41.979  32.297  30.210  1.00  0.00     0.031 C 
ATOM     58  C   UNL A   1      39.404  26.047  28.934  1.00  0.00     0.029 A 
ATOM     59  C   UNL A   1      40.759  26.297  28.446  1.00  0.00     0.049 A 
ATOM     60  H   UNL A   1      41.869  28.046  28.654  1.00  0.00     0.167 HD
ATOM     61  C   UNL A   1      44.064  31.793  28.973  1.00  0.00     0.037 A 
ATOM     62  C   UNL A   1      41.521  25.415  27.770  1.00  0.00     0.037 A 
ATOM     63  C   UNL A   1      44.936  30.934  28.216  1.00  0.00     0.049 A 
ATOM     64  C   UNL A   1      42.884  25.831  27.281  1.00  0.00     0.074 A 
ATOM     65  C   UNL A   1      46.203  31.203  27.725  1.00  0.00     0.029 A 
ATOM     66  N   UNL A   1      44.639  29.627  27.862  1.00  0.00    -0.354 N 
ATOM     67  N   UNL A   1      43.510  26.971  27.436  1.00  0.00    -0.248 NA
ATOM     68  C   UNL A   1      43.642  24.836  26.505  1.00  0.00     0.031 C 
ATOM     69  C   UNL A   1      46.663  30.067  27.050  1.00  0.00     0.029 A 
ATOM     70  C   UNL A   1      45.697  29.079  27.154  1.00  0.00     0.049 A 
ATOM     71  H   UNL A   1      43.802  29.158  28.080  1.00  0.00     0.167 HD
ATOM     72  C   UNL A   1      44.734  26.827  26.796  1.00  0.00     0.074 A 
ATOM     73  C   UNL A   1      44.776  25.480  26.269  1.00  0.00     0.031 C 
ATOM     74  C   UNL A   1      45.732  27.733  26.648  1.00  0.00     0.037 A 
BRANCH  61  75
ATOM     75  C   UNL A   1      44.538  33.182  29.278  1.00  0.00     0.064 A 
ATOM     76  C   UNL A   1      44.170  34.283  28.493  1.00  0.00     0.173 A 
ATOM     77  C   UNL A   1      45.351  33.414  30.400  1.00  0.00     0.173 A 
ATOM     78  F   UNL A   1      43.410  34.109  27.402  1.00  0.00    -0.203 F 
ATOM     79  C   UNL A   1      44.615  35.565  28.807  1.00  0.00     0.198 A 
ATOM     80  C   UNL A   1      45.774  34.699  30.724  1.00  0.00     0.198 A 
ATOM     81  F   UNL A   1      45.728  32.393  31.183  1.00  0.00    -0.203 F 
ATOM     82  F   UNL A   1      44.286  36.600  28.022  1.00  0.00    -0.200 F 
ATOM     83  C   UNL A   1      45.410  35.773  29.926  1.00  0.00     0.200 A 
ATOM     84  F   UNL A   1      46.535  34.899  31.810  1.00  0.00    -0.200 F 
ATOM     85  F   UNL A   1      45.833  37.008  30.230  1.00  0.00    -0.200 F 
ENDBRANCH  61  75
BRANCH  62  86
ATOM     86  C   UNL A   1      40.999  24.056  27.464  1.00  0.00     0.064 A 
ATOM     87  C   UNL A   1      41.545  22.916  28.070  1.00  0.00     0.173 A 
ATOM     88  C   UNL A   1      39.970  23.868  26.529  1.00  0.00     0.173 A 
ATOM     89  F   UNL A   1      42.552  23.040  28.946  1.00  0.00    -0.203 F 
ATOM     90  C   UNL A   1      41.096  21.639  27.736  1.00  0.00     0.198 A 
ATOM     91  C   UNL A   1      39.500  22.594  26.220  1.00  0.00     0.198 A 
ATOM     92  F   UNL A   1      39.418  24.925  25.916  1.00  0.00    -0.203 F 
ATOM     93  F   UNL A   1      41.672  20.563  28.288  1.00  0.00    -0.200 F 
ATOM     94  C   UNL A   1      40.070  21.480  26.816  1.00  0.00     0.200 A 
ATOM     95  F   UNL A   1      38.501  22.446  25.338  1.00  0.00    -0.200 F 
ATOM     96  F   UNL A   1      39.640  20.253  26.495  1.00  0.00    -0.200 F 
ENDBRANCH  62  86
BRANCH  74  97
ATOM     97  C   UNL A   1      46.963  27.286  25.917  1.00  0.00     0.064 A 
ATOM     98  C   UNL A   1      47.993  26.591  26.570  1.00  0.00     0.173 A 
ATOM     99  C   UNL A   1      47.104  27.535  24.544  1.00  0.00     0.173 A 
ATOM    100  F   UNL A   1      47.911  26.343  27.885  1.00  0.00    -0.203 F 
ATOM    101  C   UNL A   1      49.131  26.186  25.878  1.00  0.00     0.198 A 
ATOM    102  C   UNL A   1      48.233  27.106  23.851  1.00  0.00     0.198 A 
ATOM    103  F   UNL A   1      46.146  28.191  23.874  1.00  0.00    -0.203 F 
ATOM    104  F   UNL A   1      50.124  25.566  26.532  1.00  0.00    -0.200 F 
ATOM    105  C   UNL A   1      49.249  26.440  24.519  1.00  0.00     0.200 A 
ATOM    106  F   UNL A   1      48.341  27.343  22.536  1.00  0.00    -0.200 F 
ATOM    107  F   UNL A   1      50.346  26.050  23.856  1.00  0.00    -0.200 F 
ENDBRANCH  74  97
ENDBRANCH  48  49
ENDBRANCH  41  43
ENDBRANCH  40  41
ENDBRANCH  39  40
ENDBRANCH  38  39
ENDBRANCH  37  38
ENDBRANCH   1  37
TORSDOF 18
ENDMDL
