MODEL 1
REMARK VINA RESULT:     -10.3      0.000      0.000
REMARK SMILES CCc1nc(Oc2ccc(C(=O)OCCOCCOCCOC(=O)c3ccc(-c4c5nc(c(-c6c(F)c(F)c(F)c(F)c6F)c6ccc([nH]6)c(-c6c(F)c(F)c(F)c(F)c6F)c6nc(c(-c7c(F)c(F)c(F)c(F)c7F)c7ccc4[nH]7)C=C6)C=C5)cc3)cc2)cc(C(C)C)n1
REMARK SMILES IDX 17 1 16 2 15 3 14 4 13 5 11 6 12 7 10 8 7 9 8 10 89 11 9 12
REMARK SMILES IDX 88 13 6 14 5 15 3 16 4 17 95 18 91 19 90 20 2 21 1 22 92 23
REMARK SMILES IDX 93 24 94 25 18 26 19 27 20 28 21 29 22 30 23 31 24 32 25 33
REMARK SMILES IDX 26 34 87 35 27 36 86 37 28 38 29 39 30 40 80 41 31 42 85 43
REMARK SMILES IDX 79 44 81 45 32 46 84 47 78 48 77 49 33 51 65 52 45 53 64 54
REMARK SMILES IDX 46 55 49 56 63 57 82 58 47 59 48 60 62 62 83 63 50 64 34 65
REMARK SMILES IDX 35 66 43 67 36 68 37 69 41 70 44 71 38 72 39 73 42 74 40 75
REMARK SMILES IDX 66 76 67 77 75 78 68 79 69 80 73 81 76 82 70 83 71 84 74 85
REMARK SMILES IDX 72 86 51 87 52 88 60 89 53 90 54 91 58 92 61 93 55 94 56 95
REMARK SMILES IDX 59 96 57 97
REMARK H PARENT 81 50 49 61
REMARK Flexibility Score: inf
ROOT
ATOM      1  C   UNL A   1      36.612  22.503  25.362  1.00  0.00     0.188 C 
ENDROOT
BRANCH   1   2
ATOM      2  O   UNL A   1      36.239  21.140  25.220  1.00  0.00    -0.376 OA
BRANCH   2   3
ATOM      3  C   UNL A   1      34.887  20.798  24.943  1.00  0.00     0.202 C 
BRANCH   3   4
ATOM      4  C   UNL A   1      33.753  21.618  25.569  1.00  0.00     0.261 C 
BRANCH   4   5
ATOM      5  O   UNL A   1      32.458  21.298  25.042  1.00  0.00    -0.460 OA
BRANCH   5   6
ATOM      6  C   UNL A   1      32.345  21.395  23.697  1.00  0.00     0.338 C 
ATOM      7  O   UNL A   1      32.236  20.478  22.899  1.00  0.00    -0.246 OA
BRANCH   6   8
ATOM      8  C   UNL A   1      32.209  22.812  23.290  1.00  0.00     0.060 A 
ATOM      9  C   UNL A   1      31.729  25.382  22.371  1.00  0.00     0.129 A 
ATOM     10  C   UNL A   1      30.750  24.740  23.125  1.00  0.00     0.048 A 
ATOM     11  C   UNL A   1      32.995  24.813  22.189  1.00  0.00     0.048 A 
ATOM     12  C   UNL A   1      30.989  23.446  23.578  1.00  0.00     0.019 A 
ATOM     13  C   UNL A   1      33.230  23.509  22.630  1.00  0.00     0.019 A 
BRANCH   9  14
ATOM     14  O   UNL A   1      31.383  26.533  21.702  1.00  0.00    -0.439 OA
BRANCH  14  15
ATOM     15  C   UNL A   1      31.070  27.632  22.495  1.00  0.00     0.222 A 
ATOM     16  C   UNL A   1      29.577  29.316  22.897  1.00  0.00     0.132 A 
ATOM     17  N   UNL A   1      29.955  28.282  22.122  1.00  0.00    -0.198 NA
ATOM     18  N   UNL A   1      30.212  29.716  24.019  1.00  0.00    -0.237 NA
ATOM     19  C   UNL A   1      31.326  29.049  24.363  1.00  0.00     0.050 A 
ATOM     20  C   UNL A   1      31.814  28.015  23.597  1.00  0.00     0.093 A 
BRANCH  16  21
ATOM     21  C   UNL A   1      28.371  30.108  22.476  1.00  0.00     0.074 C 
ATOM     22  C   UNL A   1      28.060  31.208  23.479  1.00  0.00     0.012 C 
ENDBRANCH  16  21
BRANCH  19  23
ATOM     23  C   UNL A   1      32.025  29.407  25.659  1.00  0.00     0.032 C 
ATOM     24  C   UNL A   1      31.643  30.809  26.127  1.00  0.00     0.014 C 
ATOM     25  C   UNL A   1      31.734  28.357  26.730  1.00  0.00     0.014 C 
ENDBRANCH  19  23
ENDBRANCH  14  15
ENDBRANCH   9  14
ENDBRANCH   6   8
ENDBRANCH   5   6
ENDBRANCH   4   5
ENDBRANCH   3   4
ENDBRANCH   2   3
ENDBRANCH   1   2
BRANCH   1  26
ATOM     26  C   UNL A   1      37.987  22.883  25.953  1.00  0.00     0.188 C 
BRANCH  26  27
ATOM     27  O   UNL A   1      39.042  21.983  25.727  1.00  0.00    -0.376 OA
BRANCH  27  28
ATOM     28  C   UNL A   1      39.964  21.657  26.751  1.00  0.00     0.202 C 
BRANCH  28  29
ATOM     29  C   UNL A   1      41.333  20.974  26.566  1.00  0.00     0.261 C 
BRANCH  29  30
ATOM     30  O   UNL A   1      42.515  21.752  26.755  1.00  0.00    -0.460 OA
BRANCH  30  31
ATOM     31  C   UNL A   1      42.732  22.715  25.828  1.00  0.00     0.338 C 
ATOM     32  O   UNL A   1      42.948  22.569  24.640  1.00  0.00    -0.246 OA
BRANCH  31  33
ATOM     33  C   UNL A   1      42.508  24.030  26.456  1.00  0.00     0.060 A 
ATOM     34  C   UNL A   1      42.266  25.133  25.628  1.00  0.00     0.016 A 
ATOM     35  C   UNL A   1      42.593  24.183  27.841  1.00  0.00     0.016 A 
ATOM     36  C   UNL A   1      42.147  26.405  26.182  1.00  0.00     0.010 A 
ATOM     37  C   UNL A   1      42.492  25.462  28.394  1.00  0.00     0.010 A 
ATOM     38  C   UNL A   1      42.304  26.582  27.564  1.00  0.00    -0.014 A 
BRANCH  38  39
ATOM     39  C   UNL A   1      42.474  27.949  28.115  1.00  0.00     0.031 A 
ATOM     40  C   UNL A   1      43.867  28.504  28.230  1.00  0.00     0.074 A 
ATOM     41  C   UNL A   1      41.416  28.688  28.491  1.00  0.00     0.049 A 
ATOM     42  N   UNL A   1      44.271  29.646  28.726  1.00  0.00    -0.248 NA
ATOM     43  C   UNL A   1      44.955  27.652  27.720  1.00  0.00     0.031 C 
ATOM     44  C   UNL A   1      40.018  28.276  28.395  1.00  0.00     0.029 A 
ATOM     45  N   UNL A   1      41.362  29.943  29.044  1.00  0.00    -0.354 N 
ATOM     46  C   UNL A   1      45.654  29.645  28.596  1.00  0.00     0.074 A 
ATOM     47  C   UNL A   1      46.026  28.383  27.996  1.00  0.00     0.031 C 
ATOM     48  C   UNL A   1      39.241  29.257  28.890  1.00  0.00     0.029 A 
ATOM     49  C   UNL A   1      40.090  30.350  29.364  1.00  0.00     0.049 A 
ATOM     50  H   UNL A   1      42.160  30.500  29.198  1.00  0.00     0.167 HD
ATOM     51  C   UNL A   1      46.533  30.614  28.941  1.00  0.00     0.037 A 
ATOM     52  C   UNL A   1      39.668  31.467  29.988  1.00  0.00     0.037 A 
ATOM     53  C   UNL A   1      46.164  31.873  29.529  1.00  0.00     0.049 A 
ATOM     54  C   UNL A   1      40.678  32.505  30.413  1.00  0.00     0.074 A 
ATOM     55  C   UNL A   1      46.983  32.927  29.892  1.00  0.00     0.029 A 
ATOM     56  N   UNL A   1      44.866  32.245  29.844  1.00  0.00    -0.354 N 
ATOM     57  N   UNL A   1      41.979  32.514  30.253  1.00  0.00    -0.248 NA
ATOM     58  C   UNL A   1      40.157  33.695  31.104  1.00  0.00     0.031 C 
ATOM     59  C   UNL A   1      46.186  33.920  30.471  1.00  0.00     0.029 A 
ATOM     60  C   UNL A   1      44.865  33.504  30.418  1.00  0.00     0.049 A 
ATOM     61  H   UNL A   1      44.066  31.695  29.684  1.00  0.00     0.167 HD
ATOM     62  C   UNL A   1      42.424  33.720  30.781  1.00  0.00     0.074 A 
ATOM     63  C   UNL A   1      41.253  34.422  31.261  1.00  0.00     0.031 C 
ATOM     64  C   UNL A   1      43.687  34.204  30.861  1.00  0.00     0.037 A 
BRANCH  51  65
ATOM     65  C   UNL A   1      47.991  30.345  28.715  1.00  0.00     0.064 A 
ATOM     66  C   UNL A   1      48.656  30.811  27.573  1.00  0.00     0.173 A 
ATOM     67  C   UNL A   1      48.743  29.668  29.687  1.00  0.00     0.173 A 
ATOM     68  F   UNL A   1      47.977  31.450  26.609  1.00  0.00    -0.203 F 
ATOM     69  C   UNL A   1      50.022  30.598  27.406  1.00  0.00     0.198 A 
ATOM     70  C   UNL A   1      50.113  29.479  29.527  1.00  0.00     0.198 A 
ATOM     71  F   UNL A   1      48.152  29.204  30.797  1.00  0.00    -0.203 F 
ATOM     72  F   UNL A   1      50.634  31.025  26.292  1.00  0.00    -0.200 F 
ATOM     73  C   UNL A   1      50.751  29.942  28.387  1.00  0.00     0.200 A 
ATOM     74  F   UNL A   1      50.817  28.854  30.483  1.00  0.00    -0.200 F 
ATOM     75  F   UNL A   1      52.068  29.752  28.232  1.00  0.00    -0.200 F 
ENDBRANCH  51  65
BRANCH  52  76
ATOM     76  C   UNL A   1      38.223  31.670  30.275  1.00  0.00     0.064 A 
ATOM     77  C   UNL A   1      37.412  32.425  29.415  1.00  0.00     0.173 A 
ATOM     78  C   UNL A   1      37.638  31.169  31.447  1.00  0.00     0.173 A 
ATOM     79  F   UNL A   1      37.931  32.950  28.296  1.00  0.00    -0.203 F 
ATOM     80  C   UNL A   1      36.083  32.699  29.734  1.00  0.00     0.198 A 
ATOM     81  C   UNL A   1      36.301  31.416  31.748  1.00  0.00     0.198 A 
ATOM     82  F   UNL A   1      38.370  30.444  32.307  1.00  0.00    -0.203 F 
ATOM     83  F   UNL A   1      35.351  33.479  28.926  1.00  0.00    -0.200 F 
ATOM     84  C   UNL A   1      35.527  32.191  30.898  1.00  0.00     0.200 A 
ATOM     85  F   UNL A   1      35.766  30.919  32.872  1.00  0.00    -0.200 F 
ATOM     86  F   UNL A   1      34.253  32.465  31.210  1.00  0.00    -0.200 F 
ENDBRANCH  52  76
BRANCH  64  87
ATOM     87  C   UNL A   1      43.869  35.582  31.430  1.00  0.00     0.064 A 
ATOM     88  C   UNL A   1      44.116  35.795  32.792  1.00  0.00     0.173 A 
ATOM     89  C   UNL A   1      43.841  36.702  30.583  1.00  0.00     0.173 A 
ATOM     90  F   UNL A   1      44.141  34.759  33.645  1.00  0.00    -0.203 F 
ATOM     91  C   UNL A   1      44.302  37.081  33.293  1.00  0.00     0.198 A 
ATOM     92  C   UNL A   1      44.059  37.983  31.082  1.00  0.00     0.198 A 
ATOM     93  F   UNL A   1      43.618  36.552  29.269  1.00  0.00    -0.203 F 
ATOM     94  F   UNL A   1      44.491  37.266  34.607  1.00  0.00    -0.200 F 
ATOM     95  C   UNL A   1      44.281  38.173  32.437  1.00  0.00     0.200 A 
ATOM     96  F   UNL A   1      44.054  39.034  30.250  1.00  0.00    -0.200 F 
ATOM     97  F   UNL A   1      44.469  39.409  32.919  1.00  0.00    -0.200 F 
ENDBRANCH  64  87
ENDBRANCH  38  39
ENDBRANCH  31  33
ENDBRANCH  30  31
ENDBRANCH  29  30
ENDBRANCH  28  29
ENDBRANCH  27  28
ENDBRANCH  26  27
ENDBRANCH   1  26
TORSDOF 21
ENDMDL
MODEL 2
REMARK VINA RESULT:     -10.1      5.819     12.274
REMARK SMILES CCc1nc(Oc2ccc(C(=O)OCCOCCOCCOC(=O)c3ccc(-c4c5nc(c(-c6c(F)c(F)c(F)c(F)c6F)c6ccc([nH]6)c(-c6c(F)c(F)c(F)c(F)c6F)c6nc(c(-c7c(F)c(F)c(F)c(F)c7F)c7ccc4[nH]7)C=C6)C=C5)cc3)cc2)cc(C(C)C)n1
REMARK SMILES IDX 17 1 16 2 15 3 14 4 13 5 11 6 12 7 10 8 7 9 8 10 89 11 9 12
REMARK SMILES IDX 88 13 6 14 5 15 3 16 4 17 95 18 91 19 90 20 2 21 1 22 92 23
REMARK SMILES IDX 93 24 94 25 18 26 19 27 20 28 21 29 22 30 23 31 24 32 25 33
REMARK SMILES IDX 26 34 87 35 27 36 86 37 28 38 29 39 30 40 80 41 31 42 85 43
REMARK SMILES IDX 79 44 81 45 32 46 84 47 78 48 77 49 33 51 65 52 45 53 64 54
REMARK SMILES IDX 46 55 49 56 63 57 82 58 47 59 48 60 62 62 83 63 50 64 34 65
REMARK SMILES IDX 35 66 43 67 36 68 37 69 41 70 44 71 38 72 39 73 42 74 40 75
REMARK SMILES IDX 66 76 67 77 75 78 68 79 69 80 73 81 76 82 70 83 71 84 74 85
REMARK SMILES IDX 72 86 51 87 52 88 60 89 53 90 54 91 58 92 61 93 55 94 56 95
REMARK SMILES IDX 59 96 57 97
REMARK H PARENT 81 50 49 61
REMARK Flexibility Score: inf
ROOT
ATOM      1  C   UNL A   1      33.782  36.202  31.735  1.00  0.00     0.188 C 
ENDROOT
BRANCH   1   2
ATOM      2  O   UNL A   1      34.214  35.186  32.628  1.00  0.00    -0.376 OA
BRANCH   2   3
ATOM      3  C   UNL A   1      34.406  33.858  32.157  1.00  0.00     0.202 C 
BRANCH   3   4
ATOM      4  C   UNL A   1      35.749  33.463  31.530  1.00  0.00     0.261 C 
BRANCH   4   5
ATOM      5  O   UNL A   1      36.810  33.333  32.487  1.00  0.00    -0.460 OA
BRANCH   5   6
ATOM      6  C   UNL A   1      36.857  32.145  33.135  1.00  0.00     0.338 C 
ATOM      7  O   UNL A   1      36.377  31.086  32.765  1.00  0.00    -0.246 OA
BRANCH   6   8
ATOM      8  C   UNL A   1      37.728  32.240  34.328  1.00  0.00     0.060 A 
ATOM      9  C   UNL A   1      39.172  32.244  36.693  1.00  0.00     0.129 A 
ATOM     10  C   UNL A   1      38.992  31.043  36.013  1.00  0.00     0.048 A 
ATOM     11  C   UNL A   1      38.761  33.462  36.138  1.00  0.00     0.048 A 
ATOM     12  C   UNL A   1      38.259  31.041  34.830  1.00  0.00     0.019 A 
ATOM     13  C   UNL A   1      38.013  33.459  34.959  1.00  0.00     0.019 A 
BRANCH   9  14
ATOM     14  O   UNL A   1      39.650  32.196  37.982  1.00  0.00    -0.439 OA
BRANCH  14  15
ATOM     15  C   UNL A   1      38.831  32.750  38.961  1.00  0.00     0.222 A 
ATOM     16  C   UNL A   1      36.944  32.486  40.224  1.00  0.00     0.132 A 
ATOM     17  N   UNL A   1      37.736  32.023  39.239  1.00  0.00    -0.198 NA
ATOM     18  N   UNL A   1      37.187  33.592  40.958  1.00  0.00    -0.237 NA
ATOM     19  C   UNL A   1      38.288  34.300  40.653  1.00  0.00     0.050 A 
ATOM     20  C   UNL A   1      39.123  33.928  39.624  1.00  0.00     0.093 A 
BRANCH  16  21
ATOM     21  C   UNL A   1      35.677  31.735  40.522  1.00  0.00     0.074 C 
ATOM     22  C   UNL A   1      35.429  31.648  42.020  1.00  0.00     0.012 C 
ENDBRANCH  16  21
BRANCH  19  23
ATOM     23  C   UNL A   1      38.648  35.501  41.504  1.00  0.00     0.032 C 
ATOM     24  C   UNL A   1      39.922  35.252  42.306  1.00  0.00     0.014 C 
ATOM     25  C   UNL A   1      38.764  36.753  40.636  1.00  0.00     0.014 C 
ENDBRANCH  19  23
ENDBRANCH  14  15
ENDBRANCH   9  14
ENDBRANCH   6   8
ENDBRANCH   5   6
ENDBRANCH   4   5
ENDBRANCH   3   4
ENDBRANCH   2   3
ENDBRANCH   1   2
BRANCH   1  26
ATOM     26  C   UNL A   1      32.805  35.873  30.586  1.00  0.00     0.188 C 
BRANCH  26  27
ATOM     27  O   UNL A   1      33.371  35.661  29.318  1.00  0.00    -0.376 OA
BRANCH  27  28
ATOM     28  C   UNL A   1      33.163  34.452  28.611  1.00  0.00     0.202 C 
BRANCH  28  29
ATOM     29  C   UNL A   1      34.251  33.462  28.150  1.00  0.00     0.261 C 
BRANCH  29  30
ATOM     30  O   UNL A   1      34.391  32.227  28.853  1.00  0.00    -0.460 OA
BRANCH  30  31
ATOM     31  C   UNL A   1      34.389  31.115  28.081  1.00  0.00     0.338 C 
ATOM     32  O   UNL A   1      33.579  30.802  27.228  1.00  0.00    -0.246 OA
BRANCH  31  33
ATOM     33  C   UNL A   1      35.643  30.376  28.318  1.00  0.00     0.060 A 
ATOM     34  C   UNL A   1      35.844  29.788  29.572  1.00  0.00     0.016 A 
ATOM     35  C   UNL A   1      36.630  30.315  27.333  1.00  0.00     0.016 A 
ATOM     36  C   UNL A   1      37.058  29.167  29.861  1.00  0.00     0.010 A 
ATOM     37  C   UNL A   1      37.854  29.708  27.631  1.00  0.00     0.010 A 
ATOM     38  C   UNL A   1      38.085  29.164  28.907  1.00  0.00    -0.014 A 
BRANCH  38  39
ATOM     39  C   UNL A   1      39.459  28.774  29.309  1.00  0.00     0.031 A 
ATOM     40  C   UNL A   1      40.221  29.693  30.224  1.00  0.00     0.074 A 
ATOM     41  C   UNL A   1      40.013  27.627  28.884  1.00  0.00     0.049 A 
ATOM     42  N   UNL A   1      41.448  29.595  30.670  1.00  0.00    -0.248 NA
ATOM     43  C   UNL A   1      39.503  30.887  30.701  1.00  0.00     0.031 C 
ATOM     44  C   UNL A   1      39.364  26.639  28.026  1.00  0.00     0.029 A 
ATOM     45  N   UNL A   1      41.263  27.107  29.113  1.00  0.00    -0.354 N 
ATOM     46  C   UNL A   1      41.650  30.715  31.467  1.00  0.00     0.074 A 
ATOM     47  C   UNL A   1      40.430  31.491  31.429  1.00  0.00     0.031 C 
ATOM     48  C   UNL A   1      40.229  25.637  27.785  1.00  0.00     0.029 A 
ATOM     49  C   UNL A   1      41.499  25.928  28.448  1.00  0.00     0.049 A 
ATOM     50  H   UNL A   1      41.928  27.537  29.698  1.00  0.00     0.167 HD
ATOM     51  C   UNL A   1      42.752  31.060  32.171  1.00  0.00     0.037 A 
ATOM     52  C   UNL A   1      42.622  25.188  28.369  1.00  0.00     0.037 A 
ATOM     53  C   UNL A   1      43.962  30.285  32.217  1.00  0.00     0.049 A 
ATOM     54  C   UNL A   1      43.855  25.629  29.120  1.00  0.00     0.074 A 
ATOM     55  C   UNL A   1      45.125  30.542  32.921  1.00  0.00     0.029 A 
ATOM     56  N   UNL A   1      44.165  29.101  31.524  1.00  0.00    -0.354 N 
ATOM     57  N   UNL A   1      44.026  26.667  29.901  1.00  0.00    -0.248 NA
ATOM     58  C   UNL A   1      45.054  24.786  28.982  1.00  0.00     0.031 C 
ATOM     59  C   UNL A   1      46.050  29.538  32.618  1.00  0.00     0.029 A 
ATOM     60  C   UNL A   1      45.443  28.628  31.768  1.00  0.00     0.049 A 
ATOM     61  H   UNL A   1      43.501  28.663  30.945  1.00  0.00     0.167 HD
ATOM     62  C   UNL A   1      45.329  26.581  30.377  1.00  0.00     0.074 A 
ATOM     63  C   UNL A   1      45.903  25.383  29.804  1.00  0.00     0.031 C 
ATOM     64  C   UNL A   1      45.990  27.416  31.215  1.00  0.00     0.037 A 
BRANCH  51  65
ATOM     65  C   UNL A   1      42.715  32.349  32.936  1.00  0.00     0.064 A 
ATOM     66  C   UNL A   1      42.904  33.586  32.303  1.00  0.00     0.173 A 
ATOM     67  C   UNL A   1      42.423  32.348  34.308  1.00  0.00     0.173 A 
ATOM     68  F   UNL A   1      43.201  33.637  30.996  1.00  0.00    -0.203 F 
ATOM     69  C   UNL A   1      42.814  34.776  33.021  1.00  0.00     0.198 A 
ATOM     70  C   UNL A   1      42.308  33.541  35.016  1.00  0.00     0.198 A 
ATOM     71  F   UNL A   1      42.233  31.191  34.958  1.00  0.00    -0.203 F 
ATOM     72  F   UNL A   1      43.028  35.947  32.404  1.00  0.00    -0.200 F 
ATOM     73  C   UNL A   1      42.506  34.753  34.373  1.00  0.00     0.200 A 
ATOM     74  F   UNL A   1      41.999  33.517  36.320  1.00  0.00    -0.200 F 
ATOM     75  F   UNL A   1      42.403  35.900  35.058  1.00  0.00    -0.200 F 
ENDBRANCH  51  65
BRANCH  52  76
ATOM     76  C   UNL A   1      42.657  23.957  27.535  1.00  0.00     0.064 A 
ATOM     77  C   UNL A   1      42.369  22.700  28.085  1.00  0.00     0.173 A 
ATOM     78  C   UNL A   1      43.040  24.005  26.187  1.00  0.00     0.173 A 
ATOM     79  F   UNL A   1      42.026  22.598  29.377  1.00  0.00    -0.203 F 
ATOM     80  C   UNL A   1      42.498  21.536  27.329  1.00  0.00     0.198 A 
ATOM     81  C   UNL A   1      43.137  22.843  25.423  1.00  0.00     0.198 A 
ATOM     82  F   UNL A   1      43.331  25.181  25.611  1.00  0.00    -0.203 F 
ATOM     83  F   UNL A   1      42.282  20.342  27.900  1.00  0.00    -0.200 F 
ATOM     84  C   UNL A   1      42.878  21.609  25.998  1.00  0.00     0.200 A 
ATOM     85  F   UNL A   1      43.500  22.919  24.135  1.00  0.00    -0.200 F 
ATOM     86  F   UNL A   1      43.014  20.488  25.275  1.00  0.00    -0.200 F 
ENDBRANCH  52  76
BRANCH  64  87
ATOM     87  C   UNL A   1      47.386  27.037  31.616  1.00  0.00     0.064 A 
ATOM     88  C   UNL A   1      47.640  26.140  32.663  1.00  0.00     0.173 A 
ATOM     89  C   UNL A   1      48.486  27.547  30.907  1.00  0.00     0.173 A 
ATOM     90  F   UNL A   1      46.624  25.634  33.379  1.00  0.00    -0.203 F 
ATOM     91  C   UNL A   1      48.943  25.788  33.004  1.00  0.00     0.198 A 
ATOM     92  C   UNL A   1      49.786  27.167  31.230  1.00  0.00     0.198 A 
ATOM     93  F   UNL A   1      48.298  28.400  29.890  1.00  0.00    -0.203 F 
ATOM     94  F   UNL A   1      49.164  24.965  34.039  1.00  0.00    -0.200 F 
ATOM     95  C   UNL A   1      50.014  26.296  32.283  1.00  0.00     0.200 A 
ATOM     96  F   UNL A   1      50.818  27.647  30.521  1.00  0.00    -0.200 F 
ATOM     97  F   UNL A   1      51.267  25.948  32.607  1.00  0.00    -0.200 F 
ENDBRANCH  64  87
ENDBRANCH  38  39
ENDBRANCH  31  33
ENDBRANCH  30  31
ENDBRANCH  29  30
ENDBRANCH  28  29
ENDBRANCH  27  28
ENDBRANCH  26  27
ENDBRANCH   1  26
TORSDOF 21
ENDMDL
MODEL 3
REMARK VINA RESULT:     -10.1      4.372      9.069
REMARK SMILES CCc1nc(Oc2ccc(C(=O)OCCOCCOCCOC(=O)c3ccc(-c4c5nc(c(-c6c(F)c(F)c(F)c(F)c6F)c6ccc([nH]6)c(-c6c(F)c(F)c(F)c(F)c6F)c6nc(c(-c7c(F)c(F)c(F)c(F)c7F)c7ccc4[nH]7)C=C6)C=C5)cc3)cc2)cc(C(C)C)n1
REMARK SMILES IDX 17 1 16 2 15 3 14 4 13 5 11 6 12 7 10 8 7 9 8 10 89 11 9 12
REMARK SMILES IDX 88 13 6 14 5 15 3 16 4 17 95 18 91 19 90 20 2 21 1 22 92 23
REMARK SMILES IDX 93 24 94 25 18 26 19 27 20 28 21 29 22 30 23 31 24 32 25 33
REMARK SMILES IDX 26 34 87 35 27 36 86 37 28 38 29 39 30 40 80 41 31 42 85 43
REMARK SMILES IDX 79 44 81 45 32 46 84 47 78 48 77 49 33 51 65 52 45 53 64 54
REMARK SMILES IDX 46 55 49 56 63 57 82 58 47 59 48 60 62 62 83 63 50 64 34 65
REMARK SMILES IDX 35 66 43 67 36 68 37 69 41 70 44 71 38 72 39 73 42 74 40 75
REMARK SMILES IDX 66 76 67 77 75 78 68 79 69 80 73 81 76 82 70 83 71 84 74 85
REMARK SMILES IDX 72 86 51 87 52 88 60 89 53 90 54 91 58 92 61 93 55 94 56 95
REMARK SMILES IDX 59 96 57 97
REMARK H PARENT 81 50 49 61
REMARK Flexibility Score: inf
ROOT
ATOM      1  C   UNL A   1      44.633  19.100  24.881  1.00  0.00     0.188 C 
ENDROOT
BRANCH   1   2
ATOM      2  O   UNL A   1      44.258  20.248  24.136  1.00  0.00    -0.376 OA
BRANCH   2   3
ATOM      3  C   UNL A   1      44.562  21.547  24.628  1.00  0.00     0.202 C 
BRANCH   3   4
ATOM      4  C   UNL A   1      44.746  21.764  26.134  1.00  0.00     0.261 C 
BRANCH   4   5
ATOM      5  O   UNL A   1      45.918  22.522  26.464  1.00  0.00    -0.460 OA
BRANCH   5   6
ATOM      6  C   UNL A   1      45.681  23.721  27.047  1.00  0.00     0.338 C 
ATOM      7  O   UNL A   1      45.147  23.922  28.125  1.00  0.00    -0.246 OA
BRANCH   6   8
ATOM      8  C   UNL A   1      46.308  24.809  26.263  1.00  0.00     0.060 A 
ATOM      9  C   UNL A   1      47.612  26.926  25.039  1.00  0.00     0.129 A 
ATOM     10  C   UNL A   1      48.368  25.901  25.602  1.00  0.00     0.048 A 
ATOM     11  C   UNL A   1      46.217  26.840  24.958  1.00  0.00     0.048 A 
ATOM     12  C   UNL A   1      47.711  24.843  26.224  1.00  0.00     0.019 A 
ATOM     13  C   UNL A   1      45.558  25.787  25.595  1.00  0.00     0.019 A 
BRANCH   9  14
ATOM     14  O   UNL A   1      48.258  28.086  24.679  1.00  0.00    -0.439 OA
BRANCH  14  15
ATOM     15  C   UNL A   1      49.346  27.941  23.823  1.00  0.00     0.222 A 
ATOM     16  C   UNL A   1      51.610  28.153  23.585  1.00  0.00     0.132 A 
ATOM     17  N   UNL A   1      50.518  28.332  24.352  1.00  0.00    -0.198 NA
ATOM     18  N   UNL A   1      51.611  27.588  22.359  1.00  0.00    -0.237 NA
ATOM     19  C   UNL A   1      50.423  27.211  21.857  1.00  0.00     0.050 A 
ATOM     20  C   UNL A   1      49.251  27.408  22.551  1.00  0.00     0.093 A 
BRANCH  16  21
ATOM     21  C   UNL A   1      52.931  28.636  24.114  1.00  0.00     0.074 C 
ATOM     22  C   UNL A   1      52.783  29.213  25.514  1.00  0.00     0.012 C 
ENDBRANCH  16  21
BRANCH  19  23
ATOM     23  C   UNL A   1      50.385  26.496  20.521  1.00  0.00     0.032 C 
ATOM     24  C   UNL A   1      49.024  25.850  20.276  1.00  0.00     0.014 C 
ATOM     25  C   UNL A   1      50.764  27.454  19.393  1.00  0.00     0.014 C 
ENDBRANCH  19  23
ENDBRANCH  14  15
ENDBRANCH   9  14
ENDBRANCH   6   8
ENDBRANCH   5   6
ENDBRANCH   4   5
ENDBRANCH   3   4
ENDBRANCH   2   3
ENDBRANCH   1   2
BRANCH   1  26
ATOM     26  C   UNL A   1      43.666  18.484  25.915  1.00  0.00     0.188 C 
BRANCH  26  27
ATOM     27  O   UNL A   1      42.294  18.690  25.697  1.00  0.00    -0.376 OA
BRANCH  27  28
ATOM     28  C   UNL A   1      41.554  19.608  26.480  1.00  0.00     0.202 C 
BRANCH  28  29
ATOM     29  C   UNL A   1      41.274  21.086  26.139  1.00  0.00     0.261 C 
BRANCH  29  30
ATOM     30  O   UNL A   1      40.525  21.870  27.067  1.00  0.00    -0.460 OA
BRANCH  30  31
ATOM     31  C   UNL A   1      39.470  22.540  26.545  1.00  0.00     0.338 C 
ATOM     32  O   UNL A   1      38.524  22.078  25.934  1.00  0.00    -0.246 OA
BRANCH  31  33
ATOM     33  C   UNL A   1      39.551  23.949  26.971  1.00  0.00     0.060 A 
ATOM     34  C   UNL A   1      40.153  24.874  26.109  1.00  0.00     0.016 A 
ATOM     35  C   UNL A   1      39.090  24.341  28.229  1.00  0.00     0.016 A 
ATOM     36  C   UNL A   1      40.333  26.192  26.521  1.00  0.00     0.010 A 
ATOM     37  C   UNL A   1      39.288  25.659  28.648  1.00  0.00     0.010 A 
ATOM     38  C   UNL A   1      39.942  26.580  27.810  1.00  0.00    -0.014 A 
BRANCH  38  39
ATOM     39  C   UNL A   1      40.395  27.884  28.354  1.00  0.00     0.031 A 
ATOM     40  C   UNL A   1      41.864  28.078  28.610  1.00  0.00     0.074 A 
ATOM     41  C   UNL A   1      39.526  28.879  28.602  1.00  0.00     0.049 A 
ATOM     42  N   UNL A   1      42.491  29.104  29.127  1.00  0.00    -0.248 NA
ATOM     43  C   UNL A   1      42.748  26.961  28.234  1.00  0.00     0.031 C 
ATOM     44  C   UNL A   1      38.086  28.825  28.362  1.00  0.00     0.029 A 
ATOM     45  N   UNL A   1      39.735  30.130  29.126  1.00  0.00    -0.354 N 
ATOM     46  C   UNL A   1      43.835  28.752  29.147  1.00  0.00     0.074 A 
ATOM     47  C   UNL A   1      43.934  27.413  28.612  1.00  0.00     0.031 C 
ATOM     48  C   UNL A   1      37.536  29.989  28.755  1.00  0.00     0.029 A 
ATOM     49  C   UNL A   1      38.581  30.855  29.300  1.00  0.00     0.049 A 
ATOM     50  H   UNL A   1      40.628  30.477  29.355  1.00  0.00     0.167 HD
ATOM     51  C   UNL A   1      44.891  29.485  29.570  1.00  0.00     0.037 A 
ATOM     52  C   UNL A   1      38.395  32.067  29.857  1.00  0.00     0.037 A 
ATOM     53  C   UNL A   1      44.795  30.821  30.094  1.00  0.00     0.049 A 
ATOM     54  C   UNL A   1      39.587  32.838  30.371  1.00  0.00     0.074 A 
ATOM     55  C   UNL A   1      45.813  31.652  30.526  1.00  0.00     0.029 A 
ATOM     56  N   UNL A   1      43.608  31.517  30.261  1.00  0.00    -0.354 N 
ATOM     57  N   UNL A   1      40.857  32.515  30.352  1.00  0.00    -0.248 NA
ATOM     58  C   UNL A   1      39.316  34.149  30.982  1.00  0.00     0.031 C 
ATOM     59  C   UNL A   1      45.238  32.836  31.000  1.00  0.00     0.029 A 
ATOM     60  C   UNL A   1      43.868  32.761  30.811  1.00  0.00     0.049 A 
ATOM     61  H   UNL A   1      42.715  31.178  30.025  1.00  0.00     0.167 HD
ATOM     62  C   UNL A   1      41.536  33.594  30.905  1.00  0.00     0.074 A 
ATOM     63  C   UNL A   1      40.539  34.585  31.245  1.00  0.00     0.031 C 
ATOM     64  C   UNL A   1      42.866  33.750  31.113  1.00  0.00     0.037 A 
BRANCH  51  65
ATOM     65  C   UNL A   1      46.249  28.852  29.507  1.00  0.00     0.064 A 
ATOM     66  C   UNL A   1      47.109  29.062  28.420  1.00  0.00     0.173 A 
ATOM     67  C   UNL A   1      46.718  28.077  30.578  1.00  0.00     0.173 A 
ATOM     68  F   UNL A   1      46.701  29.783  27.365  1.00  0.00    -0.203 F 
ATOM     69  C   UNL A   1      48.387  28.509  28.403  1.00  0.00     0.198 A 
ATOM     70  C   UNL A   1      48.005  27.548  30.569  1.00  0.00     0.198 A 
ATOM     71  F   UNL A   1      45.933  27.848  31.641  1.00  0.00    -0.203 F 
ATOM     72  F   UNL A   1      49.183  28.697  27.341  1.00  0.00    -0.200 F 
ATOM     73  C   UNL A   1      48.837  27.762  29.482  1.00  0.00     0.200 A 
ATOM     74  F   UNL A   1      48.442  26.835  31.617  1.00  0.00    -0.200 F 
ATOM     75  F   UNL A   1      50.073  27.244  29.471  1.00  0.00    -0.200 F 
ENDBRANCH  51  65
BRANCH  52  76
ATOM     76  C   UNL A   1      37.027  32.637  29.983  1.00  0.00     0.064 A 
ATOM     77  C   UNL A   1      36.509  33.503  29.009  1.00  0.00     0.173 A 
ATOM     78  C   UNL A   1      36.234  32.377  31.110  1.00  0.00     0.173 A 
ATOM     79  F   UNL A   1      37.240  33.805  27.926  1.00  0.00    -0.203 F 
ATOM     80  C   UNL A   1      35.268  34.115  29.176  1.00  0.00     0.198 A 
ATOM     81  C   UNL A   1      34.979  32.965  31.260  1.00  0.00     0.198 A 
ATOM     82  F   UNL A   1      36.683  31.560  32.074  1.00  0.00    -0.203 F 
ATOM     83  F   UNL A   1      34.828  34.991  28.261  1.00  0.00    -0.200 F 
ATOM     84  C   UNL A   1      34.502  33.842  30.299  1.00  0.00     0.200 A 
ATOM     85  F   UNL A   1      34.241  32.694  32.345  1.00  0.00    -0.200 F 
ATOM     86  F   UNL A   1      33.314  34.440  30.464  1.00  0.00    -0.200 F 
ENDBRANCH  52  76
BRANCH  64  87
ATOM     87  C   UNL A   1      43.333  35.062  31.676  1.00  0.00     0.064 A 
ATOM     88  C   UNL A   1      43.500  35.262  33.052  1.00  0.00     0.173 A 
ATOM     89  C   UNL A   1      43.661  36.121  30.813  1.00  0.00     0.173 A 
ATOM     90  F   UNL A   1      43.189  34.285  33.919  1.00  0.00    -0.203 F 
ATOM     91  C   UNL A   1      43.953  36.481  33.549  1.00  0.00     0.198 A 
ATOM     92  C   UNL A   1      44.144  37.327  31.311  1.00  0.00     0.198 A 
ATOM     93  F   UNL A   1      43.529  35.979  29.487  1.00  0.00    -0.203 F 
ATOM     94  F   UNL A   1      44.061  36.665  34.873  1.00  0.00    -0.200 F 
ATOM     95  C   UNL A   1      44.282  37.510  32.678  1.00  0.00     0.200 A 
ATOM     96  F   UNL A   1      44.476  38.314  30.467  1.00  0.00    -0.200 F 
ATOM     97  F   UNL A   1      44.726  38.680  33.158  1.00  0.00    -0.200 F 
ENDBRANCH  64  87
ENDBRANCH  38  39
ENDBRANCH  31  33
ENDBRANCH  30  31
ENDBRANCH  29  30
ENDBRANCH  28  29
ENDBRANCH  27  28
ENDBRANCH  26  27
ENDBRANCH   1  26
TORSDOF 21
ENDMDL
