MODEL 1
REMARK VINA RESULT:     -11.7      0.000      0.000
REMARK SMILES O=C(OCCOCCOCCOC(=O)c1cccc(S(=O)(=O)Nc2ccccc2N2CCOCC2)c1)c1ccc(-c2c3nc(c(-c4c(F)c(F)c(F)c(F)c4F)c4ccc([nH]4)c(-c4c(F)c(F)c(F)c(F)c4F)c4nc(c(-c5c(F)c(F)c(F)c(F)c5F)c5ccc2[nH]5)C=C4)C=C3)cc1
REMARK SMILES IDX 8 1 7 2 6 3 5 4 4 5 3 6 2 7 1 8 37 9 38 10 99 11 39 12 98 13
REMARK SMILES IDX 40 14 41 15 42 16 92 17 43 18 97 19 91 20 93 21 44 22 96 23
REMARK SMILES IDX 90 24 89 25 45 27 77 28 57 29 76 30 58 31 61 32 75 33 94 34
REMARK SMILES IDX 59 35 60 36 74 38 95 39 62 40 46 41 47 42 55 43 48 44 49 45
REMARK SMILES IDX 53 46 56 47 50 48 51 49 54 50 52 51 78 52 79 53 87 54 80 55
REMARK SMILES IDX 81 56 85 57 88 58 82 59 83 60 86 61 84 62 63 63 64 64 72 65
REMARK SMILES IDX 65 66 66 67 70 68 73 69 67 70 68 71 71 72 69 73 9 74 10 75
REMARK SMILES IDX 11 76 12 77 13 78 14 79 15 80 16 81 36 82 17 83 19 84 18 85
REMARK SMILES IDX 20 86 21 87 22 88 23 89 24 91 25 92 29 93 26 94 28 95 27 96
REMARK SMILES IDX 30 97 31 98 35 99 32 100 34 101 33 102
REMARK H PARENT 93 26 61 37 23 90
REMARK Flexibility Score: inf
ROOT
ATOM      1  C   UNL A   1      44.101  19.371  25.034  1.00  0.00     0.188 C 
ENDROOT
BRANCH   1   2
ATOM      2  C   UNL A   1      44.887  20.631  25.376  1.00  0.00     0.188 C 
BRANCH   2   3
ATOM      3  O   UNL A   1      45.575  21.171  24.244  1.00  0.00    -0.376 OA
BRANCH   3   4
ATOM      4  C   UNL A   1      44.930  22.316  23.680  1.00  0.00     0.202 C 
BRANCH   4   5
ATOM      5  C   UNL A   1      43.891  22.974  24.594  1.00  0.00     0.261 C 
BRANCH   5   6
ATOM      6  O   UNL A   1      43.856  24.406  24.490  1.00  0.00    -0.460 OA
BRANCH   6   7
ATOM      7  C   UNL A   1      44.529  25.335  25.210  1.00  0.00     0.338 C 
ATOM      8  O   UNL A   1      45.704  25.558  24.916  1.00  0.00    -0.246 OA
BRANCH   7   9
ATOM      9  C   UNL A   1      43.937  26.139  26.325  1.00  0.00     0.060 A 
ATOM     10  C   UNL A   1      44.224  27.473  26.612  1.00  0.00     0.016 A 
ATOM     11  C   UNL A   1      42.946  25.507  27.096  1.00  0.00     0.016 A 
ATOM     12  C   UNL A   1      43.607  28.144  27.667  1.00  0.00     0.010 A 
ATOM     13  C   UNL A   1      42.288  26.188  28.129  1.00  0.00     0.010 A 
ATOM     14  C   UNL A   1      42.633  27.511  28.431  1.00  0.00    -0.014 A 
BRANCH  14  15
ATOM     15  C   UNL A   1      42.049  28.190  29.607  1.00  0.00     0.031 A 
ATOM     16  C   UNL A   1      40.794  28.963  29.452  1.00  0.00     0.074 A 
ATOM     17  C   UNL A   1      42.503  27.995  30.855  1.00  0.00     0.049 A 
ATOM     18  N   UNL A   1      40.135  29.624  30.362  1.00  0.00    -0.248 NA
ATOM     19  C   UNL A   1      40.141  28.896  28.139  1.00  0.00     0.031 C 
ATOM     20  C   UNL A   1      43.421  26.937  31.218  1.00  0.00     0.029 A 
ATOM     21  N   UNL A   1      42.220  28.614  32.052  1.00  0.00    -0.354 N 
ATOM     22  C   UNL A   1      38.974  30.032  29.746  1.00  0.00     0.074 A 
ATOM     23  C   UNL A   1      39.024  29.568  28.375  1.00  0.00     0.031 C 
ATOM     24  C   UNL A   1      43.671  27.034  32.527  1.00  0.00     0.029 A 
ATOM     25  C   UNL A   1      43.037  28.196  33.074  1.00  0.00     0.049 A 
ATOM     26  H   UNL A   1      41.507  29.284  32.164  1.00  0.00     0.167 HD
ATOM     27  C   UNL A   1      37.957  30.727  30.299  1.00  0.00     0.037 A 
ATOM     28  C   UNL A   1      43.279  28.682  34.304  1.00  0.00     0.037 A 
ATOM     29  C   UNL A   1      37.930  31.178  31.664  1.00  0.00     0.049 A 
ATOM     30  C   UNL A   1      42.311  29.687  34.808  1.00  0.00     0.074 A 
ATOM     31  C   UNL A   1      36.966  31.942  32.293  1.00  0.00     0.029 A 
ATOM     32  N   UNL A   1      38.918  30.926  32.608  1.00  0.00    -0.354 N 
ATOM     33  N   UNL A   1      41.244  30.135  34.203  1.00  0.00    -0.248 NA
ATOM     34  C   UNL A   1      42.507  30.183  36.172  1.00  0.00     0.031 C 
ATOM     35  C   UNL A   1      37.410  32.229  33.588  1.00  0.00     0.029 A 
ATOM     36  C   UNL A   1      38.623  31.592  33.791  1.00  0.00     0.049 A 
ATOM     37  H   UNL A   1      39.710  30.360  32.462  1.00  0.00     0.167 HD
ATOM     38  C   UNL A   1      40.605  30.927  35.126  1.00  0.00     0.074 A 
ATOM     39  C   UNL A   1      41.405  30.897  36.337  1.00  0.00     0.031 C 
ATOM     40  C   UNL A   1      39.443  31.597  34.974  1.00  0.00     0.037 A 
BRANCH  27  41
ATOM     41  C   UNL A   1      36.868  31.139  29.368  1.00  0.00     0.064 A 
ATOM     42  C   UNL A   1      36.756  32.442  28.866  1.00  0.00     0.173 A 
ATOM     43  C   UNL A   1      35.885  30.202  29.019  1.00  0.00     0.173 A 
ATOM     44  F   UNL A   1      37.647  33.383  29.215  1.00  0.00    -0.203 F 
ATOM     45  C   UNL A   1      35.681  32.798  28.055  1.00  0.00     0.198 A 
ATOM     46  C   UNL A   1      34.828  30.554  28.190  1.00  0.00     0.198 A 
ATOM     47  F   UNL A   1      35.941  28.953  29.503  1.00  0.00    -0.203 F 
ATOM     48  F   UNL A   1      35.554  34.062  27.630  1.00  0.00    -0.200 F 
ATOM     49  C   UNL A   1      34.723  31.853  27.713  1.00  0.00     0.200 A 
ATOM     50  F   UNL A   1      33.902  29.642  27.868  1.00  0.00    -0.200 F 
ATOM     51  F   UNL A   1      33.687  32.198  26.939  1.00  0.00    -0.200 F 
ENDBRANCH  27  41
BRANCH  28  52
ATOM     52  C   UNL A   1      44.466  28.310  35.122  1.00  0.00     0.064 A 
ATOM     53  C   UNL A   1      44.416  27.336  36.128  1.00  0.00     0.173 A 
ATOM     54  C   UNL A   1      45.646  29.068  35.013  1.00  0.00     0.173 A 
ATOM     55  F   UNL A   1      43.293  26.629  36.318  1.00  0.00    -0.203 F 
ATOM     56  C   UNL A   1      45.493  27.139  36.997  1.00  0.00     0.198 A 
ATOM     57  C   UNL A   1      46.714  28.885  35.895  1.00  0.00     0.198 A 
ATOM     58  F   UNL A   1      45.749  30.014  34.065  1.00  0.00    -0.203 F 
ATOM     59  F   UNL A   1      45.406  26.223  37.972  1.00  0.00    -0.200 F 
ATOM     60  C   UNL A   1      46.637  27.917  36.885  1.00  0.00     0.200 A 
ATOM     61  F   UNL A   1      47.819  29.635  35.775  1.00  0.00    -0.200 F 
ATOM     62  F   UNL A   1      47.660  27.736  37.733  1.00  0.00    -0.200 F 
ENDBRANCH  28  52
BRANCH  40  63
ATOM     63  C   UNL A   1      38.991  32.380  36.160  1.00  0.00     0.064 A 
ATOM     64  C   UNL A   1      39.392  33.711  36.342  1.00  0.00     0.173 A 
ATOM     65  C   UNL A   1      38.168  31.791  37.127  1.00  0.00     0.173 A 
ATOM     66  F   UNL A   1      40.216  34.295  35.458  1.00  0.00    -0.203 F 
ATOM     67  C   UNL A   1      38.999  34.422  37.467  1.00  0.00     0.198 A 
ATOM     68  C   UNL A   1      37.747  32.516  38.233  1.00  0.00     0.198 A 
ATOM     69  F   UNL A   1      37.777  30.515  36.998  1.00  0.00    -0.203 F 
ATOM     70  F   UNL A   1      39.444  35.671  37.657  1.00  0.00    -0.200 F 
ATOM     71  C   UNL A   1      38.169  33.828  38.406  1.00  0.00     0.200 A 
ATOM     72  F   UNL A   1      36.940  31.946  39.138  1.00  0.00    -0.200 F 
ATOM     73  F   UNL A   1      37.782  34.517  39.488  1.00  0.00    -0.200 F 
ENDBRANCH  40  63
ENDBRANCH  14  15
ENDBRANCH   7   9
ENDBRANCH   6   7
ENDBRANCH   5   6
ENDBRANCH   4   5
ENDBRANCH   3   4
ENDBRANCH   2   3
ENDBRANCH   1   2
BRANCH   1  74
ATOM     74  O   UNL A   1      42.682  19.401  25.158  1.00  0.00    -0.376 OA
BRANCH  74  75
ATOM     75  C   UNL A   1      42.054  18.819  26.292  1.00  0.00     0.202 C 
BRANCH  75  76
ATOM     76  C   UNL A   1      41.958  19.614  27.606  1.00  0.00     0.261 C 
BRANCH  76  77
ATOM     77  O   UNL A   1      40.804  20.441  27.841  1.00  0.00    -0.460 OA
BRANCH  77  78
ATOM     78  C   UNL A   1      41.099  21.753  27.758  1.00  0.00     0.338 C 
ATOM     79  O   UNL A   1      41.954  22.334  28.409  1.00  0.00    -0.246 OA
BRANCH  78  80
ATOM     80  C   UNL A   1      40.188  22.542  26.919  1.00  0.00     0.061 A 
ATOM     81  C   UNL A   1      39.801  23.817  27.346  1.00  0.00     0.016 A 
ATOM     82  C   UNL A   1      39.399  21.817  26.018  1.00  0.00     0.038 A 
ATOM     83  C   UNL A   1      38.593  24.349  26.896  1.00  0.00     0.002 A 
ATOM     84  C   UNL A   1      38.113  22.267  25.717  1.00  0.00     0.088 A 
ATOM     85  C   UNL A   1      37.728  23.557  26.126  1.00  0.00     0.022 A 
BRANCH  84  86
ATOM     86  S   UNL A   1      36.970  21.270  24.772  1.00  0.00     0.261 S 
ATOM     87  O   UNL A   1      36.611  22.039  23.597  1.00  0.00    -0.201 OA
ATOM     88  O   UNL A   1      37.543  19.953  24.600  1.00  0.00    -0.201 OA
BRANCH  86  89
ATOM     89  N   UNL A   1      35.519  20.960  25.541  1.00  0.00    -0.278 N 
ATOM     90  H   UNL A   1      35.387  21.184  26.490  1.00  0.00     0.180 HD
BRANCH  89  91
ATOM     91  C   UNL A   1      34.481  20.361  24.775  1.00  0.00     0.072 A 
ATOM     92  C   UNL A   1      34.445  18.953  24.732  1.00  0.00     0.029 A 
ATOM     93  C   UNL A   1      33.439  21.176  24.269  1.00  0.00     0.061 A 
ATOM     94  C   UNL A   1      33.382  18.309  24.119  1.00  0.00     0.002 A 
ATOM     95  C   UNL A   1      32.413  20.482  23.613  1.00  0.00     0.028 A 
ATOM     96  C   UNL A   1      32.390  19.078  23.527  1.00  0.00     0.002 A 
BRANCH  93  97
ATOM     97  N   UNL A   1      33.375  22.548  24.528  1.00  0.00    -0.365 N 
ATOM     98  C   UNL A   1      33.403  23.536  23.429  1.00  0.00     0.145 C 
ATOM     99  C   UNL A   1      32.726  23.075  25.746  1.00  0.00     0.145 C 
ATOM    100  C   UNL A   1      34.003  24.860  23.932  1.00  0.00     0.181 C 
ATOM    101  C   UNL A   1      33.281  24.458  26.126  1.00  0.00     0.181 C 
ATOM    102  O   UNL A   1      33.241  25.383  25.032  1.00  0.00    -0.378 OA
ENDBRANCH  93  97
ENDBRANCH  89  91
ENDBRANCH  86  89
ENDBRANCH  84  86
ENDBRANCH  78  80
ENDBRANCH  77  78
ENDBRANCH  76  77
ENDBRANCH  75  76
ENDBRANCH  74  75
ENDBRANCH   1  74
TORSDOF 21
ENDMDL
MODEL 2
REMARK VINA RESULT:     -11.0      0.754      6.991
REMARK SMILES O=C(OCCOCCOCCOC(=O)c1cccc(S(=O)(=O)Nc2ccccc2N2CCOCC2)c1)c1ccc(-c2c3nc(c(-c4c(F)c(F)c(F)c(F)c4F)c4ccc([nH]4)c(-c4c(F)c(F)c(F)c(F)c4F)c4nc(c(-c5c(F)c(F)c(F)c(F)c5F)c5ccc2[nH]5)C=C4)C=C3)cc1
REMARK SMILES IDX 8 1 7 2 6 3 5 4 4 5 3 6 2 7 1 8 37 9 38 10 99 11 39 12 98 13
REMARK SMILES IDX 40 14 41 15 42 16 92 17 43 18 97 19 91 20 93 21 44 22 96 23
REMARK SMILES IDX 90 24 89 25 45 27 77 28 57 29 76 30 58 31 61 32 75 33 94 34
REMARK SMILES IDX 59 35 60 36 74 38 95 39 62 40 46 41 47 42 55 43 48 44 49 45
REMARK SMILES IDX 53 46 56 47 50 48 51 49 54 50 52 51 78 52 79 53 87 54 80 55
REMARK SMILES IDX 81 56 85 57 88 58 82 59 83 60 86 61 84 62 63 63 64 64 72 65
REMARK SMILES IDX 65 66 66 67 70 68 73 69 67 70 68 71 71 72 69 73 9 74 10 75
REMARK SMILES IDX 11 76 12 77 13 78 14 79 15 80 16 81 36 82 17 83 19 84 18 85
REMARK SMILES IDX 20 86 21 87 22 88 23 89 24 91 25 92 29 93 26 94 28 95 27 96
REMARK SMILES IDX 30 97 31 98 35 99 32 100 34 101 33 102
REMARK H PARENT 93 26 61 37 23 90
REMARK Flexibility Score: inf
ROOT
ATOM      1  C   UNL A   1      44.041  19.277  24.939  1.00  0.00     0.188 C 
ENDROOT
BRANCH   1   2
ATOM      2  C   UNL A   1      44.786  20.543  25.345  1.00  0.00     0.188 C 
BRANCH   2   3
ATOM      3  O   UNL A   1      45.585  21.071  24.283  1.00  0.00    -0.376 OA
BRANCH   3   4
ATOM      4  C   UNL A   1      44.969  22.165  23.597  1.00  0.00     0.202 C 
BRANCH   4   5
ATOM      5  C   UNL A   1      43.816  22.824  24.362  1.00  0.00     0.261 C 
BRANCH   5   6
ATOM      6  O   UNL A   1      44.033  24.215  24.646  1.00  0.00    -0.460 OA
BRANCH   6   7
ATOM      7  C   UNL A   1      44.788  24.785  25.614  1.00  0.00     0.338 C 
ATOM      8  O   UNL A   1      46.002  24.577  25.602  1.00  0.00    -0.246 OA
BRANCH   7   9
ATOM      9  C   UNL A   1      44.258  25.681  26.690  1.00  0.00     0.060 A 
ATOM     10  C   UNL A   1      44.727  26.958  26.995  1.00  0.00     0.016 A 
ATOM     11  C   UNL A   1      43.136  25.215  27.397  1.00  0.00     0.016 A 
ATOM     12  C   UNL A   1      44.156  27.725  28.009  1.00  0.00     0.010 A 
ATOM     13  C   UNL A   1      42.528  25.997  28.387  1.00  0.00     0.010 A 
ATOM     14  C   UNL A   1      43.051  27.255  28.710  1.00  0.00    -0.014 A 
BRANCH  14  15
ATOM     15  C   UNL A   1      42.506  28.026  29.847  1.00  0.00     0.031 A 
ATOM     16  C   UNL A   1      43.152  27.917  31.177  1.00  0.00     0.074 A 
ATOM     17  C   UNL A   1      41.559  28.966  29.698  1.00  0.00     0.049 A 
ATOM     18  N   UNL A   1      42.820  28.512  32.288  1.00  0.00    -0.248 NA
ATOM     19  C   UNL A   1      44.389  27.126  31.242  1.00  0.00     0.031 C 
ATOM     20  C   UNL A   1      41.152  29.497  28.416  1.00  0.00     0.029 A 
ATOM     21  N   UNL A   1      40.816  29.686  30.607  1.00  0.00    -0.354 N 
ATOM     22  C   UNL A   1      43.817  28.194  33.183  1.00  0.00     0.074 A 
ATOM     23  C   UNL A   1      44.758  27.333  32.497  1.00  0.00     0.031 C 
ATOM     24  C   UNL A   1      40.191  30.401  28.626  1.00  0.00     0.029 A 
ATOM     25  C   UNL A   1      39.835  30.442  30.012  1.00  0.00     0.049 A 
ATOM     26  H   UNL A   1      40.971  29.662  31.579  1.00  0.00     0.167 HD
ATOM     27  C   UNL A   1      43.926  28.607  34.463  1.00  0.00     0.037 A 
ATOM     28  C   UNL A   1      38.760  31.085  30.499  1.00  0.00     0.037 A 
ATOM     29  C   UNL A   1      42.977  29.463  35.124  1.00  0.00     0.049 A 
ATOM     30  C   UNL A   1      38.731  31.282  31.969  1.00  0.00     0.074 A 
ATOM     31  C   UNL A   1      42.977  29.883  36.441  1.00  0.00     0.029 A 
ATOM     32  N   UNL A   1      41.850  30.016  34.528  1.00  0.00    -0.354 N 
ATOM     33  N   UNL A   1      39.638  30.923  32.837  1.00  0.00    -0.248 NA
ATOM     34  C   UNL A   1      37.606  32.041  32.522  1.00  0.00     0.031 C 
ATOM     35  C   UNL A   1      41.806  30.614  36.666  1.00  0.00     0.029 A 
ATOM     36  C   UNL A   1      41.105  30.704  35.476  1.00  0.00     0.049 A 
ATOM     37  H   UNL A   1      41.615  29.933  33.576  1.00  0.00     0.167 HD
ATOM     38  C   UNL A   1      39.228  31.454  34.036  1.00  0.00     0.074 A 
ATOM     39  C   UNL A   1      37.988  32.165  33.784  1.00  0.00     0.031 C 
ATOM     40  C   UNL A   1      39.851  31.369  35.231  1.00  0.00     0.037 A 
BRANCH  27  41
ATOM     41  C   UNL A   1      45.049  28.015  35.245  1.00  0.00     0.064 A 
ATOM     42  C   UNL A   1      46.315  28.611  35.318  1.00  0.00     0.173 A 
ATOM     43  C   UNL A   1      44.851  26.787  35.891  1.00  0.00     0.173 A 
ATOM     44  F   UNL A   1      46.562  29.761  34.671  1.00  0.00    -0.203 F 
ATOM     45  C   UNL A   1      47.353  27.984  36.002  1.00  0.00     0.198 A 
ATOM     46  C   UNL A   1      45.882  26.178  36.594  1.00  0.00     0.198 A 
ATOM     47  F   UNL A   1      43.662  26.171  35.820  1.00  0.00    -0.203 F 
ATOM     48  F   UNL A   1      48.574  28.536  36.015  1.00  0.00    -0.200 F 
ATOM     49  C   UNL A   1      47.134  26.773  36.645  1.00  0.00     0.200 A 
ATOM     50  F   UNL A   1      45.669  25.006  37.207  1.00  0.00    -0.200 F 
ATOM     51  F   UNL A   1      48.135  26.169  37.297  1.00  0.00    -0.200 F 
ENDBRANCH  27  41
BRANCH  28  52
ATOM     52  C   UNL A   1      37.614  31.534  29.660  1.00  0.00     0.064 A 
ATOM     53  C   UNL A   1      37.348  32.886  29.408  1.00  0.00     0.173 A 
ATOM     54  C   UNL A   1      36.657  30.595  29.238  1.00  0.00     0.173 A 
ATOM     55  F   UNL A   1      38.196  33.828  29.846  1.00  0.00    -0.203 F 
ATOM     56  C   UNL A   1      36.168  33.283  28.771  1.00  0.00     0.198 A 
ATOM     57  C   UNL A   1      35.468  30.994  28.622  1.00  0.00     0.198 A 
ATOM     58  F   UNL A   1      36.861  29.286  29.453  1.00  0.00    -0.203 F 
ATOM     59  F   UNL A   1      35.922  34.587  28.571  1.00  0.00    -0.200 F 
ATOM     60  C   UNL A   1      35.226  32.339  28.387  1.00  0.00     0.200 A 
ATOM     61  F   UNL A   1      34.566  30.075  28.245  1.00  0.00    -0.200 F 
ATOM     62  F   UNL A   1      34.087  32.728  27.794  1.00  0.00    -0.200 F 
ENDBRANCH  28  52
BRANCH  40  63
ATOM     63  C   UNL A   1      39.164  32.051  36.365  1.00  0.00     0.064 A 
ATOM     64  C   UNL A   1      38.200  31.383  37.133  1.00  0.00     0.173 A 
ATOM     65  C   UNL A   1      39.459  33.384  36.674  1.00  0.00     0.173 A 
ATOM     66  F   UNL A   1      37.860  30.118  36.839  1.00  0.00    -0.203 F 
ATOM     67  C   UNL A   1      37.537  32.036  38.162  1.00  0.00     0.198 A 
ATOM     68  C   UNL A   1      38.820  34.024  37.728  1.00  0.00     0.198 A 
ATOM     69  F   UNL A   1      40.362  34.064  35.952  1.00  0.00    -0.203 F 
ATOM     70  F   UNL A   1      36.574  31.402  38.844  1.00  0.00    -0.200 F 
ATOM     71  C   UNL A   1      37.855  33.352  38.465  1.00  0.00     0.200 A 
ATOM     72  F   UNL A   1      39.130  35.293  38.026  1.00  0.00    -0.200 F 
ATOM     73  F   UNL A   1      37.221  33.978  39.466  1.00  0.00    -0.200 F 
ENDBRANCH  40  63
ENDBRANCH  14  15
ENDBRANCH   7   9
ENDBRANCH   6   7
ENDBRANCH   5   6
ENDBRANCH   4   5
ENDBRANCH   3   4
ENDBRANCH   2   3
ENDBRANCH   1   2
BRANCH   1  74
ATOM     74  O   UNL A   1      42.633  19.218  25.154  1.00  0.00    -0.376 OA
BRANCH  74  75
ATOM     75  C   UNL A   1      42.122  18.720  26.382  1.00  0.00     0.202 C 
BRANCH  75  76
ATOM     76  C   UNL A   1      42.012  19.654  27.600  1.00  0.00     0.261 C 
BRANCH  76  77
ATOM     77  O   UNL A   1      40.797  20.397  27.806  1.00  0.00    -0.460 OA
BRANCH  77  78
ATOM     78  C   UNL A   1      41.017  21.727  27.825  1.00  0.00     0.338 C 
ATOM     79  O   UNL A   1      41.780  22.313  28.577  1.00  0.00    -0.246 OA
BRANCH  78  80
ATOM     80  C   UNL A   1      40.127  22.514  26.962  1.00  0.00     0.061 A 
ATOM     81  C   UNL A   1      39.745  23.797  27.367  1.00  0.00     0.016 A 
ATOM     82  C   UNL A   1      39.347  21.786  26.055  1.00  0.00     0.038 A 
ATOM     83  C   UNL A   1      38.550  24.335  26.890  1.00  0.00     0.002 A 
ATOM     84  C   UNL A   1      38.070  22.244  25.727  1.00  0.00     0.088 A 
ATOM     85  C   UNL A   1      37.691  23.543  26.114  1.00  0.00     0.022 A 
BRANCH  84  86
ATOM     86  S   UNL A   1      36.934  21.248  24.774  1.00  0.00     0.261 S 
ATOM     87  O   UNL A   1      36.464  22.073  23.679  1.00  0.00    -0.201 OA
ATOM     88  O   UNL A   1      37.571  19.984  24.475  1.00  0.00    -0.201 OA
BRANCH  86  89
ATOM     89  N   UNL A   1      35.551  20.796  25.595  1.00  0.00    -0.278 N 
ATOM     90  H   UNL A   1      35.440  20.989  26.553  1.00  0.00     0.180 HD
BRANCH  89  91
ATOM     91  C   UNL A   1      34.537  20.122  24.858  1.00  0.00     0.072 A 
ATOM     92  C   UNL A   1      34.723  18.746  24.620  1.00  0.00     0.029 A 
ATOM     93  C   UNL A   1      33.323  20.797  24.580  1.00  0.00     0.061 A 
ATOM     94  C   UNL A   1      33.711  18.005  24.030  1.00  0.00     0.002 A 
ATOM     95  C   UNL A   1      32.350  20.020  23.937  1.00  0.00     0.028 A 
ATOM     96  C   UNL A   1      32.543  18.654  23.654  1.00  0.00     0.002 A 
BRANCH  93  97
ATOM     97  N   UNL A   1      33.071  22.094  25.035  1.00  0.00    -0.365 N 
ATOM     98  C   UNL A   1      33.367  23.272  24.193  1.00  0.00     0.145 C 
ATOM     99  C   UNL A   1      32.029  22.368  26.046  1.00  0.00     0.145 C 
ATOM    100  C   UNL A   1      33.669  24.489  25.085  1.00  0.00     0.181 C 
ATOM    101  C   UNL A   1      32.322  23.666  26.819  1.00  0.00     0.181 C 
ATOM    102  O   UNL A   1      32.558  24.779  25.949  1.00  0.00    -0.378 OA
ENDBRANCH  93  97
ENDBRANCH  89  91
ENDBRANCH  86  89
ENDBRANCH  84  86
ENDBRANCH  78  80
ENDBRANCH  77  78
ENDBRANCH  76  77
ENDBRANCH  75  76
ENDBRANCH  74  75
ENDBRANCH   1  74
TORSDOF 21
ENDMDL
MODEL 3
REMARK VINA RESULT:     -10.9      1.590      7.758
REMARK SMILES O=C(OCCOCCOCCOC(=O)c1cccc(S(=O)(=O)Nc2ccccc2N2CCOCC2)c1)c1ccc(-c2c3nc(c(-c4c(F)c(F)c(F)c(F)c4F)c4ccc([nH]4)c(-c4c(F)c(F)c(F)c(F)c4F)c4nc(c(-c5c(F)c(F)c(F)c(F)c5F)c5ccc2[nH]5)C=C4)C=C3)cc1
REMARK SMILES IDX 8 1 7 2 6 3 5 4 4 5 3 6 2 7 1 8 37 9 38 10 99 11 39 12 98 13
REMARK SMILES IDX 40 14 41 15 42 16 92 17 43 18 97 19 91 20 93 21 44 22 96 23
REMARK SMILES IDX 90 24 89 25 45 27 77 28 57 29 76 30 58 31 61 32 75 33 94 34
REMARK SMILES IDX 59 35 60 36 74 38 95 39 62 40 46 41 47 42 55 43 48 44 49 45
REMARK SMILES IDX 53 46 56 47 50 48 51 49 54 50 52 51 78 52 79 53 87 54 80 55
REMARK SMILES IDX 81 56 85 57 88 58 82 59 83 60 86 61 84 62 63 63 64 64 72 65
REMARK SMILES IDX 65 66 66 67 70 68 73 69 67 70 68 71 71 72 69 73 9 74 10 75
REMARK SMILES IDX 11 76 12 77 13 78 14 79 15 80 16 81 36 82 17 83 19 84 18 85
REMARK SMILES IDX 20 86 21 87 22 88 23 89 24 91 25 92 29 93 26 94 28 95 27 96
REMARK SMILES IDX 30 97 31 98 35 99 32 100 34 101 33 102
REMARK H PARENT 93 26 61 37 23 90
REMARK Flexibility Score: inf
ROOT
ATOM      1  C   UNL A   1      40.444  20.247  26.174  1.00  0.00     0.188 C 
ENDROOT
BRANCH   1   2
ATOM      2  C   UNL A   1      41.913  20.061  26.538  1.00  0.00     0.188 C 
BRANCH   2   3
ATOM      3  O   UNL A   1      42.702  19.636  25.424  1.00  0.00    -0.376 OA
BRANCH   3   4
ATOM      4  C   UNL A   1      44.028  20.173  25.427  1.00  0.00     0.202 C 
BRANCH   4   5
ATOM      5  C   UNL A   1      44.280  21.247  24.365  1.00  0.00     0.261 C 
BRANCH   5   6
ATOM      6  O   UNL A   1      43.587  22.480  24.614  1.00  0.00    -0.460 OA
BRANCH   6   7
ATOM      7  C   UNL A   1      44.088  23.693  24.948  1.00  0.00     0.338 C 
ATOM      8  O   UNL A   1      44.977  24.169  24.240  1.00  0.00    -0.246 OA
BRANCH   7   9
ATOM      9  C   UNL A   1      43.616  24.519  26.103  1.00  0.00     0.060 A 
ATOM     10  C   UNL A   1      42.656  24.141  27.041  1.00  0.00     0.016 A 
ATOM     11  C   UNL A   1      44.262  25.752  26.297  1.00  0.00     0.016 A 
ATOM     12  C   UNL A   1      42.292  24.977  28.095  1.00  0.00     0.010 A 
ATOM     13  C   UNL A   1      43.936  26.579  27.379  1.00  0.00     0.010 A 
ATOM     14  C   UNL A   1      42.930  26.200  28.277  1.00  0.00    -0.014 A 
BRANCH  14  15
ATOM     15  C   UNL A   1      42.480  27.126  29.336  1.00  0.00     0.031 A 
ATOM     16  C   UNL A   1      43.215  27.173  30.623  1.00  0.00     0.074 A 
ATOM     17  C   UNL A   1      41.541  28.062  29.129  1.00  0.00     0.049 A 
ATOM     18  N   UNL A   1      42.971  27.916  31.666  1.00  0.00    -0.248 NA
ATOM     19  C   UNL A   1      44.439  26.366  30.708  1.00  0.00     0.031 C 
ATOM     20  C   UNL A   1      41.054  28.432  27.818  1.00  0.00     0.029 A 
ATOM     21  N   UNL A   1      40.875  28.913  29.982  1.00  0.00    -0.354 N 
ATOM     22  C   UNL A   1      44.023  27.691  32.526  1.00  0.00     0.074 A 
ATOM     23  C   UNL A   1      44.898  26.724  31.898  1.00  0.00     0.031 C 
ATOM     24  C   UNL A   1      40.125  29.380  27.971  1.00  0.00     0.029 A 
ATOM     25  C   UNL A   1      39.868  29.610  29.360  1.00  0.00     0.049 A 
ATOM     26  H   UNL A   1      41.097  29.012  30.937  1.00  0.00     0.167 HD
ATOM     27  C   UNL A   1      44.227  28.264  33.731  1.00  0.00     0.037 A 
ATOM     28  C   UNL A   1      38.840  30.338  29.830  1.00  0.00     0.037 A 
ATOM     29  C   UNL A   1      43.341  29.223  34.335  1.00  0.00     0.049 A 
ATOM     30  C   UNL A   1      38.916  30.725  31.260  1.00  0.00     0.074 A 
ATOM     31  C   UNL A   1      43.440  29.810  35.582  1.00  0.00     0.029 A 
ATOM     32  N   UNL A   1      42.185  29.722  33.749  1.00  0.00    -0.354 N 
ATOM     33  N   UNL A   1      39.875  30.458  32.105  1.00  0.00    -0.248 NA
ATOM     34  C   UNL A   1      37.846  31.579  31.782  1.00  0.00     0.031 C 
ATOM     35  C   UNL A   1      42.300  30.594  35.788  1.00  0.00     0.029 A 
ATOM     36  C   UNL A   1      41.519  30.547  34.645  1.00  0.00     0.049 A 
ATOM     37  H   UNL A   1      41.882  29.522  32.834  1.00  0.00     0.167 HD
ATOM     38  C   UNL A   1      39.559  31.151  33.249  1.00  0.00     0.074 A 
ATOM     39  C   UNL A   1      38.317  31.855  32.989  1.00  0.00     0.031 C 
ATOM     40  C   UNL A   1      40.262  31.206  34.400  1.00  0.00     0.037 A 
BRANCH  27  41
ATOM     41  C   UNL A   1      45.392  27.750  34.506  1.00  0.00     0.064 A 
ATOM     42  C   UNL A   1      45.305  26.637  35.352  1.00  0.00     0.173 A 
ATOM     43  C   UNL A   1      46.612  28.436  34.430  1.00  0.00     0.173 A 
ATOM     44  F   UNL A   1      44.141  25.982  35.494  1.00  0.00    -0.203 F 
ATOM     45  C   UNL A   1      46.402  26.237  36.110  1.00  0.00     0.198 A 
ATOM     46  C   UNL A   1      47.711  28.019  35.168  1.00  0.00     0.198 A 
ATOM     47  F   UNL A   1      46.728  29.524  33.654  1.00  0.00    -0.203 F 
ATOM     48  F   UNL A   1      46.287  25.207  36.960  1.00  0.00    -0.200 F 
ATOM     49  C   UNL A   1      47.604  26.923  36.013  1.00  0.00     0.200 A 
ATOM     50  F   UNL A   1      48.868  28.688  35.077  1.00  0.00    -0.200 F 
ATOM     51  F   UNL A   1      48.657  26.541  36.747  1.00  0.00    -0.200 F 
ENDBRANCH  27  41
BRANCH  28  52
ATOM     52  C   UNL A   1      37.646  30.704  29.018  1.00  0.00     0.064 A 
ATOM     53  C   UNL A   1      37.360  32.025  28.649  1.00  0.00     0.173 A 
ATOM     54  C   UNL A   1      36.670  29.729  28.746  1.00  0.00     0.173 A 
ATOM     55  F   UNL A   1      38.227  33.004  28.942  1.00  0.00    -0.203 F 
ATOM     56  C   UNL A   1      36.144  32.359  28.045  1.00  0.00     0.198 A 
ATOM     57  C   UNL A   1      35.446  30.067  28.163  1.00  0.00     0.198 A 
ATOM     58  F   UNL A   1      36.892  28.448  29.078  1.00  0.00    -0.203 F 
ATOM     59  F   UNL A   1      35.882  33.636  27.731  1.00  0.00    -0.200 F 
ATOM     60  C   UNL A   1      35.185  31.383  27.810  1.00  0.00     0.200 A 
ATOM     61  F   UNL A   1      34.528  29.117  27.931  1.00  0.00    -0.200 F 
ATOM     62  F   UNL A   1      34.013  31.712  27.248  1.00  0.00    -0.200 F 
ENDBRANCH  28  52
BRANCH  40  63
ATOM     63  C   UNL A   1      39.668  32.047  35.478  1.00  0.00     0.064 A 
ATOM     64  C   UNL A   1      38.781  31.499  36.415  1.00  0.00     0.173 A 
ATOM     65  C   UNL A   1      39.973  33.411  35.563  1.00  0.00     0.173 A 
ATOM     66  F   UNL A   1      38.431  30.206  36.338  1.00  0.00    -0.203 F 
ATOM     67  C   UNL A   1      38.201  32.297  37.392  1.00  0.00     0.198 A 
ATOM     68  C   UNL A   1      39.420  34.198  36.564  1.00  0.00     0.198 A 
ATOM     69  F   UNL A   1      40.804  33.977  34.675  1.00  0.00    -0.203 F 
ATOM     70  F   UNL A   1      37.307  31.770  38.239  1.00  0.00    -0.200 F 
ATOM     71  C   UNL A   1      38.529  33.642  37.472  1.00  0.00     0.200 A 
ATOM     72  F   UNL A   1      39.740  35.497  36.647  1.00  0.00    -0.200 F 
ATOM     73  F   UNL A   1      37.976  34.409  38.422  1.00  0.00    -0.200 F 
ENDBRANCH  40  63
ENDBRANCH  14  15
ENDBRANCH   7   9
ENDBRANCH   6   7
ENDBRANCH   5   6
ENDBRANCH   4   5
ENDBRANCH   3   4
ENDBRANCH   2   3
ENDBRANCH   1   2
BRANCH   1  74
ATOM     74  O   UNL A   1      39.713  21.292  26.811  1.00  0.00    -0.376 OA
BRANCH  74  75
ATOM     75  C   UNL A   1      39.382  22.470  26.089  1.00  0.00     0.202 C 
BRANCH  75  76
ATOM     76  C   UNL A   1      37.907  22.815  25.822  1.00  0.00     0.261 C 
BRANCH  76  77
ATOM     77  O   UNL A   1      37.250  22.244  24.677  1.00  0.00    -0.460 OA
BRANCH  77  78
ATOM     78  C   UNL A   1      36.636  21.082  24.975  1.00  0.00     0.338 C 
ATOM     79  O   UNL A   1      37.178  19.991  25.067  1.00  0.00    -0.246 OA
BRANCH  78  80
ATOM     80  C   UNL A   1      35.170  21.152  25.030  1.00  0.00     0.061 A 
ATOM     81  C   UNL A   1      34.457  20.085  25.586  1.00  0.00     0.016 A 
ATOM     82  C   UNL A   1      34.561  22.024  24.118  1.00  0.00     0.038 A 
ATOM     83  C   UNL A   1      33.137  19.868  25.193  1.00  0.00     0.002 A 
ATOM     84  C   UNL A   1      33.312  21.699  23.589  1.00  0.00     0.088 A 
ATOM     85  C   UNL A   1      32.583  20.640  24.161  1.00  0.00     0.022 A 
BRANCH  84  86
ATOM     86  S   UNL A   1      32.591  22.634  22.249  1.00  0.00     0.261 S 
ATOM     87  O   UNL A   1      33.689  23.149  21.455  1.00  0.00    -0.201 OA
ATOM     88  O   UNL A   1      31.586  21.817  21.607  1.00  0.00    -0.201 OA
BRANCH  86  89
ATOM     89  N   UNL A   1      31.736  23.988  22.728  1.00  0.00    -0.278 N 
ATOM     90  H   UNL A   1      30.755  23.969  22.806  1.00  0.00     0.180 HD
BRANCH  89  91
ATOM     91  C   UNL A   1      32.477  25.167  23.019  1.00  0.00     0.072 A 
ATOM     92  C   UNL A   1      32.755  26.033  21.943  1.00  0.00     0.029 A 
ATOM     93  C   UNL A   1      32.719  25.513  24.371  1.00  0.00     0.061 A 
ATOM     94  C   UNL A   1      33.350  27.261  22.182  1.00  0.00     0.002 A 
ATOM     95  C   UNL A   1      33.369  26.740  24.558  1.00  0.00     0.028 A 
ATOM     96  C   UNL A   1      33.691  27.593  23.486  1.00  0.00     0.002 A 
BRANCH  93  97
ATOM     97  N   UNL A   1      32.225  24.753  25.434  1.00  0.00    -0.365 N 
ATOM     98  C   UNL A   1      33.115  24.274  26.512  1.00  0.00     0.145 C 
ATOM     99  C   UNL A   1      30.816  24.855  25.867  1.00  0.00     0.145 C 
ATOM    100  C   UNL A   1      32.553  22.976  27.117  1.00  0.00     0.181 C 
ATOM    101  C   UNL A   1      30.350  23.572  26.577  1.00  0.00     0.181 C 
ATOM    102  O   UNL A   1      31.231  23.185  27.640  1.00  0.00    -0.378 OA
ENDBRANCH  93  97
ENDBRANCH  89  91
ENDBRANCH  86  89
ENDBRANCH  84  86
ENDBRANCH  78  80
ENDBRANCH  77  78
ENDBRANCH  76  77
ENDBRANCH  75  76
ENDBRANCH  74  75
ENDBRANCH   1  74
TORSDOF 21
ENDMDL
