MODEL 1
REMARK VINA RESULT:     -11.3      0.000      0.000
REMARK SMILES Cc1cs/c(=N\S(=O)(=O)c2ccc(/C=C/C(=O)OCCOCCOCCOC(=O)c3ccc(-c4c5nc(c(-c6c(F)c(F)c(F)c(F)c6F)c6ccc([nH]6)c(-c6c(F)c(F)c(F)c(F)c6F)c6nc(c(-c7c(F)c(F)c(F)c(F)c7F)c7ccc4[nH]7)C=C6)C=C5)cc3)cc2)[nH]1
REMARK SMILES IDX 22 1 21 2 20 3 19 4 18 5 16 6 17 7 15 8 14 9 13 10 10 11
REMARK SMILES IDX 11 12 94 13 12 14 93 15 7 16 8 17 9 18 6 19 1 20 2 21 3 22
REMARK SMILES IDX 95 23 4 24 5 25 23 27 24 28 25 29 26 30 27 31 28 32 29 33
REMARK SMILES IDX 30 34 31 35 92 36 32 37 91 38 33 39 34 40 35 41 85 42 36 43
REMARK SMILES IDX 90 44 84 45 86 46 37 47 89 48 83 49 82 50 38 52 70 53 50 54
REMARK SMILES IDX 69 55 51 56 54 57 68 58 87 59 52 60 53 61 67 63 88 64 55 65
REMARK SMILES IDX 39 66 40 67 48 68 41 69 42 70 46 71 49 72 43 73 44 74 47 75
REMARK SMILES IDX 45 76 71 77 72 78 80 79 73 80 74 81 78 82 81 83 75 84 76 85
REMARK SMILES IDX 79 86 77 87 56 88 57 89 65 90 58 91 59 92 63 93 66 94 60 95
REMARK SMILES IDX 61 96 64 97 62 98
REMARK H PARENT 95 26 86 51 54 62
REMARK Flexibility Score: inf
ROOT
ATOM      1  C   UNL A   1      34.540  23.522  25.868  1.00  0.00     0.188 C 
ENDROOT
BRANCH   1   2
ATOM      2  O   UNL A   1      35.530  22.510  25.786  1.00  0.00    -0.376 OA
BRANCH   2   3
ATOM      3  C   UNL A   1      35.154  21.162  25.544  1.00  0.00     0.202 C 
BRANCH   3   4
ATOM      4  C   UNL A   1      33.680  20.721  25.473  1.00  0.00     0.261 C 
BRANCH   4   5
ATOM      5  O   UNL A   1      33.373  19.675  24.539  1.00  0.00    -0.460 OA
BRANCH   5   6
ATOM      6  C   UNL A   1      32.618  20.053  23.480  1.00  0.00     0.330 C 
ATOM      7  O   UNL A   1      32.136  19.312  22.635  1.00  0.00    -0.247 OA
BRANCH   6   8
ATOM      8  C   UNL A   1      32.290  21.494  23.488  1.00  0.00     0.094 C 
ATOM      9  C   UNL A   1      32.505  22.383  22.505  1.00  0.00     0.015 C 
BRANCH   9  10
ATOM     10  C   UNL A   1      32.100  23.797  22.624  1.00  0.00    -0.025 A 
ATOM     11  C   UNL A   1      31.400  26.484  23.050  1.00  0.00     0.089 A 
ATOM     12  C   UNL A   1      32.462  26.170  22.197  1.00  0.00     0.023 A 
ATOM     13  C   UNL A   1      30.640  25.471  23.636  1.00  0.00     0.023 A 
ATOM     14  C   UNL A   1      32.799  24.832  21.979  1.00  0.00     0.009 A 
ATOM     15  C   UNL A   1      30.989  24.132  23.414  1.00  0.00     0.009 A 
BRANCH  11  16
ATOM     16  S   UNL A   1      31.095  28.212  23.398  1.00  0.00     0.285 S 
ATOM     17  O   UNL A   1      32.409  28.818  23.483  1.00  0.00    -0.199 OA
ATOM     18  O   UNL A   1      30.190  28.202  24.530  1.00  0.00    -0.199 OA
BRANCH  16  19
ATOM     19  N   UNL A   1      30.327  28.781  22.097  1.00  0.00    -0.130 NA
ATOM     20  C   UNL A   1      27.712  32.404  20.213  1.00  0.00     0.065 C 
ATOM     21  C   UNL A   1      28.452  31.708  21.303  1.00  0.00     0.024 A 
ATOM     22  C   UNL A   1      28.633  32.170  22.552  1.00  0.00     0.089 A 
ATOM     23  N   UNL A   1      29.041  30.477  21.089  1.00  0.00    -0.334 N 
ATOM     24  S   UNL A   1      29.569  31.049  23.518  1.00  0.00    -0.104 S 
ATOM     25  C   UNL A   1      29.717  29.914  22.146  1.00  0.00     0.199 A 
ATOM     26  H   UNL A   1      28.978  30.022  20.219  1.00  0.00     0.169 HD
ENDBRANCH  16  19
ENDBRANCH  11  16
ENDBRANCH   9  10
ENDBRANCH   6   8
ENDBRANCH   5   6
ENDBRANCH   4   5
ENDBRANCH   3   4
ENDBRANCH   2   3
ENDBRANCH   1   2
BRANCH   1  27
ATOM     27  C   UNL A   1      34.883  24.975  25.482  1.00  0.00     0.188 C 
BRANCH  27  28
ATOM     28  O   UNL A   1      33.786  25.819  25.241  1.00  0.00    -0.376 OA
BRANCH  28  29
ATOM     29  C   UNL A   1      33.396  26.781  26.207  1.00  0.00     0.202 C 
BRANCH  29  30
ATOM     30  C   UNL A   1      33.985  28.200  26.369  1.00  0.00     0.261 C 
BRANCH  30  31
ATOM     31  O   UNL A   1      34.025  28.782  27.673  1.00  0.00    -0.460 OA
BRANCH  31  32
ATOM     32  C   UNL A   1      34.622  29.994  27.764  1.00  0.00     0.338 C 
ATOM     33  O   UNL A   1      34.102  31.090  27.641  1.00  0.00    -0.246 OA
BRANCH  32  34
ATOM     34  C   UNL A   1      36.012  29.800  28.210  1.00  0.00     0.060 A 
ATOM     35  C   UNL A   1      37.053  30.057  27.308  1.00  0.00     0.016 A 
ATOM     36  C   UNL A   1      36.285  29.334  29.497  1.00  0.00     0.016 A 
ATOM     37  C   UNL A   1      38.376  29.833  27.688  1.00  0.00     0.010 A 
ATOM     38  C   UNL A   1      37.610  29.091  29.869  1.00  0.00     0.010 A 
ATOM     39  C   UNL A   1      38.660  29.317  28.960  1.00  0.00    -0.014 A 
BRANCH  39  40
ATOM     40  C   UNL A   1      40.037  28.874  29.286  1.00  0.00     0.031 A 
ATOM     41  C   UNL A   1      40.913  29.775  30.110  1.00  0.00     0.074 A 
ATOM     42  C   UNL A   1      40.500  27.683  28.867  1.00  0.00     0.049 A 
ATOM     43  N   UNL A   1      42.163  29.626  30.466  1.00  0.00    -0.248 NA
ATOM     44  C   UNL A   1      40.293  31.018  30.595  1.00  0.00     0.031 C 
ATOM     45  C   UNL A   1      39.736  26.704  28.098  1.00  0.00     0.029 A 
ATOM     46  N   UNL A   1      41.734  27.103  29.024  1.00  0.00    -0.354 N 
ATOM     47  C   UNL A   1      42.481  30.755  31.208  1.00  0.00     0.074 A 
ATOM     48  C   UNL A   1      41.303  31.597  31.226  1.00  0.00     0.031 C 
ATOM     49  C   UNL A   1      40.525  25.646  27.837  1.00  0.00     0.029 A 
ATOM     50  C   UNL A   1      41.856  25.892  28.388  1.00  0.00     0.049 A 
ATOM     51  H   UNL A   1      42.462  27.514  29.543  1.00  0.00     0.167 HD
ATOM     52  C   UNL A   1      43.648  31.059  31.826  1.00  0.00     0.037 A 
ATOM     53  C   UNL A   1      42.930  25.090  28.243  1.00  0.00     0.037 A 
ATOM     54  C   UNL A   1      44.818  30.222  31.803  1.00  0.00     0.049 A 
ATOM     55  C   UNL A   1      44.242  25.490  28.872  1.00  0.00     0.074 A 
ATOM     56  C   UNL A   1      46.042  30.432  32.413  1.00  0.00     0.029 A 
ATOM     57  N   UNL A   1      44.915  29.016  31.121  1.00  0.00    -0.354 N 
ATOM     58  N   UNL A   1      44.529  26.545  29.597  1.00  0.00    -0.248 NA
ATOM     59  C   UNL A   1      45.380  24.583  28.664  1.00  0.00     0.031 C 
ATOM     60  C   UNL A   1      46.899  29.388  32.049  1.00  0.00     0.029 A 
ATOM     61  C   UNL A   1      46.188  28.490  31.269  1.00  0.00     0.049 A 
ATOM     62  H   UNL A   1      44.186  28.599  30.607  1.00  0.00     0.167 HD
ATOM     63  C   UNL A   1      45.864  26.411  29.958  1.00  0.00     0.074 A 
ATOM     64  C   UNL A   1      46.329  25.166  29.383  1.00  0.00     0.031 C 
ATOM     65  C   UNL A   1      46.636  27.244  30.699  1.00  0.00     0.037 A 
BRANCH  52  66
ATOM     66  C   UNL A   1      43.727  32.370  32.555  1.00  0.00     0.064 A 
ATOM     67  C   UNL A   1      44.144  33.548  31.916  1.00  0.00     0.173 A 
ATOM     68  C   UNL A   1      43.347  32.455  33.903  1.00  0.00     0.173 A 
ATOM     69  F   UNL A   1      44.530  33.521  30.632  1.00  0.00    -0.203 F 
ATOM     70  C   UNL A   1      44.205  34.755  32.608  1.00  0.00     0.198 A 
ATOM     71  C   UNL A   1      43.378  33.670  34.582  1.00  0.00     0.198 A 
ATOM     72  F   UNL A   1      42.937  31.360  34.561  1.00  0.00    -0.203 F 
ATOM     73  F   UNL A   1      44.655  35.858  31.992  1.00  0.00    -0.200 F 
ATOM     74  C   UNL A   1      43.813  34.817  33.938  1.00  0.00     0.200 A 
ATOM     75  F   UNL A   1      42.985  33.730  35.862  1.00  0.00    -0.200 F 
ATOM     76  F   UNL A   1      43.864  35.981  34.600  1.00  0.00    -0.200 F 
ENDBRANCH  52  66
BRANCH  53  77
ATOM     77  C   UNL A   1      42.820  23.832  27.459  1.00  0.00     0.064 A 
ATOM     78  C   UNL A   1      42.389  22.639  28.056  1.00  0.00     0.173 A 
ATOM     79  C   UNL A   1      43.171  23.788  26.101  1.00  0.00     0.173 A 
ATOM     80  F   UNL A   1      42.070  22.622  29.359  1.00  0.00    -0.203 F 
ATOM     81  C   UNL A   1      42.335  21.449  27.334  1.00  0.00     0.198 A 
ATOM     82  C   UNL A   1      43.085  22.604  25.371  1.00  0.00     0.198 A 
ATOM     83  F   UNL A   1      43.596  24.899  25.481  1.00  0.00    -0.203 F 
ATOM     84  F   UNL A   1      41.973  20.313  27.946  1.00  0.00    -0.200 F 
ATOM     85  C   UNL A   1      42.677  21.434  25.990  1.00  0.00     0.200 A 
ATOM     86  F   UNL A   1      43.408  22.597  24.070  1.00  0.00    -0.200 F 
ATOM     87  F   UNL A   1      42.624  20.289  25.296  1.00  0.00    -0.200 F 
ENDBRANCH  53  77
BRANCH  65  88
ATOM     88  C   UNL A   1      48.053  26.818  30.975  1.00  0.00     0.064 A 
ATOM     89  C   UNL A   1      48.375  25.959  32.037  1.00  0.00     0.173 A 
ATOM     90  C   UNL A   1      49.095  27.242  30.136  1.00  0.00     0.173 A 
ATOM     91  F   UNL A   1      47.420  25.533  32.876  1.00  0.00    -0.203 F 
ATOM     92  C   UNL A   1      49.693  25.568  32.266  1.00  0.00     0.198 A 
ATOM     93  C   UNL A   1      50.405  26.821  30.347  1.00  0.00     0.198 A 
ATOM     94  F   UNL A   1      48.842  28.056  29.100  1.00  0.00    -0.203 F 
ATOM     95  F   UNL A   1      49.985  24.790  33.319  1.00  0.00    -0.200 F 
ATOM     96  C   UNL A   1      50.704  25.991  31.417  1.00  0.00     0.200 A 
ATOM     97  F   UNL A   1      51.377  27.216  29.514  1.00  0.00    -0.200 F 
ATOM     98  F   UNL A   1      51.969  25.605  31.634  1.00  0.00    -0.200 F 
ENDBRANCH  65  88
ENDBRANCH  39  40
ENDBRANCH  32  34
ENDBRANCH  31  32
ENDBRANCH  30  31
ENDBRANCH  29  30
ENDBRANCH  28  29
ENDBRANCH  27  28
ENDBRANCH   1  27
TORSDOF 20
ENDMDL
MODEL 2
REMARK VINA RESULT:     -11.3      3.918      7.090
REMARK SMILES Cc1cs/c(=N\S(=O)(=O)c2ccc(/C=C/C(=O)OCCOCCOCCOC(=O)c3ccc(-c4c5nc(c(-c6c(F)c(F)c(F)c(F)c6F)c6ccc([nH]6)c(-c6c(F)c(F)c(F)c(F)c6F)c6nc(c(-c7c(F)c(F)c(F)c(F)c7F)c7ccc4[nH]7)C=C6)C=C5)cc3)cc2)[nH]1
REMARK SMILES IDX 22 1 21 2 20 3 19 4 18 5 16 6 17 7 15 8 14 9 13 10 10 11
REMARK SMILES IDX 11 12 94 13 12 14 93 15 7 16 8 17 9 18 6 19 1 20 2 21 3 22
REMARK SMILES IDX 95 23 4 24 5 25 23 27 24 28 25 29 26 30 27 31 28 32 29 33
REMARK SMILES IDX 30 34 31 35 92 36 32 37 91 38 33 39 34 40 35 41 85 42 36 43
REMARK SMILES IDX 90 44 84 45 86 46 37 47 89 48 83 49 82 50 38 52 70 53 50 54
REMARK SMILES IDX 69 55 51 56 54 57 68 58 87 59 52 60 53 61 67 63 88 64 55 65
REMARK SMILES IDX 39 66 40 67 48 68 41 69 42 70 46 71 49 72 43 73 44 74 47 75
REMARK SMILES IDX 45 76 71 77 72 78 80 79 73 80 74 81 78 82 81 83 75 84 76 85
REMARK SMILES IDX 79 86 77 87 56 88 57 89 65 90 58 91 59 92 63 93 66 94 60 95
REMARK SMILES IDX 61 96 64 97 62 98
REMARK H PARENT 95 26 86 51 54 62
REMARK Flexibility Score: inf
ROOT
ATOM      1  C   UNL A   1      33.447  37.195  32.312  1.00  0.00     0.188 C 
ENDROOT
BRANCH   1   2
ATOM      2  O   UNL A   1      32.578  36.976  31.214  1.00  0.00    -0.376 OA
BRANCH   2   3
ATOM      3  C   UNL A   1      32.630  35.752  30.495  1.00  0.00     0.202 C 
BRANCH   3   4
ATOM      4  C   UNL A   1      33.290  35.641  29.109  1.00  0.00     0.261 C 
BRANCH   4   5
ATOM      5  O   UNL A   1      32.884  34.528  28.297  1.00  0.00    -0.460 OA
BRANCH   5   6
ATOM      6  C   UNL A   1      33.681  33.436  28.377  1.00  0.00     0.330 C 
ATOM      7  O   UNL A   1      34.714  33.341  29.024  1.00  0.00    -0.247 OA
BRANCH   6   8
ATOM      8  C   UNL A   1      33.116  32.256  27.690  1.00  0.00     0.094 C 
ATOM      9  C   UNL A   1      33.662  31.033  27.588  1.00  0.00     0.015 C 
BRANCH   9  10
ATOM     10  C   UNL A   1      32.979  29.922  26.899  1.00  0.00    -0.025 A 
ATOM     11  C   UNL A   1      31.862  27.700  25.593  1.00  0.00     0.089 A 
ATOM     12  C   UNL A   1      31.479  28.001  26.903  1.00  0.00     0.023 A 
ATOM     13  C   UNL A   1      32.741  28.537  24.904  1.00  0.00     0.023 A 
ATOM     14  C   UNL A   1      32.029  29.113  27.545  1.00  0.00     0.009 A 
ATOM     15  C   UNL A   1      33.290  29.648  25.558  1.00  0.00     0.009 A 
BRANCH  11  16
ATOM     16  S   UNL A   1      31.230  26.193  24.866  1.00  0.00     0.285 S 
ATOM     17  O   UNL A   1      31.474  26.329  23.443  1.00  0.00    -0.199 OA
ATOM     18  O   UNL A   1      29.887  26.067  25.397  1.00  0.00    -0.199 OA
BRANCH  16  19
ATOM     19  N   UNL A   1      32.158  25.011  25.457  1.00  0.00    -0.130 NA
ATOM     20  C   UNL A   1      34.140  20.656  24.673  1.00  0.00     0.065 C 
ATOM     21  C   UNL A   1      33.304  21.836  24.312  1.00  0.00     0.024 A 
ATOM     22  C   UNL A   1      32.638  22.005  23.157  1.00  0.00     0.089 A 
ATOM     23  N   UNL A   1      33.155  22.895  25.185  1.00  0.00    -0.334 N 
ATOM     24  S   UNL A   1      31.786  23.534  23.130  1.00  0.00    -0.104 S 
ATOM     25  C   UNL A   1      32.378  23.949  24.764  1.00  0.00     0.199 A 
ATOM     26  H   UNL A   1      33.585  22.897  26.070  1.00  0.00     0.169 HD
ENDBRANCH  16  19
ENDBRANCH  11  16
ENDBRANCH   9  10
ENDBRANCH   6   8
ENDBRANCH   5   6
ENDBRANCH   4   5
ENDBRANCH   3   4
ENDBRANCH   2   3
ENDBRANCH   1   2
BRANCH   1  27
ATOM     27  C   UNL A   1      34.714  36.332  32.483  1.00  0.00     0.188 C 
BRANCH  27  28
ATOM     28  O   UNL A   1      34.842  35.673  33.717  1.00  0.00    -0.376 OA
BRANCH  28  29
ATOM     29  C   UNL A   1      34.783  34.258  33.783  1.00  0.00     0.202 C 
BRANCH  29  30
ATOM     30  C   UNL A   1      34.391  33.307  32.631  1.00  0.00     0.261 C 
BRANCH  30  31
ATOM     31  O   UNL A   1      35.161  32.121  32.426  1.00  0.00    -0.460 OA
BRANCH  31  32
ATOM     32  C   UNL A   1      36.300  32.020  33.150  1.00  0.00     0.338 C 
ATOM     33  O   UNL A   1      36.462  32.303  34.325  1.00  0.00    -0.246 OA
BRANCH  32  34
ATOM     34  C   UNL A   1      37.318  31.341  32.330  1.00  0.00     0.060 A 
ATOM     35  C   UNL A   1      38.368  30.673  32.974  1.00  0.00     0.016 A 
ATOM     36  C   UNL A   1      37.257  31.394  30.937  1.00  0.00     0.016 A 
ATOM     37  C   UNL A   1      39.372  30.064  32.221  1.00  0.00     0.010 A 
ATOM     38  C   UNL A   1      38.275  30.801  30.185  1.00  0.00     0.010 A 
ATOM     39  C   UNL A   1      39.350  30.153  30.823  1.00  0.00    -0.014 A 
BRANCH  39  40
ATOM     40  C   UNL A   1      40.522  29.702  30.035  1.00  0.00     0.031 A 
ATOM     41  C   UNL A   1      41.619  30.687  29.740  1.00  0.00     0.074 A 
ATOM     42  C   UNL A   1      40.617  28.435  29.596  1.00  0.00     0.049 A 
ATOM     43  N   UNL A   1      42.704  30.537  29.023  1.00  0.00    -0.248 NA
ATOM     44  C   UNL A   1      41.469  32.025  30.333  1.00  0.00     0.031 C 
ATOM     45  C   UNL A   1      39.641  27.378  29.851  1.00  0.00     0.029 A 
ATOM     46  N   UNL A   1      41.583  27.828  28.833  1.00  0.00    -0.354 N 
ATOM     47  C   UNL A   1      43.359  31.760  29.072  1.00  0.00     0.074 A 
ATOM     48  C   UNL A   1      42.537  32.651  29.862  1.00  0.00     0.031 C 
ATOM     49  C   UNL A   1      40.051  26.253  29.241  1.00  0.00     0.029 A 
ATOM     50  C   UNL A   1      41.297  26.521  28.524  1.00  0.00     0.049 A 
ATOM     51  H   UNL A   1      42.402  28.285  28.535  1.00  0.00     0.167 HD
ATOM     52  C   UNL A   1      44.545  32.105  28.515  1.00  0.00     0.037 A 
ATOM     53  C   UNL A   1      41.952  25.652  27.729  1.00  0.00     0.037 A 
ATOM     54  C   UNL A   1      45.358  31.217  27.726  1.00  0.00     0.049 A 
ATOM     55  C   UNL A   1      43.228  26.086  27.052  1.00  0.00     0.074 A 
ATOM     56  C   UNL A   1      46.583  31.466  27.134  1.00  0.00     0.029 A 
ATOM     57  N   UNL A   1      45.020  29.909  27.407  1.00  0.00    -0.354 N 
ATOM     58  N   UNL A   1      43.859  27.234  27.125  1.00  0.00    -0.248 NA
ATOM     59  C   UNL A   1      43.887  25.100  26.183  1.00  0.00     0.031 C 
ATOM     60  C   UNL A   1      46.957  30.333  26.405  1.00  0.00     0.029 A 
ATOM     61  C   UNL A   1      45.998  29.351  26.600  1.00  0.00     0.049 A 
ATOM     62  H   UNL A   1      44.205  29.447  27.710  1.00  0.00     0.167 HD
ATOM     63  C   UNL A   1      45.000  27.097  26.343  1.00  0.00     0.074 A 
ATOM     64  C   UNL A   1      44.982  25.749  25.815  1.00  0.00     0.031 C 
ATOM     65  C   UNL A   1      45.975  28.004  26.087  1.00  0.00     0.037 A 
BRANCH  52  66
ATOM     66  C   UNL A   1      45.019  33.517  28.711  1.00  0.00     0.064 A 
ATOM     67  C   UNL A   1      44.717  34.534  27.793  1.00  0.00     0.173 A 
ATOM     68  C   UNL A   1      45.758  33.862  29.853  1.00  0.00     0.173 A 
ATOM     69  F   UNL A   1      44.024  34.256  26.679  1.00  0.00    -0.203 F 
ATOM     70  C   UNL A   1      45.162  35.838  27.997  1.00  0.00     0.198 A 
ATOM     71  C   UNL A   1      46.173  35.174  30.069  1.00  0.00     0.198 A 
ATOM     72  F   UNL A   1      46.072  32.929  30.764  1.00  0.00    -0.203 F 
ATOM     73  F   UNL A   1      44.905  36.783  27.081  1.00  0.00    -0.200 F 
ATOM     74  C   UNL A   1      45.882  36.159  29.139  1.00  0.00     0.200 A 
ATOM     75  F   UNL A   1      46.855  35.483  31.180  1.00  0.00    -0.200 F 
ATOM     76  F   UNL A   1      46.302  37.416  29.337  1.00  0.00    -0.200 F 
ENDBRANCH  52  66
BRANCH  53  77
ATOM     77  C   UNL A   1      41.410  24.284  27.513  1.00  0.00     0.064 A 
ATOM     78  C   UNL A   1      42.033  23.160  28.071  1.00  0.00     0.173 A 
ATOM     79  C   UNL A   1      40.272  24.070  26.720  1.00  0.00     0.173 A 
ATOM     80  F   UNL A   1      43.141  23.309  28.813  1.00  0.00    -0.203 F 
ATOM     81  C   UNL A   1      41.556  21.874  27.827  1.00  0.00     0.198 A 
ATOM     82  C   UNL A   1      39.775  22.786  26.503  1.00  0.00     0.198 A 
ATOM     83  F   UNL A   1      39.640  25.110  26.157  1.00  0.00    -0.203 F 
ATOM     84  F   UNL A   1      42.205  20.814  28.327  1.00  0.00    -0.200 F 
ATOM     85  C   UNL A   1      40.423  21.689  27.049  1.00  0.00     0.200 A 
ATOM     86  F   UNL A   1      38.675  22.613  25.758  1.00  0.00    -0.200 F 
ATOM     87  F   UNL A   1      39.963  20.452  26.814  1.00  0.00    -0.200 F 
ENDBRANCH  53  77
BRANCH  65  88
ATOM     88  C   UNL A   1      47.132  27.560  25.234  1.00  0.00     0.064 A 
ATOM     89  C   UNL A   1      47.201  27.859  23.865  1.00  0.00     0.173 A 
ATOM     90  C   UNL A   1      48.207  26.862  25.807  1.00  0.00     0.173 A 
ATOM     91  F   UNL A   1      46.196  28.513  23.265  1.00  0.00    -0.203 F 
ATOM     92  C   UNL A   1      48.288  27.448  23.096  1.00  0.00     0.198 A 
ATOM     93  C   UNL A   1      49.308  26.484  25.044  1.00  0.00     0.198 A 
ATOM     94  F   UNL A   1      48.197  26.557  27.114  1.00  0.00    -0.203 F 
ATOM     95  F   UNL A   1      48.308  27.698  21.780  1.00  0.00    -0.200 F 
ATOM     96  C   UNL A   1      49.344  26.769  23.688  1.00  0.00     0.200 A 
ATOM     97  F   UNL A   1      50.334  25.845  25.621  1.00  0.00    -0.200 F 
ATOM     98  F   UNL A   1      50.393  26.384  22.949  1.00  0.00    -0.200 F 
ENDBRANCH  65  88
ENDBRANCH  39  40
ENDBRANCH  32  34
ENDBRANCH  31  32
ENDBRANCH  30  31
ENDBRANCH  29  30
ENDBRANCH  28  29
ENDBRANCH  27  28
ENDBRANCH   1  27
TORSDOF 20
ENDMDL
MODEL 3
REMARK VINA RESULT:     -11.2      4.762     10.520
REMARK SMILES Cc1cs/c(=N\S(=O)(=O)c2ccc(/C=C/C(=O)OCCOCCOCCOC(=O)c3ccc(-c4c5nc(c(-c6c(F)c(F)c(F)c(F)c6F)c6ccc([nH]6)c(-c6c(F)c(F)c(F)c(F)c6F)c6nc(c(-c7c(F)c(F)c(F)c(F)c7F)c7ccc4[nH]7)C=C6)C=C5)cc3)cc2)[nH]1
REMARK SMILES IDX 22 1 21 2 20 3 19 4 18 5 16 6 17 7 15 8 14 9 13 10 10 11
REMARK SMILES IDX 11 12 94 13 12 14 93 15 7 16 8 17 9 18 6 19 1 20 2 21 3 22
REMARK SMILES IDX 95 23 4 24 5 25 23 27 24 28 25 29 26 30 27 31 28 32 29 33
REMARK SMILES IDX 30 34 31 35 92 36 32 37 91 38 33 39 34 40 35 41 85 42 36 43
REMARK SMILES IDX 90 44 84 45 86 46 37 47 89 48 83 49 82 50 38 52 70 53 50 54
REMARK SMILES IDX 69 55 51 56 54 57 68 58 87 59 52 60 53 61 67 63 88 64 55 65
REMARK SMILES IDX 39 66 40 67 48 68 41 69 42 70 46 71 49 72 43 73 44 74 47 75
REMARK SMILES IDX 45 76 71 77 72 78 80 79 73 80 74 81 78 82 81 83 75 84 76 85
REMARK SMILES IDX 79 86 77 87 56 88 57 89 65 90 58 91 59 92 63 93 66 94 60 95
REMARK SMILES IDX 61 96 64 97 62 98
REMARK H PARENT 95 26 86 51 54 62
REMARK Flexibility Score: inf
ROOT
ATOM      1  C   UNL A   1      31.409  29.356  25.357  1.00  0.00     0.188 C 
ENDROOT
BRANCH   1   2
ATOM      2  O   UNL A   1      32.365  28.413  24.901  1.00  0.00    -0.376 OA
BRANCH   2   3
ATOM      3  C   UNL A   1      32.022  27.039  24.802  1.00  0.00     0.202 C 
BRANCH   3   4
ATOM      4  C   UNL A   1      32.559  26.137  23.676  1.00  0.00     0.261 C 
BRANCH   4   5
ATOM      5  O   UNL A   1      33.285  24.968  24.087  1.00  0.00    -0.460 OA
BRANCH   5   6
ATOM      6  C   UNL A   1      33.866  24.269  23.083  1.00  0.00     0.330 C 
ATOM      7  O   UNL A   1      33.517  24.261  21.911  1.00  0.00    -0.247 OA
BRANCH   6   8
ATOM      8  C   UNL A   1      35.102  23.575  23.502  1.00  0.00     0.094 C 
ATOM      9  C   UNL A   1      35.503  23.313  24.757  1.00  0.00     0.015 C 
BRANCH   9  10
ATOM     10  C   UNL A   1      36.751  22.579  25.045  1.00  0.00    -0.025 A 
ATOM     11  C   UNL A   1      39.064  21.175  25.798  1.00  0.00     0.089 A 
ATOM     12  C   UNL A   1      38.087  20.541  25.025  1.00  0.00     0.023 A 
ATOM     13  C   UNL A   1      38.932  22.522  26.138  1.00  0.00     0.023 A 
ATOM     14  C   UNL A   1      36.943  21.246  24.644  1.00  0.00     0.009 A 
ATOM     15  C   UNL A   1      37.779  23.219  25.754  1.00  0.00     0.009 A 
BRANCH  11  16
ATOM     16  S   UNL A   1      40.442  20.190  26.370  1.00  0.00     0.285 S 
ATOM     17  O   UNL A   1      40.258  18.889  25.756  1.00  0.00    -0.199 OA
ATOM     18  O   UNL A   1      40.437  20.356  27.810  1.00  0.00    -0.199 OA
BRANCH  16  19
ATOM     19  N   UNL A   1      41.757  20.892  25.749  1.00  0.00    -0.130 NA
ATOM     20  C   UNL A   1      46.406  20.354  24.480  1.00  0.00     0.065 C 
ATOM     21  C   UNL A   1      45.105  19.892  25.041  1.00  0.00     0.024 A 
ATOM     22  C   UNL A   1      44.844  18.661  25.511  1.00  0.00     0.089 A 
ATOM     23  N   UNL A   1      44.020  20.742  25.113  1.00  0.00    -0.334 N 
ATOM     24  S   UNL A   1      43.189  18.529  26.070  1.00  0.00    -0.104 S 
ATOM     25  C   UNL A   1      42.854  20.228  25.631  1.00  0.00     0.199 A 
ATOM     26  H   UNL A   1      44.077  21.676  24.807  1.00  0.00     0.169 HD
ENDBRANCH  16  19
ENDBRANCH  11  16
ENDBRANCH   9  10
ENDBRANCH   6   8
ENDBRANCH   5   6
ENDBRANCH   4   5
ENDBRANCH   3   4
ENDBRANCH   2   3
ENDBRANCH   1   2
BRANCH   1  27
ATOM     27  C   UNL A   1      31.865  30.730  25.887  1.00  0.00     0.188 C 
BRANCH  27  28
ATOM     28  O   UNL A   1      32.189  30.781  27.254  1.00  0.00    -0.376 OA
BRANCH  28  29
ATOM     29  C   UNL A   1      33.520  31.043  27.666  1.00  0.00     0.202 C 
BRANCH  29  30
ATOM     30  C   UNL A   1      34.234  32.412  27.626  1.00  0.00     0.261 C 
BRANCH  30  31
ATOM     31  O   UNL A   1      33.442  33.597  27.523  1.00  0.00    -0.460 OA
BRANCH  31  32
ATOM     32  C   UNL A   1      33.399  34.380  28.627  1.00  0.00     0.338 C 
ATOM     33  O   UNL A   1      32.530  35.177  28.940  1.00  0.00    -0.246 OA
BRANCH  32  34
ATOM     34  C   UNL A   1      34.512  34.002  29.514  1.00  0.00     0.060 A 
ATOM     35  C   UNL A   1      35.820  34.320  29.128  1.00  0.00     0.016 A 
ATOM     36  C   UNL A   1      34.269  33.307  30.700  1.00  0.00     0.016 A 
ATOM     37  C   UNL A   1      36.897  33.930  29.925  1.00  0.00     0.010 A 
ATOM     38  C   UNL A   1      35.350  32.899  31.487  1.00  0.00     0.010 A 
ATOM     39  C   UNL A   1      36.670  33.188  31.092  1.00  0.00    -0.014 A 
BRANCH  39  40
ATOM     40  C   UNL A   1      37.814  32.586  31.819  1.00  0.00     0.031 A 
ATOM     41  C   UNL A   1      38.516  31.404  31.213  1.00  0.00     0.074 A 
ATOM     42  C   UNL A   1      38.230  33.088  32.995  1.00  0.00     0.049 A 
ATOM     43  N   UNL A   1      39.495  30.679  31.692  1.00  0.00    -0.248 NA
ATOM     44  C   UNL A   1      38.046  30.978  29.885  1.00  0.00     0.031 C 
ATOM     45  C   UNL A   1      37.658  34.254  33.665  1.00  0.00     0.029 A 
ATOM     46  N   UNL A   1      39.228  32.668  33.838  1.00  0.00    -0.354 N 
ATOM     47  C   UNL A   1      39.752  29.711  30.731  1.00  0.00     0.074 A 
ATOM     48  C   UNL A   1      38.807  29.919  29.655  1.00  0.00     0.031 C 
ATOM     49  C   UNL A   1      38.307  34.448  34.826  1.00  0.00     0.029 A 
ATOM     50  C   UNL A   1      39.313  33.400  34.997  1.00  0.00     0.049 A 
ATOM     51  H   UNL A   1      39.826  31.914  33.632  1.00  0.00     0.167 HD
ATOM     52  C   UNL A   1      40.698  28.741  30.742  1.00  0.00     0.037 A 
ATOM     53  C   UNL A   1      40.093  33.225  36.081  1.00  0.00     0.037 A 
ATOM     54  C   UNL A   1      41.633  28.534  31.816  1.00  0.00     0.049 A 
ATOM     55  C   UNL A   1      41.082  32.086  36.105  1.00  0.00     0.074 A 
ATOM     56  C   UNL A   1      42.642  27.591  31.912  1.00  0.00     0.029 A 
ATOM     57  N   UNL A   1      41.668  29.277  32.988  1.00  0.00    -0.354 N 
ATOM     58  N   UNL A   1      41.341  31.191  35.181  1.00  0.00    -0.248 NA
ATOM     59  C   UNL A   1      41.892  31.936  37.323  1.00  0.00     0.031 C 
ATOM     60  C   UNL A   1      43.243  27.720  33.168  1.00  0.00     0.029 A 
ATOM     61  C   UNL A   1      42.659  28.790  33.827  1.00  0.00     0.049 A 
ATOM     62  H   UNL A   1      41.076  30.036  33.193  1.00  0.00     0.167 HD
ATOM     63  C   UNL A   1      42.361  30.397  35.691  1.00  0.00     0.074 A 
ATOM     64  C   UNL A   1      42.684  30.924  37.000  1.00  0.00     0.031 C 
ATOM     65  C   UNL A   1      42.977  29.330  35.125  1.00  0.00     0.037 A 
BRANCH  52  66
ATOM     66  C   UNL A   1      40.746  27.805  29.568  1.00  0.00     0.064 A 
ATOM     67  C   UNL A   1      41.739  27.905  28.582  1.00  0.00     0.173 A 
ATOM     68  C   UNL A   1      39.803  26.773  29.446  1.00  0.00     0.173 A 
ATOM     69  F   UNL A   1      42.657  28.881  28.642  1.00  0.00    -0.203 F 
ATOM     70  C   UNL A   1      41.769  27.023  27.503  1.00  0.00     0.198 A 
ATOM     71  C   UNL A   1      39.856  25.874  28.384  1.00  0.00     0.198 A 
ATOM     72  F   UNL A   1      38.833  26.631  30.363  1.00  0.00    -0.203 F 
ATOM     73  F   UNL A   1      42.696  27.169  26.546  1.00  0.00    -0.200 F 
ATOM     74  C   UNL A   1      40.833  26.004  27.410  1.00  0.00     0.200 A 
ATOM     75  F   UNL A   1      38.959  24.881  28.306  1.00  0.00    -0.200 F 
ATOM     76  F   UNL A   1      40.868  25.151  26.377  1.00  0.00    -0.200 F 
ENDBRANCH  52  66
BRANCH  53  77
ATOM     77  C   UNL A   1      39.965  34.139  37.247  1.00  0.00     0.064 A 
ATOM     78  C   UNL A   1      40.788  35.266  37.379  1.00  0.00     0.173 A 
ATOM     79  C   UNL A   1      39.036  33.889  38.269  1.00  0.00     0.173 A 
ATOM     80  F   UNL A   1      41.712  35.532  36.444  1.00  0.00    -0.203 F 
ATOM     81  C   UNL A   1      40.703  36.094  38.496  1.00  0.00     0.198 A 
ATOM     82  C   UNL A   1      38.930  34.736  39.370  1.00  0.00     0.198 A 
ATOM     83  F   UNL A   1      38.228  32.821  38.196  1.00  0.00    -0.203 F 
ATOM     84  F   UNL A   1      41.541  37.132  38.623  1.00  0.00    -0.200 F 
ATOM     85  C   UNL A   1      39.770  35.832  39.488  1.00  0.00     0.200 A 
ATOM     86  F   UNL A   1      38.019  34.484  40.320  1.00  0.00    -0.200 F 
ATOM     87  F   UNL A   1      39.689  36.629  40.562  1.00  0.00    -0.200 F 
ENDBRANCH  53  77
BRANCH  65  88
ATOM     88  C   UNL A   1      44.096  28.683  35.896  1.00  0.00     0.064 A 
ATOM     89  C   UNL A   1      43.869  27.612  36.774  1.00  0.00     0.173 A 
ATOM     90  C   UNL A   1      45.420  29.114  35.718  1.00  0.00     0.173 A 
ATOM     91  F   UNL A   1      42.623  27.168  36.990  1.00  0.00    -0.203 F 
ATOM     92  C   UNL A   1      44.922  27.020  37.468  1.00  0.00     0.198 A 
ATOM     93  C   UNL A   1      46.474  28.497  36.386  1.00  0.00     0.198 A 
ATOM     94  F   UNL A   1      45.695  30.128  34.882  1.00  0.00    -0.203 F 
ATOM     95  F   UNL A   1      44.676  26.035  38.343  1.00  0.00    -0.200 F 
ATOM     96  C   UNL A   1      46.224  27.457  37.267  1.00  0.00     0.200 A 
ATOM     97  F   UNL A   1      47.732  28.909  36.175  1.00  0.00    -0.200 F 
ATOM     98  F   UNL A   1      47.236  26.879  37.928  1.00  0.00    -0.200 F 
ENDBRANCH  65  88
ENDBRANCH  39  40
ENDBRANCH  32  34
ENDBRANCH  31  32
ENDBRANCH  30  31
ENDBRANCH  29  30
ENDBRANCH  28  29
ENDBRANCH  27  28
ENDBRANCH   1  27
TORSDOF 20
ENDMDL
