MODEL 1
REMARK VINA RESULT:      -8.3      0.000      0.000
REMARK SMILES CS(=O)(=O)c1ccc(C2=NN(c3ccc(C(=O)OCCOCCOCCOC(=O)c4ccc(-c5c6nc(c(-c7c(F)c(F)c(F)c(F)c7F)c7ccc([nH]7)c(-c7c(F)c(F)c(F)c(F)c7F)c7nc(c(-c8c(F)c(F)c(F)c(F)c8F)c8ccc5[nH]8)C=C7)C=C6)cc4)cc3)[C@H](c3ccc(F)cc3)C2)cc1
REMARK SMILES IDX 22 1 21 2 20 3 19 4 18 5 16 6 17 7 15 8 12 9 13 10 94 11
REMARK SMILES IDX 14 12 93 13 11 14 9 15 10 16 103 17 95 18 8 19 5 20 6 21
REMARK SMILES IDX 105 22 7 23 104 24 2 25 1 26 3 27 4 28 96 29 97 30 102 31
REMARK SMILES IDX 98 32 101 33 99 34 100 35 23 36 24 37 25 38 26 39 27 40
REMARK SMILES IDX 28 41 29 42 30 43 31 44 92 45 32 46 91 47 33 48 34 49 35 50
REMARK SMILES IDX 85 51 36 52 90 53 84 54 86 55 37 56 89 57 83 58 82 59 38 61
REMARK SMILES IDX 70 62 50 63 69 64 51 65 54 66 68 67 87 68 52 69 53 70 67 72
REMARK SMILES IDX 88 73 55 74 39 75 40 76 48 77 41 78 42 79 46 80 49 81 43 82
REMARK SMILES IDX 44 83 47 84 45 85 71 86 72 87 80 88 73 89 74 90 78 91 81 92
REMARK SMILES IDX 75 93 76 94 79 95 77 96 56 97 57 98 65 99 58 100 59 101
REMARK SMILES IDX 63 102 66 103 60 104 61 105 64 106 62 107
REMARK H PARENT 86 60 54 71
REMARK Flexibility Score: inf
ROOT
ATOM      1  C   UNL A   1      37.870  33.035  32.394  1.00  0.00     0.188 C 
ENDROOT
BRANCH   1   2
ATOM      2  O   UNL A   1      38.667  33.130  33.563  1.00  0.00    -0.376 OA
BRANCH   2   3
ATOM      3  C   UNL A   1      38.480  32.218  34.635  1.00  0.00     0.202 C 
BRANCH   3   4
ATOM      4  C   UNL A   1      38.706  30.708  34.464  1.00  0.00     0.261 C 
BRANCH   4   5
ATOM      5  O   UNL A   1      39.880  30.347  33.724  1.00  0.00    -0.460 OA
BRANCH   5   6
ATOM      6  C   UNL A   1      40.121  29.016  33.620  1.00  0.00     0.338 C 
ATOM      7  O   UNL A   1      39.463  28.203  32.992  1.00  0.00    -0.246 OA
BRANCH   6   8
ATOM      8  C   UNL A   1      41.413  28.669  34.265  1.00  0.00     0.060 A 
ATOM      9  C   UNL A   1      43.836  27.775  35.366  1.00  0.00     0.060 A 
ATOM     10  C   UNL A   1      43.721  27.971  33.985  1.00  0.00     0.029 A 
ATOM     11  C   UNL A   1      42.775  28.172  36.193  1.00  0.00     0.029 A 
ATOM     12  C   UNL A   1      42.513  28.410  33.435  1.00  0.00     0.018 A 
ATOM     13  C   UNL A   1      41.558  28.596  35.651  1.00  0.00     0.018 A 
BRANCH   9  14
ATOM     14  N   UNL A   1      44.871  27.006  35.909  1.00  0.00    -0.257 N 
ATOM     15  C   UNL A   1      45.537  25.328  37.042  1.00  0.00     0.071 C 
ATOM     16  N   UNL A   1      44.722  25.668  36.090  1.00  0.00    -0.176 NA
ATOM     17  C   UNL A   1      46.247  26.461  37.734  1.00  0.00     0.091 C 
ATOM     18  C   UNL A   1      45.775  27.647  36.886  1.00  0.00     0.144 C 
BRANCH  15  19
ATOM     19  C   UNL A   1      45.792  23.926  37.426  1.00  0.00    -0.002 A 
ATOM     20  C   UNL A   1      46.289  21.254  38.051  1.00  0.00     0.067 A 
ATOM     21  C   UNL A   1      45.689  21.577  36.831  1.00  0.00     0.021 A 
ATOM     22  C   UNL A   1      46.628  22.256  38.968  1.00  0.00     0.021 A 
ATOM     23  C   UNL A   1      45.438  22.916  36.522  1.00  0.00     0.011 A 
ATOM     24  C   UNL A   1      46.390  23.598  38.647  1.00  0.00     0.011 A 
BRANCH  20  25
ATOM     25  S   UNL A   1      46.537  19.541  38.467  1.00  0.00     0.175 S 
ATOM     26  C   UNL A   1      48.296  19.382  38.608  1.00  0.00     0.163 C 
ATOM     27  O   UNL A   1      46.100  18.760  37.326  1.00  0.00    -0.224 OA
ATOM     28  O   UNL A   1      45.967  19.324  39.784  1.00  0.00    -0.224 OA
ENDBRANCH  20  25
ENDBRANCH  15  19
BRANCH  18  29
ATOM     29  C   UNL A   1      46.825  28.492  36.167  1.00  0.00    -0.023 A 
ATOM     30  C   UNL A   1      47.787  27.966  35.293  1.00  0.00     0.009 A 
ATOM     31  C   UNL A   1      46.768  29.895  36.317  1.00  0.00     0.009 A 
ATOM     32  C   UNL A   1      48.642  28.815  34.579  1.00  0.00     0.039 A 
ATOM     33  C   UNL A   1      47.582  30.743  35.565  1.00  0.00     0.039 A 
ATOM     34  C   UNL A   1      48.515  30.193  34.702  1.00  0.00     0.123 A 
ATOM     35  F   UNL A   1      49.296  30.999  33.972  1.00  0.00    -0.207 F 
ENDBRANCH  18  29
ENDBRANCH   9  14
ENDBRANCH   6   8
ENDBRANCH   5   6
ENDBRANCH   4   5
ENDBRANCH   3   4
ENDBRANCH   2   3
ENDBRANCH   1   2
BRANCH   1  36
ATOM     36  C   UNL A   1      36.672  33.984  32.183  1.00  0.00     0.188 C 
BRANCH  36  37
ATOM     37  O   UNL A   1      35.578  33.477  31.464  1.00  0.00    -0.376 OA
BRANCH  37  38
ATOM     38  C   UNL A   1      35.289  33.961  30.164  1.00  0.00     0.202 C 
BRANCH  38  39
ATOM     39  C   UNL A   1      34.823  33.118  28.958  1.00  0.00     0.261 C 
BRANCH  39  40
ATOM     40  O   UNL A   1      34.436  31.759  29.176  1.00  0.00    -0.460 OA
BRANCH  40  41
ATOM     41  C   UNL A   1      34.663  30.906  28.150  1.00  0.00     0.338 C 
ATOM     42  O   UNL A   1      33.994  30.767  27.134  1.00  0.00    -0.246 OA
BRANCH  41  43
ATOM     43  C   UNL A   1      35.967  30.255  28.358  1.00  0.00     0.060 A 
ATOM     44  C   UNL A   1      36.260  29.692  29.608  1.00  0.00     0.016 A 
ATOM     45  C   UNL A   1      36.908  30.227  27.328  1.00  0.00     0.016 A 
ATOM     46  C   UNL A   1      37.507  29.112  29.837  1.00  0.00     0.010 A 
ATOM     47  C   UNL A   1      38.165  29.667  27.566  1.00  0.00     0.010 A 
ATOM     48  C   UNL A   1      38.480  29.132  28.829  1.00  0.00    -0.014 A 
BRANCH  48  49
ATOM     49  C   UNL A   1      39.882  28.759  29.137  1.00  0.00     0.031 A 
ATOM     50  C   UNL A   1      40.732  29.742  29.896  1.00  0.00     0.074 A 
ATOM     51  C   UNL A   1      40.398  27.582  28.746  1.00  0.00     0.049 A 
ATOM     52  N   UNL A   1      42.005  29.691  30.190  1.00  0.00    -0.248 NA
ATOM     53  C   UNL A   1      40.048  30.950  30.383  1.00  0.00     0.031 C 
ATOM     54  C   UNL A   1      39.666  26.528  28.046  1.00  0.00     0.029 A 
ATOM     55  N   UNL A   1      41.672  27.084  28.868  1.00  0.00    -0.354 N 
ATOM     56  C   UNL A   1      42.277  30.862  30.885  1.00  0.00     0.074 A 
ATOM     57  C   UNL A   1      41.045  31.618  30.942  1.00  0.00     0.031 C 
ATOM     58  C   UNL A   1      40.509  25.514  27.784  1.00  0.00     0.029 A 
ATOM     59  C   UNL A   1      41.847  25.865  28.261  1.00  0.00     0.049 A 
ATOM     60  H   UNL A   1      42.392  27.557  29.345  1.00  0.00     0.167 HD
ATOM     61  C   UNL A   1      43.448  31.266  31.432  1.00  0.00     0.037 A 
ATOM     62  C   UNL A   1      42.966  25.135  28.086  1.00  0.00     0.037 A 
ATOM     63  C   UNL A   1      44.672  30.512  31.369  1.00  0.00     0.049 A 
ATOM     64  C   UNL A   1      44.278  25.650  28.628  1.00  0.00     0.074 A 
ATOM     65  C   UNL A   1      45.909  30.831  31.903  1.00  0.00     0.029 A 
ATOM     66  N   UNL A   1      44.816  29.293  30.724  1.00  0.00    -0.354 N 
ATOM     67  N   UNL A   1      44.527  26.746  29.301  1.00  0.00    -0.248 NA
ATOM     68  C   UNL A   1      45.468  24.819  28.383  1.00  0.00     0.031 C 
ATOM     69  C   UNL A   1      46.816  29.833  31.528  1.00  0.00     0.029 A 
ATOM     70  C   UNL A   1      46.129  28.859  30.821  1.00  0.00     0.049 A 
ATOM     71  H   UNL A   1      44.093  28.807  30.264  1.00  0.00     0.167 HD
ATOM     72  C   UNL A   1      45.885  26.719  29.595  1.00  0.00     0.074 A 
ATOM     73  C   UNL A   1      46.408  25.492  29.031  1.00  0.00     0.031 C 
ATOM     74  C   UNL A   1      46.632  27.625  30.271  1.00  0.00     0.037 A 
BRANCH  61  75
ATOM     75  C   UNL A   1      43.467  32.600  32.120  1.00  0.00     0.064 A 
ATOM     76  C   UNL A   1      43.265  32.724  33.503  1.00  0.00     0.173 A 
ATOM     77  C   UNL A   1      43.722  33.771  31.388  1.00  0.00     0.173 A 
ATOM     78  F   UNL A   1      43.004  31.639  34.246  1.00  0.00    -0.203 F 
ATOM     79  C   UNL A   1      43.289  33.971  34.121  1.00  0.00     0.198 A 
ATOM     80  C   UNL A   1      43.778  35.012  32.015  1.00  0.00     0.198 A 
ATOM     81  F   UNL A   1      43.926  33.710  30.063  1.00  0.00    -0.203 F 
ATOM     82  F   UNL A   1      43.041  34.070  35.435  1.00  0.00    -0.200 F 
ATOM     83  C   UNL A   1      43.553  35.113  33.379  1.00  0.00     0.200 A 
ATOM     84  F   UNL A   1      44.048  36.112  31.299  1.00  0.00    -0.200 F 
ATOM     85  F   UNL A   1      43.584  36.311  33.978  1.00  0.00    -0.200 F 
ENDBRANCH  61  75
BRANCH  62  86
ATOM     86  C   UNL A   1      42.909  23.844  27.350  1.00  0.00     0.064 A 
ATOM     87  C   UNL A   1      42.497  22.665  27.989  1.00  0.00     0.173 A 
ATOM     88  C   UNL A   1      43.296  23.753  26.005  1.00  0.00     0.173 A 
ATOM     89  F   UNL A   1      42.145  22.693  29.283  1.00  0.00    -0.203 F 
ATOM     90  C   UNL A   1      42.499  21.443  27.319  1.00  0.00     0.198 A 
ATOM     91  C   UNL A   1      43.265  22.536  25.326  1.00  0.00     0.198 A 
ATOM     92  F   UNL A   1      43.704  24.847  25.347  1.00  0.00    -0.203 F 
ATOM     93  F   UNL A   1      42.156  20.324  27.972  1.00  0.00    -0.200 F 
ATOM     94  C   UNL A   1      42.877  21.380  25.986  1.00  0.00     0.200 A 
ATOM     95  F   UNL A   1      43.623  22.482  24.035  1.00  0.00    -0.200 F 
ATOM     96  F   UNL A   1      42.879  20.205  25.343  1.00  0.00    -0.200 F 
ENDBRANCH  62  86
BRANCH  74  97
ATOM     97  C   UNL A   1      48.084  27.307  30.495  1.00  0.00     0.064 A 
ATOM     98  C   UNL A   1      49.087  27.752  29.621  1.00  0.00     0.173 A 
ATOM     99  C   UNL A   1      48.482  26.589  31.635  1.00  0.00     0.173 A 
ATOM    100  F   UNL A   1      48.762  28.430  28.509  1.00  0.00    -0.203 F 
ATOM    101  C   UNL A   1      50.428  27.469  29.865  1.00  0.00     0.198 A 
ATOM    102  C   UNL A   1      49.826  26.339  31.895  1.00  0.00     0.198 A 
ATOM    103  F   UNL A   1      47.566  26.148  32.510  1.00  0.00    -0.203 F 
ATOM    104  F   UNL A   1      51.365  27.862  28.990  1.00  0.00    -0.200 F 
ATOM    105  C   UNL A   1      50.798  26.771  31.006  1.00  0.00     0.200 A 
ATOM    106  F   UNL A   1      50.181  25.680  33.007  1.00  0.00    -0.200 F 
ATOM    107  F   UNL A   1      52.090  26.512  31.246  1.00  0.00    -0.200 F 
ENDBRANCH  74  97
ENDBRANCH  48  49
ENDBRANCH  41  43
ENDBRANCH  40  41
ENDBRANCH  39  40
ENDBRANCH  38  39
ENDBRANCH  37  38
ENDBRANCH  36  37
ENDBRANCH   1  36
TORSDOF 21
ENDMDL
MODEL 2
REMARK VINA RESULT:      -8.0      4.038     11.484
REMARK SMILES CS(=O)(=O)c1ccc(C2=NN(c3ccc(C(=O)OCCOCCOCCOC(=O)c4ccc(-c5c6nc(c(-c7c(F)c(F)c(F)c(F)c7F)c7ccc([nH]7)c(-c7c(F)c(F)c(F)c(F)c7F)c7nc(c(-c8c(F)c(F)c(F)c(F)c8F)c8ccc5[nH]8)C=C7)C=C6)cc4)cc3)[C@H](c3ccc(F)cc3)C2)cc1
REMARK SMILES IDX 22 1 21 2 20 3 19 4 18 5 16 6 17 7 15 8 12 9 13 10 94 11
REMARK SMILES IDX 14 12 93 13 11 14 9 15 10 16 103 17 95 18 8 19 5 20 6 21
REMARK SMILES IDX 105 22 7 23 104 24 2 25 1 26 3 27 4 28 96 29 97 30 102 31
REMARK SMILES IDX 98 32 101 33 99 34 100 35 23 36 24 37 25 38 26 39 27 40
REMARK SMILES IDX 28 41 29 42 30 43 31 44 92 45 32 46 91 47 33 48 34 49 35 50
REMARK SMILES IDX 85 51 36 52 90 53 84 54 86 55 37 56 89 57 83 58 82 59 38 61
REMARK SMILES IDX 70 62 50 63 69 64 51 65 54 66 68 67 87 68 52 69 53 70 67 72
REMARK SMILES IDX 88 73 55 74 39 75 40 76 48 77 41 78 42 79 46 80 49 81 43 82
REMARK SMILES IDX 44 83 47 84 45 85 71 86 72 87 80 88 73 89 74 90 78 91 81 92
REMARK SMILES IDX 75 93 76 94 79 95 77 96 56 97 57 98 65 99 58 100 59 101
REMARK SMILES IDX 63 102 66 103 60 104 61 105 64 106 62 107
REMARK H PARENT 86 60 54 71
REMARK Flexibility Score: inf
ROOT
ATOM      1  C   UNL A   1      47.036  26.254  39.089  1.00  0.00     0.188 C 
ENDROOT
BRANCH   1   2
ATOM      2  O   UNL A   1      45.863  26.958  39.464  1.00  0.00    -0.376 OA
BRANCH   2   3
ATOM      3  C   UNL A   1      44.628  26.271  39.603  1.00  0.00     0.202 C 
BRANCH   3   4
ATOM      4  C   UNL A   1      43.875  25.702  38.390  1.00  0.00     0.261 C 
BRANCH   4   5
ATOM      5  O   UNL A   1      43.002  26.626  37.726  1.00  0.00    -0.460 OA
BRANCH   5   6
ATOM      6  C   UNL A   1      42.337  26.135  36.652  1.00  0.00     0.338 C 
ATOM      7  O   UNL A   1      42.046  24.968  36.446  1.00  0.00    -0.246 OA
BRANCH   6   8
ATOM      8  C   UNL A   1      41.855  27.242  35.787  1.00  0.00     0.060 A 
ATOM      9  C   UNL A   1      41.194  29.363  34.070  1.00  0.00     0.060 A 
ATOM     10  C   UNL A   1      41.634  28.143  33.544  1.00  0.00     0.029 A 
ATOM     11  C   UNL A   1      40.951  29.452  35.449  1.00  0.00     0.029 A 
ATOM     12  C   UNL A   1      41.969  27.088  34.398  1.00  0.00     0.018 A 
ATOM     13  C   UNL A   1      41.299  28.410  36.312  1.00  0.00     0.018 A 
BRANCH   9  14
ATOM     14  N   UNL A   1      41.202  30.533  33.303  1.00  0.00    -0.257 N 
ATOM     15  C   UNL A   1      41.428  32.647  33.146  1.00  0.00     0.071 C 
ATOM     16  N   UNL A   1      41.984  31.587  33.651  1.00  0.00    -0.176 NA
ATOM     17  C   UNL A   1      40.085  32.437  32.500  1.00  0.00     0.091 C 
ATOM     18  C   UNL A   1      39.960  30.913  32.601  1.00  0.00     0.144 C 
BRANCH  15  19
ATOM     19  C   UNL A   1      42.061  33.979  33.165  1.00  0.00    -0.002 A 
ATOM     20  C   UNL A   1      43.319  36.465  33.276  1.00  0.00     0.067 A 
ATOM     21  C   UNL A   1      43.199  35.700  34.440  1.00  0.00     0.021 A 
ATOM     22  C   UNL A   1      42.802  36.003  32.060  1.00  0.00     0.021 A 
ATOM     23  C   UNL A   1      42.565  34.457  34.382  1.00  0.00     0.011 A 
ATOM     24  C   UNL A   1      42.181  34.749  32.004  1.00  0.00     0.011 A 
BRANCH  20  25
ATOM     25  S   UNL A   1      44.063  38.080  33.375  1.00  0.00     0.175 S 
ATOM     26  C   UNL A   1      44.434  38.279  35.097  1.00  0.00     0.163 C 
ATOM     27  O   UNL A   1      43.038  39.042  33.017  1.00  0.00    -0.224 OA
ATOM     28  O   UNL A   1      45.322  38.027  32.655  1.00  0.00    -0.224 OA
ENDBRANCH  20  25
ENDBRANCH  15  19
BRANCH  18  29
ATOM     29  C   UNL A   1      39.808  30.108  31.311  1.00  0.00    -0.023 A 
ATOM     30  C   UNL A   1      40.813  29.990  30.340  1.00  0.00     0.009 A 
ATOM     31  C   UNL A   1      38.621  29.364  31.126  1.00  0.00     0.009 A 
ATOM     32  C   UNL A   1      40.645  29.140  29.241  1.00  0.00     0.039 A 
ATOM     33  C   UNL A   1      38.477  28.476  30.059  1.00  0.00     0.039 A 
ATOM     34  C   UNL A   1      39.492  28.374  29.123  1.00  0.00     0.123 A 
ATOM     35  F   UNL A   1      39.364  27.520  28.101  1.00  0.00    -0.207 F 
ENDBRANCH  18  29
ENDBRANCH   9  14
ENDBRANCH   6   8
ENDBRANCH   5   6
ENDBRANCH   4   5
ENDBRANCH   3   4
ENDBRANCH   2   3
ENDBRANCH   1   2
BRANCH   1  36
ATOM     36  C   UNL A   1      47.298  24.830  39.620  1.00  0.00     0.188 C 
BRANCH  36  37
ATOM     37  O   UNL A   1      46.757  23.766  38.881  1.00  0.00    -0.376 OA
BRANCH  37  38
ATOM     38  C   UNL A   1      46.195  22.646  39.542  1.00  0.00     0.202 C 
BRANCH  38  39
ATOM     39  C   UNL A   1      46.208  21.187  39.040  1.00  0.00     0.261 C 
BRANCH  39  40
ATOM     40  O   UNL A   1      45.653  20.895  37.756  1.00  0.00    -0.460 OA
BRANCH  40  41
ATOM     41  C   UNL A   1      46.526  20.880  36.722  1.00  0.00     0.338 C 
ATOM     42  O   UNL A   1      47.379  20.036  36.480  1.00  0.00    -0.246 OA
BRANCH  41  43
ATOM     43  C   UNL A   1      46.186  21.977  35.801  1.00  0.00     0.060 A 
ATOM     44  C   UNL A   1      47.200  22.560  35.027  1.00  0.00     0.016 A 
ATOM     45  C   UNL A   1      44.874  22.446  35.724  1.00  0.00     0.016 A 
ATOM     46  C   UNL A   1      46.905  23.631  34.183  1.00  0.00     0.010 A 
ATOM     47  C   UNL A   1      44.586  23.533  34.896  1.00  0.00     0.010 A 
ATOM     48  C   UNL A   1      45.604  24.148  34.143  1.00  0.00    -0.014 A 
BRANCH  48  49
ATOM     49  C   UNL A   1      45.333  25.436  33.459  1.00  0.00     0.031 A 
ATOM     50  C   UNL A   1      44.944  25.404  32.006  1.00  0.00     0.074 A 
ATOM     51  C   UNL A   1      45.438  26.609  34.105  1.00  0.00     0.049 A 
ATOM     52  N   UNL A   1      44.762  26.393  31.170  1.00  0.00    -0.248 NA
ATOM     53  C   UNL A   1      44.741  24.071  31.418  1.00  0.00     0.031 C 
ATOM     54  C   UNL A   1      45.761  26.770  35.520  1.00  0.00     0.029 A 
ATOM     55  N   UNL A   1      45.300  27.895  33.641  1.00  0.00    -0.354 N 
ATOM     56  C   UNL A   1      44.433  25.803  29.956  1.00  0.00     0.074 A 
ATOM     57  C   UNL A   1      44.472  24.371  30.156  1.00  0.00     0.031 C 
ATOM     58  C   UNL A   1      45.815  28.082  35.807  1.00  0.00     0.029 A 
ATOM     59  C   UNL A   1      45.570  28.852  34.587  1.00  0.00     0.049 A 
ATOM     60  H   UNL A   1      45.033  28.109  32.718  1.00  0.00     0.167 HD
ATOM     61  C   UNL A   1      44.120  26.403  28.783  1.00  0.00     0.037 A 
ATOM     62  C   UNL A   1      45.641  30.192  34.470  1.00  0.00     0.037 A 
ATOM     63  C   UNL A   1      44.087  27.828  28.589  1.00  0.00     0.049 A 
ATOM     64  C   UNL A   1      45.376  30.834  33.129  1.00  0.00     0.074 A 
ATOM     65  C   UNL A   1      43.771  28.534  27.441  1.00  0.00     0.029 A 
ATOM     66  N   UNL A   1      44.392  28.766  29.565  1.00  0.00    -0.354 N 
ATOM     67  N   UNL A   1      45.046  30.275  31.991  1.00  0.00    -0.248 NA
ATOM     68  C   UNL A   1      45.493  32.299  33.060  1.00  0.00     0.031 C 
ATOM     69  C   UNL A   1      43.943  29.897  27.705  1.00  0.00     0.029 A 
ATOM     70  C   UNL A   1      44.298  30.044  29.036  1.00  0.00     0.049 A 
ATOM     71  H   UNL A   1      44.638  28.555  30.494  1.00  0.00     0.167 HD
ATOM     72  C   UNL A   1      44.878  31.315  31.084  1.00  0.00     0.074 A 
ATOM     73  C   UNL A   1      45.136  32.542  31.807  1.00  0.00     0.031 C 
ATOM     74  C   UNL A   1      44.539  31.259  29.773  1.00  0.00     0.037 A 
BRANCH  61  75
ATOM     75  C   UNL A   1      43.821  25.515  27.610  1.00  0.00     0.064 A 
ATOM     76  C   UNL A   1      42.540  24.985  27.390  1.00  0.00     0.173 A 
ATOM     77  C   UNL A   1      44.823  25.216  26.674  1.00  0.00     0.173 A 
ATOM     78  F   UNL A   1      41.550  25.229  28.261  1.00  0.00    -0.203 F 
ATOM     79  C   UNL A   1      42.283  24.166  26.294  1.00  0.00     0.198 A 
ATOM     80  C   UNL A   1      44.554  24.424  25.562  1.00  0.00     0.198 A 
ATOM     81  F   UNL A   1      46.065  25.700  26.834  1.00  0.00    -0.203 F 
ATOM     82  F   UNL A   1      41.066  23.628  26.133  1.00  0.00    -0.200 F 
ATOM     83  C   UNL A   1      43.287  23.893  25.377  1.00  0.00     0.200 A 
ATOM     84  F   UNL A   1      45.521  24.173  24.669  1.00  0.00    -0.200 F 
ATOM     85  F   UNL A   1      43.035  23.111  24.319  1.00  0.00    -0.200 F 
ENDBRANCH  61  75
BRANCH  62  86
ATOM     86  C   UNL A   1      45.995  31.029  35.649  1.00  0.00     0.064 A 
ATOM     87  C   UNL A   1      45.004  31.532  36.502  1.00  0.00     0.173 A 
ATOM     88  C   UNL A   1      47.327  31.370  35.927  1.00  0.00     0.173 A 
ATOM     89  F   UNL A   1      43.712  31.259  36.262  1.00  0.00    -0.203 F 
ATOM     90  C   UNL A   1      45.327  32.364  37.573  1.00  0.00     0.198 A 
ATOM     91  C   UNL A   1      47.652  32.175  37.018  1.00  0.00     0.198 A 
ATOM     92  F   UNL A   1      48.316  30.921  35.141  1.00  0.00    -0.203 F 
ATOM     93  F   UNL A   1      44.353  32.878  38.337  1.00  0.00    -0.200 F 
ATOM     94  C   UNL A   1      46.652  32.680  37.833  1.00  0.00     0.200 A 
ATOM     95  F   UNL A   1      48.935  32.469  37.272  1.00  0.00    -0.200 F 
ATOM     96  F   UNL A   1      46.962  33.480  38.862  1.00  0.00    -0.200 F 
ENDBRANCH  62  86
BRANCH  74  97
ATOM     97  C   UNL A   1      44.367  32.561  29.040  1.00  0.00     0.064 A 
ATOM     98  C   UNL A   1      43.151  33.258  29.037  1.00  0.00     0.173 A 
ATOM     99  C   UNL A   1      45.457  33.144  28.372  1.00  0.00     0.173 A 
ATOM    100  F   UNL A   1      42.074  32.740  29.647  1.00  0.00    -0.203 F 
ATOM    101  C   UNL A   1      43.024  34.476  28.374  1.00  0.00     0.198 A 
ATOM    102  C   UNL A   1      45.337  34.379  27.741  1.00  0.00     0.198 A 
ATOM    103  F   UNL A   1      46.647  32.524  28.350  1.00  0.00    -0.203 F 
ATOM    104  F   UNL A   1      41.839  35.101  28.344  1.00  0.00    -0.200 F 
ATOM    105  C   UNL A   1      44.119  35.040  27.735  1.00  0.00     0.200 A 
ATOM    106  F   UNL A   1      46.401  34.928  27.140  1.00  0.00    -0.200 F 
ATOM    107  F   UNL A   1      43.999  36.219  27.109  1.00  0.00    -0.200 F 
ENDBRANCH  74  97
ENDBRANCH  48  49
ENDBRANCH  41  43
ENDBRANCH  40  41
ENDBRANCH  39  40
ENDBRANCH  38  39
ENDBRANCH  37  38
ENDBRANCH  36  37
ENDBRANCH   1  36
TORSDOF 21
ENDMDL
MODEL 3
REMARK VINA RESULT:      -8.0      7.657     15.335
REMARK SMILES CS(=O)(=O)c1ccc(C2=NN(c3ccc(C(=O)OCCOCCOCCOC(=O)c4ccc(-c5c6nc(c(-c7c(F)c(F)c(F)c(F)c7F)c7ccc([nH]7)c(-c7c(F)c(F)c(F)c(F)c7F)c7nc(c(-c8c(F)c(F)c(F)c(F)c8F)c8ccc5[nH]8)C=C7)C=C6)cc4)cc3)[C@H](c3ccc(F)cc3)C2)cc1
REMARK SMILES IDX 22 1 21 2 20 3 19 4 18 5 16 6 17 7 15 8 12 9 13 10 94 11
REMARK SMILES IDX 14 12 93 13 11 14 9 15 10 16 103 17 95 18 8 19 5 20 6 21
REMARK SMILES IDX 105 22 7 23 104 24 2 25 1 26 3 27 4 28 96 29 97 30 102 31
REMARK SMILES IDX 98 32 101 33 99 34 100 35 23 36 24 37 25 38 26 39 27 40
REMARK SMILES IDX 28 41 29 42 30 43 31 44 92 45 32 46 91 47 33 48 34 49 35 50
REMARK SMILES IDX 85 51 36 52 90 53 84 54 86 55 37 56 89 57 83 58 82 59 38 61
REMARK SMILES IDX 70 62 50 63 69 64 51 65 54 66 68 67 87 68 52 69 53 70 67 72
REMARK SMILES IDX 88 73 55 74 39 75 40 76 48 77 41 78 42 79 46 80 49 81 43 82
REMARK SMILES IDX 44 83 47 84 45 85 71 86 72 87 80 88 73 89 74 90 78 91 81 92
REMARK SMILES IDX 75 93 76 94 79 95 77 96 56 97 57 98 65 99 58 100 59 101
REMARK SMILES IDX 63 102 66 103 60 104 61 105 64 106 62 107
REMARK H PARENT 86 60 54 71
REMARK Flexibility Score: inf
ROOT
ATOM      1  C   UNL A   1      41.745  25.780  26.410  1.00  0.00     0.188 C 
ENDROOT
BRANCH   1   2
ATOM      2  O   UNL A   1      41.461  24.427  26.093  1.00  0.00    -0.376 OA
BRANCH   2   3
ATOM      3  C   UNL A   1      41.340  23.460  27.126  1.00  0.00     0.202 C 
BRANCH   3   4
ATOM      4  C   UNL A   1      40.397  22.254  27.001  1.00  0.00     0.261 C 
BRANCH   4   5
ATOM      5  O   UNL A   1      39.030  22.576  26.709  1.00  0.00    -0.460 OA
BRANCH   5   6
ATOM      6  C   UNL A   1      38.452  21.842  25.726  1.00  0.00     0.338 C 
ATOM      7  O   UNL A   1      38.787  20.729  25.354  1.00  0.00    -0.246 OA
BRANCH   6   8
ATOM      8  C   UNL A   1      37.224  22.513  25.229  1.00  0.00     0.060 A 
ATOM      9  C   UNL A   1      34.767  23.636  24.465  1.00  0.00     0.060 A 
ATOM     10  C   UNL A   1      35.284  23.879  25.742  1.00  0.00     0.029 A 
ATOM     11  C   UNL A   1      35.563  22.951  23.535  1.00  0.00     0.029 A 
ATOM     12  C   UNL A   1      36.505  23.315  26.126  1.00  0.00     0.018 A 
ATOM     13  C   UNL A   1      36.776  22.370  23.915  1.00  0.00     0.018 A 
BRANCH   9  14
ATOM     14  N   UNL A   1      33.418  23.862  24.170  1.00  0.00    -0.257 N 
ATOM     15  C   UNL A   1      31.715  25.144  24.138  1.00  0.00     0.071 C 
ATOM     16  N   UNL A   1      32.977  25.102  23.834  1.00  0.00    -0.176 NA
ATOM     17  C   UNL A   1      31.176  23.944  24.871  1.00  0.00     0.091 C 
ATOM     18  C   UNL A   1      32.408  23.031  24.856  1.00  0.00     0.144 C 
BRANCH  15  19
ATOM     19  C   UNL A   1      30.833  26.270  23.776  1.00  0.00    -0.002 A 
ATOM     20  C   UNL A   1      29.236  28.427  23.020  1.00  0.00     0.067 A 
ATOM     21  C   UNL A   1      30.627  28.533  22.928  1.00  0.00     0.021 A 
ATOM     22  C   UNL A   1      28.638  27.257  23.501  1.00  0.00     0.021 A 
ATOM     23  C   UNL A   1      31.424  27.452  23.311  1.00  0.00     0.011 A 
ATOM     24  C   UNL A   1      29.441  26.169  23.869  1.00  0.00     0.011 A 
BRANCH  20  25
ATOM     25  S   UNL A   1      28.231  29.836  22.600  1.00  0.00     0.175 S 
ATOM     26  C   UNL A   1      29.018  31.189  23.431  1.00  0.00     0.163 C 
ATOM     27  O   UNL A   1      26.930  29.625  23.206  1.00  0.00    -0.224 OA
ATOM     28  O   UNL A   1      28.363  30.058  21.173  1.00  0.00    -0.224 OA
ENDBRANCH  20  25
ENDBRANCH  15  19
BRANCH  18  29
ATOM     29  C   UNL A   1      32.292  21.666  24.182  1.00  0.00    -0.023 A 
ATOM     30  C   UNL A   1      32.122  21.486  22.801  1.00  0.00     0.009 A 
ATOM     31  C   UNL A   1      32.459  20.512  24.980  1.00  0.00     0.009 A 
ATOM     32  C   UNL A   1      32.143  20.204  22.241  1.00  0.00     0.039 A 
ATOM     33  C   UNL A   1      32.535  19.238  24.415  1.00  0.00     0.039 A 
ATOM     34  C   UNL A   1      32.373  19.096  23.047  1.00  0.00     0.123 A 
ATOM     35  F   UNL A   1      32.451  17.879  22.496  1.00  0.00    -0.207 F 
ENDBRANCH  18  29
ENDBRANCH   9  14
ENDBRANCH   6   8
ENDBRANCH   5   6
ENDBRANCH   4   5
ENDBRANCH   3   4
ENDBRANCH   2   3
ENDBRANCH   1   2
BRANCH   1  36
ATOM     36  C   UNL A   1      42.859  26.132  27.417  1.00  0.00     0.188 C 
BRANCH  36  37
ATOM     37  O   UNL A   1      44.182  26.059  26.951  1.00  0.00    -0.376 OA
BRANCH  37  38
ATOM     38  C   UNL A   1      45.232  26.674  27.677  1.00  0.00     0.202 C 
BRANCH  38  39
ATOM     39  C   UNL A   1      45.959  27.983  27.300  1.00  0.00     0.261 C 
BRANCH  39  40
ATOM     40  O   UNL A   1      45.191  29.077  26.795  1.00  0.00    -0.460 OA
BRANCH  40  41
ATOM     41  C   UNL A   1      45.879  30.017  26.105  1.00  0.00     0.338 C 
ATOM     42  O   UNL A   1      46.409  29.896  25.009  1.00  0.00    -0.246 OA
BRANCH  41  43
ATOM     43  C   UNL A   1      45.757  31.303  26.810  1.00  0.00     0.060 A 
ATOM     44  C   UNL A   1      46.774  32.258  26.673  1.00  0.00     0.016 A 
ATOM     45  C   UNL A   1      44.653  31.553  27.626  1.00  0.00     0.016 A 
ATOM     46  C   UNL A   1      46.699  33.464  27.369  1.00  0.00     0.010 A 
ATOM     47  C   UNL A   1      44.590  32.751  28.341  1.00  0.00     0.010 A 
ATOM     48  C   UNL A   1      45.625  33.700  28.238  1.00  0.00    -0.014 A 
BRANCH  48  49
ATOM     49  C   UNL A   1      45.660  34.850  29.174  1.00  0.00     0.031 A 
ATOM     50  C   UNL A   1      45.153  36.180  28.690  1.00  0.00     0.074 A 
ATOM     51  C   UNL A   1      46.140  34.723  30.423  1.00  0.00     0.049 A 
ATOM     52  N   UNL A   1      45.178  37.347  29.281  1.00  0.00    -0.248 NA
ATOM     53  C   UNL A   1      44.540  36.194  27.353  1.00  0.00     0.031 C 
ATOM     54  C   UNL A   1      46.617  33.480  31.024  1.00  0.00     0.029 A 
ATOM     55  N   UNL A   1      46.321  35.665  31.405  1.00  0.00    -0.354 N 
ATOM     56  C   UNL A   1      44.595  38.234  28.385  1.00  0.00     0.074 A 
ATOM     57  C   UNL A   1      44.255  37.478  27.199  1.00  0.00     0.031 C 
ATOM     58  C   UNL A   1      47.055  33.739  32.268  1.00  0.00     0.029 A 
ATOM     59  C   UNL A   1      46.927  35.172  32.535  1.00  0.00     0.049 A 
ATOM     60  H   UNL A   1      46.045  36.605  31.309  1.00  0.00     0.167 HD
ATOM     61  C   UNL A   1      44.359  39.558  28.540  1.00  0.00     0.037 A 
ATOM     62  C   UNL A   1      47.354  35.812  33.641  1.00  0.00     0.037 A 
ATOM     63  C   UNL A   1      44.702  40.307  29.720  1.00  0.00     0.049 A 
ATOM     64  C   UNL A   1      47.159  37.306  33.754  1.00  0.00     0.074 A 
ATOM     65  C   UNL A   1      44.494  41.650  29.980  1.00  0.00     0.029 A 
ATOM     66  N   UNL A   1      45.337  39.777  30.834  1.00  0.00    -0.354 N 
ATOM     67  N   UNL A   1      46.591  38.136  32.915  1.00  0.00    -0.248 NA
ATOM     68  C   UNL A   1      47.669  37.950  34.974  1.00  0.00     0.031 C 
ATOM     69  C   UNL A   1      45.057  41.947  31.226  1.00  0.00     0.029 A 
ATOM     70  C   UNL A   1      45.554  40.774  31.773  1.00  0.00     0.049 A 
ATOM     71  H   UNL A   1      45.595  38.833  30.943  1.00  0.00     0.167 HD
ATOM     72  C   UNL A   1      46.637  39.387  33.518  1.00  0.00     0.074 A 
ATOM     73  C   UNL A   1      47.285  39.206  34.800  1.00  0.00     0.031 C 
ATOM     74  C   UNL A   1      46.183  40.577  33.054  1.00  0.00     0.037 A 
BRANCH  61  75
ATOM     75  C   UNL A   1      43.725  40.288  27.392  1.00  0.00     0.064 A 
ATOM     76  C   UNL A   1      44.492  40.968  26.433  1.00  0.00     0.173 A 
ATOM     77  C   UNL A   1      42.331  40.281  27.230  1.00  0.00     0.173 A 
ATOM     78  F   UNL A   1      45.827  41.018  26.548  1.00  0.00    -0.203 F 
ATOM     79  C   UNL A   1      43.884  41.638  25.374  1.00  0.00     0.198 A 
ATOM     80  C   UNL A   1      41.730  40.923  26.151  1.00  0.00     0.198 A 
ATOM     81  F   UNL A   1      41.550  39.642  28.115  1.00  0.00    -0.203 F 
ATOM     82  F   UNL A   1      44.634  42.325  24.500  1.00  0.00    -0.200 F 
ATOM     83  C   UNL A   1      42.506  41.608  25.229  1.00  0.00     0.200 A 
ATOM     84  F   UNL A   1      40.398  40.880  26.005  1.00  0.00    -0.200 F 
ATOM     85  F   UNL A   1      41.924  42.245  24.204  1.00  0.00    -0.200 F 
ENDBRANCH  61  75
BRANCH  62  86
ATOM     86  C   UNL A   1      48.025  35.055  34.731  1.00  0.00     0.064 A 
ATOM     87  C   UNL A   1      49.405  34.808  34.696  1.00  0.00     0.173 A 
ATOM     88  C   UNL A   1      47.299  34.534  35.812  1.00  0.00     0.173 A 
ATOM     89  F   UNL A   1      50.140  35.259  33.668  1.00  0.00    -0.203 F 
ATOM     90  C   UNL A   1      50.028  34.049  35.685  1.00  0.00     0.198 A 
ATOM     91  C   UNL A   1      47.929  33.804  36.819  1.00  0.00     0.198 A 
ATOM     92  F   UNL A   1      45.976  34.735  35.893  1.00  0.00    -0.203 F 
ATOM     93  F   UNL A   1      51.338  33.780  35.595  1.00  0.00    -0.200 F 
ATOM     94  C   UNL A   1      49.290  33.553  36.749  1.00  0.00     0.200 A 
ATOM     95  F   UNL A   1      47.213  33.334  37.850  1.00  0.00    -0.200 F 
ATOM     96  F   UNL A   1      49.889  32.823  37.700  1.00  0.00    -0.200 F 
ENDBRANCH  62  86
BRANCH  74  97
ATOM     97  C   UNL A   1      46.313  41.774  33.955  1.00  0.00     0.064 A 
ATOM     98  C   UNL A   1      45.505  41.943  35.088  1.00  0.00     0.173 A 
ATOM     99  C   UNL A   1      47.301  42.741  33.705  1.00  0.00     0.173 A 
ATOM    100  F   UNL A   1      44.537  41.057  35.366  1.00  0.00    -0.203 F 
ATOM    101  C   UNL A   1      45.664  43.046  35.924  1.00  0.00     0.198 A 
ATOM    102  C   UNL A   1      47.481  43.823  34.562  1.00  0.00     0.198 A 
ATOM    103  F   UNL A   1      48.108  42.624  32.640  1.00  0.00    -0.203 F 
ATOM    104  F   UNL A   1      44.848  43.212  36.974  1.00  0.00    -0.200 F 
ATOM    105  C   UNL A   1      46.657  43.980  35.665  1.00  0.00     0.200 A 
ATOM    106  F   UNL A   1      48.452  44.714  34.319  1.00  0.00    -0.200 F 
ATOM    107  F   UNL A   1      46.817  45.034  36.478  1.00  0.00    -0.200 F 
ENDBRANCH  74  97
ENDBRANCH  48  49
ENDBRANCH  41  43
ENDBRANCH  40  41
ENDBRANCH  39  40
ENDBRANCH  38  39
ENDBRANCH  37  38
ENDBRANCH  36  37
ENDBRANCH   1  36
TORSDOF 21
ENDMDL
