MODEL 1
REMARK VINA RESULT:     -11.3      0.000      0.000
REMARK SMILES COc1ccc2[nH]c(C(=O)c3cc(C)ccn3)c(CC(=O)OCCOCCOCCOC(=O)c3ccc(-c4c5nc(c(-c6c(F)c(F)c(F)c(F)c6F)c6ccc([nH]6)c(-c6c(F)c(F)c(F)c(F)c6F)c6nc(c(-c7c(F)c(F)c(F)c(F)c7F)c7ccc4[nH]7)C=C6)C=C5)cc3)c2c1
REMARK SMILES IDX 26 1 25 2 24 3 23 4 22 5 20 6 21 7 19 8 18 9 3 10 4 11 98 12
REMARK SMILES IDX 5 13 97 14 6 15 7 16 8 17 2 19 1 20 9 21 10 22 11 23 12 24
REMARK SMILES IDX 17 25 13 26 16 27 14 28 15 29 27 30 28 31 29 32 30 33 31 34
REMARK SMILES IDX 32 35 33 36 34 37 35 38 96 39 36 40 95 41 37 42 38 43 39 44
REMARK SMILES IDX 89 45 40 46 94 47 88 48 90 49 41 50 93 51 87 52 86 53 42 55
REMARK SMILES IDX 74 56 54 57 73 58 55 59 58 60 72 61 91 62 56 63 57 64 71 66
REMARK SMILES IDX 92 67 59 68 43 69 44 70 52 71 45 72 46 73 50 74 53 75 47 76
REMARK SMILES IDX 48 77 51 78 49 79 75 80 76 81 84 82 77 83 78 84 82 85 85 86
REMARK SMILES IDX 79 87 80 88 83 89 81 90 60 91 61 92 69 93 62 94 63 95 67 96
REMARK SMILES IDX 70 97 64 98 65 99 68 100 66 101
REMARK H PARENT 7 18 90 54 58 65
REMARK Flexibility Score: inf
ROOT
ATOM      1  C   UNL A   1      40.713  21.291  27.238  1.00  0.00     0.188 C 
ENDROOT
BRANCH   1   2
ATOM      2  O   UNL A   1      39.387  21.174  26.729  1.00  0.00    -0.376 OA
BRANCH   2   3
ATOM      3  C   UNL A   1      38.852  22.269  25.994  1.00  0.00     0.202 C 
BRANCH   3   4
ATOM      4  C   UNL A   1      37.412  22.089  25.497  1.00  0.00     0.261 C 
BRANCH   4   5
ATOM      5  O   UNL A   1      37.141  22.890  24.326  1.00  0.00    -0.463 OA
BRANCH   5   6
ATOM      6  C   UNL A   1      35.957  23.558  24.295  1.00  0.00     0.310 C 
ATOM      7  O   UNL A   1      35.165  23.486  23.361  1.00  0.00    -0.252 OA
BRANCH   6   8
ATOM      8  C   UNL A   1      35.599  24.244  25.610  1.00  0.00     0.161 C 
BRANCH   8   9
ATOM      9  C   UNL A   1      34.142  24.376  25.988  1.00  0.00     0.000 A 
ATOM     10  C   UNL A   1      32.345  27.380  24.445  1.00  0.00     0.119 A 
ATOM     11  C   UNL A   1      31.073  27.047  24.913  1.00  0.00     0.048 A 
ATOM     12  C   UNL A   1      33.455  26.602  24.798  1.00  0.00     0.057 A 
ATOM     13  C   UNL A   1      30.880  25.945  25.751  1.00  0.00     0.030 A 
ATOM     14  C   UNL A   1      33.280  25.454  25.595  1.00  0.00     0.008 A 
ATOM     15  C   UNL A   1      31.998  25.163  26.055  1.00  0.00     0.046 A 
ATOM     16  N   UNL A   1      32.089  23.999  26.774  1.00  0.00    -0.352 N 
ATOM     17  C   UNL A   1      33.293  23.384  26.505  1.00  0.00     0.093 A 
ATOM     18  H   UNL A   1      31.400  23.655  27.388  1.00  0.00     0.167 HD
BRANCH  10  19
ATOM     19  O   UNL A   1      32.625  28.403  23.578  1.00  0.00    -0.497 OA
ATOM     20  C   UNL A   1      33.990  28.561  23.217  1.00  0.00     0.278 C 
ENDBRANCH  10  19
BRANCH  17  21
ATOM     21  C   UNL A   1      33.511  21.953  26.651  1.00  0.00     0.227 C 
ATOM     22  O   UNL A   1      34.117  21.462  27.600  1.00  0.00    -0.285 OA
BRANCH  21  23
ATOM     23  C   UNL A   1      33.043  21.030  25.575  1.00  0.00     0.113 A 
ATOM     24  C   UNL A   1      32.663  21.532  24.333  1.00  0.00     0.036 A 
ATOM     25  N   UNL A   1      33.084  19.708  25.879  1.00  0.00    -0.253 NA
ATOM     26  C   UNL A   1      32.326  20.620  23.326  1.00  0.00    -0.047 A 
ATOM     27  C   UNL A   1      32.811  18.852  24.869  1.00  0.00     0.112 A 
ATOM     28  C   UNL A   1      31.857  21.067  21.973  1.00  0.00     0.044 C 
ATOM     29  C   UNL A   1      32.441  19.254  23.596  1.00  0.00     0.023 A 
ENDBRANCH  21  23
ENDBRANCH  17  21
ENDBRANCH   8   9
ENDBRANCH   6   8
ENDBRANCH   5   6
ENDBRANCH   4   5
ENDBRANCH   3   4
ENDBRANCH   2   3
ENDBRANCH   1   2
BRANCH   1  30
ATOM     30  C   UNL A   1      41.901  21.222  26.254  1.00  0.00     0.188 C 
BRANCH  30  31
ATOM     31  O   UNL A   1      41.956  20.005  25.522  1.00  0.00    -0.376 OA
BRANCH  31  32
ATOM     32  C   UNL A   1      42.364  18.881  26.288  1.00  0.00     0.202 C 
BRANCH  32  33
ATOM     33  C   UNL A   1      43.776  18.436  25.914  1.00  0.00     0.261 C 
BRANCH  33  34
ATOM     34  O   UNL A   1      44.024  18.619  24.502  1.00  0.00    -0.460 OA
BRANCH  34  35
ATOM     35  C   UNL A   1      45.134  19.279  24.137  1.00  0.00     0.338 C 
ATOM     36  O   UNL A   1      46.126  18.794  23.591  1.00  0.00    -0.246 OA
BRANCH  35  37
ATOM     37  C   UNL A   1      45.048  20.708  24.520  1.00  0.00     0.060 A 
ATOM     38  C   UNL A   1      44.545  21.687  23.658  1.00  0.00     0.016 A 
ATOM     39  C   UNL A   1      45.584  21.101  25.745  1.00  0.00     0.016 A 
ATOM     40  C   UNL A   1      44.636  23.046  23.983  1.00  0.00     0.010 A 
ATOM     41  C   UNL A   1      45.614  22.456  26.099  1.00  0.00     0.010 A 
ATOM     42  C   UNL A   1      45.165  23.451  25.212  1.00  0.00    -0.014 A 
BRANCH  42  43
ATOM     43  C   UNL A   1      45.299  24.890  25.576  1.00  0.00     0.031 A 
ATOM     44  C   UNL A   1      46.633  25.578  25.447  1.00  0.00     0.074 A 
ATOM     45  C   UNL A   1      44.252  25.592  26.055  1.00  0.00     0.049 A 
ATOM     46  N   UNL A   1      47.040  26.714  25.958  1.00  0.00    -0.248 NA
ATOM     47  C   UNL A   1      47.649  24.886  24.640  1.00  0.00     0.031 C 
ATOM     48  C   UNL A   1      42.878  25.107  26.159  1.00  0.00     0.029 A 
ATOM     49  N   UNL A   1      44.194  26.868  26.569  1.00  0.00    -0.354 N 
ATOM     50  C   UNL A   1      48.369  26.847  25.581  1.00  0.00     0.074 A 
ATOM     51  C   UNL A   1      48.702  25.676  24.795  1.00  0.00     0.031 C 
ATOM     52  C   UNL A   1      42.113  26.067  26.701  1.00  0.00     0.029 A 
ATOM     53  C   UNL A   1      42.956  27.202  27.064  1.00  0.00     0.049 A 
ATOM     54  H   UNL A   1      44.964  27.482  26.579  1.00  0.00     0.167 HD
ATOM     55  C   UNL A   1      49.234  27.850  25.871  1.00  0.00     0.037 A 
ATOM     56  C   UNL A   1      42.555  28.269  27.782  1.00  0.00     0.037 A 
ATOM     57  C   UNL A   1      48.893  29.036  26.617  1.00  0.00     0.049 A 
ATOM     58  C   UNL A   1      43.551  29.329  28.166  1.00  0.00     0.074 A 
ATOM     59  C   UNL A   1      49.704  30.107  26.951  1.00  0.00     0.029 A 
ATOM     60  N   UNL A   1      47.637  29.312  27.136  1.00  0.00    -0.354 N 
ATOM     61  N   UNL A   1      44.823  29.420  27.867  1.00  0.00    -0.248 NA
ATOM     62  C   UNL A   1      43.055  30.429  29.009  1.00  0.00     0.031 C 
ATOM     63  C   UNL A   1      48.952  31.010  27.713  1.00  0.00     0.029 A 
ATOM     64  C   UNL A   1      47.658  30.526  27.807  1.00  0.00     0.049 A 
ATOM     65  H   UNL A   1      46.847  28.732  27.043  1.00  0.00     0.167 HD
ATOM     66  C   UNL A   1      45.274  30.591  28.464  1.00  0.00     0.074 A 
ATOM     67  C   UNL A   1      44.135  31.187  29.129  1.00  0.00     0.031 C 
ATOM     68  C   UNL A   1      46.522  31.118  28.465  1.00  0.00     0.037 A 
BRANCH  55  69
ATOM     69  C   UNL A   1      50.657  27.697  25.418  1.00  0.00     0.064 A 
ATOM     70  C   UNL A   1      51.672  27.266  26.282  1.00  0.00     0.173 A 
ATOM     71  C   UNL A   1      50.995  27.940  24.076  1.00  0.00     0.173 A 
ATOM     72  F   UNL A   1      51.407  27.034  27.575  1.00  0.00    -0.203 F 
ATOM     73  C   UNL A   1      52.979  27.105  25.825  1.00  0.00     0.198 A 
ATOM     74  C   UNL A   1      52.295  27.750  23.616  1.00  0.00     0.198 A 
ATOM     75  F   UNL A   1      50.059  28.349  23.206  1.00  0.00    -0.203 F 
ATOM     76  F   UNL A   1      53.944  26.734  26.679  1.00  0.00    -0.200 F 
ATOM     77  C   UNL A   1      53.287  27.338  24.493  1.00  0.00     0.200 A 
ATOM     78  F   UNL A   1      52.587  27.964  22.326  1.00  0.00    -0.200 F 
ATOM     79  F   UNL A   1      54.544  27.174  24.055  1.00  0.00    -0.200 F 
ENDBRANCH  55  69
BRANCH  56  80
ATOM     80  C   UNL A   1      41.143  28.362  28.241  1.00  0.00     0.064 A 
ATOM     81  C   UNL A   1      40.160  28.947  27.433  1.00  0.00     0.173 A 
ATOM     82  C   UNL A   1      40.753  27.885  29.501  1.00  0.00     0.173 A 
ATOM     83  F   UNL A   1      40.491  29.452  26.235  1.00  0.00    -0.203 F 
ATOM     84  C   UNL A   1      38.842  29.062  27.872  1.00  0.00     0.198 A 
ATOM     85  C   UNL A   1      39.429  27.970  29.926  1.00  0.00     0.198 A 
ATOM     86  F   UNL A   1      41.658  27.326  30.320  1.00  0.00    -0.203 F 
ATOM     87  F   UNL A   1      37.933  29.674  27.100  1.00  0.00    -0.200 F 
ATOM     88  C   UNL A   1      38.476  28.566  29.113  1.00  0.00     0.200 A 
ATOM     89  F   UNL A   1      39.078  27.481  31.123  1.00  0.00    -0.200 F 
ATOM     90  F   UNL A   1      37.209  28.673  29.534  1.00  0.00    -0.200 F 
ENDBRANCH  56  80
BRANCH  68  91
ATOM     91  C   UNL A   1      46.718  32.427  29.176  1.00  0.00     0.064 A 
ATOM     92  C   UNL A   1      46.526  33.656  28.526  1.00  0.00     0.173 A 
ATOM     93  C   UNL A   1      47.081  32.453  30.532  1.00  0.00     0.173 A 
ATOM     94  F   UNL A   1      46.194  33.686  27.227  1.00  0.00    -0.203 F 
ATOM     95  C   UNL A   1      46.714  34.860  29.200  1.00  0.00     0.198 A 
ATOM     96  C   UNL A   1      47.240  33.659  31.209  1.00  0.00     0.198 A 
ATOM     97  F   UNL A   1      47.271  31.307  31.203  1.00  0.00    -0.203 F 
ATOM     98  F   UNL A   1      46.573  36.021  28.545  1.00  0.00    -0.200 F 
ATOM     99  C   UNL A   1      47.066  34.860  30.541  1.00  0.00     0.200 A 
ATOM    100  F   UNL A   1      47.568  33.657  32.510  1.00  0.00    -0.200 F 
ATOM    101  F   UNL A   1      47.244  36.021  31.188  1.00  0.00    -0.200 F 
ENDBRANCH  68  91
ENDBRANCH  42  43
ENDBRANCH  35  37
ENDBRANCH  34  35
ENDBRANCH  33  34
ENDBRANCH  32  33
ENDBRANCH  31  32
ENDBRANCH  30  31
ENDBRANCH   1  30
TORSDOF 21
ENDMDL
MODEL 2
REMARK VINA RESULT:     -11.2      1.138      2.054
REMARK SMILES COc1ccc2[nH]c(C(=O)c3cc(C)ccn3)c(CC(=O)OCCOCCOCCOC(=O)c3ccc(-c4c5nc(c(-c6c(F)c(F)c(F)c(F)c6F)c6ccc([nH]6)c(-c6c(F)c(F)c(F)c(F)c6F)c6nc(c(-c7c(F)c(F)c(F)c(F)c7F)c7ccc4[nH]7)C=C6)C=C5)cc3)c2c1
REMARK SMILES IDX 26 1 25 2 24 3 23 4 22 5 20 6 21 7 19 8 18 9 3 10 4 11 98 12
REMARK SMILES IDX 5 13 97 14 6 15 7 16 8 17 2 19 1 20 9 21 10 22 11 23 12 24
REMARK SMILES IDX 17 25 13 26 16 27 14 28 15 29 27 30 28 31 29 32 30 33 31 34
REMARK SMILES IDX 32 35 33 36 34 37 35 38 96 39 36 40 95 41 37 42 38 43 39 44
REMARK SMILES IDX 89 45 40 46 94 47 88 48 90 49 41 50 93 51 87 52 86 53 42 55
REMARK SMILES IDX 74 56 54 57 73 58 55 59 58 60 72 61 91 62 56 63 57 64 71 66
REMARK SMILES IDX 92 67 59 68 43 69 44 70 52 71 45 72 46 73 50 74 53 75 47 76
REMARK SMILES IDX 48 77 51 78 49 79 75 80 76 81 84 82 77 83 78 84 82 85 85 86
REMARK SMILES IDX 79 87 80 88 83 89 81 90 60 91 61 92 69 93 62 94 63 95 67 96
REMARK SMILES IDX 70 97 64 98 65 99 68 100 66 101
REMARK H PARENT 7 18 90 54 58 65
REMARK Flexibility Score: inf
ROOT
ATOM      1  C   UNL A   1      40.127  21.440  26.855  1.00  0.00     0.188 C 
ENDROOT
BRANCH   1   2
ATOM      2  O   UNL A   1      39.229  22.474  26.461  1.00  0.00    -0.376 OA
BRANCH   2   3
ATOM      3  C   UNL A   1      38.125  22.125  25.634  1.00  0.00     0.202 C 
BRANCH   3   4
ATOM      4  C   UNL A   1      37.038  23.199  25.497  1.00  0.00     0.261 C 
BRANCH   4   5
ATOM      5  O   UNL A   1      35.809  22.659  24.965  1.00  0.00    -0.463 OA
BRANCH   5   6
ATOM      6  C   UNL A   1      35.566  22.864  23.643  1.00  0.00     0.310 C 
ATOM      7  O   UNL A   1      36.448  23.092  22.821  1.00  0.00    -0.252 OA
BRANCH   6   8
ATOM      8  C   UNL A   1      34.124  22.586  23.228  1.00  0.00     0.161 C 
BRANCH   8   9
ATOM      9  C   UNL A   1      33.119  22.213  24.293  1.00  0.00     0.000 A 
ATOM     10  C   UNL A   1      31.214  25.162  25.812  1.00  0.00     0.119 A 
ATOM     11  C   UNL A   1      30.347  24.393  26.588  1.00  0.00     0.048 A 
ATOM     12  C   UNL A   1      32.224  24.548  25.060  1.00  0.00     0.057 A 
ATOM     13  C   UNL A   1      30.474  23.002  26.646  1.00  0.00     0.030 A 
ATOM     14  C   UNL A   1      32.337  23.145  25.056  1.00  0.00     0.008 A 
ATOM     15  C   UNL A   1      31.464  22.412  25.855  1.00  0.00     0.046 A 
ATOM     16  N   UNL A   1      31.758  21.088  25.655  1.00  0.00    -0.352 N 
ATOM     17  C   UNL A   1      32.542  20.955  24.529  1.00  0.00     0.093 A 
ATOM     18  H   UNL A   1      31.456  20.346  26.228  1.00  0.00     0.167 HD
BRANCH  10  19
ATOM     19  O   UNL A   1      31.134  26.520  25.647  1.00  0.00    -0.497 OA
ATOM     20  C   UNL A   1      30.590  26.971  24.415  1.00  0.00     0.278 C 
ENDBRANCH  10  19
BRANCH  17  21
ATOM     21  C   UNL A   1      32.604  19.736  23.737  1.00  0.00     0.227 C 
ATOM     22  O   UNL A   1      32.120  19.643  22.612  1.00  0.00    -0.285 OA
BRANCH  21  23
ATOM     23  C   UNL A   1      33.221  18.512  24.330  1.00  0.00     0.113 A 
ATOM     24  C   UNL A   1      32.420  17.461  24.768  1.00  0.00     0.036 A 
ATOM     25  N   UNL A   1      34.578  18.488  24.342  1.00  0.00    -0.253 NA
ATOM     26  C   UNL A   1      33.048  16.296  25.224  1.00  0.00    -0.047 A 
ATOM     27  C   UNL A   1      35.153  17.329  24.731  1.00  0.00     0.112 A 
ATOM     28  C   UNL A   1      32.270  15.131  25.761  1.00  0.00     0.044 C 
ATOM     29  C   UNL A   1      34.442  16.223  25.166  1.00  0.00     0.023 A 
ENDBRANCH  21  23
ENDBRANCH  17  21
ENDBRANCH   8   9
ENDBRANCH   6   8
ENDBRANCH   5   6
ENDBRANCH   4   5
ENDBRANCH   3   4
ENDBRANCH   2   3
ENDBRANCH   1   2
BRANCH   1  30
ATOM     30  C   UNL A   1      41.507  21.343  26.169  1.00  0.00     0.188 C 
BRANCH  30  31
ATOM     31  O   UNL A   1      41.730  20.094  25.527  1.00  0.00    -0.376 OA
BRANCH  31  32
ATOM     32  C   UNL A   1      42.159  19.059  26.399  1.00  0.00     0.202 C 
BRANCH  32  33
ATOM     33  C   UNL A   1      43.360  18.310  25.825  1.00  0.00     0.261 C 
BRANCH  33  34
ATOM     34  O   UNL A   1      43.683  18.783  24.498  1.00  0.00    -0.460 OA
BRANCH  34  35
ATOM     35  C   UNL A   1      44.874  19.374  24.312  1.00  0.00     0.338 C 
ATOM     36  O   UNL A   1      45.909  18.827  23.930  1.00  0.00    -0.246 OA
BRANCH  35  37
ATOM     37  C   UNL A   1      44.812  20.810  24.673  1.00  0.00     0.060 A 
ATOM     38  C   UNL A   1      44.429  21.797  23.761  1.00  0.00     0.016 A 
ATOM     39  C   UNL A   1      45.251  21.196  25.939  1.00  0.00     0.016 A 
ATOM     40  C   UNL A   1      44.546  23.156  24.082  1.00  0.00     0.010 A 
ATOM     41  C   UNL A   1      45.303  22.553  26.283  1.00  0.00     0.010 A 
ATOM     42  C   UNL A   1      44.978  23.554  25.350  1.00  0.00    -0.014 A 
BRANCH  42  43
ATOM     43  C   UNL A   1      45.136  24.991  25.713  1.00  0.00     0.031 A 
ATOM     44  C   UNL A   1      46.481  25.657  25.579  1.00  0.00     0.074 A 
ATOM     45  C   UNL A   1      44.103  25.710  26.194  1.00  0.00     0.049 A 
ATOM     46  N   UNL A   1      46.908  26.786  26.088  1.00  0.00    -0.248 NA
ATOM     47  C   UNL A   1      47.482  24.947  24.769  1.00  0.00     0.031 C 
ATOM     48  C   UNL A   1      42.721  25.248  26.304  1.00  0.00     0.029 A 
ATOM     49  N   UNL A   1      44.068  26.987  26.708  1.00  0.00    -0.354 N 
ATOM     50  C   UNL A   1      48.238  26.896  25.707  1.00  0.00     0.074 A 
ATOM     51  C   UNL A   1      48.549  25.719  24.921  1.00  0.00     0.031 C 
ATOM     52  C   UNL A   1      41.974  26.222  26.848  1.00  0.00     0.029 A 
ATOM     53  C   UNL A   1      42.837  27.342  27.207  1.00  0.00     0.049 A 
ATOM     54  H   UNL A   1      44.847  27.588  26.715  1.00  0.00     0.167 HD
ATOM     55  C   UNL A   1      49.120  27.885  25.994  1.00  0.00     0.037 A 
ATOM     56  C   UNL A   1      42.456  28.416  27.925  1.00  0.00     0.037 A 
ATOM     57  C   UNL A   1      48.802  29.077  26.739  1.00  0.00     0.049 A 
ATOM     58  C   UNL A   1      43.470  29.460  28.306  1.00  0.00     0.074 A 
ATOM     59  C   UNL A   1      49.632  30.135  27.071  1.00  0.00     0.029 A 
ATOM     60  N   UNL A   1      47.552  29.374  27.263  1.00  0.00    -0.354 N 
ATOM     61  N   UNL A   1      44.743  29.530  28.002  1.00  0.00    -0.248 NA
ATOM     62  C   UNL A   1      42.996  30.568  29.149  1.00  0.00     0.031 C 
ATOM     63  C   UNL A   1      48.897  31.051  27.834  1.00  0.00     0.029 A 
ATOM     64  C   UNL A   1      47.595  30.588  27.933  1.00  0.00     0.049 A 
ATOM     65  H   UNL A   1      46.753  28.807  27.172  1.00  0.00     0.167 HD
ATOM     66  C   UNL A   1      45.215  30.693  28.598  1.00  0.00     0.074 A 
ATOM     67  C   UNL A   1      44.089  31.309  29.265  1.00  0.00     0.031 C 
ATOM     68  C   UNL A   1      46.472  31.200  28.594  1.00  0.00     0.037 A 
BRANCH  55  69
ATOM     69  C   UNL A   1      50.540  27.708  25.536  1.00  0.00     0.064 A 
ATOM     70  C   UNL A   1      50.945  28.016  24.230  1.00  0.00     0.173 A 
ATOM     71  C   UNL A   1      51.519  27.268  26.441  1.00  0.00     0.173 A 
ATOM     72  F   UNL A   1      50.048  28.427  23.322  1.00  0.00    -0.203 F 
ATOM     73  C   UNL A   1      52.275  27.870  23.842  1.00  0.00     0.198 A 
ATOM     74  C   UNL A   1      52.852  27.150  26.058  1.00  0.00     0.198 A 
ATOM     75  F   UNL A   1      51.184  26.964  27.705  1.00  0.00    -0.203 F 
ATOM     76  F   UNL A   1      52.633  28.128  22.576  1.00  0.00    -0.200 F 
ATOM     77  C   UNL A   1      53.227  27.446  24.757  1.00  0.00     0.200 A 
ATOM     78  F   UNL A   1      53.771  26.752  26.948  1.00  0.00    -0.200 F 
ATOM     79  F   UNL A   1      54.508  27.313  24.382  1.00  0.00    -0.200 F 
ENDBRANCH  55  69
BRANCH  56  80
ATOM     80  C   UNL A   1      41.047  28.533  28.389  1.00  0.00     0.064 A 
ATOM     81  C   UNL A   1      40.056  29.068  27.555  1.00  0.00     0.173 A 
ATOM     82  C   UNL A   1      40.667  28.129  29.678  1.00  0.00     0.173 A 
ATOM     83  F   UNL A   1      40.378  29.502  26.328  1.00  0.00    -0.203 F 
ATOM     84  C   UNL A   1      38.742  29.205  27.997  1.00  0.00     0.198 A 
ATOM     85  C   UNL A   1      39.347  28.236  30.107  1.00  0.00     0.198 A 
ATOM     86  F   UNL A   1      41.580  27.621  30.520  1.00  0.00    -0.203 F 
ATOM     87  F   UNL A   1      37.825  29.769  27.197  1.00  0.00    -0.200 F 
ATOM     88  C   UNL A   1      38.386  28.782  29.268  1.00  0.00     0.200 A 
ATOM     89  F   UNL A   1      39.005  27.817  31.333  1.00  0.00    -0.200 F 
ATOM     90  F   UNL A   1      37.122  28.911  29.691  1.00  0.00    -0.200 F 
ENDBRANCH  56  80
BRANCH  68  91
ATOM     91  C   UNL A   1      46.691  32.505  29.304  1.00  0.00     0.064 A 
ATOM     92  C   UNL A   1      46.507  33.737  28.656  1.00  0.00     0.173 A 
ATOM     93  C   UNL A   1      47.070  32.526  30.655  1.00  0.00     0.173 A 
ATOM     94  F   UNL A   1      46.161  33.772  27.361  1.00  0.00    -0.203 F 
ATOM     95  C   UNL A   1      46.718  34.938  29.328  1.00  0.00     0.198 A 
ATOM     96  C   UNL A   1      47.252  33.729  31.331  1.00  0.00     0.198 A 
ATOM     97  F   UNL A   1      47.254  31.378  31.323  1.00  0.00    -0.203 F 
ATOM     98  F   UNL A   1      46.583  36.101  28.676  1.00  0.00    -0.200 F 
ATOM     99  C   UNL A   1      47.084  34.933  30.666  1.00  0.00     0.200 A 
ATOM    100  F   UNL A   1      47.594  33.723  32.628  1.00  0.00    -0.200 F 
ATOM    101  F   UNL A   1      47.284  36.091  31.312  1.00  0.00    -0.200 F 
ENDBRANCH  68  91
ENDBRANCH  42  43
ENDBRANCH  35  37
ENDBRANCH  34  35
ENDBRANCH  33  34
ENDBRANCH  32  33
ENDBRANCH  31  32
ENDBRANCH  30  31
ENDBRANCH   1  30
TORSDOF 21
ENDMDL
MODEL 3
REMARK VINA RESULT:     -11.1      1.086      3.299
REMARK SMILES COc1ccc2[nH]c(C(=O)c3cc(C)ccn3)c(CC(=O)OCCOCCOCCOC(=O)c3ccc(-c4c5nc(c(-c6c(F)c(F)c(F)c(F)c6F)c6ccc([nH]6)c(-c6c(F)c(F)c(F)c(F)c6F)c6nc(c(-c7c(F)c(F)c(F)c(F)c7F)c7ccc4[nH]7)C=C6)C=C5)cc3)c2c1
REMARK SMILES IDX 26 1 25 2 24 3 23 4 22 5 20 6 21 7 19 8 18 9 3 10 4 11 98 12
REMARK SMILES IDX 5 13 97 14 6 15 7 16 8 17 2 19 1 20 9 21 10 22 11 23 12 24
REMARK SMILES IDX 17 25 13 26 16 27 14 28 15 29 27 30 28 31 29 32 30 33 31 34
REMARK SMILES IDX 32 35 33 36 34 37 35 38 96 39 36 40 95 41 37 42 38 43 39 44
REMARK SMILES IDX 89 45 40 46 94 47 88 48 90 49 41 50 93 51 87 52 86 53 42 55
REMARK SMILES IDX 74 56 54 57 73 58 55 59 58 60 72 61 91 62 56 63 57 64 71 66
REMARK SMILES IDX 92 67 59 68 43 69 44 70 52 71 45 72 46 73 50 74 53 75 47 76
REMARK SMILES IDX 48 77 51 78 49 79 75 80 76 81 84 82 77 83 78 84 82 85 85 86
REMARK SMILES IDX 79 87 80 88 83 89 81 90 60 91 61 92 69 93 62 94 63 95 67 96
REMARK SMILES IDX 70 97 64 98 65 99 68 100 66 101
REMARK H PARENT 7 18 90 54 58 65
REMARK Flexibility Score: inf
ROOT
ATOM      1  C   UNL A   1      40.424  21.356  26.547  1.00  0.00     0.188 C 
ENDROOT
BRANCH   1   2
ATOM      2  O   UNL A   1      40.328  22.594  27.245  1.00  0.00    -0.376 OA
BRANCH   2   3
ATOM      3  C   UNL A   1      39.197  23.420  26.993  1.00  0.00     0.202 C 
BRANCH   3   4
ATOM      4  C   UNL A   1      38.198  22.872  25.964  1.00  0.00     0.261 C 
BRANCH   4   5
ATOM      5  O   UNL A   1      37.332  23.907  25.448  1.00  0.00    -0.463 OA
BRANCH   5   6
ATOM      6  C   UNL A   1      36.155  23.509  24.897  1.00  0.00     0.310 C 
ATOM      7  O   UNL A   1      35.986  23.377  23.689  1.00  0.00    -0.252 OA
BRANCH   6   8
ATOM      8  C   UNL A   1      35.121  23.042  25.916  1.00  0.00     0.161 C 
BRANCH   8   9
ATOM      9  C   UNL A   1      33.886  22.324  25.423  1.00  0.00     0.000 A 
ATOM     10  C   UNL A   1      34.414  18.643  24.523  1.00  0.00     0.119 A 
ATOM     11  C   UNL A   1      33.071  18.358  24.277  1.00  0.00     0.048 A 
ATOM     12  C   UNL A   1      34.813  19.947  24.845  1.00  0.00     0.057 A 
ATOM     13  C   UNL A   1      32.099  19.363  24.329  1.00  0.00     0.030 A 
ATOM     14  C   UNL A   1      33.848  20.966  24.960  1.00  0.00     0.008 A 
ATOM     15  C   UNL A   1      32.519  20.646  24.691  1.00  0.00     0.046 A 
ATOM     16  N   UNL A   1      31.787  21.786  24.898  1.00  0.00    -0.352 N 
ATOM     17  C   UNL A   1      32.545  22.701  25.597  1.00  0.00     0.093 A 
ATOM     18  H   UNL A   1      30.861  21.929  24.594  1.00  0.00     0.167 HD
BRANCH  10  19
ATOM     19  O   UNL A   1      35.426  17.721  24.551  1.00  0.00    -0.497 OA
ATOM     20  C   UNL A   1      35.054  16.392  24.890  1.00  0.00     0.278 C 
ENDBRANCH  10  19
BRANCH  17  21
ATOM     21  C   UNL A   1      31.970  23.753  26.422  1.00  0.00     0.227 C 
ATOM     22  O   UNL A   1      31.735  23.611  27.619  1.00  0.00    -0.285 OA
BRANCH  21  23
ATOM     23  C   UNL A   1      31.578  25.046  25.786  1.00  0.00     0.113 A 
ATOM     24  C   UNL A   1      31.870  26.255  26.412  1.00  0.00     0.036 A 
ATOM     25  N   UNL A   1      30.996  24.945  24.565  1.00  0.00    -0.253 NA
ATOM     26  C   UNL A   1      31.572  27.441  25.731  1.00  0.00    -0.047 A 
ATOM     27  C   UNL A   1      30.774  26.105  23.909  1.00  0.00     0.112 A 
ATOM     28  C   UNL A   1      31.805  28.790  26.345  1.00  0.00     0.044 C 
ATOM     29  C   UNL A   1      31.048  27.356  24.439  1.00  0.00     0.023 A 
ENDBRANCH  21  23
ENDBRANCH  17  21
ENDBRANCH   8   9
ENDBRANCH   6   8
ENDBRANCH   5   6
ENDBRANCH   4   5
ENDBRANCH   3   4
ENDBRANCH   2   3
ENDBRANCH   1   2
BRANCH   1  30
ATOM     30  C   UNL A   1      41.815  20.849  26.107  1.00  0.00     0.188 C 
BRANCH  30  31
ATOM     31  O   UNL A   1      41.794  19.524  25.592  1.00  0.00    -0.376 OA
BRANCH  31  32
ATOM     32  C   UNL A   1      42.444  18.567  26.415  1.00  0.00     0.202 C 
BRANCH  32  33
ATOM     33  C   UNL A   1      43.820  18.201  25.863  1.00  0.00     0.261 C 
BRANCH  33  34
ATOM     34  O   UNL A   1      43.975  18.661  24.501  1.00  0.00    -0.460 OA
BRANCH  34  35
ATOM     35  C   UNL A   1      45.107  19.305  24.178  1.00  0.00     0.338 C 
ATOM     36  O   UNL A   1      46.111  18.805  23.669  1.00  0.00    -0.246 OA
BRANCH  35  37
ATOM     37  C   UNL A   1      45.026  20.736  24.556  1.00  0.00     0.060 A 
ATOM     38  C   UNL A   1      44.573  21.721  23.674  1.00  0.00     0.016 A 
ATOM     39  C   UNL A   1      45.518  21.122  25.802  1.00  0.00     0.016 A 
ATOM     40  C   UNL A   1      44.671  23.079  24.003  1.00  0.00     0.010 A 
ATOM     41  C   UNL A   1      45.552  22.477  26.157  1.00  0.00     0.010 A 
ATOM     42  C   UNL A   1      45.155  23.477  25.252  1.00  0.00    -0.014 A 
BRANCH  42  43
ATOM     43  C   UNL A   1      45.295  24.915  25.621  1.00  0.00     0.031 A 
ATOM     44  C   UNL A   1      46.631  25.598  25.491  1.00  0.00     0.074 A 
ATOM     45  C   UNL A   1      44.252  25.618  26.104  1.00  0.00     0.049 A 
ATOM     46  N   UNL A   1      47.043  26.731  26.005  1.00  0.00    -0.248 NA
ATOM     47  C   UNL A   1      47.642  24.905  24.678  1.00  0.00     0.031 C 
ATOM     48  C   UNL A   1      42.876  25.138  26.211  1.00  0.00     0.029 A 
ATOM     49  N   UNL A   1      44.200  26.892  26.623  1.00  0.00    -0.354 N 
ATOM     50  C   UNL A   1      48.372  26.860  25.625  1.00  0.00     0.074 A 
ATOM     51  C   UNL A   1      48.699  25.690  24.834  1.00  0.00     0.031 C 
ATOM     52  C   UNL A   1      42.116  26.099  26.758  1.00  0.00     0.029 A 
ATOM     53  C   UNL A   1      42.964  27.229  27.122  1.00  0.00     0.049 A 
ATOM     54  H   UNL A   1      44.972  27.504  26.634  1.00  0.00     0.167 HD
ATOM     55  C   UNL A   1      49.241  27.859  25.917  1.00  0.00     0.037 A 
ATOM     56  C   UNL A   1      42.568  28.295  27.845  1.00  0.00     0.037 A 
ATOM     57  C   UNL A   1      48.907  29.043  26.667  1.00  0.00     0.049 A 
ATOM     58  C   UNL A   1      43.569  29.351  28.230  1.00  0.00     0.074 A 
ATOM     59  C   UNL A   1      49.722  30.111  27.004  1.00  0.00     0.029 A 
ATOM     60  N   UNL A   1      47.652  29.322  27.190  1.00  0.00    -0.354 N 
ATOM     61  N   UNL A   1      44.841  29.438  27.928  1.00  0.00    -0.248 NA
ATOM     62  C   UNL A   1      43.080  30.449  29.078  1.00  0.00     0.031 C 
ATOM     63  C   UNL A   1      48.975  31.013  27.770  1.00  0.00     0.029 A 
ATOM     64  C   UNL A   1      47.679  30.534  27.866  1.00  0.00     0.049 A 
ATOM     65  H   UNL A   1      46.861  28.745  27.097  1.00  0.00     0.167 HD
ATOM     66  C   UNL A   1      45.297  30.605  28.529  1.00  0.00     0.074 A 
ATOM     67  C   UNL A   1      44.163  31.203  29.198  1.00  0.00     0.031 C 
ATOM     68  C   UNL A   1      46.548  31.128  28.528  1.00  0.00     0.037 A 
BRANCH  55  69
ATOM     69  C   UNL A   1      50.663  27.702  25.459  1.00  0.00     0.064 A 
ATOM     70  C   UNL A   1      51.058  27.986  24.145  1.00  0.00     0.173 A 
ATOM     71  C   UNL A   1      51.654  27.307  26.373  1.00  0.00     0.173 A 
ATOM     72  F   UNL A   1      50.150  28.353  23.230  1.00  0.00    -0.203 F 
ATOM     73  C   UNL A   1      52.390  27.859  23.757  1.00  0.00     0.198 A 
ATOM     74  C   UNL A   1      52.988  27.210  25.988  1.00  0.00     0.198 A 
ATOM     75  F   UNL A   1      51.329  27.029  27.645  1.00  0.00    -0.203 F 
ATOM     76  F   UNL A   1      52.739  28.093  22.483  1.00  0.00    -0.200 F 
ATOM     77  C   UNL A   1      53.354  27.480  24.679  1.00  0.00     0.200 A 
ATOM     78  F   UNL A   1      53.919  26.856  26.885  1.00  0.00    -0.200 F 
ATOM     79  F   UNL A   1      54.636  27.367  24.304  1.00  0.00    -0.200 F 
ENDBRANCH  55  69
BRANCH  56  80
ATOM     80  C   UNL A   1      41.158  28.392  28.308  1.00  0.00     0.064 A 
ATOM     81  C   UNL A   1      40.170  28.961  27.494  1.00  0.00     0.173 A 
ATOM     82  C   UNL A   1      40.774  27.934  29.577  1.00  0.00     0.173 A 
ATOM     83  F   UNL A   1      40.496  29.447  26.287  1.00  0.00    -0.203 F 
ATOM     84  C   UNL A   1      38.854  29.079  27.936  1.00  0.00     0.198 A 
ATOM     85  C   UNL A   1      39.451  28.022  30.005  1.00  0.00     0.198 A 
ATOM     86  F   UNL A   1      41.683  27.392  30.401  1.00  0.00    -0.203 F 
ATOM     87  F   UNL A   1      37.940  29.676  27.157  1.00  0.00    -0.200 F 
ATOM     88  C   UNL A   1      38.493  28.602  29.187  1.00  0.00     0.200 A 
ATOM     89  F   UNL A   1      39.106  27.552  31.212  1.00  0.00    -0.200 F 
ATOM     90  F   UNL A   1      37.228  28.713  29.610  1.00  0.00    -0.200 F 
ENDBRANCH  56  80
BRANCH  68  91
ATOM     91  C   UNL A   1      46.750  32.433  29.244  1.00  0.00     0.064 A 
ATOM     92  C   UNL A   1      46.569  33.665  28.596  1.00  0.00     0.173 A 
ATOM     93  C   UNL A   1      47.107  32.454  30.601  1.00  0.00     0.173 A 
ATOM     94  F   UNL A   1      46.244  33.701  27.295  1.00  0.00    -0.203 F 
ATOM     95  C   UNL A   1      46.764  34.866  29.273  1.00  0.00     0.198 A 
ATOM     96  C   UNL A   1      47.272  33.656  31.282  1.00  0.00     0.198 A 
ATOM     97  F   UNL A   1      47.286  31.305  31.270  1.00  0.00    -0.203 F 
ATOM     98  F   UNL A   1      46.634  36.030  28.621  1.00  0.00    -0.200 F 
ATOM     99  C   UNL A   1      47.109  34.861  30.616  1.00  0.00     0.200 A 
ATOM    100  F   UNL A   1      47.594  33.649  32.584  1.00  0.00    -0.200 F 
ATOM    101  F   UNL A   1      47.293  36.018  31.267  1.00  0.00    -0.200 F 
ENDBRANCH  68  91
ENDBRANCH  42  43
ENDBRANCH  35  37
ENDBRANCH  34  35
ENDBRANCH  33  34
ENDBRANCH  32  33
ENDBRANCH  31  32
ENDBRANCH  30  31
ENDBRANCH   1  30
TORSDOF 21
ENDMDL
