MODEL 1
REMARK VINA RESULT:     -12.7      0.000      0.000
REMARK SMILES Cc1cc(NC(=O)c2ccc(Br)cc2N)ccc1C(=O)OCCOCCOCCOC(=O)c1ccc(-c2c3nc(c(-c4c(F)c(F)c(F)c(F)c4F)c4ccc([nH]4)c(-c4c(F)c(F)c(F)c(F)c4F)c4nc(c(-c5c(F)c(F)c(F)c(F)c5F)c5ccc2[nH]5)C=C4)C=C3)cc1
REMARK SMILES IDX 25 1 24 2 23 3 22 4 21 5 19 6 20 7 18 8 1 9 2 10 3 11 4 12
REMARK SMILES IDX 17 13 16 14 5 15 6 16 7 18 8 19 9 20 14 21 10 22 13 23 11 24
REMARK SMILES IDX 12 25 15 26 26 29 27 30 28 31 29 32 30 33 31 34 32 35 33 36
REMARK SMILES IDX 34 37 95 38 35 39 94 40 36 41 37 42 38 43 88 44 39 45 93 46
REMARK SMILES IDX 87 47 89 48 40 49 92 50 86 51 85 52 41 54 73 55 53 56 72 57
REMARK SMILES IDX 54 58 57 59 71 60 90 61 55 62 56 63 70 65 91 66 58 67 42 68
REMARK SMILES IDX 43 69 51 70 44 71 45 72 49 73 52 74 46 75 47 76 50 77 48 78
REMARK SMILES IDX 74 79 75 80 83 81 76 82 77 83 81 84 84 85 78 86 79 87 82 88
REMARK SMILES IDX 80 89 59 90 60 91 68 92 61 93 62 94 66 95 69 96 63 97 64 98
REMARK SMILES IDX 67 99 65 100
REMARK H PARENT 5 17 15 27 15 28 89 53 57 64
REMARK Flexibility Score: inf
ROOT
ATOM      1  C   UNL A   1      33.648  32.930  28.636  1.00  0.00     0.188 C 
ENDROOT
BRANCH   1   2
ATOM      2  O   UNL A   1      33.370  32.132  27.457  1.00  0.00    -0.376 OA
BRANCH   2   3
ATOM      3  C   UNL A   1      32.047  31.728  27.010  1.00  0.00     0.202 C 
BRANCH   3   4
ATOM      4  C   UNL A   1      31.762  30.193  26.387  1.00  0.00     0.261 C 
BRANCH   4   5
ATOM      5  O   UNL A   1      31.729  29.750  24.793  1.00  0.00    -0.460 OA
BRANCH   5   6
ATOM      6  C   UNL A   1      32.493  28.842  24.015  1.00  0.00     0.338 C 
ATOM      7  O   UNL A   1      33.298  29.102  23.122  1.00  0.00    -0.246 OA
BRANCH   6   8
ATOM      8  C   UNL A   1      32.565  27.364  24.099  1.00  0.00     0.063 A 
ATOM      9  C   UNL A   1      34.029  27.579  26.110  1.00  0.00     0.045 C 
ATOM     10  C   UNL A   1      33.059  26.814  25.269  1.00  0.00    -0.035 A 
ATOM     11  C   UNL A   1      32.438  25.653  25.777  1.00  0.00     0.030 A 
ATOM     12  C   UNL A   1      31.341  25.044  25.138  1.00  0.00     0.041 A 
ATOM     13  C   UNL A   1      31.524  26.650  23.406  1.00  0.00     0.018 A 
ATOM     14  C   UNL A   1      30.942  25.481  23.892  1.00  0.00     0.027 A 
BRANCH  12  15
ATOM     15  N   UNL A   1      30.539  24.080  25.770  1.00  0.00    -0.322 N 
ATOM     16  C   UNL A   1      30.822  22.735  25.923  1.00  0.00     0.257 C 
ATOM     17  H   UNL A   1      29.685  24.395  26.144  1.00  0.00     0.170 HD
ATOM     18  O   UNL A   1      29.949  21.941  26.262  1.00  0.00    -0.269 OA
BRANCH  16  19
ATOM     19  C   UNL A   1      32.222  22.260  25.765  1.00  0.00     0.063 A 
ATOM     20  C   UNL A   1      32.661  22.030  24.453  1.00  0.00     0.017 A 
ATOM     21  C   UNL A   1      33.084  22.054  26.865  1.00  0.00     0.045 A 
ATOM     22  C   UNL A   1      33.971  21.613  24.219  1.00  0.00     0.016 A 
ATOM     23  C   UNL A   1      34.384  21.596  26.606  1.00  0.00     0.042 A 
ATOM     24  C   UNL A   1      34.825  21.398  25.297  1.00  0.00     0.020 A 
ATOM     25  Br  UNL A   1      36.597  20.813  24.990  1.00  0.00    -0.051 Br
BRANCH  21  26
ATOM     26  N   UNL A   1      32.672  22.126  28.196  1.00  0.00    -0.398 N 
ATOM     27  H   UNL A   1      32.551  21.299  28.719  1.00  0.00     0.156 HD
ATOM     28  H   UNL A   1      32.502  23.001  28.612  1.00  0.00     0.156 HD
ENDBRANCH  21  26
ENDBRANCH  16  19
ENDBRANCH  12  15
ENDBRANCH   6   8
ENDBRANCH   5   6
ENDBRANCH   4   5
ENDBRANCH   3   4
ENDBRANCH   2   3
ENDBRANCH   1   2
BRANCH   1  29
ATOM     29  C   UNL A   1      33.596  34.462  28.674  1.00  0.00     0.188 C 
BRANCH  29  30
ATOM     30  O   UNL A   1      32.597  34.906  29.573  1.00  0.00    -0.376 OA
BRANCH  30  31
ATOM     31  C   UNL A   1      32.869  36.119  30.262  1.00  0.00     0.202 C 
BRANCH  31  32
ATOM     32  C   UNL A   1      32.681  36.015  31.793  1.00  0.00     0.261 C 
BRANCH  32  33
ATOM     33  O   UNL A   1      33.308  34.816  32.322  1.00  0.00    -0.460 OA
BRANCH  33  34
ATOM     34  C   UNL A   1      34.607  34.912  32.758  1.00  0.00     0.338 C 
ATOM     35  O   UNL A   1      35.141  35.950  33.124  1.00  0.00    -0.246 OA
BRANCH  34  36
ATOM     36  C   UNL A   1      35.341  33.623  32.508  1.00  0.00     0.060 A 
ATOM     37  C   UNL A   1      35.722  32.629  33.427  1.00  0.00     0.016 A 
ATOM     38  C   UNL A   1      35.975  33.558  31.318  1.00  0.00     0.016 A 
ATOM     39  C   UNL A   1      36.819  31.682  33.147  1.00  0.00     0.010 A 
ATOM     40  C   UNL A   1      37.159  32.830  31.275  1.00  0.00     0.010 A 
ATOM     41  C   UNL A   1      37.641  31.777  32.023  1.00  0.00    -0.014 A 
BRANCH  41  42
ATOM     42  C   UNL A   1      39.032  31.108  31.644  1.00  0.00     0.031 A 
ATOM     43  C   UNL A   1      39.507  29.756  30.798  1.00  0.00     0.074 A 
ATOM     44  C   UNL A   1      40.074  31.855  32.075  1.00  0.00     0.049 A 
ATOM     45  N   UNL A   1      40.626  29.097  31.054  1.00  0.00    -0.248 NA
ATOM     46  C   UNL A   1      38.854  28.984  29.675  1.00  0.00     0.031 C 
ATOM     47  C   UNL A   1      41.492  31.711  31.772  1.00  0.00     0.029 A 
ATOM     48  N   UNL A   1      40.043  32.841  33.077  1.00  0.00    -0.354 N 
ATOM     49  C   UNL A   1      40.792  28.110  30.072  1.00  0.00     0.074 A 
ATOM     50  C   UNL A   1      39.528  27.860  29.526  1.00  0.00     0.031 C 
ATOM     51  C   UNL A   1      42.194  32.267  32.773  1.00  0.00     0.029 A 
ATOM     52  C   UNL A   1      41.240  32.679  33.788  1.00  0.00     0.049 A 
ATOM     53  H   UNL A   1      39.333  33.503  33.244  1.00  0.00     0.167 HD
ATOM     54  C   UNL A   1      41.987  27.680  29.583  1.00  0.00     0.037 A 
ATOM     55  C   UNL A   1      41.212  32.288  35.092  1.00  0.00     0.037 A 
ATOM     56  C   UNL A   1      43.016  28.017  30.525  1.00  0.00     0.049 A 
ATOM     57  C   UNL A   1      41.963  30.998  35.325  1.00  0.00     0.074 A 
ATOM     58  C   UNL A   1      43.975  29.002  30.592  1.00  0.00     0.029 A 
ATOM     59  N   UNL A   1      42.868  27.501  31.803  1.00  0.00    -0.354 N 
ATOM     60  N   UNL A   1      42.384  30.211  34.370  1.00  0.00    -0.248 NA
ATOM     61  C   UNL A   1      42.298  30.485  36.649  1.00  0.00     0.031 C 
ATOM     62  C   UNL A   1      44.253  29.204  31.979  1.00  0.00     0.029 A 
ATOM     63  C   UNL A   1      43.520  28.290  32.724  1.00  0.00     0.049 A 
ATOM     64  H   UNL A   1      42.366  26.683  32.022  1.00  0.00     0.167 HD
ATOM     65  C   UNL A   1      42.943  29.087  34.910  1.00  0.00     0.074 A 
ATOM     66  C   UNL A   1      42.909  29.330  36.339  1.00  0.00     0.031 C 
ATOM     67  C   UNL A   1      43.336  28.024  34.148  1.00  0.00     0.037 A 
BRANCH  54  68
ATOM     68  C   UNL A   1      42.179  27.005  28.218  1.00  0.00     0.064 A 
ATOM     69  C   UNL A   1      42.255  27.773  27.041  1.00  0.00     0.173 A 
ATOM     70  C   UNL A   1      42.212  25.602  27.987  1.00  0.00     0.173 A 
ATOM     71  F   UNL A   1      42.148  29.108  27.089  1.00  0.00    -0.203 F 
ATOM     72  C   UNL A   1      42.417  27.194  25.767  1.00  0.00     0.198 A 
ATOM     73  C   UNL A   1      42.461  25.030  26.732  1.00  0.00     0.198 A 
ATOM     74  F   UNL A   1      41.925  24.710  28.944  1.00  0.00    -0.203 F 
ATOM     75  F   UNL A   1      42.426  27.972  24.676  1.00  0.00    -0.200 F 
ATOM     76  C   UNL A   1      42.556  25.826  25.618  1.00  0.00     0.200 A 
ATOM     77  F   UNL A   1      42.568  23.696  26.617  1.00  0.00    -0.200 F 
ATOM     78  F   UNL A   1      42.738  25.278  24.408  1.00  0.00    -0.200 F 
ENDBRANCH  54  68
BRANCH  55  79
ATOM     79  C   UNL A   1      40.027  32.816  35.842  1.00  0.00     0.064 A 
ATOM     80  C   UNL A   1      39.016  31.890  36.197  1.00  0.00     0.173 A 
ATOM     81  C   UNL A   1      40.003  34.050  36.504  1.00  0.00     0.173 A 
ATOM     82  F   UNL A   1      38.975  30.688  35.601  1.00  0.00    -0.203 F 
ATOM     83  C   UNL A   1      38.125  32.127  37.243  1.00  0.00     0.198 A 
ATOM     84  C   UNL A   1      39.079  34.300  37.533  1.00  0.00     0.198 A 
ATOM     85  F   UNL A   1      40.956  34.964  36.272  1.00  0.00    -0.203 F 
ATOM     86  F   UNL A   1      37.287  31.158  37.639  1.00  0.00    -0.200 F 
ATOM     87  C   UNL A   1      38.170  33.326  37.925  1.00  0.00     0.200 A 
ATOM     88  F   UNL A   1      39.168  35.432  38.249  1.00  0.00    -0.200 F 
ATOM     89  F   UNL A   1      37.395  33.517  39.002  1.00  0.00    -0.200 F 
ENDBRANCH  55  79
BRANCH  67  90
ATOM     90  C   UNL A   1      43.559  26.625  34.687  1.00  0.00     0.064 A 
ATOM     91  C   UNL A   1      42.514  25.753  35.044  1.00  0.00     0.173 A 
ATOM     92  C   UNL A   1      44.852  26.049  34.696  1.00  0.00     0.173 A 
ATOM     93  F   UNL A   1      41.229  26.117  34.938  1.00  0.00    -0.203 F 
ATOM     94  C   UNL A   1      42.749  24.442  35.464  1.00  0.00     0.198 A 
ATOM     95  C   UNL A   1      45.074  24.714  35.036  1.00  0.00     0.198 A 
ATOM     96  F   UNL A   1      45.934  26.755  34.336  1.00  0.00    -0.203 F 
ATOM     97  F   UNL A   1      41.719  23.678  35.854  1.00  0.00    -0.200 F 
ATOM     98  C   UNL A   1      44.025  23.918  35.445  1.00  0.00     0.200 A 
ATOM     99  F   UNL A   1      46.308  24.199  34.939  1.00  0.00    -0.200 F 
ATOM    100  F   UNL A   1      44.240  22.643  35.796  1.00  0.00    -0.200 F 
ENDBRANCH  67  90
ENDBRANCH  41  42
ENDBRANCH  34  36
ENDBRANCH  33  34
ENDBRANCH  32  33
ENDBRANCH  31  32
ENDBRANCH  30  31
ENDBRANCH  29  30
ENDBRANCH   1  29
TORSDOF 20
ENDMDL
MODEL 2
REMARK VINA RESULT:     -12.6      5.008     11.104
REMARK SMILES Cc1cc(NC(=O)c2ccc(Br)cc2N)ccc1C(=O)OCCOCCOCCOC(=O)c1ccc(-c2c3nc(c(-c4c(F)c(F)c(F)c(F)c4F)c4ccc([nH]4)c(-c4c(F)c(F)c(F)c(F)c4F)c4nc(c(-c5c(F)c(F)c(F)c(F)c5F)c5ccc2[nH]5)C=C4)C=C3)cc1
REMARK SMILES IDX 25 1 24 2 23 3 22 4 21 5 19 6 20 7 18 8 1 9 2 10 3 11 4 12
REMARK SMILES IDX 17 13 16 14 5 15 6 16 7 18 8 19 9 20 14 21 10 22 13 23 11 24
REMARK SMILES IDX 12 25 15 26 26 29 27 30 28 31 29 32 30 33 31 34 32 35 33 36
REMARK SMILES IDX 34 37 95 38 35 39 94 40 36 41 37 42 38 43 88 44 39 45 93 46
REMARK SMILES IDX 87 47 89 48 40 49 92 50 86 51 85 52 41 54 73 55 53 56 72 57
REMARK SMILES IDX 54 58 57 59 71 60 90 61 55 62 56 63 70 65 91 66 58 67 42 68
REMARK SMILES IDX 43 69 51 70 44 71 45 72 49 73 52 74 46 75 47 76 50 77 48 78
REMARK SMILES IDX 74 79 75 80 83 81 76 82 77 83 81 84 84 85 78 86 79 87 82 88
REMARK SMILES IDX 80 89 59 90 60 91 68 92 61 93 62 94 66 95 69 96 63 97 64 98
REMARK SMILES IDX 67 99 65 100
REMARK H PARENT 5 17 15 27 15 28 89 53 57 64
REMARK Flexibility Score: inf
ROOT
ATOM      1  C   UNL A   1      40.306  21.667  26.414  1.00  0.00     0.188 C 
ENDROOT
BRANCH   1   2
ATOM      2  O   UNL A   1      38.926  21.995  26.111  1.00  0.00    -0.376 OA
BRANCH   2   3
ATOM      3  C   UNL A   1      38.049  21.217  25.251  1.00  0.00     0.202 C 
BRANCH   3   4
ATOM      4  C   UNL A   1      36.822  21.944  24.360  1.00  0.00     0.261 C 
BRANCH   4   5
ATOM      5  O   UNL A   1      36.338  23.525  24.428  1.00  0.00    -0.460 OA
BRANCH   5   6
ATOM      6  C   UNL A   1      35.068  24.158  24.452  1.00  0.00     0.338 C 
ATOM      7  O   UNL A   1      34.720  25.129  25.122  1.00  0.00    -0.246 OA
BRANCH   6   8
ATOM      8  C   UNL A   1      33.855  23.860  23.655  1.00  0.00     0.063 A 
ATOM      9  C   UNL A   1      33.180  22.174  25.368  1.00  0.00     0.045 C 
ATOM     10  C   UNL A   1      32.852  23.130  24.268  1.00  0.00    -0.035 A 
ATOM     11  C   UNL A   1      31.511  23.497  24.020  1.00  0.00     0.030 A 
ATOM     12  C   UNL A   1      31.167  24.572  23.178  1.00  0.00     0.041 A 
ATOM     13  C   UNL A   1      33.469  24.872  22.707  1.00  0.00     0.018 A 
ATOM     14  C   UNL A   1      32.143  25.203  22.435  1.00  0.00     0.027 A 
BRANCH  12  15
ATOM     15  N   UNL A   1      29.878  25.127  23.152  1.00  0.00    -0.322 N 
ATOM     16  C   UNL A   1      29.375  26.099  23.998  1.00  0.00     0.257 C 
ATOM     17  H   UNL A   1      29.266  24.789  22.460  1.00  0.00     0.170 HD
ATOM     18  O   UNL A   1      28.170  26.327  24.053  1.00  0.00    -0.269 OA
BRANCH  16  19
ATOM     19  C   UNL A   1      30.315  26.941  24.785  1.00  0.00     0.063 A 
ATOM     20  C   UNL A   1      30.751  28.127  24.178  1.00  0.00     0.017 A 
ATOM     21  C   UNL A   1      30.752  26.586  26.081  1.00  0.00     0.045 A 
ATOM     22  C   UNL A   1      31.609  28.987  24.863  1.00  0.00     0.016 A 
ATOM     23  C   UNL A   1      31.646  27.447  26.733  1.00  0.00     0.042 A 
ATOM     24  C   UNL A   1      32.052  28.641  26.137  1.00  0.00     0.020 A 
ATOM     25  Br  UNL A   1      33.233  29.790  27.066  1.00  0.00    -0.051 Br
BRANCH  21  26
ATOM     26  N   UNL A   1      30.472  25.359  26.683  1.00  0.00    -0.398 N 
ATOM     27  H   UNL A   1      29.803  24.756  26.283  1.00  0.00     0.156 HD
ATOM     28  H   UNL A   1      30.941  25.096  27.507  1.00  0.00     0.156 HD
ENDBRANCH  21  26
ENDBRANCH  16  19
ENDBRANCH  12  15
ENDBRANCH   6   8
ENDBRANCH   5   6
ENDBRANCH   4   5
ENDBRANCH   3   4
ENDBRANCH   2   3
ENDBRANCH   1   2
BRANCH   1  29
ATOM     29  C   UNL A   1      40.810  20.251  26.720  1.00  0.00     0.188 C 
BRANCH  29  30
ATOM     30  O   UNL A   1      41.644  19.782  25.677  1.00  0.00    -0.376 OA
BRANCH  30  31
ATOM     31  C   UNL A   1      42.777  19.022  26.075  1.00  0.00     0.202 C 
BRANCH  31  32
ATOM     32  C   UNL A   1      44.008  19.222  25.162  1.00  0.00     0.261 C 
BRANCH  32  33
ATOM     33  O   UNL A   1      44.033  20.560  24.595  1.00  0.00    -0.460 OA
BRANCH  33  34
ATOM     34  C   UNL A   1      44.989  21.432  25.057  1.00  0.00     0.338 C 
ATOM     35  O   UNL A   1      46.110  21.105  25.418  1.00  0.00    -0.246 OA
BRANCH  34  36
ATOM     36  C   UNL A   1      44.392  22.797  25.271  1.00  0.00     0.060 A 
ATOM     37  C   UNL A   1      44.837  24.042  24.792  1.00  0.00     0.016 A 
ATOM     38  C   UNL A   1      43.510  22.871  26.289  1.00  0.00     0.016 A 
ATOM     39  C   UNL A   1      44.462  25.312  25.445  1.00  0.00     0.010 A 
ATOM     40  C   UNL A   1      43.457  24.071  26.990  1.00  0.00     0.010 A 
ATOM     41  C   UNL A   1      43.756  25.372  26.647  1.00  0.00    -0.014 A 
BRANCH  41  42
ATOM     42  C   UNL A   1      43.496  26.545  27.688  1.00  0.00     0.031 A 
ATOM     43  C   UNL A   1      42.202  27.514  28.085  1.00  0.00     0.074 A 
ATOM     44  C   UNL A   1      44.580  26.765  28.466  1.00  0.00     0.049 A 
ATOM     45  N   UNL A   1      42.335  28.742  28.561  1.00  0.00    -0.248 NA
ATOM     46  C   UNL A   1      40.710  27.298  27.988  1.00  0.00     0.031 C 
ATOM     47  C   UNL A   1      44.700  27.598  29.656  1.00  0.00     0.029 A 
ATOM     48  N   UNL A   1      45.904  26.379  28.190  1.00  0.00    -0.354 N 
ATOM     49  C   UNL A   1      41.066  29.215  28.926  1.00  0.00     0.074 A 
ATOM     50  C   UNL A   1      40.129  28.462  28.210  1.00  0.00     0.031 C 
ATOM     51  C   UNL A   1      45.988  27.956  29.789  1.00  0.00     0.029 A 
ATOM     52  C   UNL A   1      46.696  27.451  28.626  1.00  0.00     0.049 A 
ATOM     53  H   UNL A   1      46.209  25.537  27.780  1.00  0.00     0.167 HD
ATOM     54  C   UNL A   1      40.810  30.059  29.961  1.00  0.00     0.037 A 
ATOM     55  C   UNL A   1      47.417  28.176  27.728  1.00  0.00     0.037 A 
ATOM     56  C   UNL A   1      42.022  30.749  30.302  1.00  0.00     0.049 A 
ATOM     57  C   UNL A   1      47.042  29.640  27.732  1.00  0.00     0.074 A 
ATOM     58  C   UNL A   1      42.955  30.619  31.306  1.00  0.00     0.029 A 
ATOM     59  N   UNL A   1      42.612  31.486  29.286  1.00  0.00    -0.354 N 
ATOM     60  N   UNL A   1      45.991  30.126  28.338  1.00  0.00    -0.248 NA
ATOM     61  C   UNL A   1      47.815  30.674  27.054  1.00  0.00     0.031 C 
ATOM     62  C   UNL A   1      44.186  31.121  30.782  1.00  0.00     0.029 A 
ATOM     63  C   UNL A   1      43.965  31.617  29.505  1.00  0.00     0.049 A 
ATOM     64  H   UNL A   1      42.130  31.864  28.516  1.00  0.00     0.167 HD
ATOM     65  C   UNL A   1      45.885  31.464  28.078  1.00  0.00     0.074 A 
ATOM     66  C   UNL A   1      47.078  31.767  27.311  1.00  0.00     0.031 C 
ATOM     67  C   UNL A   1      44.802  32.202  28.462  1.00  0.00     0.037 A 
BRANCH  54  68
ATOM     68  C   UNL A   1      39.454  30.186  30.668  1.00  0.00     0.064 A 
ATOM     69  C   UNL A   1      38.596  31.266  30.391  1.00  0.00     0.173 A 
ATOM     70  C   UNL A   1      38.972  29.324  31.692  1.00  0.00     0.173 A 
ATOM     71  F   UNL A   1      38.954  32.213  29.511  1.00  0.00    -0.203 F 
ATOM     72  C   UNL A   1      37.349  31.428  31.027  1.00  0.00     0.198 A 
ATOM     73  C   UNL A   1      37.696  29.435  32.261  1.00  0.00     0.198 A 
ATOM     74  F   UNL A   1      39.739  28.380  32.255  1.00  0.00    -0.203 F 
ATOM     75  F   UNL A   1      36.601  32.507  30.762  1.00  0.00    -0.200 F 
ATOM     76  C   UNL A   1      36.885  30.493  31.933  1.00  0.00     0.200 A 
ATOM     77  F   UNL A   1      37.284  28.523  33.156  1.00  0.00    -0.200 F 
ATOM     78  F   UNL A   1      35.687  30.633  32.517  1.00  0.00    -0.200 F 
ENDBRANCH  54  68
BRANCH  55  79
ATOM     79  C   UNL A   1      47.929  27.357  26.581  1.00  0.00     0.064 A 
ATOM     80  C   UNL A   1      47.340  27.574  25.312  1.00  0.00     0.173 A 
ATOM     81  C   UNL A   1      49.145  26.663  26.595  1.00  0.00     0.173 A 
ATOM     82  F   UNL A   1      46.171  28.230  25.223  1.00  0.00    -0.203 F 
ATOM     83  C   UNL A   1      47.990  27.243  24.124  1.00  0.00     0.198 A 
ATOM     84  C   UNL A   1      49.780  26.297  25.395  1.00  0.00     0.198 A 
ATOM     85  F   UNL A   1      49.801  26.463  27.746  1.00  0.00    -0.203 F 
ATOM     86  F   UNL A   1      47.459  27.606  22.947  1.00  0.00    -0.200 F 
ATOM     87  C   UNL A   1      49.221  26.621  24.166  1.00  0.00     0.200 A 
ATOM     88  F   UNL A   1      51.012  25.762  25.429  1.00  0.00    -0.200 F 
ATOM     89  F   UNL A   1      49.904  26.402  23.032  1.00  0.00    -0.200 F 
ENDBRANCH  55  79
BRANCH  67  90
ATOM     90  C   UNL A   1      44.428  33.542  27.859  1.00  0.00     0.064 A 
ATOM     91  C   UNL A   1      43.943  33.697  26.547  1.00  0.00     0.173 A 
ATOM     92  C   UNL A   1      44.382  34.709  28.659  1.00  0.00     0.173 A 
ATOM     93  F   UNL A   1      43.788  32.649  25.727  1.00  0.00    -0.203 F 
ATOM     94  C   UNL A   1      43.532  34.935  26.047  1.00  0.00     0.198 A 
ATOM     95  C   UNL A   1      43.893  35.925  28.181  1.00  0.00     0.198 A 
ATOM     96  F   UNL A   1      44.774  34.693  29.942  1.00  0.00    -0.203 F 
ATOM     97  F   UNL A   1      43.141  35.034  24.769  1.00  0.00    -0.200 F 
ATOM     98  C   UNL A   1      43.493  36.045  26.867  1.00  0.00     0.200 A 
ATOM     99  F   UNL A   1      43.790  36.973  29.010  1.00  0.00    -0.200 F 
ATOM    100  F   UNL A   1      43.046  37.217  26.398  1.00  0.00    -0.200 F 
ENDBRANCH  67  90
ENDBRANCH  41  42
ENDBRANCH  34  36
ENDBRANCH  33  34
ENDBRANCH  32  33
ENDBRANCH  31  32
ENDBRANCH  30  31
ENDBRANCH  29  30
ENDBRANCH   1  29
TORSDOF 20
ENDMDL
MODEL 3
REMARK VINA RESULT:     -12.4      4.895     11.170
REMARK SMILES Cc1cc(NC(=O)c2ccc(Br)cc2N)ccc1C(=O)OCCOCCOCCOC(=O)c1ccc(-c2c3nc(c(-c4c(F)c(F)c(F)c(F)c4F)c4ccc([nH]4)c(-c4c(F)c(F)c(F)c(F)c4F)c4nc(c(-c5c(F)c(F)c(F)c(F)c5F)c5ccc2[nH]5)C=C4)C=C3)cc1
REMARK SMILES IDX 25 1 24 2 23 3 22 4 21 5 19 6 20 7 18 8 1 9 2 10 3 11 4 12
REMARK SMILES IDX 17 13 16 14 5 15 6 16 7 18 8 19 9 20 14 21 10 22 13 23 11 24
REMARK SMILES IDX 12 25 15 26 26 29 27 30 28 31 29 32 30 33 31 34 32 35 33 36
REMARK SMILES IDX 34 37 95 38 35 39 94 40 36 41 37 42 38 43 88 44 39 45 93 46
REMARK SMILES IDX 87 47 89 48 40 49 92 50 86 51 85 52 41 54 73 55 53 56 72 57
REMARK SMILES IDX 54 58 57 59 71 60 90 61 55 62 56 63 70 65 91 66 58 67 42 68
REMARK SMILES IDX 43 69 51 70 44 71 45 72 49 73 52 74 46 75 47 76 50 77 48 78
REMARK SMILES IDX 74 79 75 80 83 81 76 82 77 83 81 84 84 85 78 86 79 87 82 88
REMARK SMILES IDX 80 89 59 90 60 91 68 92 61 93 62 94 66 95 69 96 63 97 64 98
REMARK SMILES IDX 67 99 65 100
REMARK H PARENT 5 17 15 27 15 28 89 53 57 64
REMARK Flexibility Score: inf
ROOT
ATOM      1  C   UNL A   1      39.637  21.393  25.931  1.00  0.00     0.188 C 
ENDROOT
BRANCH   1   2
ATOM      2  O   UNL A   1      38.191  21.457  25.845  1.00  0.00    -0.376 OA
BRANCH   2   3
ATOM      3  C   UNL A   1      37.394  20.949  24.740  1.00  0.00     0.202 C 
BRANCH   3   4
ATOM      4  C   UNL A   1      35.871  20.282  24.991  1.00  0.00     0.261 C 
BRANCH   4   5
ATOM      5  O   UNL A   1      34.498  21.074  25.468  1.00  0.00    -0.460 OA
BRANCH   5   6
ATOM      6  C   UNL A   1      34.176  21.884  26.588  1.00  0.00     0.338 C 
ATOM      7  O   UNL A   1      34.379  21.645  27.777  1.00  0.00    -0.246 OA
BRANCH   6   8
ATOM      8  C   UNL A   1      33.565  23.234  26.625  1.00  0.00     0.063 A 
ATOM      9  C   UNL A   1      35.521  24.122  25.353  1.00  0.00     0.045 C 
ATOM     10  C   UNL A   1      34.092  24.197  25.782  1.00  0.00    -0.035 A 
ATOM     11  C   UNL A   1      33.200  25.082  25.138  1.00  0.00     0.030 A 
ATOM     12  C   UNL A   1      31.806  25.014  25.324  1.00  0.00     0.041 A 
ATOM     13  C   UNL A   1      32.151  23.269  26.888  1.00  0.00     0.018 A 
ATOM     14  C   UNL A   1      31.280  24.172  26.281  1.00  0.00     0.027 A 
BRANCH  12  15
ATOM     15  N   UNL A   1      30.900  25.679  24.482  1.00  0.00    -0.322 N 
ATOM     16  C   UNL A   1      30.560  27.019  24.521  1.00  0.00     0.257 C 
ATOM     17  H   UNL A   1      30.460  25.135  23.790  1.00  0.00     0.170 HD
ATOM     18  O   UNL A   1      29.579  27.441  23.914  1.00  0.00    -0.269 OA
BRANCH  16  19
ATOM     19  C   UNL A   1      31.447  27.977  25.234  1.00  0.00     0.063 A 
ATOM     20  C   UNL A   1      31.435  27.919  26.634  1.00  0.00     0.017 A 
ATOM     21  C   UNL A   1      32.273  28.899  24.553  1.00  0.00     0.045 A 
ATOM     22  C   UNL A   1      32.261  28.763  27.375  1.00  0.00     0.016 A 
ATOM     23  C   UNL A   1      33.065  29.765  25.321  1.00  0.00     0.042 A 
ATOM     24  C   UNL A   1      33.072  29.682  26.714  1.00  0.00     0.020 A 
ATOM     25  Br  UNL A   1      34.182  30.845  27.710  1.00  0.00    -0.051 Br
BRANCH  21  26
ATOM     26  N   UNL A   1      32.229  29.107  23.174  1.00  0.00    -0.398 N 
ATOM     27  H   UNL A   1      32.287  30.022  22.812  1.00  0.00     0.156 HD
ATOM     28  H   UNL A   1      32.141  28.341  22.563  1.00  0.00     0.156 HD
ENDBRANCH  21  26
ENDBRANCH  16  19
ENDBRANCH  12  15
ENDBRANCH   6   8
ENDBRANCH   5   6
ENDBRANCH   4   5
ENDBRANCH   3   4
ENDBRANCH   2   3
ENDBRANCH   1   2
BRANCH   1  29
ATOM     29  C   UNL A   1      40.427  21.437  27.245  1.00  0.00     0.188 C 
BRANCH  29  30
ATOM     30  O   UNL A   1      41.403  20.412  27.276  1.00  0.00    -0.376 OA
BRANCH  30  31
ATOM     31  C   UNL A   1      41.538  19.640  26.091  1.00  0.00     0.202 C 
BRANCH  31  32
ATOM     32  C   UNL A   1      42.997  19.519  25.595  1.00  0.00     0.261 C 
BRANCH  32  33
ATOM     33  O   UNL A   1      43.734  20.752  25.816  1.00  0.00    -0.460 OA
BRANCH  33  34
ATOM     34  C   UNL A   1      44.098  21.486  24.714  1.00  0.00     0.338 C 
ATOM     35  O   UNL A   1      44.739  21.047  23.769  1.00  0.00    -0.246 OA
BRANCH  34  36
ATOM     36  C   UNL A   1      43.803  22.944  24.935  1.00  0.00     0.060 A 
ATOM     37  C   UNL A   1      44.635  24.058  24.720  1.00  0.00     0.016 A 
ATOM     38  C   UNL A   1      42.731  23.188  25.718  1.00  0.00     0.016 A 
ATOM     39  C   UNL A   1      44.412  25.346  25.406  1.00  0.00     0.010 A 
ATOM     40  C   UNL A   1      42.783  24.324  26.519  1.00  0.00     0.010 A 
ATOM     41  C   UNL A   1      43.455  25.522  26.406  1.00  0.00    -0.014 A 
BRANCH  41  42
ATOM     42  C   UNL A   1      43.218  26.667  27.483  1.00  0.00     0.031 A 
ATOM     43  C   UNL A   1      41.958  27.680  27.881  1.00  0.00     0.074 A 
ATOM     44  C   UNL A   1      44.287  26.808  28.299  1.00  0.00     0.049 A 
ATOM     45  N   UNL A   1      42.133  28.882  28.406  1.00  0.00    -0.248 NA
ATOM     46  C   UNL A   1      40.461  27.538  27.734  1.00  0.00     0.031 C 
ATOM     47  C   UNL A   1      44.410  27.590  29.523  1.00  0.00     0.029 A 
ATOM     48  N   UNL A   1      45.600  26.371  28.046  1.00  0.00    -0.354 N 
ATOM     49  C   UNL A   1      40.877  29.400  28.753  1.00  0.00     0.074 A 
ATOM     50  C   UNL A   1      39.928  28.718  27.983  1.00  0.00     0.031 C 
ATOM     51  C   UNL A   1      45.708  27.883  29.705  1.00  0.00     0.029 A 
ATOM     52  C   UNL A   1      46.427  27.388  28.544  1.00  0.00     0.049 A 
ATOM     53  H   UNL A   1      45.879  25.531  27.613  1.00  0.00     0.167 HD
ATOM     54  C   UNL A   1      40.629  30.217  29.812  1.00  0.00     0.037 A 
ATOM     55  C   UNL A   1      47.206  28.111  27.695  1.00  0.00     0.037 A 
ATOM     56  C   UNL A   1      41.860  30.837  30.212  1.00  0.00     0.049 A 
ATOM     57  C   UNL A   1      46.898  29.590  27.744  1.00  0.00     0.074 A 
ATOM     58  C   UNL A   1      42.756  30.627  31.236  1.00  0.00     0.029 A 
ATOM     59  N   UNL A   1      42.512  31.582  29.243  1.00  0.00    -0.354 N 
ATOM     60  N   UNL A   1      45.853  30.102  28.338  1.00  0.00    -0.248 NA
ATOM     61  C   UNL A   1      47.737  30.611  27.128  1.00  0.00     0.031 C 
ATOM     62  C   UNL A   1      44.024  31.090  30.767  1.00  0.00     0.029 A 
ATOM     63  C   UNL A   1      43.863  31.642  29.504  1.00  0.00     0.049 A 
ATOM     64  H   UNL A   1      42.071  32.010  28.474  1.00  0.00     0.167 HD
ATOM     65  C   UNL A   1      45.816  31.452  28.126  1.00  0.00     0.074 A 
ATOM     66  C   UNL A   1      47.043  31.727  27.405  1.00  0.00     0.031 C 
ATOM     67  C   UNL A   1      44.757  32.225  28.507  1.00  0.00     0.037 A 
BRANCH  54  68
ATOM     68  C   UNL A   1      39.259  30.380  30.485  1.00  0.00     0.064 A 
ATOM     69  C   UNL A   1      38.890  29.565  31.571  1.00  0.00     0.173 A 
ATOM     70  C   UNL A   1      38.228  31.263  30.058  1.00  0.00     0.173 A 
ATOM     71  F   UNL A   1      39.724  28.622  32.031  1.00  0.00    -0.203 F 
ATOM     72  C   UNL A   1      37.638  29.672  32.209  1.00  0.00     0.198 A 
ATOM     73  C   UNL A   1      37.019  31.431  30.746  1.00  0.00     0.198 A 
ATOM     74  F   UNL A   1      38.301  31.949  28.910  1.00  0.00    -0.203 F 
ATOM     75  F   UNL A   1      37.321  28.830  33.202  1.00  0.00    -0.200 F 
ATOM     76  C   UNL A   1      36.719  30.629  31.819  1.00  0.00     0.200 A 
ATOM     77  F   UNL A   1      36.137  32.353  30.328  1.00  0.00    -0.200 F 
ATOM     78  F   UNL A   1      35.539  30.748  32.444  1.00  0.00    -0.200 F 
ENDBRANCH  54  68
BRANCH  55  79
ATOM     79  C   UNL A   1      47.714  27.312  26.533  1.00  0.00     0.064 A 
ATOM     80  C   UNL A   1      47.185  27.613  25.254  1.00  0.00     0.173 A 
ATOM     81  C   UNL A   1      48.889  26.550  26.559  1.00  0.00     0.173 A 
ATOM     82  F   UNL A   1      46.058  28.337  25.153  1.00  0.00    -0.203 F 
ATOM     83  C   UNL A   1      47.859  27.294  24.076  1.00  0.00     0.198 A 
ATOM     84  C   UNL A   1      49.547  26.197  25.367  1.00  0.00     0.198 A 
ATOM     85  F   UNL A   1      49.491  26.267  27.722  1.00  0.00    -0.203 F 
ATOM     86  F   UNL A   1      47.393  27.734  22.899  1.00  0.00    -0.200 F 
ATOM     87  C   UNL A   1      49.052  26.603  24.134  1.00  0.00     0.200 A 
ATOM     88  F   UNL A   1      50.745  25.594  25.421  1.00  0.00    -0.200 F 
ATOM     89  F   UNL A   1      49.763  26.391  23.017  1.00  0.00    -0.200 F 
ENDBRANCH  55  79
BRANCH  67  90
ATOM     90  C   UNL A   1      44.462  33.602  27.945  1.00  0.00     0.064 A 
ATOM     91  C   UNL A   1      43.934  33.821  26.660  1.00  0.00     0.173 A 
ATOM     92  C   UNL A   1      44.542  34.752  28.767  1.00  0.00     0.173 A 
ATOM     93  F   UNL A   1      43.663  32.806  25.829  1.00  0.00    -0.203 F 
ATOM     94  C   UNL A   1      43.599  35.097  26.200  1.00  0.00     0.198 A 
ATOM     95  C   UNL A   1      44.128  36.012  28.333  1.00  0.00     0.198 A 
ATOM     96  F   UNL A   1      44.986  34.680  30.031  1.00  0.00    -0.203 F 
ATOM     97  F   UNL A   1      43.162  35.253  24.942  1.00  0.00    -0.200 F 
ATOM     98  C   UNL A   1      43.682  36.189  27.040  1.00  0.00     0.200 A 
ATOM     99  F   UNL A   1      44.142  37.047  29.184  1.00  0.00    -0.200 F 
ATOM    100  F   UNL A   1      43.308  37.403  26.613  1.00  0.00    -0.200 F 
ENDBRANCH  67  90
ENDBRANCH  41  42
ENDBRANCH  34  36
ENDBRANCH  33  34
ENDBRANCH  32  33
ENDBRANCH  31  32
ENDBRANCH  30  31
ENDBRANCH  29  30
ENDBRANCH   1  29
TORSDOF 20
ENDMDL
