MODEL 1
REMARK VINA RESULT:     -12.2      0.000      0.000
REMARK SMILES Cc1nccn1C1(C(=O)OCCOCCOCCOC(=O)c2ccc(-c3c4nc(c(-c5c(F)c(F)c(F)c(F)c5F)c5ccc([nH]5)c(-c5c(F)c(F)c(F)c(F)c5F)c5nc(c(-c6c(F)c(F)c(F)c(F)c6F)c6ccc3[nH]6)C=C5)C=C4)cc2)CCN(c2nccc3occc23)CC1
REMARK SMILES IDX 15 1 14 2 13 3 12 4 11 5 10 6 8 7 9 8 7 9 85 10 98 11 86 12
REMARK SMILES IDX 97 13 87 14 6 15 1 16 2 17 3 18 4 19 5 20 88 21 89 22 96 23
REMARK SMILES IDX 90 24 92 25 95 26 91 27 93 28 94 29 16 30 17 31 18 32 19 33
REMARK SMILES IDX 20 34 21 35 22 36 23 37 84 38 24 39 83 40 25 41 26 42 27 43
REMARK SMILES IDX 77 44 28 45 82 46 76 47 78 48 29 49 81 50 75 51 74 52 30 54
REMARK SMILES IDX 62 55 42 56 61 57 43 58 46 59 60 60 79 61 44 62 45 63 59 65
REMARK SMILES IDX 80 66 47 67 31 68 32 69 40 70 33 71 34 72 38 73 41 74 35 75
REMARK SMILES IDX 36 76 39 77 37 78 63 79 64 80 72 81 65 82 66 83 70 84 73 85
REMARK SMILES IDX 67 86 68 87 71 88 69 89 48 90 49 91 57 92 50 93 51 94 55 95
REMARK SMILES IDX 58 96 52 97 53 98 56 99 54 100
REMARK H PARENT 78 53 46 64
REMARK Flexibility Score: inf
ROOT
ATOM      1  C   UNL A   1      40.050  21.827  26.891  1.00  0.00     0.188 C 
ENDROOT
BRANCH   1   2
ATOM      2  C   UNL A   1      38.902  22.218  25.948  1.00  0.00     0.188 C 
BRANCH   2   3
ATOM      3  O   UNL A   1      38.216  21.110  25.419  1.00  0.00    -0.376 OA
BRANCH   3   4
ATOM      4  C   UNL A   1      36.963  21.393  24.817  1.00  0.00     0.202 C 
BRANCH   4   5
ATOM      5  C   UNL A   1      36.657  22.754  24.128  1.00  0.00     0.261 C 
BRANCH   5   6
ATOM      6  O   UNL A   1      35.278  23.118  23.852  1.00  0.00    -0.461 OA
BRANCH   6   7
ATOM      7  C   UNL A   1      34.626  23.862  24.788  1.00  0.00     0.332 C 
ATOM      8  O   UNL A   1      35.196  24.771  25.395  1.00  0.00    -0.249 OA
BRANCH   7   9
ATOM      9  C   UNL A   1      33.071  23.562  25.001  1.00  0.00     0.146 C 
ATOM     10  C   UNL A   1      32.450  24.329  26.204  1.00  0.00     0.062 C 
ATOM     11  C   UNL A   1      32.513  24.149  23.679  1.00  0.00     0.062 C 
ATOM     12  C   UNL A   1      30.988  24.811  26.103  1.00  0.00     0.121 C 
ATOM     13  C   UNL A   1      31.048  24.524  23.601  1.00  0.00     0.121 C 
ATOM     14  N   UNL A   1      30.553  25.222  24.766  1.00  0.00    -0.356 N 
BRANCH   9  15
ATOM     15  N   UNL A   1      32.927  22.079  25.151  1.00  0.00    -0.318 N 
ATOM     16  C   UNL A   1      33.993  21.468  27.425  1.00  0.00     0.087 C 
ATOM     17  C   UNL A   1      33.467  21.187  26.073  1.00  0.00     0.106 A 
ATOM     18  N   UNL A   1      33.349  19.938  25.658  1.00  0.00    -0.242 NA
ATOM     19  C   UNL A   1      32.563  19.969  24.559  1.00  0.00     0.131 A 
ATOM     20  C   UNL A   1      32.239  21.263  24.261  1.00  0.00     0.108 A 
ENDBRANCH   9  15
BRANCH  14  21
ATOM     21  C   UNL A   1      30.322  26.585  24.610  1.00  0.00     0.139 A 
ATOM     22  N   UNL A   1      29.385  26.968  23.704  1.00  0.00    -0.238 NA
ATOM     23  C   UNL A   1      31.123  27.633  25.121  1.00  0.00     0.063 A 
ATOM     24  C   UNL A   1      29.645  28.048  22.950  1.00  0.00     0.117 A 
ATOM     25  C   UNL A   1      31.425  28.638  24.212  1.00  0.00     0.139 A 
ATOM     26  C   UNL A   1      31.735  28.039  26.340  1.00  0.00     0.054 A 
ATOM     27  C   UNL A   1      30.876  28.666  22.949  1.00  0.00     0.068 A 
ATOM     28  O   UNL A   1      32.273  29.551  24.758  1.00  0.00    -0.464 OA
ATOM     29  C   UNL A   1      32.349  29.250  26.084  1.00  0.00     0.196 A 
ENDBRANCH  14  21
ENDBRANCH   7   9
ENDBRANCH   6   7
ENDBRANCH   5   6
ENDBRANCH   4   5
ENDBRANCH   3   4
ENDBRANCH   2   3
ENDBRANCH   1   2
BRANCH   1  30
ATOM     30  O   UNL A   1      40.292  20.485  27.315  1.00  0.00    -0.376 OA
BRANCH  30  31
ATOM     31  C   UNL A   1      41.579  19.871  27.276  1.00  0.00     0.202 C 
BRANCH  31  32
ATOM     32  C   UNL A   1      42.279  19.583  25.949  1.00  0.00     0.261 C 
BRANCH  32  33
ATOM     33  O   UNL A   1      42.867  20.734  25.389  1.00  0.00    -0.460 OA
BRANCH  33  34
ATOM     34  C   UNL A   1      44.189  20.635  25.246  1.00  0.00     0.338 C 
ATOM     35  O   UNL A   1      44.893  19.618  25.412  1.00  0.00    -0.246 OA
BRANCH  34  36
ATOM     36  C   UNL A   1      44.730  21.941  24.876  1.00  0.00     0.060 A 
ATOM     37  C   UNL A   1      45.832  22.333  25.635  1.00  0.00     0.016 A 
ATOM     38  C   UNL A   1      43.836  22.851  24.295  1.00  0.00     0.016 A 
ATOM     39  C   UNL A   1      45.747  23.562  26.219  1.00  0.00     0.010 A 
ATOM     40  C   UNL A   1      43.737  24.070  24.896  1.00  0.00     0.010 A 
ATOM     41  C   UNL A   1      44.613  24.335  25.943  1.00  0.00    -0.014 A 
BRANCH  41  42
ATOM     42  C   UNL A   1      44.374  25.468  26.791  1.00  0.00     0.031 A 
ATOM     43  C   UNL A   1      45.422  26.484  26.634  1.00  0.00     0.074 A 
ATOM     44  C   UNL A   1      43.278  25.550  27.565  1.00  0.00     0.049 A 
ATOM     45  N   UNL A   1      46.324  26.824  27.488  1.00  0.00    -0.248 NA
ATOM     46  C   UNL A   1      45.622  27.026  25.279  1.00  0.00     0.031 C 
ATOM     47  C   UNL A   1      42.083  24.700  27.555  1.00  0.00     0.029 A 
ATOM     48  N   UNL A   1      42.970  26.502  28.478  1.00  0.00    -0.354 N 
ATOM     49  C   UNL A   1      47.087  27.782  26.837  1.00  0.00     0.074 A 
ATOM     50  C   UNL A   1      46.761  27.694  25.439  1.00  0.00     0.031 C 
ATOM     51  C   UNL A   1      41.098  25.316  28.250  1.00  0.00     0.029 A 
ATOM     52  C   UNL A   1      41.636  26.525  28.850  1.00  0.00     0.049 A 
ATOM     53  H   UNL A   1      43.637  27.126  28.846  1.00  0.00     0.167 HD
ATOM     54  C   UNL A   1      47.683  28.777  27.541  1.00  0.00     0.037 A 
ATOM     55  C   UNL A   1      41.030  27.538  29.517  1.00  0.00     0.037 A 
ATOM     56  C   UNL A   1      47.829  28.415  28.928  1.00  0.00     0.049 A 
ATOM     57  C   UNL A   1      42.101  28.361  30.143  1.00  0.00     0.074 A 
ATOM     58  C   UNL A   1      48.502  27.415  29.602  1.00  0.00     0.029 A 
ATOM     59  N   UNL A   1      46.909  28.915  29.816  1.00  0.00    -0.354 N 
ATOM     60  N   UNL A   1      42.853  27.949  31.127  1.00  0.00    -0.248 NA
ATOM     61  C   UNL A   1      42.645  29.469  29.369  1.00  0.00     0.031 C 
ATOM     62  C   UNL A   1      47.668  27.075  30.707  1.00  0.00     0.029 A 
ATOM     63  C   UNL A   1      46.549  27.909  30.674  1.00  0.00     0.049 A 
ATOM     64  H   UNL A   1      46.566  29.839  29.833  1.00  0.00     0.167 HD
ATOM     65  C   UNL A   1      44.118  28.448  30.843  1.00  0.00     0.074 A 
ATOM     66  C   UNL A   1      43.908  29.452  29.805  1.00  0.00     0.031 C 
ATOM     67  C   UNL A   1      45.237  27.794  31.270  1.00  0.00     0.037 A 
BRANCH  54  68
ATOM     68  C   UNL A   1      47.720  30.207  27.061  1.00  0.00     0.064 A 
ATOM     69  C   UNL A   1      48.945  30.896  27.109  1.00  0.00     0.173 A 
ATOM     70  C   UNL A   1      46.576  31.015  26.853  1.00  0.00     0.173 A 
ATOM     71  F   UNL A   1      50.093  30.232  27.313  1.00  0.00    -0.203 F 
ATOM     72  C   UNL A   1      49.008  32.289  27.051  1.00  0.00     0.198 A 
ATOM     73  C   UNL A   1      46.649  32.398  26.738  1.00  0.00     0.198 A 
ATOM     74  F   UNL A   1      45.331  30.528  26.867  1.00  0.00    -0.203 F 
ATOM     75  F   UNL A   1      50.181  32.907  27.241  1.00  0.00    -0.200 F 
ATOM     76  C   UNL A   1      47.860  33.040  26.874  1.00  0.00     0.200 A 
ATOM     77  F   UNL A   1      45.521  33.106  26.583  1.00  0.00    -0.200 F 
ATOM     78  F   UNL A   1      47.910  34.377  26.887  1.00  0.00    -0.200 F 
ENDBRANCH  54  68
BRANCH  55  79
ATOM     79  C   UNL A   1      39.645  28.030  29.345  1.00  0.00     0.064 A 
ATOM     80  C   UNL A   1      38.770  28.130  30.436  1.00  0.00     0.173 A 
ATOM     81  C   UNL A   1      39.237  28.659  28.152  1.00  0.00     0.173 A 
ATOM     82  F   UNL A   1      39.108  27.604  31.621  1.00  0.00    -0.203 F 
ATOM     83  C   UNL A   1      37.561  28.829  30.343  1.00  0.00     0.198 A 
ATOM     84  C   UNL A   1      38.029  29.350  28.057  1.00  0.00     0.198 A 
ATOM     85  F   UNL A   1      40.046  28.699  27.083  1.00  0.00    -0.203 F 
ATOM     86  F   UNL A   1      36.773  28.951  31.420  1.00  0.00    -0.200 F 
ATOM     87  C   UNL A   1      37.195  29.445  29.156  1.00  0.00     0.200 A 
ATOM     88  F   UNL A   1      37.708  29.975  26.916  1.00  0.00    -0.200 F 
ATOM     89  F   UNL A   1      36.065  30.160  29.081  1.00  0.00    -0.200 F 
ENDBRANCH  55  79
BRANCH  67  90
ATOM     90  C   UNL A   1      45.052  26.697  32.281  1.00  0.00     0.064 A 
ATOM     91  C   UNL A   1      44.954  26.917  33.666  1.00  0.00     0.173 A 
ATOM     92  C   UNL A   1      44.824  25.397  31.814  1.00  0.00     0.173 A 
ATOM     93  F   UNL A   1      45.064  28.149  34.177  1.00  0.00    -0.203 F 
ATOM     94  C   UNL A   1      44.680  25.869  34.544  1.00  0.00     0.198 A 
ATOM     95  C   UNL A   1      44.514  24.361  32.689  1.00  0.00     0.198 A 
ATOM     96  F   UNL A   1      44.851  25.142  30.497  1.00  0.00    -0.203 F 
ATOM     97  F   UNL A   1      44.602  26.100  35.864  1.00  0.00    -0.200 F 
ATOM     98  C   UNL A   1      44.451  24.594  34.054  1.00  0.00     0.200 A 
ATOM     99  F   UNL A   1      44.246  23.139  32.206  1.00  0.00    -0.200 F 
ATOM    100  F   UNL A   1      44.145  23.594  34.893  1.00  0.00    -0.200 F 
ENDBRANCH  67  90
ENDBRANCH  41  42
ENDBRANCH  34  36
ENDBRANCH  33  34
ENDBRANCH  32  33
ENDBRANCH  31  32
ENDBRANCH  30  31
ENDBRANCH   1  30
TORSDOF 19
ENDMDL
MODEL 2
REMARK VINA RESULT:     -12.1      4.084      9.868
REMARK SMILES Cc1nccn1C1(C(=O)OCCOCCOCCOC(=O)c2ccc(-c3c4nc(c(-c5c(F)c(F)c(F)c(F)c5F)c5ccc([nH]5)c(-c5c(F)c(F)c(F)c(F)c5F)c5nc(c(-c6c(F)c(F)c(F)c(F)c6F)c6ccc3[nH]6)C=C5)C=C4)cc2)CCN(c2nccc3occc23)CC1
REMARK SMILES IDX 15 1 14 2 13 3 12 4 11 5 10 6 8 7 9 8 7 9 85 10 98 11 86 12
REMARK SMILES IDX 97 13 87 14 6 15 1 16 2 17 3 18 4 19 5 20 88 21 89 22 96 23
REMARK SMILES IDX 90 24 92 25 95 26 91 27 93 28 94 29 16 30 17 31 18 32 19 33
REMARK SMILES IDX 20 34 21 35 22 36 23 37 84 38 24 39 83 40 25 41 26 42 27 43
REMARK SMILES IDX 77 44 28 45 82 46 76 47 78 48 29 49 81 50 75 51 74 52 30 54
REMARK SMILES IDX 62 55 42 56 61 57 43 58 46 59 60 60 79 61 44 62 45 63 59 65
REMARK SMILES IDX 80 66 47 67 31 68 32 69 40 70 33 71 34 72 38 73 41 74 35 75
REMARK SMILES IDX 36 76 39 77 37 78 63 79 64 80 72 81 65 82 66 83 70 84 73 85
REMARK SMILES IDX 67 86 68 87 71 88 69 89 48 90 49 91 57 92 50 93 51 94 55 95
REMARK SMILES IDX 58 96 52 97 53 98 56 99 54 100
REMARK H PARENT 78 53 46 64
REMARK Flexibility Score: inf
ROOT
ATOM      1  C   UNL A   1      34.361  31.637  27.936  1.00  0.00     0.188 C 
ENDROOT
BRANCH   1   2
ATOM      2  C   UNL A   1      33.291  31.116  26.964  1.00  0.00     0.188 C 
BRANCH   2   3
ATOM      3  O   UNL A   1      33.119  29.722  27.022  1.00  0.00    -0.376 OA
BRANCH   3   4
ATOM      4  C   UNL A   1      31.776  29.266  27.017  1.00  0.00     0.202 C 
BRANCH   4   5
ATOM      5  C   UNL A   1      31.357  27.900  27.633  1.00  0.00     0.261 C 
BRANCH   5   6
ATOM      6  O   UNL A   1      31.863  26.671  27.047  1.00  0.00    -0.461 OA
BRANCH   6   7
ATOM      7  C   UNL A   1      31.060  26.020  26.161  1.00  0.00     0.332 C 
ATOM      8  O   UNL A   1      29.950  25.597  26.494  1.00  0.00    -0.249 OA
BRANCH   7   9
ATOM      9  C   UNL A   1      31.580  25.905  24.655  1.00  0.00     0.146 C 
ATOM     10  C   UNL A   1      33.130  25.841  24.536  1.00  0.00     0.062 C 
ATOM     11  C   UNL A   1      30.982  24.524  24.282  1.00  0.00     0.062 C 
ATOM     12  C   UNL A   1      33.754  24.981  23.419  1.00  0.00     0.121 C 
ATOM     13  C   UNL A   1      31.573  23.757  23.118  1.00  0.00     0.121 C 
ATOM     14  N   UNL A   1      33.018  23.760  23.080  1.00  0.00    -0.356 N 
BRANCH   9  15
ATOM     15  N   UNL A   1      31.010  27.069  23.905  1.00  0.00    -0.318 N 
ATOM     16  C   UNL A   1      28.457  26.685  23.788  1.00  0.00     0.087 C 
ATOM     17  C   UNL A   1      29.738  27.304  23.391  1.00  0.00     0.106 A 
ATOM     18  N   UNL A   1      29.747  28.304  22.527  1.00  0.00    -0.242 NA
ATOM     19  C   UNL A   1      30.973  28.868  22.601  1.00  0.00     0.131 A 
ATOM     20  C   UNL A   1      31.748  28.169  23.484  1.00  0.00     0.108 A 
ENDBRANCH   9  15
BRANCH  14  21
ATOM     21  C   UNL A   1      33.643  22.570  23.441  1.00  0.00     0.139 A 
ATOM     22  N   UNL A   1      32.862  21.473  23.612  1.00  0.00    -0.238 NA
ATOM     23  C   UNL A   1      34.979  22.429  23.883  1.00  0.00     0.063 A 
ATOM     24  C   UNL A   1      33.151  20.649  24.632  1.00  0.00     0.117 A 
ATOM     25  C   UNL A   1      35.142  21.648  25.019  1.00  0.00     0.139 A 
ATOM     26  C   UNL A   1      36.295  22.821  23.510  1.00  0.00     0.054 A 
ATOM     27  C   UNL A   1      34.091  20.964  25.589  1.00  0.00     0.068 A 
ATOM     28  O   UNL A   1      36.440  21.643  25.426  1.00  0.00    -0.464 OA
ATOM     29  C   UNL A   1      37.150  22.248  24.433  1.00  0.00     0.196 A 
ENDBRANCH  14  21
ENDBRANCH   7   9
ENDBRANCH   6   7
ENDBRANCH   5   6
ENDBRANCH   4   5
ENDBRANCH   3   4
ENDBRANCH   2   3
ENDBRANCH   1   2
BRANCH   1  30
ATOM     30  O   UNL A   1      35.165  32.787  27.671  1.00  0.00    -0.376 OA
BRANCH  30  31
ATOM     31  C   UNL A   1      34.835  34.097  28.132  1.00  0.00     0.202 C 
BRANCH  31  32
ATOM     32  C   UNL A   1      33.905  34.306  29.326  1.00  0.00     0.261 C 
BRANCH  32  33
ATOM     33  O   UNL A   1      34.570  34.870  30.433  1.00  0.00    -0.460 OA
BRANCH  33  34
ATOM     34  C   UNL A   1      33.858  34.814  31.559  1.00  0.00     0.338 C 
ATOM     35  O   UNL A   1      32.669  35.159  31.720  1.00  0.00    -0.246 OA
BRANCH  34  36
ATOM     36  C   UNL A   1      34.701  34.296  32.634  1.00  0.00     0.060 A 
ATOM     37  C   UNL A   1      35.833  35.068  32.888  1.00  0.00     0.016 A 
ATOM     38  C   UNL A   1      34.648  32.914  32.865  1.00  0.00     0.016 A 
ATOM     39  C   UNL A   1      37.023  34.402  32.883  1.00  0.00     0.010 A 
ATOM     40  C   UNL A   1      35.837  32.249  32.835  1.00  0.00     0.010 A 
ATOM     41  C   UNL A   1      36.990  33.015  32.703  1.00  0.00    -0.014 A 
BRANCH  41  42
ATOM     42  C   UNL A   1      38.231  32.368  32.382  1.00  0.00     0.031 A 
ATOM     43  C   UNL A   1      39.098  32.259  33.561  1.00  0.00     0.074 A 
ATOM     44  C   UNL A   1      38.480  31.895  31.149  1.00  0.00     0.049 A 
ATOM     45  N   UNL A   1      40.201  32.883  33.789  1.00  0.00    -0.248 NA
ATOM     46  C   UNL A   1      38.550  31.535  34.721  1.00  0.00     0.031 C 
ATOM     47  C   UNL A   1      37.554  31.738  30.022  1.00  0.00     0.029 A 
ATOM     48  N   UNL A   1      39.630  31.355  30.679  1.00  0.00    -0.354 N 
ATOM     49  C   UNL A   1      40.593  32.464  35.052  1.00  0.00     0.074 A 
ATOM     50  C   UNL A   1      39.449  31.836  35.655  1.00  0.00     0.031 C 
ATOM     51  C   UNL A   1      38.123  30.934  29.093  1.00  0.00     0.029 A 
ATOM     52  C   UNL A   1      39.484  30.635  29.505  1.00  0.00     0.049 A 
ATOM     53  H   UNL A   1      40.497  31.464  31.133  1.00  0.00     0.167 HD
ATOM     54  C   UNL A   1      41.910  32.386  35.370  1.00  0.00     0.037 A 
ATOM     55  C   UNL A   1      40.405  29.780  28.995  1.00  0.00     0.037 A 
ATOM     56  C   UNL A   1      42.703  33.213  34.496  1.00  0.00     0.049 A 
ATOM     57  C   UNL A   1      41.707  30.092  29.643  1.00  0.00     0.074 A 
ATOM     58  C   UNL A   1      42.757  34.568  34.229  1.00  0.00     0.029 A 
ATOM     59  N   UNL A   1      43.354  32.597  33.456  1.00  0.00    -0.354 N 
ATOM     60  N   UNL A   1      42.378  31.192  29.435  1.00  0.00    -0.248 NA
ATOM     61  C   UNL A   1      42.038  29.389  30.875  1.00  0.00     0.031 C 
ATOM     62  C   UNL A   1      43.055  34.668  32.839  1.00  0.00     0.029 A 
ATOM     63  C   UNL A   1      43.206  33.374  32.337  1.00  0.00     0.049 A 
ATOM     64  H   UNL A   1      43.844  31.744  33.506  1.00  0.00     0.167 HD
ATOM     65  C   UNL A   1      42.896  31.536  30.677  1.00  0.00     0.074 A 
ATOM     66  C   UNL A   1      42.735  30.343  31.500  1.00  0.00     0.031 C 
ATOM     67  C   UNL A   1      43.137  32.842  30.995  1.00  0.00     0.037 A 
BRANCH  54  68
ATOM     68  C   UNL A   1      42.491  31.244  36.165  1.00  0.00     0.064 A 
ATOM     69  C   UNL A   1      43.349  31.545  37.237  1.00  0.00     0.173 A 
ATOM     70  C   UNL A   1      42.495  29.892  35.744  1.00  0.00     0.173 A 
ATOM     71  F   UNL A   1      43.435  32.798  37.711  1.00  0.00    -0.203 F 
ATOM     72  C   UNL A   1      44.213  30.591  37.778  1.00  0.00     0.198 A 
ATOM     73  C   UNL A   1      43.315  28.931  36.325  1.00  0.00     0.198 A 
ATOM     74  F   UNL A   1      41.802  29.458  34.687  1.00  0.00    -0.203 F 
ATOM     75  F   UNL A   1      45.111  30.960  38.701  1.00  0.00    -0.200 F 
ATOM     76  C   UNL A   1      44.202  29.288  37.316  1.00  0.00     0.200 A 
ATOM     77  F   UNL A   1      43.298  27.678  35.849  1.00  0.00    -0.200 F 
ATOM     78  F   UNL A   1      45.076  28.389  37.785  1.00  0.00    -0.200 F 
ENDBRANCH  54  68
BRANCH  55  79
ATOM     79  C   UNL A   1      40.156  28.511  28.276  1.00  0.00     0.064 A 
ATOM     80  C   UNL A   1      40.742  28.256  27.027  1.00  0.00     0.173 A 
ATOM     81  C   UNL A   1      39.550  27.414  28.920  1.00  0.00     0.173 A 
ATOM     82  F   UNL A   1      41.384  29.235  26.374  1.00  0.00    -0.203 F 
ATOM     83  C   UNL A   1      40.732  26.977  26.461  1.00  0.00     0.198 A 
ATOM     84  C   UNL A   1      39.535  26.140  28.353  1.00  0.00     0.198 A 
ATOM     85  F   UNL A   1      39.046  27.535  30.158  1.00  0.00    -0.203 F 
ATOM     86  F   UNL A   1      41.348  26.758  25.291  1.00  0.00    -0.200 F 
ATOM     87  C   UNL A   1      40.135  25.918  27.127  1.00  0.00     0.200 A 
ATOM     88  F   UNL A   1      38.989  25.118  29.027  1.00  0.00    -0.200 F 
ATOM     89  F   UNL A   1      40.172  24.683  26.611  1.00  0.00    -0.200 F 
ENDBRANCH  55  79
BRANCH  67  90
ATOM     90  C   UNL A   1      43.094  33.843  29.875  1.00  0.00     0.064 A 
ATOM     91  C   UNL A   1      44.183  34.121  29.031  1.00  0.00     0.173 A 
ATOM     92  C   UNL A   1      41.864  34.435  29.561  1.00  0.00     0.173 A 
ATOM     93  F   UNL A   1      45.364  33.519  29.210  1.00  0.00    -0.203 F 
ATOM     94  C   UNL A   1      44.050  34.987  27.945  1.00  0.00     0.198 A 
ATOM     95  C   UNL A   1      41.726  35.269  28.456  1.00  0.00     0.198 A 
ATOM     96  F   UNL A   1      40.779  34.161  30.302  1.00  0.00    -0.203 F 
ATOM     97  F   UNL A   1      45.107  35.247  27.159  1.00  0.00    -0.200 F 
ATOM     98  C   UNL A   1      42.820  35.552  27.654  1.00  0.00     0.200 A 
ATOM     99  F   UNL A   1      40.523  35.775  28.150  1.00  0.00    -0.200 F 
ATOM    100  F   UNL A   1      42.681  36.350  26.586  1.00  0.00    -0.200 F 
ENDBRANCH  67  90
ENDBRANCH  41  42
ENDBRANCH  34  36
ENDBRANCH  33  34
ENDBRANCH  32  33
ENDBRANCH  31  32
ENDBRANCH  30  31
ENDBRANCH   1  30
TORSDOF 19
ENDMDL
MODEL 3
REMARK VINA RESULT:     -12.1      1.148      3.428
REMARK SMILES Cc1nccn1C1(C(=O)OCCOCCOCCOC(=O)c2ccc(-c3c4nc(c(-c5c(F)c(F)c(F)c(F)c5F)c5ccc([nH]5)c(-c5c(F)c(F)c(F)c(F)c5F)c5nc(c(-c6c(F)c(F)c(F)c(F)c6F)c6ccc3[nH]6)C=C5)C=C4)cc2)CCN(c2nccc3occc23)CC1
REMARK SMILES IDX 15 1 14 2 13 3 12 4 11 5 10 6 8 7 9 8 7 9 85 10 98 11 86 12
REMARK SMILES IDX 97 13 87 14 6 15 1 16 2 17 3 18 4 19 5 20 88 21 89 22 96 23
REMARK SMILES IDX 90 24 92 25 95 26 91 27 93 28 94 29 16 30 17 31 18 32 19 33
REMARK SMILES IDX 20 34 21 35 22 36 23 37 84 38 24 39 83 40 25 41 26 42 27 43
REMARK SMILES IDX 77 44 28 45 82 46 76 47 78 48 29 49 81 50 75 51 74 52 30 54
REMARK SMILES IDX 62 55 42 56 61 57 43 58 46 59 60 60 79 61 44 62 45 63 59 65
REMARK SMILES IDX 80 66 47 67 31 68 32 69 40 70 33 71 34 72 38 73 41 74 35 75
REMARK SMILES IDX 36 76 39 77 37 78 63 79 64 80 72 81 65 82 66 83 70 84 73 85
REMARK SMILES IDX 67 86 68 87 71 88 69 89 48 90 49 91 57 92 50 93 51 94 55 95
REMARK SMILES IDX 58 96 52 97 53 98 56 99 54 100
REMARK H PARENT 78 53 46 64
REMARK Flexibility Score: inf
ROOT
ATOM      1  C   UNL A   1      38.244  22.497  25.942  1.00  0.00     0.188 C 
ENDROOT
BRANCH   1   2
ATOM      2  C   UNL A   1      36.842  22.441  25.315  1.00  0.00     0.188 C 
BRANCH   2   3
ATOM      3  O   UNL A   1      36.763  23.097  24.074  1.00  0.00    -0.376 OA
BRANCH   3   4
ATOM      4  C   UNL A   1      35.751  22.631  23.196  1.00  0.00     0.202 C 
BRANCH   4   5
ATOM      5  C   UNL A   1      34.527  23.505  22.795  1.00  0.00     0.261 C 
BRANCH   5   6
ATOM      6  O   UNL A   1      34.648  24.952  22.820  1.00  0.00    -0.461 OA
BRANCH   6   7
ATOM      7  C   UNL A   1      33.569  25.679  22.420  1.00  0.00     0.332 C 
ATOM      8  O   UNL A   1      33.507  26.164  21.288  1.00  0.00    -0.249 OA
BRANCH   7   9
ATOM      9  C   UNL A   1      32.352  25.802  23.448  1.00  0.00     0.146 C 
ATOM     10  C   UNL A   1      31.351  24.613  23.372  1.00  0.00     0.062 C 
ATOM     11  C   UNL A   1      33.136  25.724  24.783  1.00  0.00     0.062 C 
ATOM     12  C   UNL A   1      30.667  24.133  24.669  1.00  0.00     0.121 C 
ATOM     13  C   UNL A   1      32.399  25.335  26.048  1.00  0.00     0.121 C 
ATOM     14  N   UNL A   1      31.483  24.230  25.882  1.00  0.00    -0.356 N 
BRANCH   9  15
ATOM     15  N   UNL A   1      31.681  27.113  23.179  1.00  0.00    -0.318 N 
ATOM     16  C   UNL A   1      33.286  28.946  24.045  1.00  0.00     0.087 C 
ATOM     17  C   UNL A   1      31.988  28.409  23.586  1.00  0.00     0.106 A 
ATOM     18  N   UNL A   1      30.966  29.225  23.397  1.00  0.00    -0.242 NA
ATOM     19  C   UNL A   1      30.045  28.535  22.688  1.00  0.00     0.131 A 
ATOM     20  C   UNL A   1      30.485  27.256  22.487  1.00  0.00     0.108 A 
ENDBRANCH   9  15
BRANCH  14  21
ATOM     21  C   UNL A   1      31.885  23.013  26.424  1.00  0.00     0.139 A 
ATOM     22  N   UNL A   1      32.014  22.935  27.774  1.00  0.00    -0.238 NA
ATOM     23  C   UNL A   1      32.408  21.911  25.709  1.00  0.00     0.063 A 
ATOM     24  C   UNL A   1      33.052  22.241  28.267  1.00  0.00     0.117 A 
ATOM     25  C   UNL A   1      33.555  21.348  26.253  1.00  0.00     0.139 A 
ATOM     26  C   UNL A   1      32.114  21.120  24.563  1.00  0.00     0.054 A 
ATOM     27  C   UNL A   1      34.063  21.759  27.465  1.00  0.00     0.068 A 
ATOM     28  O   UNL A   1      34.039  20.360  25.453  1.00  0.00    -0.464 OA
ATOM     29  C   UNL A   1      33.088  20.143  24.502  1.00  0.00     0.196 A 
ENDBRANCH  14  21
ENDBRANCH   7   9
ENDBRANCH   6   7
ENDBRANCH   5   6
ENDBRANCH   4   5
ENDBRANCH   3   4
ENDBRANCH   2   3
ENDBRANCH   1   2
BRANCH   1  30
ATOM     30  O   UNL A   1      39.229  21.481  25.747  1.00  0.00    -0.376 OA
BRANCH  30  31
ATOM     31  C   UNL A   1      40.549  21.556  26.285  1.00  0.00     0.202 C 
BRANCH  31  32
ATOM     32  C   UNL A   1      41.425  20.311  26.411  1.00  0.00     0.261 C 
BRANCH  32  33
ATOM     33  O   UNL A   1      42.794  20.626  26.526  1.00  0.00    -0.460 OA
BRANCH  33  34
ATOM     34  C   UNL A   1      43.469  20.463  25.387  1.00  0.00     0.338 C 
ATOM     35  O   UNL A   1      43.500  19.444  24.667  1.00  0.00    -0.246 OA
BRANCH  34  36
ATOM     36  C   UNL A   1      44.220  21.681  25.098  1.00  0.00     0.060 A 
ATOM     37  C   UNL A   1      45.247  21.944  26.003  1.00  0.00     0.016 A 
ATOM     38  C   UNL A   1      43.541  22.688  24.397  1.00  0.00     0.016 A 
ATOM     39  C   UNL A   1      45.241  23.183  26.570  1.00  0.00     0.010 A 
ATOM     40  C   UNL A   1      43.518  23.921  24.978  1.00  0.00     0.010 A 
ATOM     41  C   UNL A   1      44.267  24.090  26.137  1.00  0.00    -0.014 A 
BRANCH  41  42
ATOM     42  C   UNL A   1      44.060  25.260  26.944  1.00  0.00     0.031 A 
ATOM     43  C   UNL A   1      45.153  26.225  26.775  1.00  0.00     0.074 A 
ATOM     44  C   UNL A   1      42.955  25.413  27.693  1.00  0.00     0.049 A 
ATOM     45  N   UNL A   1      46.053  26.555  27.635  1.00  0.00    -0.248 NA
ATOM     46  C   UNL A   1      45.401  26.713  25.407  1.00  0.00     0.031 C 
ATOM     47  C   UNL A   1      41.725  24.614  27.686  1.00  0.00     0.029 A 
ATOM     48  N   UNL A   1      42.671  26.406  28.568  1.00  0.00    -0.354 N 
ATOM     49  C   UNL A   1      46.867  27.459  26.968  1.00  0.00     0.074 A 
ATOM     50  C   UNL A   1      46.564  27.338  25.568  1.00  0.00     0.031 C 
ATOM     51  C   UNL A   1      40.754  25.293  28.342  1.00  0.00     0.029 A 
ATOM     52  C   UNL A   1      41.332  26.497  28.914  1.00  0.00     0.049 A 
ATOM     53  H   UNL A   1      43.357  27.014  28.929  1.00  0.00     0.167 HD
ATOM     54  C   UNL A   1      47.492  28.451  27.651  1.00  0.00     0.037 A 
ATOM     55  C   UNL A   1      40.758  27.556  29.536  1.00  0.00     0.037 A 
ATOM     56  C   UNL A   1      47.597  28.128  29.052  1.00  0.00     0.049 A 
ATOM     57  C   UNL A   1      41.851  28.354  30.155  1.00  0.00     0.074 A 
ATOM     58  C   UNL A   1      48.215  27.124  29.771  1.00  0.00     0.029 A 
ATOM     59  N   UNL A   1      46.683  28.696  29.905  1.00  0.00    -0.354 N 
ATOM     60  N   UNL A   1      42.567  27.944  31.166  1.00  0.00    -0.248 NA
ATOM     61  C   UNL A   1      42.455  29.412  29.357  1.00  0.00     0.031 C 
ATOM     62  C   UNL A   1      47.347  26.856  30.870  1.00  0.00     0.029 A 
ATOM     63  C   UNL A   1      46.266  27.735  30.788  1.00  0.00     0.049 A 
ATOM     64  H   UNL A   1      46.380  29.633  29.886  1.00  0.00     0.167 HD
ATOM     65  C   UNL A   1      43.857  28.380  30.892  1.00  0.00     0.074 A 
ATOM     66  C   UNL A   1      43.708  29.356  29.818  1.00  0.00     0.031 C 
ATOM     67  C   UNL A   1      44.940  27.694  31.362  1.00  0.00     0.037 A 
BRANCH  54  68
ATOM     68  C   UNL A   1      47.599  29.861  27.127  1.00  0.00     0.064 A 
ATOM     69  C   UNL A   1      48.834  30.523  27.238  1.00  0.00     0.173 A 
ATOM     70  C   UNL A   1      46.493  30.686  26.810  1.00  0.00     0.173 A 
ATOM     71  F   UNL A   1      49.948  29.841  27.545  1.00  0.00    -0.203 F 
ATOM     72  C   UNL A   1      48.936  31.911  27.136  1.00  0.00     0.198 A 
ATOM     73  C   UNL A   1      46.609  32.063  26.653  1.00  0.00     0.198 A 
ATOM     74  F   UNL A   1      45.238  30.229  26.752  1.00  0.00    -0.203 F 
ATOM     75  F   UNL A   1      50.108  32.509  27.388  1.00  0.00    -0.200 F 
ATOM     76  C   UNL A   1      47.823  32.681  26.853  1.00  0.00     0.200 A 
ATOM     77  F   UNL A   1      45.512  32.790  26.394  1.00  0.00    -0.200 F 
ATOM     78  F   UNL A   1      47.905  34.017  26.824  1.00  0.00    -0.200 F 
ENDBRANCH  54  68
BRANCH  55  79
ATOM     79  C   UNL A   1      39.398  28.100  29.320  1.00  0.00     0.064 A 
ATOM     80  C   UNL A   1      38.498  28.246  30.386  1.00  0.00     0.173 A 
ATOM     81  C   UNL A   1      39.048  28.732  28.111  1.00  0.00     0.173 A 
ATOM     82  F   UNL A   1      38.783  27.719  31.585  1.00  0.00    -0.203 F 
ATOM     83  C   UNL A   1      37.320  28.989  30.252  1.00  0.00     0.198 A 
ATOM     84  C   UNL A   1      37.871  29.468  27.976  1.00  0.00     0.198 A 
ATOM     85  F   UNL A   1      39.887  28.729  27.064  1.00  0.00    -0.203 F 
ATOM     86  F   UNL A   1      36.509  29.153  31.306  1.00  0.00    -0.200 F 
ATOM     87  C   UNL A   1      37.011  29.606  29.050  1.00  0.00     0.200 A 
ATOM     88  F   UNL A   1      37.606  30.093  26.820  1.00  0.00    -0.200 F 
ATOM     89  F   UNL A   1      35.912  30.364  28.937  1.00  0.00    -0.200 F 
ENDBRANCH  55  79
BRANCH  67  90
ATOM     90  C   UNL A   1      44.689  26.640  32.404  1.00  0.00     0.064 A 
ATOM     91  C   UNL A   1      44.435  25.290  32.106  1.00  0.00     0.173 A 
ATOM     92  C   UNL A   1      44.854  26.986  33.750  1.00  0.00     0.173 A 
ATOM     93  F   UNL A   1      44.361  24.866  30.838  1.00  0.00    -0.203 F 
ATOM     94  C   UNL A   1      44.312  24.339  33.119  1.00  0.00     0.198 A 
ATOM     95  C   UNL A   1      44.767  26.029  34.757  1.00  0.00     0.198 A 
ATOM     96  F   UNL A   1      45.152  28.251  34.087  1.00  0.00    -0.203 F 
ATOM     97  F   UNL A   1      44.058  23.058  32.812  1.00  0.00    -0.200 F 
ATOM     98  C   UNL A   1      44.487  24.708  34.442  1.00  0.00     0.200 A 
ATOM     99  F   UNL A   1      44.985  26.382  36.031  1.00  0.00    -0.200 F 
ATOM    100  F   UNL A   1      44.411  23.788  35.414  1.00  0.00    -0.200 F 
ENDBRANCH  67  90
ENDBRANCH  41  42
ENDBRANCH  34  36
ENDBRANCH  33  34
ENDBRANCH  32  33
ENDBRANCH  31  32
ENDBRANCH  30  31
ENDBRANCH   1  30
TORSDOF 19
ENDMDL
