MODEL 1
REMARK VINA RESULT:     -11.4      0.000      0.000
REMARK SMILES CCN(CC)c1ccc(NC(=O)c2ccc(OC)cc2)cc1C(=O)OCCOCCOCCOC(=O)c1ccc(-c2c3nc(c(-c4c(F)c(F)c(F)c(F)c4F)c4ccc([nH]4)c(-c4c(F)c(F)c(F)c(F)c4F)c4nc(c(-c5c(F)c(F)c(F)c(F)c5F)c5ccc2[nH]5)C=C4)C=C3)cc1
REMARK SMILES IDX 29 1 28 2 27 3 26 4 25 5 23 6 24 7 22 8 6 9 7 10 8 11 21 12
REMARK SMILES IDX 9 13 3 14 2 15 1 16 4 17 5 18 10 19 11 20 12 22 13 23 14 24
REMARK SMILES IDX 20 25 15 26 19 27 16 28 17 29 18 30 30 31 31 32 32 33 33 34
REMARK SMILES IDX 34 35 35 36 36 37 37 38 38 39 99 40 39 41 98 42 40 43 41 44
REMARK SMILES IDX 42 45 92 46 43 47 97 48 91 49 93 50 44 51 96 52 90 53 89 54
REMARK SMILES IDX 45 56 77 57 57 58 76 59 58 60 61 61 75 62 94 63 59 64 60 65
REMARK SMILES IDX 74 67 95 68 62 69 46 70 47 71 55 72 48 73 49 74 53 75 56 76
REMARK SMILES IDX 50 77 51 78 54 79 52 80 78 81 79 82 87 83 80 84 81 85 85 86
REMARK SMILES IDX 88 87 82 88 83 89 86 90 84 91 63 92 64 93 72 94 65 95 66 96
REMARK SMILES IDX 70 97 73 98 67 99 68 100 71 101 69 102
REMARK H PARENT 10 21 93 55 61 66
REMARK Flexibility Score: inf
ROOT
ATOM      1  C   UNL A   1      40.144  22.054  26.873  1.00  0.00     0.188 C 
ENDROOT
BRANCH   1   2
ATOM      2  O   UNL A   1      38.828  21.963  26.346  1.00  0.00    -0.376 OA
BRANCH   2   3
ATOM      3  C   UNL A   1      38.587  20.993  25.328  1.00  0.00     0.202 C 
BRANCH   3   4
ATOM      4  C   UNL A   1      37.174  20.878  24.744  1.00  0.00     0.261 C 
BRANCH   4   5
ATOM      5  O   UNL A   1      36.727  22.116  24.157  1.00  0.00    -0.460 OA
BRANCH   5   6
ATOM      6  C   UNL A   1      35.799  22.818  24.851  1.00  0.00     0.340 C 
ATOM      7  O   UNL A   1      36.036  23.662  25.703  1.00  0.00    -0.246 OA
BRANCH   6   8
ATOM      8  C   UNL A   1      34.440  22.633  24.276  1.00  0.00     0.085 A 
ATOM      9  C   UNL A   1      33.515  21.632  24.654  1.00  0.00     0.051 A 
ATOM     10  C   UNL A   1      32.356  21.561  23.859  1.00  0.00     0.029 A 
ATOM     11  C   UNL A   1      32.088  22.428  22.801  1.00  0.00     0.028 A 
ATOM     12  C   UNL A   1      34.152  23.533  23.209  1.00  0.00     0.044 A 
ATOM     13  C   UNL A   1      32.945  23.473  22.514  1.00  0.00     0.042 A 
BRANCH   9  14
ATOM     14  N   UNL A   1      33.646  20.730  25.705  1.00  0.00    -0.371 N 
BRANCH  14  15
ATOM     15  C   UNL A   1      33.942  21.179  27.071  1.00  0.00     0.113 C 
ATOM     16  C   UNL A   1      32.953  22.213  27.584  1.00  0.00     0.027 C 
ENDBRANCH  14  15
BRANCH  14  17
ATOM     17  C   UNL A   1      33.208  19.328  25.546  1.00  0.00     0.113 C 
ATOM     18  C   UNL A   1      34.021  18.557  24.502  1.00  0.00     0.027 C 
ENDBRANCH  14  17
ENDBRANCH   9  14
BRANCH  13  19
ATOM     19  N   UNL A   1      32.641  24.461  21.558  1.00  0.00    -0.322 N 
ATOM     20  C   UNL A   1      31.906  25.631  21.692  1.00  0.00     0.255 C 
ATOM     21  H   UNL A   1      33.005  24.298  20.659  1.00  0.00     0.170 HD
ATOM     22  O   UNL A   1      31.530  26.243  20.695  1.00  0.00    -0.269 OA
BRANCH  20  23
ATOM     23  C   UNL A   1      31.614  26.195  23.037  1.00  0.00     0.040 A 
ATOM     24  C   UNL A   1      30.427  25.839  23.682  1.00  0.00     0.017 A 
ATOM     25  C   UNL A   1      32.542  27.017  23.690  1.00  0.00     0.017 A 
ATOM     26  C   UNL A   1      30.232  26.207  25.018  1.00  0.00     0.047 A 
ATOM     27  C   UNL A   1      32.353  27.360  25.032  1.00  0.00     0.047 A 
ATOM     28  C   UNL A   1      31.215  26.923  25.710  1.00  0.00     0.118 A 
BRANCH  28  29
ATOM     29  O   UNL A   1      30.950  27.146  27.035  1.00  0.00    -0.497 OA
ATOM     30  C   UNL A   1      31.584  28.282  27.615  1.00  0.00     0.278 C 
ENDBRANCH  28  29
ENDBRANCH  20  23
ENDBRANCH  13  19
ENDBRANCH   6   8
ENDBRANCH   5   6
ENDBRANCH   4   5
ENDBRANCH   3   4
ENDBRANCH   2   3
ENDBRANCH   1   2
BRANCH   1  31
ATOM     31  C   UNL A   1      40.893  20.756  27.248  1.00  0.00     0.188 C 
BRANCH  31  32
ATOM     32  O   UNL A   1      42.297  20.750  27.159  1.00  0.00    -0.376 OA
BRANCH  32  33
ATOM     33  C   UNL A   1      42.953  20.824  25.906  1.00  0.00     0.202 C 
BRANCH  33  34
ATOM     34  C   UNL A   1      43.791  22.009  25.382  1.00  0.00     0.261 C 
BRANCH  34  35
ATOM     35  O   UNL A   1      43.120  23.238  25.106  1.00  0.00    -0.460 OA
BRANCH  35  36
ATOM     36  C   UNL A   1      43.881  24.360  25.218  1.00  0.00     0.338 C 
ATOM     37  O   UNL A   1      44.836  24.676  24.545  1.00  0.00    -0.246 OA
BRANCH  36  38
ATOM     38  C   UNL A   1      43.207  25.269  26.168  1.00  0.00     0.060 A 
ATOM     39  C   UNL A   1      43.693  26.578  26.297  1.00  0.00     0.016 A 
ATOM     40  C   UNL A   1      42.095  24.847  26.896  1.00  0.00     0.016 A 
ATOM     41  C   UNL A   1      43.072  27.470  27.172  1.00  0.00     0.010 A 
ATOM     42  C   UNL A   1      41.493  25.730  27.795  1.00  0.00     0.010 A 
ATOM     43  C   UNL A   1      41.995  27.035  27.955  1.00  0.00    -0.014 A 
BRANCH  43  44
ATOM     44  C   UNL A   1      41.535  27.863  29.094  1.00  0.00     0.031 A 
ATOM     45  C   UNL A   1      42.275  27.738  30.397  1.00  0.00     0.074 A 
ATOM     46  C   UNL A   1      40.498  28.710  28.981  1.00  0.00     0.049 A 
ATOM     47  N   UNL A   1      42.029  28.297  31.553  1.00  0.00    -0.248 NA
ATOM     48  C   UNL A   1      43.452  26.854  30.392  1.00  0.00     0.031 C 
ATOM     49  C   UNL A   1      39.734  28.955  27.761  1.00  0.00     0.029 A 
ATOM     50  N   UNL A   1      39.906  29.515  29.921  1.00  0.00    -0.354 N 
ATOM     51  C   UNL A   1      43.018  27.833  32.410  1.00  0.00     0.074 A 
ATOM     52  C   UNL A   1      43.844  26.918  31.655  1.00  0.00     0.031 C 
ATOM     53  C   UNL A   1      38.762  29.844  28.031  1.00  0.00     0.029 A 
ATOM     54  C   UNL A   1      38.815  30.202  29.448  1.00  0.00     0.049 A 
ATOM     55  H   UNL A   1      40.232  29.594  30.847  1.00  0.00     0.167 HD
ATOM     56  C   UNL A   1      43.224  28.148  33.711  1.00  0.00     0.037 A 
ATOM     57  C   UNL A   1      37.950  31.007  30.098  1.00  0.00     0.037 A 
ATOM     58  C   UNL A   1      42.391  29.047  34.465  1.00  0.00     0.049 A 
ATOM     59  C   UNL A   1      38.144  31.268  31.572  1.00  0.00     0.074 A 
ATOM     60  C   UNL A   1      42.515  29.431  35.788  1.00  0.00     0.029 A 
ATOM     61  N   UNL A   1      41.273  29.694  33.961  1.00  0.00    -0.354 N 
ATOM     62  N   UNL A   1      39.087  30.839  32.375  1.00  0.00    -0.248 NA
ATOM     63  C   UNL A   1      37.148  32.128  32.229  1.00  0.00     0.031 C 
ATOM     64  C   UNL A   1      41.438  30.266  36.102  1.00  0.00     0.029 A 
ATOM     65  C   UNL A   1      40.680  30.455  34.957  1.00  0.00     0.049 A 
ATOM     66  H   UNL A   1      40.948  29.624  33.035  1.00  0.00     0.167 HD
ATOM     67  C   UNL A   1      38.822  31.404  33.617  1.00  0.00     0.074 A 
ATOM     68  C   UNL A   1      37.633  32.215  33.460  1.00  0.00     0.031 C 
ATOM     69  C   UNL A   1      39.503  31.268  34.782  1.00  0.00     0.037 A 
BRANCH  56  70
ATOM     70  C   UNL A   1      44.377  27.487  34.406  1.00  0.00     0.064 A 
ATOM     71  C   UNL A   1      44.240  26.245  35.045  1.00  0.00     0.173 A 
ATOM     72  C   UNL A   1      45.642  28.094  34.416  1.00  0.00     0.173 A 
ATOM     73  F   UNL A   1      43.046  25.631  35.081  1.00  0.00    -0.203 F 
ATOM     74  C   UNL A   1      45.319  25.649  35.693  1.00  0.00     0.198 A 
ATOM     75  C   UNL A   1      46.726  27.479  35.035  1.00  0.00     0.198 A 
ATOM     76  F   UNL A   1      45.828  29.280  33.820  1.00  0.00    -0.203 F 
ATOM     77  F   UNL A   1      45.151  24.489  36.343  1.00  0.00    -0.200 F 
ATOM     78  C   UNL A   1      46.562  26.262  35.680  1.00  0.00     0.200 A 
ATOM     79  F   UNL A   1      47.930  28.067  35.012  1.00  0.00    -0.200 F 
ATOM     80  F   UNL A   1      47.602  25.685  36.297  1.00  0.00    -0.200 F 
ENDBRANCH  56  70
BRANCH  57  81
ATOM     81  C   UNL A   1      36.807  31.620  29.368  1.00  0.00     0.064 A 
ATOM     82  C   UNL A   1      36.777  32.995  29.096  1.00  0.00     0.173 A 
ATOM     83  C   UNL A   1      35.707  30.852  28.958  1.00  0.00     0.173 A 
ATOM     84  F   UNL A   1      37.789  33.779  29.496  1.00  0.00    -0.203 F 
ATOM     85  C   UNL A   1      35.682  33.581  28.462  1.00  0.00     0.198 A 
ATOM     86  C   UNL A   1      34.626  31.434  28.297  1.00  0.00     0.198 A 
ATOM     87  F   UNL A   1      35.680  29.533  29.201  1.00  0.00    -0.203 F 
ATOM     88  F   UNL A   1      35.655  34.906  28.266  1.00  0.00    -0.200 F 
ATOM     89  C   UNL A   1      34.610  32.799  28.057  1.00  0.00     0.200 A 
ATOM     90  F   UNL A   1      33.597  30.672  27.900  1.00  0.00    -0.200 F 
ATOM     91  F   UNL A   1      33.559  33.363  27.450  1.00  0.00    -0.200 F 
ENDBRANCH  57  81
BRANCH  69  92
ATOM     92  C   UNL A   1      39.014  32.047  35.971  1.00  0.00     0.064 A 
ATOM     93  C   UNL A   1      38.182  31.473  36.943  1.00  0.00     0.173 A 
ATOM     94  C   UNL A   1      39.426  33.375  36.164  1.00  0.00     0.173 A 
ATOM     95  F   UNL A   1      37.749  30.210  36.802  1.00  0.00    -0.203 F 
ATOM     96  C   UNL A   1      37.759  32.206  38.049  1.00  0.00     0.198 A 
ATOM     97  C   UNL A   1      39.030  34.095  37.288  1.00  0.00     0.198 A 
ATOM     98  F   UNL A   1      40.231  33.971  35.271  1.00  0.00    -0.203 F 
ATOM     99  F   UNL A   1      36.925  31.652  38.940  1.00  0.00    -0.200 F 
ATOM    100  C   UNL A   1      38.190  33.513  38.225  1.00  0.00     0.200 A 
ATOM    101  F   UNL A   1      39.463  35.350  37.467  1.00  0.00    -0.200 F 
ATOM    102  F   UNL A   1      37.791  34.214  39.295  1.00  0.00    -0.200 F 
ENDBRANCH  69  92
ENDBRANCH  43  44
ENDBRANCH  36  38
ENDBRANCH  35  36
ENDBRANCH  34  35
ENDBRANCH  33  34
ENDBRANCH  32  33
ENDBRANCH  31  32
ENDBRANCH   1  31
TORSDOF 23
ENDMDL
MODEL 2
REMARK VINA RESULT:     -10.9      3.053      9.263
REMARK SMILES CCN(CC)c1ccc(NC(=O)c2ccc(OC)cc2)cc1C(=O)OCCOCCOCCOC(=O)c1ccc(-c2c3nc(c(-c4c(F)c(F)c(F)c(F)c4F)c4ccc([nH]4)c(-c4c(F)c(F)c(F)c(F)c4F)c4nc(c(-c5c(F)c(F)c(F)c(F)c5F)c5ccc2[nH]5)C=C4)C=C3)cc1
REMARK SMILES IDX 29 1 28 2 27 3 26 4 25 5 23 6 24 7 22 8 6 9 7 10 8 11 21 12
REMARK SMILES IDX 9 13 3 14 2 15 1 16 4 17 5 18 10 19 11 20 12 22 13 23 14 24
REMARK SMILES IDX 20 25 15 26 19 27 16 28 17 29 18 30 30 31 31 32 32 33 33 34
REMARK SMILES IDX 34 35 35 36 36 37 37 38 38 39 99 40 39 41 98 42 40 43 41 44
REMARK SMILES IDX 42 45 92 46 43 47 97 48 91 49 93 50 44 51 96 52 90 53 89 54
REMARK SMILES IDX 45 56 77 57 57 58 76 59 58 60 61 61 75 62 94 63 59 64 60 65
REMARK SMILES IDX 74 67 95 68 62 69 46 70 47 71 55 72 48 73 49 74 53 75 56 76
REMARK SMILES IDX 50 77 51 78 54 79 52 80 78 81 79 82 87 83 80 84 81 85 85 86
REMARK SMILES IDX 88 87 82 88 83 89 86 90 84 91 63 92 64 93 72 94 65 95 66 96
REMARK SMILES IDX 70 97 73 98 67 99 68 100 71 101 69 102
REMARK H PARENT 10 21 93 55 61 66
REMARK Flexibility Score: inf
ROOT
ATOM      1  C   UNL A   1      34.618  31.936  28.292  1.00  0.00     0.188 C 
ENDROOT
BRANCH   1   2
ATOM      2  O   UNL A   1      33.472  31.421  27.630  1.00  0.00    -0.376 OA
BRANCH   2   3
ATOM      3  C   UNL A   1      33.628  30.228  26.864  1.00  0.00     0.202 C 
BRANCH   3   4
ATOM      4  C   UNL A   1      33.614  28.879  27.594  1.00  0.00     0.261 C 
BRANCH   4   5
ATOM      5  O   UNL A   1      33.221  27.797  26.727  1.00  0.00    -0.460 OA
BRANCH   5   6
ATOM      6  C   UNL A   1      31.919  27.424  26.771  1.00  0.00     0.340 C 
ATOM      7  O   UNL A   1      31.080  27.863  27.544  1.00  0.00    -0.246 OA
BRANCH   6   8
ATOM      8  C   UNL A   1      31.555  26.594  25.592  1.00  0.00     0.085 A 
ATOM      9  C   UNL A   1      31.331  27.078  24.281  1.00  0.00     0.051 A 
ATOM     10  C   UNL A   1      30.846  26.123  23.370  1.00  0.00     0.029 A 
ATOM     11  C   UNL A   1      30.636  24.783  23.689  1.00  0.00     0.028 A 
ATOM     12  C   UNL A   1      31.363  25.218  25.910  1.00  0.00     0.044 A 
ATOM     13  C   UNL A   1      30.968  24.298  24.940  1.00  0.00     0.042 A 
BRANCH   9  14
ATOM     14  N   UNL A   1      31.533  28.378  23.827  1.00  0.00    -0.371 N 
BRANCH  14  15
ATOM     15  C   UNL A   1      30.462  29.381  23.866  1.00  0.00     0.113 C 
ATOM     16  C   UNL A   1      29.805  29.600  22.513  1.00  0.00     0.027 C 
ENDBRANCH  14  15
BRANCH  14  17
ATOM     17  C   UNL A   1      32.900  28.874  23.566  1.00  0.00     0.113 C 
ATOM     18  C   UNL A   1      33.584  28.165  22.394  1.00  0.00     0.027 C 
ENDBRANCH  14  17
ENDBRANCH   9  14
BRANCH  13  19
ATOM     19  N   UNL A   1      30.918  22.928  25.259  1.00  0.00    -0.322 N 
ATOM     20  C   UNL A   1      31.912  21.962  25.187  1.00  0.00     0.255 C 
ATOM     21  H   UNL A   1      30.046  22.605  25.583  1.00  0.00     0.170 HD
ATOM     22  O   UNL A   1      31.623  20.770  25.262  1.00  0.00    -0.269 OA
BRANCH  20  23
ATOM     23  C   UNL A   1      33.343  22.351  25.078  1.00  0.00     0.040 A 
ATOM     24  C   UNL A   1      34.089  22.538  26.245  1.00  0.00     0.017 A 
ATOM     25  C   UNL A   1      33.966  22.464  23.828  1.00  0.00     0.017 A 
ATOM     26  C   UNL A   1      35.474  22.714  26.156  1.00  0.00     0.047 A 
ATOM     27  C   UNL A   1      35.354  22.614  23.747  1.00  0.00     0.047 A 
ATOM     28  C   UNL A   1      36.116  22.701  24.913  1.00  0.00     0.118 A 
BRANCH  28  29
ATOM     29  O   UNL A   1      37.481  22.791  24.960  1.00  0.00    -0.497 OA
ATOM     30  C   UNL A   1      38.018  23.594  26.007  1.00  0.00     0.278 C 
ENDBRANCH  28  29
ENDBRANCH  20  23
ENDBRANCH  13  19
ENDBRANCH   6   8
ENDBRANCH   5   6
ENDBRANCH   4   5
ENDBRANCH   3   4
ENDBRANCH   2   3
ENDBRANCH   1   2
BRANCH   1  31
ATOM     31  C   UNL A   1      34.675  33.442  28.630  1.00  0.00     0.188 C 
BRANCH  31  32
ATOM     32  O   UNL A   1      33.644  33.987  29.416  1.00  0.00    -0.376 OA
BRANCH  32  33
ATOM     33  C   UNL A   1      33.147  35.291  29.174  1.00  0.00     0.202 C 
BRANCH  33  34
ATOM     34  C   UNL A   1      32.687  36.306  30.241  1.00  0.00     0.261 C 
BRANCH  34  35
ATOM     35  O   UNL A   1      32.067  35.804  31.425  1.00  0.00    -0.460 OA
BRANCH  35  36
ATOM     36  C   UNL A   1      32.721  36.068  32.587  1.00  0.00     0.338 C 
ATOM     37  O   UNL A   1      32.335  36.738  33.519  1.00  0.00    -0.246 OA
BRANCH  36  38
ATOM     38  C   UNL A   1      33.918  35.203  32.637  1.00  0.00     0.060 A 
ATOM     39  C   UNL A   1      33.755  33.857  32.994  1.00  0.00     0.016 A 
ATOM     40  C   UNL A   1      35.177  35.705  32.308  1.00  0.00     0.016 A 
ATOM     41  C   UNL A   1      34.860  33.007  33.036  1.00  0.00     0.010 A 
ATOM     42  C   UNL A   1      36.288  34.861  32.381  1.00  0.00     0.010 A 
ATOM     43  C   UNL A   1      36.137  33.517  32.770  1.00  0.00    -0.014 A 
BRANCH  43  44
ATOM     44  C   UNL A   1      37.334  32.713  33.110  1.00  0.00     0.031 A 
ATOM     45  C   UNL A   1      38.033  33.010  34.408  1.00  0.00     0.074 A 
ATOM     46  C   UNL A   1      37.788  31.742  32.302  1.00  0.00     0.049 A 
ATOM     47  N   UNL A   1      39.132  32.499  34.900  1.00  0.00    -0.248 NA
ATOM     48  C   UNL A   1      37.404  34.028  35.266  1.00  0.00     0.031 C 
ATOM     49  C   UNL A   1      37.171  31.329  31.045  1.00  0.00     0.029 A 
ATOM     50  N   UNL A   1      38.889  30.931  32.422  1.00  0.00    -0.354 N 
ATOM     51  C   UNL A   1      39.325  33.134  36.119  1.00  0.00     0.074 A 
ATOM     52  C   UNL A   1      38.254  34.092  36.278  1.00  0.00     0.031 C 
ATOM     53  C   UNL A   1      37.912  30.346  30.501  1.00  0.00     0.029 A 
ATOM     54  C   UNL A   1      39.072  30.088  31.353  1.00  0.00     0.049 A 
ATOM     55  H   UNL A   1      39.491  30.952  33.201  1.00  0.00     0.167 HD
ATOM     56  C   UNL A   1      40.304  32.929  37.032  1.00  0.00     0.037 A 
ATOM     57  C   UNL A   1      40.076  29.227  31.091  1.00  0.00     0.037 A 
ATOM     58  C   UNL A   1      41.378  31.985  36.866  1.00  0.00     0.049 A 
ATOM     59  C   UNL A   1      41.209  29.086  32.079  1.00  0.00     0.074 A 
ATOM     60  C   UNL A   1      42.419  31.703  37.730  1.00  0.00     0.029 A 
ATOM     61  N   UNL A   1      41.549  31.176  35.753  1.00  0.00    -0.354 N 
ATOM     62  N   UNL A   1      41.380  29.676  33.237  1.00  0.00    -0.248 NA
ATOM     63  C   UNL A   1      42.289  28.155  31.720  1.00  0.00     0.031 C 
ATOM     64  C   UNL A   1      43.255  30.766  37.115  1.00  0.00     0.029 A 
ATOM     65  C   UNL A   1      42.698  30.413  35.896  1.00  0.00     0.049 A 
ATOM     66  H   UNL A   1      40.946  31.148  34.975  1.00  0.00     0.167 HD
ATOM     67  C   UNL A   1      42.562  29.163  33.759  1.00  0.00     0.074 A 
ATOM     68  C   UNL A   1      43.061  28.205  32.795  1.00  0.00     0.031 C 
ATOM     69  C   UNL A   1      43.177  29.455  34.932  1.00  0.00     0.037 A 
BRANCH  56  70
ATOM     70  C   UNL A   1      40.275  33.768  38.275  1.00  0.00     0.064 A 
ATOM     71  C   UNL A   1      41.001  34.965  38.374  1.00  0.00     0.173 A 
ATOM     72  C   UNL A   1      39.495  33.380  39.374  1.00  0.00     0.173 A 
ATOM     73  F   UNL A   1      41.778  35.371  37.358  1.00  0.00    -0.203 F 
ATOM     74  C   UNL A   1      40.969  35.728  39.539  1.00  0.00     0.198 A 
ATOM     75  C   UNL A   1      39.439  34.162  40.524  1.00  0.00     0.198 A 
ATOM     76  F   UNL A   1      38.781  32.246  39.332  1.00  0.00    -0.203 F 
ATOM     77  F   UNL A   1      41.713  36.839  39.631  1.00  0.00    -0.200 F 
ATOM     78  C   UNL A   1      40.182  35.330  40.609  1.00  0.00     0.200 A 
ATOM     79  F   UNL A   1      38.668  33.783  41.553  1.00  0.00    -0.200 F 
ATOM     80  F   UNL A   1      40.145  36.069  41.727  1.00  0.00    -0.200 F 
ENDBRANCH  56  70
BRANCH  57  81
ATOM     81  C   UNL A   1      40.071  28.435  29.832  1.00  0.00     0.064 A 
ATOM     82  C   UNL A   1      39.458  27.175  29.773  1.00  0.00     0.173 A 
ATOM     83  C   UNL A   1      40.707  28.904  28.672  1.00  0.00     0.173 A 
ATOM     84  F   UNL A   1      38.864  26.667  30.862  1.00  0.00    -0.203 F 
ATOM     85  C   UNL A   1      39.500  26.407  28.610  1.00  0.00     0.198 A 
ATOM     86  C   UNL A   1      40.722  28.148  27.502  1.00  0.00     0.198 A 
ATOM     87  F   UNL A   1      41.316  30.098  28.677  1.00  0.00    -0.203 F 
ATOM     88  F   UNL A   1      38.956  25.183  28.599  1.00  0.00    -0.200 F 
ATOM     89  C   UNL A   1      40.127  26.896  27.473  1.00  0.00     0.200 A 
ATOM     90  F   UNL A   1      41.322  28.629  26.403  1.00  0.00    -0.200 F 
ATOM     91  F   UNL A   1      40.168  26.157  26.358  1.00  0.00    -0.200 F 
ENDBRANCH  57  81
BRANCH  69  92
ATOM     92  C   UNL A   1      44.432  28.699  35.269  1.00  0.00     0.064 A 
ATOM     93  C   UNL A   1      45.703  29.178  34.920  1.00  0.00     0.173 A 
ATOM     94  C   UNL A   1      44.361  27.500  35.997  1.00  0.00     0.173 A 
ATOM     95  F   UNL A   1      45.826  30.313  34.214  1.00  0.00    -0.203 F 
ATOM     96  C   UNL A   1      46.854  28.473  35.261  1.00  0.00     0.198 A 
ATOM     97  C   UNL A   1      45.516  26.815  36.368  1.00  0.00     0.198 A 
ATOM     98  F   UNL A   1      43.173  27.002  36.367  1.00  0.00    -0.203 F 
ATOM     99  F   UNL A   1      48.055  28.925  34.874  1.00  0.00    -0.200 F 
ATOM    100  C   UNL A   1      46.760  27.297  35.992  1.00  0.00     0.200 A 
ATOM    101  F   UNL A   1      45.424  25.691  37.090  1.00  0.00    -0.200 F 
ATOM    102  F   UNL A   1      47.869  26.626  36.330  1.00  0.00    -0.200 F 
ENDBRANCH  69  92
ENDBRANCH  43  44
ENDBRANCH  36  38
ENDBRANCH  35  36
ENDBRANCH  34  35
ENDBRANCH  33  34
ENDBRANCH  32  33
ENDBRANCH  31  32
ENDBRANCH   1  31
TORSDOF 23
ENDMDL
MODEL 3
REMARK VINA RESULT:     -10.3      2.566      8.867
REMARK SMILES CCN(CC)c1ccc(NC(=O)c2ccc(OC)cc2)cc1C(=O)OCCOCCOCCOC(=O)c1ccc(-c2c3nc(c(-c4c(F)c(F)c(F)c(F)c4F)c4ccc([nH]4)c(-c4c(F)c(F)c(F)c(F)c4F)c4nc(c(-c5c(F)c(F)c(F)c(F)c5F)c5ccc2[nH]5)C=C4)C=C3)cc1
REMARK SMILES IDX 29 1 28 2 27 3 26 4 25 5 23 6 24 7 22 8 6 9 7 10 8 11 21 12
REMARK SMILES IDX 9 13 3 14 2 15 1 16 4 17 5 18 10 19 11 20 12 22 13 23 14 24
REMARK SMILES IDX 20 25 15 26 19 27 16 28 17 29 18 30 30 31 31 32 32 33 33 34
REMARK SMILES IDX 34 35 35 36 36 37 37 38 38 39 99 40 39 41 98 42 40 43 41 44
REMARK SMILES IDX 42 45 92 46 43 47 97 48 91 49 93 50 44 51 96 52 90 53 89 54
REMARK SMILES IDX 45 56 77 57 57 58 76 59 58 60 61 61 75 62 94 63 59 64 60 65
REMARK SMILES IDX 74 67 95 68 62 69 46 70 47 71 55 72 48 73 49 74 53 75 56 76
REMARK SMILES IDX 50 77 51 78 54 79 52 80 78 81 79 82 87 83 80 84 81 85 85 86
REMARK SMILES IDX 88 87 82 88 83 89 86 90 84 91 63 92 64 93 72 94 65 95 66 96
REMARK SMILES IDX 70 97 73 98 67 99 68 100 71 101 69 102
REMARK H PARENT 10 21 93 55 61 66
REMARK Flexibility Score: inf
ROOT
ATOM      1  C   UNL A   1      29.909  29.738  22.928  1.00  0.00     0.188 C 
ENDROOT
BRANCH   1   2
ATOM      2  O   UNL A   1      30.050  28.584  22.113  1.00  0.00    -0.376 OA
BRANCH   2   3
ATOM      3  C   UNL A   1      30.636  27.424  22.701  1.00  0.00     0.202 C 
BRANCH   3   4
ATOM      4  C   UNL A   1      31.401  26.449  21.797  1.00  0.00     0.261 C 
BRANCH   4   5
ATOM      5  O   UNL A   1      31.593  25.166  22.423  1.00  0.00    -0.460 OA
BRANCH   5   6
ATOM      6  C   UNL A   1      32.854  24.863  22.817  1.00  0.00     0.340 C 
ATOM      7  O   UNL A   1      33.879  25.262  22.286  1.00  0.00    -0.246 OA
BRANCH   6   8
ATOM      8  C   UNL A   1      32.858  24.185  24.141  1.00  0.00     0.085 A 
ATOM      9  C   UNL A   1      32.778  24.831  25.397  1.00  0.00     0.051 A 
ATOM     10  C   UNL A   1      32.957  23.990  26.511  1.00  0.00     0.029 A 
ATOM     11  C   UNL A   1      33.155  22.613  26.418  1.00  0.00     0.028 A 
ATOM     12  C   UNL A   1      33.036  22.774  24.050  1.00  0.00     0.044 A 
ATOM     13  C   UNL A   1      33.116  21.978  25.192  1.00  0.00     0.042 A 
BRANCH   9  14
ATOM     14  N   UNL A   1      32.552  26.185  25.625  1.00  0.00    -0.371 N 
BRANCH  14  15
ATOM     15  C   UNL A   1      31.281  26.671  26.174  1.00  0.00     0.113 C 
ATOM     16  C   UNL A   1      30.073  25.937  25.617  1.00  0.00     0.027 C 
ENDBRANCH  14  15
BRANCH  14  17
ATOM     17  C   UNL A   1      33.676  27.143  25.600  1.00  0.00     0.113 C 
ATOM     18  C   UNL A   1      33.697  28.016  24.342  1.00  0.00     0.027 C 
ENDBRANCH  14  17
ENDBRANCH   9  14
BRANCH  13  19
ATOM     19  N   UNL A   1      33.157  20.577  25.063  1.00  0.00    -0.322 N 
ATOM     20  C   UNL A   1      34.230  19.742  24.782  1.00  0.00     0.255 C 
ATOM     21  H   UNL A   1      32.296  20.120  25.191  1.00  0.00     0.170 HD
ATOM     22  O   UNL A   1      34.035  18.573  24.457  1.00  0.00    -0.269 OA
BRANCH  20  23
ATOM     23  C   UNL A   1      35.629  20.226  24.929  1.00  0.00     0.040 A 
ATOM     24  C   UNL A   1      35.856  21.521  25.400  1.00  0.00     0.017 A 
ATOM     25  C   UNL A   1      36.714  19.379  24.668  1.00  0.00     0.017 A 
ATOM     26  C   UNL A   1      37.158  21.918  25.723  1.00  0.00     0.047 A 
ATOM     27  C   UNL A   1      38.010  19.772  25.017  1.00  0.00     0.047 A 
ATOM     28  C   UNL A   1      38.230  21.030  25.580  1.00  0.00     0.118 A 
BRANCH  28  29
ATOM     29  O   UNL A   1      39.440  21.500  26.014  1.00  0.00    -0.497 OA
ATOM     30  C   UNL A   1      40.406  20.512  26.359  1.00  0.00     0.278 C 
ENDBRANCH  28  29
ENDBRANCH  20  23
ENDBRANCH  13  19
ENDBRANCH   6   8
ENDBRANCH   5   6
ENDBRANCH   4   5
ENDBRANCH   3   4
ENDBRANCH   2   3
ENDBRANCH   1   2
BRANCH   1  31
ATOM     31  C   UNL A   1      30.635  29.788  24.291  1.00  0.00     0.188 C 
BRANCH  31  32
ATOM     32  O   UNL A   1      30.640  31.004  24.997  1.00  0.00    -0.376 OA
BRANCH  32  33
ATOM     33  C   UNL A   1      31.394  31.159  26.186  1.00  0.00     0.202 C 
BRANCH  33  34
ATOM     34  C   UNL A   1      31.723  32.490  26.892  1.00  0.00     0.261 C 
BRANCH  34  35
ATOM     35  O   UNL A   1      33.073  32.952  26.865  1.00  0.00    -0.460 OA
BRANCH  35  36
ATOM     36  C   UNL A   1      33.517  33.535  28.011  1.00  0.00     0.338 C 
ATOM     37  O   UNL A   1      32.952  34.368  28.684  1.00  0.00    -0.246 OA
BRANCH  36  38
ATOM     38  C   UNL A   1      34.731  32.813  28.445  1.00  0.00     0.060 A 
ATOM     39  C   UNL A   1      34.636  31.435  28.691  1.00  0.00     0.016 A 
ATOM     40  C   UNL A   1      35.950  33.477  28.576  1.00  0.00     0.016 A 
ATOM     41  C   UNL A   1      35.764  30.717  29.086  1.00  0.00     0.010 A 
ATOM     42  C   UNL A   1      37.073  32.764  29.001  1.00  0.00     0.010 A 
ATOM     43  C   UNL A   1      36.978  31.388  29.283  1.00  0.00    -0.014 A 
BRANCH  43  44
ATOM     44  C   UNL A   1      38.086  30.706  29.991  1.00  0.00     0.031 A 
ATOM     45  C   UNL A   1      38.311  31.048  31.438  1.00  0.00     0.074 A 
ATOM     46  C   UNL A   1      38.870  29.804  29.377  1.00  0.00     0.049 A 
ATOM     47  N   UNL A   1      39.249  30.644  32.255  1.00  0.00    -0.248 NA
ATOM     48  C   UNL A   1      37.342  31.977  32.043  1.00  0.00     0.031 C 
ATOM     49  C   UNL A   1      38.722  29.355  27.996  1.00  0.00     0.029 A 
ATOM     50  N   UNL A   1      39.957  29.110  29.847  1.00  0.00    -0.354 N 
ATOM     51  C   UNL A   1      38.984  31.271  33.465  1.00  0.00     0.074 A 
ATOM     52  C   UNL A   1      37.822  32.109  33.269  1.00  0.00     0.031 C 
ATOM     53  C   UNL A   1      39.695  28.466  27.723  1.00  0.00     0.029 A 
ATOM     54  C   UNL A   1      40.552  28.313  28.899  1.00  0.00     0.049 A 
ATOM     55  H   UNL A   1      40.281  29.178  30.774  1.00  0.00     0.167 HD
ATOM     56  C   UNL A   1      39.646  31.150  34.641  1.00  0.00     0.037 A 
ATOM     57  C   UNL A   1      41.672  27.566  28.975  1.00  0.00     0.037 A 
ATOM     58  C   UNL A   1      40.810  30.327  34.830  1.00  0.00     0.049 A 
ATOM     59  C   UNL A   1      42.448  27.524  30.269  1.00  0.00     0.074 A 
ATOM     60  C   UNL A   1      41.554  30.137  35.980  1.00  0.00     0.029 A 
ATOM     61  N   UNL A   1      41.405  29.562  33.837  1.00  0.00    -0.354 N 
ATOM     62  N   UNL A   1      42.187  28.105  31.415  1.00  0.00    -0.248 NA
ATOM     63  C   UNL A   1      43.678  26.717  30.277  1.00  0.00     0.031 C 
ATOM     64  C   UNL A   1      42.633  29.304  35.670  1.00  0.00     0.029 A 
ATOM     65  C   UNL A   1      42.525  28.921  34.343  1.00  0.00     0.049 A 
ATOM     66  H   UNL A   1      41.081  29.487  32.911  1.00  0.00     0.167 HD
ATOM     67  C   UNL A   1      43.194  27.707  32.286  1.00  0.00     0.074 A 
ATOM     68  C   UNL A   1      44.067  26.826  31.539  1.00  0.00     0.031 C 
ATOM     69  C   UNL A   1      43.378  28.036  33.589  1.00  0.00     0.037 A 
BRANCH  56  70
ATOM     70  C   UNL A   1      39.142  31.956  35.801  1.00  0.00     0.064 A 
ATOM     71  C   UNL A   1      39.517  33.296  35.987  1.00  0.00     0.173 A 
ATOM     72  C   UNL A   1      38.257  31.387  36.729  1.00  0.00     0.173 A 
ATOM     73  F   UNL A   1      40.376  33.882  35.138  1.00  0.00    -0.203 F 
ATOM     74  C   UNL A   1      39.046  34.027  37.074  1.00  0.00     0.198 A 
ATOM     75  C   UNL A   1      37.762  32.131  37.796  1.00  0.00     0.198 A 
ATOM     76  F   UNL A   1      37.866  30.111  36.598  1.00  0.00    -0.203 F 
ATOM     77  F   UNL A   1      39.460  35.288  37.262  1.00  0.00    -0.200 F 
ATOM     78  C   UNL A   1      38.163  33.447  37.973  1.00  0.00     0.200 A 
ATOM     79  F   UNL A   1      36.900  31.573  38.656  1.00  0.00    -0.200 F 
ATOM     80  F   UNL A   1      37.705  34.154  39.015  1.00  0.00    -0.200 F 
ENDBRANCH  56  70
BRANCH  57  81
ATOM     81  C   UNL A   1      42.143  26.804  27.788  1.00  0.00     0.064 A 
ATOM     82  C   UNL A   1      43.005  27.388  26.849  1.00  0.00     0.173 A 
ATOM     83  C   UNL A   1      41.715  25.490  27.547  1.00  0.00     0.173 A 
ATOM     84  F   UNL A   1      43.418  28.653  27.014  1.00  0.00    -0.203 F 
ATOM     85  C   UNL A   1      43.404  26.695  25.707  1.00  0.00     0.198 A 
ATOM     86  C   UNL A   1      42.138  24.787  26.421  1.00  0.00     0.198 A 
ATOM     87  F   UNL A   1      40.883  24.886  28.409  1.00  0.00    -0.203 F 
ATOM     88  F   UNL A   1      44.183  27.297  24.798  1.00  0.00    -0.200 F 
ATOM     89  C   UNL A   1      42.975  25.393  25.496  1.00  0.00     0.200 A 
ATOM     90  F   UNL A   1      41.728  23.526  26.226  1.00  0.00    -0.200 F 
ATOM     91  F   UNL A   1      43.358  24.729  24.398  1.00  0.00    -0.200 F 
ENDBRANCH  57  81
BRANCH  69  92
ATOM     92  C   UNL A   1      44.538  27.409  34.311  1.00  0.00     0.064 A 
ATOM     93  C   UNL A   1      44.405  26.208  35.024  1.00  0.00     0.173 A 
ATOM     94  C   UNL A   1      45.812  27.994  34.246  1.00  0.00     0.173 A 
ATOM     95  F   UNL A   1      43.207  25.612  35.128  1.00  0.00    -0.203 F 
ATOM     96  C   UNL A   1      45.498  25.632  35.667  1.00  0.00     0.198 A 
ATOM     97  C   UNL A   1      46.910  27.398  34.860  1.00  0.00     0.198 A 
ATOM     98  F   UNL A   1      45.998  29.136  33.568  1.00  0.00    -0.203 F 
ATOM     99  F   UNL A   1      45.338  24.511  36.383  1.00  0.00    -0.200 F 
ATOM    100  C   UNL A   1      46.751  26.222  35.577  1.00  0.00     0.200 A 
ATOM    101  F   UNL A   1      48.122  27.959  34.756  1.00  0.00    -0.200 F 
ATOM    102  F   UNL A   1      47.803  25.660  36.187  1.00  0.00    -0.200 F 
ENDBRANCH  69  92
ENDBRANCH  43  44
ENDBRANCH  36  38
ENDBRANCH  35  36
ENDBRANCH  34  35
ENDBRANCH  33  34
ENDBRANCH  32  33
ENDBRANCH  31  32
ENDBRANCH   1  31
TORSDOF 23
ENDMDL
