MODEL 1
REMARK VINA RESULT:     -11.0      0.000      0.000
REMARK SMILES Cc1c(CC(=O)OCCOCCOCCOC(=O)c2ccc(-c3c4nc(c(-c5c(F)c(F)c(F)c(F)c5F)c5ccc([nH]5)c(-c5c(F)c(F)c(F)c(F)c5F)c5nc(c(-c6c(F)c(F)c(F)c(F)c6F)c6ccc3[nH]6)C=C5)C=C4)cc2)c(O)oc2cc(=O)cc(O)c1-2
REMARK SMILES IDX 11 1 10 2 9 3 8 4 7 5 5 6 6 7 4 8 3 9 1 10 2 11 92 12 82 13
REMARK SMILES IDX 85 14 90 15 84 16 86 17 89 18 87 19 88 20 83 21 91 23 12 25
REMARK SMILES IDX 13 26 14 27 15 28 16 29 17 30 18 31 19 32 20 33 81 34 21 35
REMARK SMILES IDX 80 36 22 37 23 38 24 39 74 40 25 41 79 42 73 43 75 44 26 45
REMARK SMILES IDX 78 46 72 47 71 48 27 50 59 51 39 52 58 53 40 54 43 55 57 56
REMARK SMILES IDX 76 57 41 58 42 59 56 61 77 62 44 63 28 64 29 65 37 66 30 67
REMARK SMILES IDX 31 68 35 69 38 70 32 71 33 72 36 73 34 74 60 75 61 76 69 77
REMARK SMILES IDX 62 78 63 79 67 80 70 81 64 82 65 83 68 84 66 85 45 86 46 87
REMARK SMILES IDX 54 88 47 89 48 90 52 91 55 92 49 93 50 94 53 95 51 96
REMARK H PARENT 83 22 91 24 75 49 43 60
REMARK Flexibility Score: inf
ROOT
ATOM      1  C   UNL A   1      33.525  26.755  24.746  1.00  0.00     0.188 C 
ENDROOT
BRANCH   1   2
ATOM      2  O   UNL A   1      33.656  26.809  23.332  1.00  0.00    -0.376 OA
BRANCH   2   3
ATOM      3  C   UNL A   1      32.733  27.605  22.601  1.00  0.00     0.202 C 
BRANCH   3   4
ATOM      4  C   UNL A   1      31.255  27.365  22.918  1.00  0.00     0.261 C 
BRANCH   4   5
ATOM      5  O   UNL A   1      30.790  26.062  22.494  1.00  0.00    -0.463 OA
BRANCH   5   6
ATOM      6  C   UNL A   1      30.498  25.174  23.477  1.00  0.00     0.310 C 
ATOM      7  O   UNL A   1      29.910  25.467  24.515  1.00  0.00    -0.252 OA
BRANCH   6   8
ATOM      8  C   UNL A   1      31.014  23.748  23.251  1.00  0.00     0.166 C 
BRANCH   8   9
ATOM      9  C   UNL A   1      32.494  23.424  23.415  1.00  0.00     0.048 A 
ATOM     10  C   UNL A   1      32.120  22.804  25.886  1.00  0.00     0.046 C 
ATOM     11  C   UNL A   1      33.011  22.780  24.662  1.00  0.00    -0.026 A 
ATOM     12  C   UNL A   1      34.286  22.285  24.690  1.00  0.00     0.063 A 
ATOM     13  C   UNL A   1      33.379  23.710  22.431  1.00  0.00     0.286 A 
ATOM     14  C   UNL A   1      35.206  22.694  23.614  1.00  0.00     0.146 A 
ATOM     15  C   UNL A   1      34.860  21.412  25.740  1.00  0.00     0.130 A 
ATOM     16  O   UNL A   1      34.715  23.387  22.526  1.00  0.00    -0.425 OA
ATOM     17  C   UNL A   1      36.529  22.507  23.709  1.00  0.00     0.100 A 
ATOM     18  C   UNL A   1      36.179  21.202  25.838  1.00  0.00     0.099 A 
ATOM     19  C   UNL A   1      37.112  21.813  24.871  1.00  0.00     0.186 A 
ATOM     20  O   UNL A   1      38.324  21.703  25.007  1.00  0.00    -0.290 OA
BRANCH  13  21
ATOM     21  O   UNL A   1      33.033  24.329  21.249  1.00  0.00    -0.480 OA
ATOM     22  H   UNL A   1      33.239  25.233  21.115  1.00  0.00     0.297 HD
ENDBRANCH  13  21
BRANCH  15  23
ATOM     23  O   UNL A   1      33.982  20.691  26.520  1.00  0.00    -0.507 OA
ATOM     24  H   UNL A   1      33.525  19.959  26.156  1.00  0.00     0.293 HD
ENDBRANCH  15  23
ENDBRANCH   8   9
ENDBRANCH   6   8
ENDBRANCH   5   6
ENDBRANCH   4   5
ENDBRANCH   3   4
ENDBRANCH   2   3
ENDBRANCH   1   2
BRANCH   1  25
ATOM     25  C   UNL A   1      33.686  28.051  25.564  1.00  0.00     0.188 C 
BRANCH  25  26
ATOM     26  O   UNL A   1      32.611  28.504  26.371  1.00  0.00    -0.376 OA
BRANCH  26  27
ATOM     27  C   UNL A   1      31.700  29.431  25.801  1.00  0.00     0.202 C 
BRANCH  27  28
ATOM     28  C   UNL A   1      32.010  30.900  26.085  1.00  0.00     0.261 C 
BRANCH  28  29
ATOM     29  O   UNL A   1      32.544  31.087  27.411  1.00  0.00    -0.460 OA
BRANCH  29  30
ATOM     30  C   UNL A   1      33.372  32.144  27.563  1.00  0.00     0.338 C 
ATOM     31  O   UNL A   1      33.096  33.333  27.533  1.00  0.00    -0.246 OA
BRANCH  30  32
ATOM     32  C   UNL A   1      34.729  31.678  27.890  1.00  0.00     0.060 A 
ATOM     33  C   UNL A   1      34.901  30.347  28.267  1.00  0.00     0.016 A 
ATOM     34  C   UNL A   1      35.768  32.593  28.042  1.00  0.00     0.016 A 
ATOM     35  C   UNL A   1      36.078  29.937  28.886  1.00  0.00     0.010 A 
ATOM     36  C   UNL A   1      36.974  32.168  28.613  1.00  0.00     0.010 A 
ATOM     37  C   UNL A   1      37.122  30.848  29.083  1.00  0.00    -0.014 A 
BRANCH  37  38
ATOM     38  C   UNL A   1      38.310  30.459  29.886  1.00  0.00     0.031 A 
ATOM     39  C   UNL A   1      39.348  29.556  29.278  1.00  0.00     0.074 A 
ATOM     40  C   UNL A   1      38.494  30.939  31.132  1.00  0.00     0.049 A 
ATOM     41  N   UNL A   1      40.343  28.927  29.852  1.00  0.00    -0.248 NA
ATOM     42  C   UNL A   1      39.254  29.328  27.827  1.00  0.00     0.031 C 
ATOM     43  C   UNL A   1      37.624  31.903  31.804  1.00  0.00     0.029 A 
ATOM     44  N   UNL A   1      39.479  30.680  32.053  1.00  0.00    -0.354 N 
ATOM     45  C   UNL A   1      40.954  28.189  28.847  1.00  0.00     0.074 A 
ATOM     46  C   UNL A   1      40.227  28.451  27.624  1.00  0.00     0.031 C 
ATOM     47  C   UNL A   1      38.118  32.164  33.024  1.00  0.00     0.029 A 
ATOM     48  C   UNL A   1      39.289  31.322  33.252  1.00  0.00     0.049 A 
ATOM     49  H   UNL A   1      40.246  30.090  31.872  1.00  0.00     0.167 HD
ATOM     50  C   UNL A   1      42.022  27.363  28.944  1.00  0.00     0.037 A 
ATOM     51  C   UNL A   1      39.950  31.204  34.420  1.00  0.00     0.037 A 
ATOM     52  C   UNL A   1      42.774  27.153  30.153  1.00  0.00     0.049 A 
ATOM     53  C   UNL A   1      41.093  30.229  34.523  1.00  0.00     0.074 A 
ATOM     54  C   UNL A   1      43.869  26.332  30.356  1.00  0.00     0.029 A 
ATOM     55  N   UNL A   1      42.517  27.785  31.359  1.00  0.00    -0.354 N 
ATOM     56  N   UNL A   1      41.613  29.466  33.593  1.00  0.00    -0.248 NA
ATOM     57  C   UNL A   1      41.723  30.079  35.843  1.00  0.00     0.031 C 
ATOM     58  C   UNL A   1      44.253  26.439  31.695  1.00  0.00     0.029 A 
ATOM     59  C   UNL A   1      43.424  27.359  32.316  1.00  0.00     0.049 A 
ATOM     60  H   UNL A   1      41.797  28.438  31.514  1.00  0.00     0.167 HD
ATOM     61  C   UNL A   1      42.631  28.752  34.209  1.00  0.00     0.074 A 
ATOM     62  C   UNL A   1      42.673  29.189  35.589  1.00  0.00     0.031 C 
ATOM     63  C   UNL A   1      43.452  27.812  33.682  1.00  0.00     0.037 A 
BRANCH  50  64
ATOM     64  C   UNL A   1      42.429  26.591  27.725  1.00  0.00     0.064 A 
ATOM     65  C   UNL A   1      43.415  27.057  26.845  1.00  0.00     0.173 A 
ATOM     66  C   UNL A   1      41.867  25.330  27.475  1.00  0.00     0.173 A 
ATOM     67  F   UNL A   1      43.971  28.263  27.032  1.00  0.00    -0.203 F 
ATOM     68  C   UNL A   1      43.819  26.290  25.754  1.00  0.00     0.198 A 
ATOM     69  C   UNL A   1      42.289  24.556  26.398  1.00  0.00     0.198 A 
ATOM     70  F   UNL A   1      40.919  24.838  28.289  1.00  0.00    -0.203 F 
ATOM     71  F   UNL A   1      44.745  26.765  24.910  1.00  0.00    -0.200 F 
ATOM     72  C   UNL A   1      43.264  25.038  25.537  1.00  0.00     0.200 A 
ATOM     73  F   UNL A   1      41.760  23.342  26.197  1.00  0.00    -0.200 F 
ATOM     74  F   UNL A   1      43.666  24.295  24.496  1.00  0.00    -0.200 F 
ENDBRANCH  50  64
BRANCH  51  75
ATOM     75  C   UNL A   1      39.505  31.987  35.604  1.00  0.00     0.064 A 
ATOM     76  C   UNL A   1      38.519  31.494  36.469  1.00  0.00     0.173 A 
ATOM     77  C   UNL A   1      40.060  33.242  35.897  1.00  0.00     0.173 A 
ATOM     78  F   UNL A   1      37.936  30.312  36.216  1.00  0.00    -0.203 F 
ATOM     79  C   UNL A   1      38.102  32.229  37.578  1.00  0.00     0.198 A 
ATOM     80  C   UNL A   1      39.665  33.961  37.022  1.00  0.00     0.198 A 
ATOM     81  F   UNL A   1      41.003  33.763  35.098  1.00  0.00    -0.203 F 
ATOM     82  F   UNL A   1      37.129  31.752  38.366  1.00  0.00    -0.200 F 
ATOM     83  C   UNL A   1      38.682  33.457  37.859  1.00  0.00     0.200 A 
ATOM     84  F   UNL A   1      40.239  35.140  37.297  1.00  0.00    -0.200 F 
ATOM     85  F   UNL A   1      38.289  34.156  38.931  1.00  0.00    -0.200 F 
ENDBRANCH  51  75
BRANCH  63  86
ATOM     86  C   UNL A   1      44.475  27.197  34.590  1.00  0.00     0.064 A 
ATOM     87  C   UNL A   1      45.719  27.806  34.804  1.00  0.00     0.173 A 
ATOM     88  C   UNL A   1      44.177  26.032  35.312  1.00  0.00     0.173 A 
ATOM     89  F   UNL A   1      46.054  28.913  34.126  1.00  0.00    -0.203 F 
ATOM     90  C   UNL A   1      46.634  27.263  35.703  1.00  0.00     0.198 A 
ATOM     91  C   UNL A   1      45.082  25.507  36.228  1.00  0.00     0.198 A 
ATOM     92  F   UNL A   1      42.995  25.418  35.147  1.00  0.00    -0.203 F 
ATOM     93  F   UNL A   1      47.829  27.845  35.872  1.00  0.00    -0.200 F 
ATOM     94  C   UNL A   1      46.311  26.122  36.421  1.00  0.00     0.200 A 
ATOM     95  F   UNL A   1      44.764  24.411  36.932  1.00  0.00    -0.200 F 
ATOM     96  F   UNL A   1      47.186  25.611  37.299  1.00  0.00    -0.200 F 
ENDBRANCH  63  86
ENDBRANCH  37  38
ENDBRANCH  30  32
ENDBRANCH  29  30
ENDBRANCH  28  29
ENDBRANCH  27  28
ENDBRANCH  26  27
ENDBRANCH  25  26
ENDBRANCH   1  25
TORSDOF 20
ENDMDL
MODEL 2
REMARK VINA RESULT:     -10.9      1.592      2.182
REMARK SMILES Cc1c(CC(=O)OCCOCCOCCOC(=O)c2ccc(-c3c4nc(c(-c5c(F)c(F)c(F)c(F)c5F)c5ccc([nH]5)c(-c5c(F)c(F)c(F)c(F)c5F)c5nc(c(-c6c(F)c(F)c(F)c(F)c6F)c6ccc3[nH]6)C=C5)C=C4)cc2)c(O)oc2cc(=O)cc(O)c1-2
REMARK SMILES IDX 11 1 10 2 9 3 8 4 7 5 5 6 6 7 4 8 3 9 1 10 2 11 92 12 82 13
REMARK SMILES IDX 85 14 90 15 84 16 86 17 89 18 87 19 88 20 83 21 91 23 12 25
REMARK SMILES IDX 13 26 14 27 15 28 16 29 17 30 18 31 19 32 20 33 81 34 21 35
REMARK SMILES IDX 80 36 22 37 23 38 24 39 74 40 25 41 79 42 73 43 75 44 26 45
REMARK SMILES IDX 78 46 72 47 71 48 27 50 59 51 39 52 58 53 40 54 43 55 57 56
REMARK SMILES IDX 76 57 41 58 42 59 56 61 77 62 44 63 28 64 29 65 37 66 30 67
REMARK SMILES IDX 31 68 35 69 38 70 32 71 33 72 36 73 34 74 60 75 61 76 69 77
REMARK SMILES IDX 62 78 63 79 67 80 70 81 64 82 65 83 68 84 66 85 45 86 46 87
REMARK SMILES IDX 54 88 47 89 48 90 52 91 55 92 49 93 50 94 53 95 51 96
REMARK H PARENT 83 22 91 24 75 49 43 60
REMARK Flexibility Score: inf
ROOT
ATOM      1  C   UNL A   1      33.622  26.130  25.218  1.00  0.00     0.188 C 
ENDROOT
BRANCH   1   2
ATOM      2  O   UNL A   1      33.730  26.286  23.810  1.00  0.00    -0.376 OA
BRANCH   2   3
ATOM      3  C   UNL A   1      32.568  26.664  23.085  1.00  0.00     0.202 C 
BRANCH   3   4
ATOM      4  C   UNL A   1      31.262  25.998  23.529  1.00  0.00     0.261 C 
BRANCH   4   5
ATOM      5  O   UNL A   1      30.994  24.759  22.831  1.00  0.00    -0.463 OA
BRANCH   5   6
ATOM      6  C   UNL A   1      31.257  23.614  23.508  1.00  0.00     0.310 C 
ATOM      7  O   UNL A   1      30.614  23.229  24.482  1.00  0.00    -0.252 OA
BRANCH   6   8
ATOM      8  C   UNL A   1      32.481  22.827  23.023  1.00  0.00     0.166 C 
BRANCH   8   9
ATOM      9  C   UNL A   1      32.527  21.310  23.152  1.00  0.00     0.048 A 
ATOM     10  C   UNL A   1      33.852  21.502  25.351  1.00  0.00     0.046 C 
ATOM     11  C   UNL A   1      33.041  20.654  24.395  1.00  0.00    -0.026 A 
ATOM     12  C   UNL A   1      32.850  19.313  24.581  1.00  0.00     0.063 A 
ATOM     13  C   UNL A   1      32.099  20.516  22.142  1.00  0.00     0.286 A 
ATOM     14  C   UNL A   1      32.443  18.507  23.416  1.00  0.00     0.146 A 
ATOM     15  C   UNL A   1      33.071  18.567  25.842  1.00  0.00     0.130 A 
ATOM     16  O   UNL A   1      32.081  19.142  22.245  1.00  0.00    -0.425 OA
ATOM     17  C   UNL A   1      32.517  17.170  23.423  1.00  0.00     0.100 A 
ATOM     18  C   UNL A   1      33.130  17.229  25.867  1.00  0.00     0.099 A 
ATOM     19  C   UNL A   1      32.941  16.444  24.632  1.00  0.00     0.186 A 
ATOM     20  O   UNL A   1      33.086  15.228  24.630  1.00  0.00    -0.290 OA
BRANCH  13  21
ATOM     21  O   UNL A   1      31.633  20.996  20.938  1.00  0.00    -0.480 OA
ATOM     22  H   UNL A   1      31.844  21.868  20.668  1.00  0.00     0.297 HD
ENDBRANCH  13  21
BRANCH  15  23
ATOM     23  O   UNL A   1      33.054  19.284  27.018  1.00  0.00    -0.507 OA
ATOM     24  H   UNL A   1      33.036  20.220  26.996  1.00  0.00     0.293 HD
ENDBRANCH  15  23
ENDBRANCH   8   9
ENDBRANCH   6   8
ENDBRANCH   5   6
ENDBRANCH   4   5
ENDBRANCH   3   4
ENDBRANCH   2   3
ENDBRANCH   1   2
BRANCH   1  25
ATOM     25  C   UNL A   1      33.432  27.380  26.099  1.00  0.00     0.188 C 
BRANCH  25  26
ATOM     26  O   UNL A   1      32.122  27.791  26.453  1.00  0.00    -0.376 OA
BRANCH  26  27
ATOM     27  C   UNL A   1      31.594  28.943  25.814  1.00  0.00     0.202 C 
BRANCH  27  28
ATOM     28  C   UNL A   1      32.464  30.196  25.918  1.00  0.00     0.261 C 
BRANCH  28  29
ATOM     29  O   UNL A   1      32.477  30.728  27.257  1.00  0.00    -0.460 OA
BRANCH  29  30
ATOM     30  C   UNL A   1      33.241  31.828  27.440  1.00  0.00     0.338 C 
ATOM     31  O   UNL A   1      32.896  32.999  27.432  1.00  0.00    -0.246 OA
BRANCH  30  32
ATOM     32  C   UNL A   1      34.619  31.434  27.771  1.00  0.00     0.060 A 
ATOM     33  C   UNL A   1      34.866  30.106  28.118  1.00  0.00     0.016 A 
ATOM     34  C   UNL A   1      35.602  32.404  27.956  1.00  0.00     0.016 A 
ATOM     35  C   UNL A   1      36.059  29.752  28.739  1.00  0.00     0.010 A 
ATOM     36  C   UNL A   1      36.825  32.037  28.530  1.00  0.00     0.010 A 
ATOM     37  C   UNL A   1      37.045  30.717  28.970  1.00  0.00    -0.014 A 
BRANCH  37  38
ATOM     38  C   UNL A   1      38.247  30.379  29.777  1.00  0.00     0.031 A 
ATOM     39  C   UNL A   1      39.299  29.477  29.191  1.00  0.00     0.074 A 
ATOM     40  C   UNL A   1      38.429  30.903  31.005  1.00  0.00     0.049 A 
ATOM     41  N   UNL A   1      40.311  28.888  29.777  1.00  0.00    -0.248 NA
ATOM     42  C   UNL A   1      39.200  29.200  27.749  1.00  0.00     0.031 C 
ATOM     43  C   UNL A   1      37.543  31.870  31.651  1.00  0.00     0.029 A 
ATOM     44  N   UNL A   1      39.425  30.694  31.926  1.00  0.00    -0.354 N 
ATOM     45  C   UNL A   1      40.930  28.130  28.793  1.00  0.00     0.074 A 
ATOM     46  C   UNL A   1      40.190  28.338  27.567  1.00  0.00     0.031 C 
ATOM     47  C   UNL A   1      38.041  32.181  32.859  1.00  0.00     0.029 A 
ATOM     48  C   UNL A   1      39.230  31.371  33.106  1.00  0.00     0.049 A 
ATOM     49  H   UNL A   1      40.203  30.115  31.759  1.00  0.00     0.167 HD
ATOM     50  C   UNL A   1      42.016  27.330  28.909  1.00  0.00     0.037 A 
ATOM     51  C   UNL A   1      39.901  31.305  34.272  1.00  0.00     0.037 A 
ATOM     52  C   UNL A   1      42.780  27.175  30.118  1.00  0.00     0.049 A 
ATOM     53  C   UNL A   1      41.064  30.357  34.398  1.00  0.00     0.074 A 
ATOM     54  C   UNL A   1      43.893  26.384  30.340  1.00  0.00     0.029 A 
ATOM     55  N   UNL A   1      42.518  27.841  31.306  1.00  0.00    -0.354 N 
ATOM     56  N   UNL A   1      41.593  29.575  33.490  1.00  0.00    -0.248 NA
ATOM     57  C   UNL A   1      41.705  30.264  35.718  1.00  0.00     0.031 C 
ATOM     58  C   UNL A   1      44.283  26.542  31.673  1.00  0.00     0.029 A 
ATOM     59  C   UNL A   1      43.439  27.465  32.269  1.00  0.00     0.049 A 
ATOM     60  H   UNL A   1      41.785  28.484  31.445  1.00  0.00     0.167 HD
ATOM     61  C   UNL A   1      42.631  28.903  34.122  1.00  0.00     0.074 A 
ATOM     62  C   UNL A   1      42.672  29.385  35.486  1.00  0.00     0.031 C 
ATOM     63  C   UNL A   1      43.467  27.963  33.620  1.00  0.00     0.037 A 
BRANCH  50  64
ATOM     64  C   UNL A   1      42.430  26.528  27.712  1.00  0.00     0.064 A 
ATOM     65  C   UNL A   1      43.348  27.015  26.773  1.00  0.00     0.173 A 
ATOM     66  C   UNL A   1      41.949  25.220  27.546  1.00  0.00     0.173 A 
ATOM     67  F   UNL A   1      43.825  28.263  26.880  1.00  0.00    -0.203 F 
ATOM     68  C   UNL A   1      43.764  26.223  25.704  1.00  0.00     0.198 A 
ATOM     69  C   UNL A   1      42.385  24.423  26.491  1.00  0.00     0.198 A 
ATOM     70  F   UNL A   1      41.069  24.706  28.420  1.00  0.00    -0.203 F 
ATOM     71  F   UNL A   1      44.624  26.717  24.802  1.00  0.00    -0.200 F 
ATOM     72  C   UNL A   1      43.291  24.926  25.570  1.00  0.00     0.200 A 
ATOM     73  F   UNL A   1      41.935  23.167  26.370  1.00  0.00    -0.200 F 
ATOM     74  F   UNL A   1      43.706  24.161  24.550  1.00  0.00    -0.200 F 
ENDBRANCH  50  64
BRANCH  51  75
ATOM     75  C   UNL A   1      39.448  32.117  35.433  1.00  0.00     0.064 A 
ATOM     76  C   UNL A   1      38.602  31.574  36.410  1.00  0.00     0.173 A 
ATOM     77  C   UNL A   1      39.854  33.450  35.592  1.00  0.00     0.173 A 
ATOM     78  F   UNL A   1      38.160  30.313  36.287  1.00  0.00    -0.203 F 
ATOM     79  C   UNL A   1      38.176  32.336  37.497  1.00  0.00     0.198 A 
ATOM     80  C   UNL A   1      39.455  34.201  36.695  1.00  0.00     0.198 A 
ATOM     81  F   UNL A   1      40.659  34.020  34.683  1.00  0.00    -0.203 F 
ATOM     82  F   UNL A   1      37.336  31.805  38.395  1.00  0.00    -0.200 F 
ATOM     83  C   UNL A   1      38.611  33.645  37.644  1.00  0.00     0.200 A 
ATOM     84  F   UNL A   1      39.889  35.460  36.839  1.00  0.00    -0.200 F 
ATOM     85  F   UNL A   1      38.211  34.372  38.695  1.00  0.00    -0.200 F 
ENDBRANCH  51  75
BRANCH  63  86
ATOM     86  C   UNL A   1      44.509  27.399  34.539  1.00  0.00     0.064 A 
ATOM     87  C   UNL A   1      44.276  26.229  35.275  1.00  0.00     0.173 A 
ATOM     88  C   UNL A   1      45.779  27.990  34.623  1.00  0.00     0.173 A 
ATOM     89  F   UNL A   1      43.073  25.636  35.237  1.00  0.00    -0.203 F 
ATOM     90  C   UNL A   1      45.275  25.676  36.071  1.00  0.00     0.198 A 
ATOM     91  C   UNL A   1      46.783  27.421  35.399  1.00  0.00     0.198 A 
ATOM     92  F   UNL A   1      46.052  29.107  33.931  1.00  0.00    -0.203 F 
ATOM     93  F   UNL A   1      45.023  24.572  36.789  1.00  0.00    -0.200 F 
ATOM     94  C   UNL A   1      46.529  26.266  36.125  1.00  0.00     0.200 A 
ATOM     95  F   UNL A   1      47.999  27.983  35.440  1.00  0.00    -0.200 F 
ATOM     96  F   UNL A   1      47.496  25.721  36.878  1.00  0.00    -0.200 F 
ENDBRANCH  63  86
ENDBRANCH  37  38
ENDBRANCH  30  32
ENDBRANCH  29  30
ENDBRANCH  28  29
ENDBRANCH  27  28
ENDBRANCH  26  27
ENDBRANCH  25  26
ENDBRANCH   1  25
TORSDOF 20
ENDMDL
MODEL 3
REMARK VINA RESULT:     -10.8      1.399      3.995
REMARK SMILES Cc1c(CC(=O)OCCOCCOCCOC(=O)c2ccc(-c3c4nc(c(-c5c(F)c(F)c(F)c(F)c5F)c5ccc([nH]5)c(-c5c(F)c(F)c(F)c(F)c5F)c5nc(c(-c6c(F)c(F)c(F)c(F)c6F)c6ccc3[nH]6)C=C5)C=C4)cc2)c(O)oc2cc(=O)cc(O)c1-2
REMARK SMILES IDX 11 1 10 2 9 3 8 4 7 5 5 6 6 7 4 8 3 9 1 10 2 11 92 12 82 13
REMARK SMILES IDX 85 14 90 15 84 16 86 17 89 18 87 19 88 20 83 21 91 23 12 25
REMARK SMILES IDX 13 26 14 27 15 28 16 29 17 30 18 31 19 32 20 33 81 34 21 35
REMARK SMILES IDX 80 36 22 37 23 38 24 39 74 40 25 41 79 42 73 43 75 44 26 45
REMARK SMILES IDX 78 46 72 47 71 48 27 50 59 51 39 52 58 53 40 54 43 55 57 56
REMARK SMILES IDX 76 57 41 58 42 59 56 61 77 62 44 63 28 64 29 65 37 66 30 67
REMARK SMILES IDX 31 68 35 69 38 70 32 71 33 72 36 73 34 74 60 75 61 76 69 77
REMARK SMILES IDX 62 78 63 79 67 80 70 81 64 82 65 83 68 84 66 85 45 86 46 87
REMARK SMILES IDX 54 88 47 89 48 90 52 91 55 92 49 93 50 94 53 95 51 96
REMARK H PARENT 83 22 91 24 75 49 43 60
REMARK Flexibility Score: inf
ROOT
ATOM      1  C   UNL A   1      31.833  26.692  27.104  1.00  0.00     0.188 C 
ENDROOT
BRANCH   1   2
ATOM      2  O   UNL A   1      31.260  25.557  26.469  1.00  0.00    -0.376 OA
BRANCH   2   3
ATOM      3  C   UNL A   1      31.759  24.272  26.810  1.00  0.00     0.202 C 
BRANCH   3   4
ATOM      4  C   UNL A   1      33.083  23.877  26.149  1.00  0.00     0.261 C 
BRANCH   4   5
ATOM      5  O   UNL A   1      32.970  23.709  24.716  1.00  0.00    -0.463 OA
BRANCH   5   6
ATOM      6  C   UNL A   1      33.519  24.682  23.947  1.00  0.00     0.310 C 
ATOM      7  O   UNL A   1      34.593  25.226  24.190  1.00  0.00    -0.252 OA
BRANCH   6   8
ATOM      8  C   UNL A   1      32.670  25.134  22.752  1.00  0.00     0.166 C 
BRANCH   8   9
ATOM      9  C   UNL A   1      31.432  25.997  22.964  1.00  0.00     0.048 A 
ATOM     10  C   UNL A   1      32.804  28.132  22.536  1.00  0.00     0.046 C 
ATOM     11  C   UNL A   1      31.453  27.464  22.675  1.00  0.00    -0.026 A 
ATOM     12  C   UNL A   1      30.279  28.165  22.641  1.00  0.00     0.063 A 
ATOM     13  C   UNL A   1      30.278  25.452  23.416  1.00  0.00     0.286 A 
ATOM     14  C   UNL A   1      29.079  27.524  23.210  1.00  0.00     0.146 A 
ATOM     15  C   UNL A   1      30.101  29.545  22.134  1.00  0.00     0.130 A 
ATOM     16  O   UNL A   1      29.127  26.193  23.572  1.00  0.00    -0.425 OA
ATOM     17  C   UNL A   1      27.972  28.224  23.488  1.00  0.00     0.100 A 
ATOM     18  C   UNL A   1      28.992  30.251  22.390  1.00  0.00     0.099 A 
ATOM     19  C   UNL A   1      27.884  29.659  23.165  1.00  0.00     0.186 A 
ATOM     20  O   UNL A   1      26.908  30.327  23.483  1.00  0.00    -0.290 OA
BRANCH  13  21
ATOM     21  O   UNL A   1      30.139  24.122  23.747  1.00  0.00    -0.480 OA
ATOM     22  H   UNL A   1      29.413  23.841  24.268  1.00  0.00     0.297 HD
ENDBRANCH  13  21
BRANCH  15  23
ATOM     23  O   UNL A   1      31.044  30.028  21.254  1.00  0.00    -0.507 OA
ATOM     24  H   UNL A   1      30.972  29.838  20.340  1.00  0.00     0.293 HD
ENDBRANCH  15  23
ENDBRANCH   8   9
ENDBRANCH   6   8
ENDBRANCH   5   6
ENDBRANCH   4   5
ENDBRANCH   3   4
ENDBRANCH   2   3
ENDBRANCH   1   2
BRANCH   1  25
ATOM     25  C   UNL A   1      32.249  27.902  26.246  1.00  0.00     0.188 C 
BRANCH  25  26
ATOM     26  O   UNL A   1      31.248  28.700  25.634  1.00  0.00    -0.376 OA
BRANCH  26  27
ATOM     27  C   UNL A   1      31.424  30.109  25.648  1.00  0.00     0.202 C 
BRANCH  27  28
ATOM     28  C   UNL A   1      32.130  30.660  26.887  1.00  0.00     0.261 C 
BRANCH  28  29
ATOM     29  O   UNL A   1      33.273  31.464  26.537  1.00  0.00    -0.460 OA
BRANCH  29  30
ATOM     30  C   UNL A   1      33.791  32.209  27.539  1.00  0.00     0.338 C 
ATOM     31  O   UNL A   1      33.257  33.111  28.165  1.00  0.00    -0.246 OA
BRANCH  30  32
ATOM     32  C   UNL A   1      35.133  31.719  27.890  1.00  0.00     0.060 A 
ATOM     33  C   UNL A   1      35.279  30.377  28.242  1.00  0.00     0.016 A 
ATOM     34  C   UNL A   1      36.179  32.616  28.090  1.00  0.00     0.016 A 
ATOM     35  C   UNL A   1      36.434  29.940  28.882  1.00  0.00     0.010 A 
ATOM     36  C   UNL A   1      37.364  32.164  28.682  1.00  0.00     0.010 A 
ATOM     37  C   UNL A   1      37.483  30.832  29.126  1.00  0.00    -0.014 A 
BRANCH  37  38
ATOM     38  C   UNL A   1      38.646  30.411  29.951  1.00  0.00     0.031 A 
ATOM     39  C   UNL A   1      39.675  29.488  29.357  1.00  0.00     0.074 A 
ATOM     40  C   UNL A   1      38.814  30.878  31.203  1.00  0.00     0.049 A 
ATOM     41  N   UNL A   1      40.643  28.833  29.947  1.00  0.00    -0.248 NA
ATOM     42  C   UNL A   1      39.606  29.273  27.904  1.00  0.00     0.031 C 
ATOM     43  C   UNL A   1      37.952  31.857  31.865  1.00  0.00     0.029 A 
ATOM     44  N   UNL A   1      39.774  30.590  32.143  1.00  0.00    -0.354 N 
ATOM     45  C   UNL A   1      41.259  28.088  28.950  1.00  0.00     0.074 A 
ATOM     46  C   UNL A   1      40.564  28.376  27.714  1.00  0.00     0.031 C 
ATOM     47  C   UNL A   1      38.427  32.098  33.096  1.00  0.00     0.029 A 
ATOM     48  C   UNL A   1      39.574  31.228  33.343  1.00  0.00     0.049 A 
ATOM     49  H   UNL A   1      40.530  29.984  31.973  1.00  0.00     0.167 HD
ATOM     50  C   UNL A   1      42.305  27.238  29.063  1.00  0.00     0.037 A 
ATOM     51  C   UNL A   1      40.207  31.086  34.523  1.00  0.00     0.037 A 
ATOM     52  C   UNL A   1      43.027  27.002  30.285  1.00  0.00     0.049 A 
ATOM     53  C   UNL A   1      41.325  30.085  34.642  1.00  0.00     0.074 A 
ATOM     54  C   UNL A   1      44.099  26.155  30.505  1.00  0.00     0.029 A 
ATOM     55  N   UNL A   1      42.759  27.631  31.491  1.00  0.00    -0.354 N 
ATOM     56  N   UNL A   1      41.847  29.317  33.718  1.00  0.00    -0.248 NA
ATOM     57  C   UNL A   1      41.923  29.912  35.974  1.00  0.00     0.031 C 
ATOM     58  C   UNL A   1      44.457  26.244  31.853  1.00  0.00     0.029 A 
ATOM     59  C   UNL A   1      43.636  27.178  32.463  1.00  0.00     0.049 A 
ATOM     60  H   UNL A   1      42.051  28.300  31.636  1.00  0.00     0.167 HD
ATOM     61  C   UNL A   1      42.836  28.576  34.350  1.00  0.00     0.074 A 
ATOM     62  C   UNL A   1      42.858  29.002  35.733  1.00  0.00     0.031 C 
ATOM     63  C   UNL A   1      43.646  27.621  33.833  1.00  0.00     0.037 A 
BRANCH  50  64
ATOM     64  C   UNL A   1      42.720  26.465  27.846  1.00  0.00     0.064 A 
ATOM     65  C   UNL A   1      43.670  26.957  26.942  1.00  0.00     0.173 A 
ATOM     66  C   UNL A   1      42.204  25.179  27.624  1.00  0.00     0.173 A 
ATOM     67  F   UNL A   1      44.182  28.187  27.103  1.00  0.00    -0.203 F 
ATOM     68  C   UNL A   1      44.084  26.192  25.854  1.00  0.00     0.198 A 
ATOM     69  C   UNL A   1      42.637  24.407  26.550  1.00  0.00     0.198 A 
ATOM     70  F   UNL A   1      41.292  24.662  28.463  1.00  0.00    -0.203 F 
ATOM     71  F   UNL A   1      44.975  26.691  24.986  1.00  0.00    -0.200 F 
ATOM     72  C   UNL A   1      43.576  24.915  25.665  1.00  0.00     0.200 A 
ATOM     73  F   UNL A   1      42.153  23.170  26.376  1.00  0.00    -0.200 F 
ATOM     74  F   UNL A   1      43.988  24.175  24.627  1.00  0.00    -0.200 F 
ENDBRANCH  50  64
BRANCH  51  75
ATOM     75  C   UNL A   1      39.755  31.871  35.703  1.00  0.00     0.064 A 
ATOM     76  C   UNL A   1      40.390  33.067  36.064  1.00  0.00     0.173 A 
ATOM     77  C   UNL A   1      38.677  31.443  36.493  1.00  0.00     0.173 A 
ATOM     78  F   UNL A   1      41.445  33.503  35.359  1.00  0.00    -0.203 F 
ATOM     79  C   UNL A   1      39.967  33.801  37.170  1.00  0.00     0.198 A 
ATOM     80  C   UNL A   1      38.235  32.193  37.580  1.00  0.00     0.198 A 
ATOM     81  F   UNL A   1      38.038  30.302  36.196  1.00  0.00    -0.203 F 
ATOM     82  F   UNL A   1      40.617  34.921  37.516  1.00  0.00    -0.200 F 
ATOM     83  C   UNL A   1      38.885  33.369  37.921  1.00  0.00     0.200 A 
ATOM     84  F   UNL A   1      37.179  31.779  38.293  1.00  0.00    -0.200 F 
ATOM     85  F   UNL A   1      38.472  34.082  38.978  1.00  0.00    -0.200 F 
ENDBRANCH  51  75
BRANCH  63  86
ATOM     86  C   UNL A   1      44.636  26.977  34.757  1.00  0.00     0.064 A 
ATOM     87  C   UNL A   1      44.348  25.768  35.406  1.00  0.00     0.173 A 
ATOM     88  C   UNL A   1      45.912  27.532  34.931  1.00  0.00     0.173 A 
ATOM     89  F   UNL A   1      43.137  25.207  35.280  1.00  0.00    -0.203 F 
ATOM     90  C   UNL A   1      45.301  25.143  36.206  1.00  0.00     0.198 A 
ATOM     91  C   UNL A   1      46.871  26.892  35.710  1.00  0.00     0.198 A 
ATOM     92  F   UNL A   1      46.237  28.684  34.323  1.00  0.00    -0.203 F 
ATOM     93  F   UNL A   1      44.996  24.003  36.840  1.00  0.00    -0.200 F 
ATOM     94  C   UNL A   1      46.563  25.700  36.349  1.00  0.00     0.200 A 
ATOM     95  F   UNL A   1      48.095  27.423  35.836  1.00  0.00    -0.200 F 
ATOM     96  F   UNL A   1      47.485  25.087  37.105  1.00  0.00    -0.200 F 
ENDBRANCH  63  86
ENDBRANCH  37  38
ENDBRANCH  30  32
ENDBRANCH  29  30
ENDBRANCH  28  29
ENDBRANCH  27  28
ENDBRANCH  26  27
ENDBRANCH  25  26
ENDBRANCH   1  25
TORSDOF 20
ENDMDL
