MODEL 1
REMARK VINA RESULT:     -12.7      0.000      0.000
REMARK SMILES Cc1[nH]c2ccccc2c1[C@H](C(=O)OCCOCCOCCOC(=O)c1ccc(-c2c3nc(c(-c4c(F)c(F)c(F)c(F)c4F)c4ccc([nH]4)c(-c4c(F)c(F)c(F)c(F)c4F)c4nc(c(-c5c(F)c(F)c(F)c(F)c5F)c5ccc2[nH]5)C=C4)C=C3)cc1)[NH+]1CCN(C(=O)c2ccco2)CC1
REMARK SMILES IDX 18 1 17 2 16 3 15 4 14 5 12 6 13 7 11 8 10 9 1 10 2 11 3 12
REMARK SMILES IDX 4 13 9 15 5 16 8 17 6 18 7 19 89 20 90 21 101 22 91 24
REMARK SMILES IDX 100 25 92 26 93 27 94 28 95 29 96 30 99 31 97 32 98 33 19 34
REMARK SMILES IDX 20 35 21 36 22 37 23 38 24 39 25 40 26 41 27 42 88 43 28 44
REMARK SMILES IDX 87 45 29 46 30 47 31 48 81 49 32 50 86 51 80 52 82 53 33 54
REMARK SMILES IDX 85 55 79 56 78 57 34 59 66 60 46 61 65 62 47 63 50 64 64 65
REMARK SMILES IDX 83 66 48 67 49 68 63 70 84 71 51 72 35 73 36 74 44 75 37 76
REMARK SMILES IDX 38 77 42 78 45 79 39 80 40 81 43 82 41 83 67 84 68 85 76 86
REMARK SMILES IDX 69 87 70 88 74 89 77 90 71 91 72 92 75 93 73 94 52 95 53 96
REMARK SMILES IDX 61 97 54 98 55 99 59 100 62 101 56 102 57 103 60 104 58 105
REMARK H PARENT 3 14 89 23 82 58 50 69
REMARK Flexibility Score: inf
ROOT
ATOM      1  C   UNL A   1      40.429  21.618  27.213  1.00  0.00     0.188 C 
ENDROOT
BRANCH   1   2
ATOM      2  O   UNL A   1      39.615  22.176  26.196  1.00  0.00    -0.376 OA
BRANCH   2   3
ATOM      3  C   UNL A   1      38.450  21.503  25.743  1.00  0.00     0.202 C 
BRANCH   3   4
ATOM      4  C   UNL A   1      37.549  22.270  24.780  1.00  0.00     0.261 C 
BRANCH   4   5
ATOM      5  O   UNL A   1      36.409  22.849  25.448  1.00  0.00    -0.459 OA
BRANCH   5   6
ATOM      6  C   UNL A   1      35.258  22.950  24.746  1.00  0.00     0.370 C 
ATOM      7  O   UNL A   1      35.062  22.385  23.672  1.00  0.00    -0.245 OA
BRANCH   6   8
ATOM      8  C   UNL A   1      34.254  23.953  25.308  1.00  0.00     0.328 C 
BRANCH   8   9
ATOM      9  C   UNL A   1      33.710  25.102  24.419  1.00  0.00     0.049 A 
ATOM     10  C   UNL A   1      33.145  24.182  21.965  1.00  0.00     0.065 C 
ATOM     11  C   UNL A   1      33.323  25.151  23.071  1.00  0.00     0.022 A 
ATOM     12  N   UNL A   1      33.076  26.456  22.733  1.00  0.00    -0.358 N 
ATOM     13  C   UNL A   1      33.224  27.284  23.800  1.00  0.00     0.046 A 
ATOM     14  H   UNL A   1      32.823  26.755  21.830  1.00  0.00     0.166 HD
ATOM     15  C   UNL A   1      33.633  26.493  24.869  1.00  0.00     0.009 A 
ATOM     16  C   UNL A   1      33.033  28.667  23.866  1.00  0.00     0.027 A 
ATOM     17  C   UNL A   1      33.887  27.159  26.090  1.00  0.00     0.011 A 
ATOM     18  C   UNL A   1      33.259  29.287  25.090  1.00  0.00     0.002 A 
ATOM     19  C   UNL A   1      33.685  28.546  26.188  1.00  0.00     0.001 A 
ENDBRANCH   8   9
BRANCH   8  20
ATOM     20  N   UNL A   1      33.176  23.263  26.080  1.00  0.00    -0.316 N 
ATOM     21  C   UNL A   1      31.926  23.010  25.359  1.00  0.00     0.285 C 
ATOM     22  C   UNL A   1      33.600  22.031  26.766  1.00  0.00     0.285 C 
ATOM     23  H   UNL A   1      32.973  23.974  26.782  1.00  0.00     0.349 HD
ATOM     24  C   UNL A   1      31.883  21.773  24.446  1.00  0.00     0.181 C 
ATOM     25  C   UNL A   1      33.554  20.683  26.001  1.00  0.00     0.181 C 
ATOM     26  N   UNL A   1      32.608  20.580  24.888  1.00  0.00    -0.325 N 
ATOM     27  C   UNL A   1      32.624  19.502  23.972  1.00  0.00     0.289 C 
ATOM     28  O   UNL A   1      32.146  19.662  22.845  1.00  0.00    -0.265 OA
BRANCH  27  29
ATOM     29  C   UNL A   1      33.181  18.216  24.369  1.00  0.00     0.191 A 
ATOM     30  C   UNL A   1      34.390  17.579  24.141  1.00  0.00     0.056 A 
ATOM     31  O   UNL A   1      32.451  17.454  25.253  1.00  0.00    -0.459 OA
ATOM     32  C   UNL A   1      34.388  16.384  24.904  1.00  0.00     0.043 A 
ATOM     33  C   UNL A   1      33.183  16.356  25.563  1.00  0.00     0.196 A 
ENDBRANCH  27  29
ENDBRANCH   8  20
ENDBRANCH   6   8
ENDBRANCH   5   6
ENDBRANCH   4   5
ENDBRANCH   3   4
ENDBRANCH   2   3
ENDBRANCH   1   2
BRANCH   1  34
ATOM     34  C   UNL A   1      41.731  20.876  26.867  1.00  0.00     0.188 C 
BRANCH  34  35
ATOM     35  O   UNL A   1      42.962  21.567  26.683  1.00  0.00    -0.376 OA
BRANCH  35  36
ATOM     36  C   UNL A   1      43.758  21.313  25.537  1.00  0.00     0.202 C 
BRANCH  36  37
ATOM     37  C   UNL A   1      43.931  22.454  24.538  1.00  0.00     0.261 C 
BRANCH  37  38
ATOM     38  O   UNL A   1      43.084  23.573  24.817  1.00  0.00    -0.460 OA
BRANCH  38  39
ATOM     39  C   UNL A   1      43.744  24.730  25.063  1.00  0.00     0.338 C 
ATOM     40  O   UNL A   1      44.809  25.090  24.602  1.00  0.00    -0.246 OA
BRANCH  39  41
ATOM     41  C   UNL A   1      42.897  25.606  25.895  1.00  0.00     0.060 A 
ATOM     42  C   UNL A   1      43.242  26.961  25.978  1.00  0.00     0.016 A 
ATOM     43  C   UNL A   1      41.826  25.093  26.631  1.00  0.00     0.016 A 
ATOM     44  C   UNL A   1      42.572  27.793  26.864  1.00  0.00     0.010 A 
ATOM     45  C   UNL A   1      41.162  25.925  27.532  1.00  0.00     0.010 A 
ATOM     46  C   UNL A   1      41.578  27.257  27.692  1.00  0.00    -0.014 A 
BRANCH  46  47
ATOM     47  C   UNL A   1      41.159  28.021  28.884  1.00  0.00     0.031 A 
ATOM     48  C   UNL A   1      41.953  27.844  30.148  1.00  0.00     0.074 A 
ATOM     49  C   UNL A   1      40.133  28.883  28.823  1.00  0.00     0.049 A 
ATOM     50  N   UNL A   1      41.770  28.376  31.330  1.00  0.00    -0.248 NA
ATOM     51  C   UNL A   1      43.113  26.939  30.071  1.00  0.00     0.031 C 
ATOM     52  C   UNL A   1      39.334  29.161  27.631  1.00  0.00     0.029 A 
ATOM     53  N   UNL A   1      39.587  29.680  29.793  1.00  0.00    -0.354 N 
ATOM     54  C   UNL A   1      42.781  27.863  32.132  1.00  0.00     0.074 A 
ATOM     55  C   UNL A   1      43.554  26.951  31.319  1.00  0.00     0.031 C 
ATOM     56  C   UNL A   1      38.390  30.065  27.944  1.00  0.00     0.029 A 
ATOM     57  C   UNL A   1      38.499  30.397  29.362  1.00  0.00     0.049 A 
ATOM     58  H   UNL A   1      39.941  29.735  30.710  1.00  0.00     0.167 HD
ATOM     59  C   UNL A   1      43.045  28.138  33.431  1.00  0.00     0.037 A 
ATOM     60  C   UNL A   1      37.678  31.211  30.052  1.00  0.00     0.037 A 
ATOM     61  C   UNL A   1      42.264  29.048  34.227  1.00  0.00     0.049 A 
ATOM     62  C   UNL A   1      37.952  31.447  31.516  1.00  0.00     0.074 A 
ATOM     63  C   UNL A   1      42.439  29.409  35.549  1.00  0.00     0.029 A 
ATOM     64  N   UNL A   1      41.148  29.734  33.767  1.00  0.00    -0.354 N 
ATOM     65  N   UNL A   1      38.916  30.973  32.268  1.00  0.00    -0.248 NA
ATOM     66  C   UNL A   1      37.027  32.342  32.221  1.00  0.00     0.031 C 
ATOM     67  C   UNL A   1      41.393  30.267  35.908  1.00  0.00     0.029 A 
ATOM     68  C   UNL A   1      40.608  30.498  34.788  1.00  0.00     0.049 A 
ATOM     69  H   UNL A   1      40.792  29.685  32.850  1.00  0.00     0.167 HD
ATOM     70  C   UNL A   1      38.735  31.536  33.525  1.00  0.00     0.074 A 
ATOM     71  C   UNL A   1      37.578  32.402  33.424  1.00  0.00     0.031 C 
ATOM     72  C   UNL A   1      39.455  31.355  34.661  1.00  0.00     0.037 A 
BRANCH  59  73
ATOM     73  C   UNL A   1      44.200  27.423  34.073  1.00  0.00     0.064 A 
ATOM     74  C   UNL A   1      45.495  27.963  34.088  1.00  0.00     0.173 A 
ATOM     75  C   UNL A   1      44.003  26.182  34.700  1.00  0.00     0.173 A 
ATOM     76  F   UNL A   1      45.744  29.137  33.489  1.00  0.00    -0.203 F 
ATOM     77  C   UNL A   1      46.553  27.277  34.680  1.00  0.00     0.198 A 
ATOM     78  C   UNL A   1      45.055  25.515  35.320  1.00  0.00     0.198 A 
ATOM     79  F   UNL A   1      42.786  25.617  34.715  1.00  0.00    -0.203 F 
ATOM     80  F   UNL A   1      47.792  27.787  34.634  1.00  0.00    -0.200 F 
ATOM     81  C   UNL A   1      46.331  26.058  35.303  1.00  0.00     0.200 A 
ATOM     82  F   UNL A   1      44.835  24.342  35.932  1.00  0.00    -0.200 F 
ATOM     83  F   UNL A   1      47.347  25.402  35.879  1.00  0.00    -0.200 F 
ENDBRANCH  59  73
BRANCH  60  84
ATOM     84  C   UNL A   1      36.524  31.853  29.372  1.00  0.00     0.064 A 
ATOM     85  C   UNL A   1      36.510  33.230  29.110  1.00  0.00     0.173 A 
ATOM     86  C   UNL A   1      35.403  31.105  28.979  1.00  0.00     0.173 A 
ATOM     87  F   UNL A   1      37.548  33.992  29.485  1.00  0.00    -0.203 F 
ATOM     88  C   UNL A   1      35.413  33.838  28.505  1.00  0.00     0.198 A 
ATOM     89  C   UNL A   1      34.321  31.708  28.342  1.00  0.00     0.198 A 
ATOM     90  F   UNL A   1      35.364  29.784  29.204  1.00  0.00    -0.203 F 
ATOM     91  F   UNL A   1      35.406  35.164  28.315  1.00  0.00    -0.200 F 
ATOM     92  C   UNL A   1      34.322  33.076  28.115  1.00  0.00     0.200 A 
ATOM     93  F   UNL A   1      33.276  30.965  27.952  1.00  0.00    -0.200 F 
ATOM     94  F   UNL A   1      33.270  33.660  27.527  1.00  0.00    -0.200 F 
ENDBRANCH  60  84
BRANCH  72  95
ATOM     95  C   UNL A   1      39.037  32.149  35.868  1.00  0.00     0.064 A 
ATOM     96  C   UNL A   1      38.232  31.597  36.875  1.00  0.00     0.173 A 
ATOM     97  C   UNL A   1      39.464  33.477  36.023  1.00  0.00     0.173 A 
ATOM     98  F   UNL A   1      37.787  30.336  36.770  1.00  0.00    -0.203 F 
ATOM     99  C   UNL A   1      37.829  32.362  37.968  1.00  0.00     0.198 A 
ATOM    100  C   UNL A   1      39.094  34.224  37.137  1.00  0.00     0.198 A 
ATOM    101  F   UNL A   1      40.248  34.050  35.097  1.00  0.00    -0.203 F 
ATOM    102  F   UNL A   1      36.999  31.837  38.879  1.00  0.00    -0.200 F 
ATOM    103  C   UNL A   1      38.264  33.671  38.101  1.00  0.00     0.200 A 
ATOM    104  F   UNL A   1      39.533  35.483  37.272  1.00  0.00    -0.200 F 
ATOM    105  F   UNL A   1      37.876  34.405  39.152  1.00  0.00    -0.200 F 
ENDBRANCH  72  95
ENDBRANCH  46  47
ENDBRANCH  39  41
ENDBRANCH  38  39
ENDBRANCH  37  38
ENDBRANCH  36  37
ENDBRANCH  35  36
ENDBRANCH  34  35
ENDBRANCH   1  34
TORSDOF 20
ENDMDL
MODEL 2
REMARK VINA RESULT:     -12.4      3.066      8.259
REMARK SMILES Cc1[nH]c2ccccc2c1[C@H](C(=O)OCCOCCOCCOC(=O)c1ccc(-c2c3nc(c(-c4c(F)c(F)c(F)c(F)c4F)c4ccc([nH]4)c(-c4c(F)c(F)c(F)c(F)c4F)c4nc(c(-c5c(F)c(F)c(F)c(F)c5F)c5ccc2[nH]5)C=C4)C=C3)cc1)[NH+]1CCN(C(=O)c2ccco2)CC1
REMARK SMILES IDX 18 1 17 2 16 3 15 4 14 5 12 6 13 7 11 8 10 9 1 10 2 11 3 12
REMARK SMILES IDX 4 13 9 15 5 16 8 17 6 18 7 19 89 20 90 21 101 22 91 24
REMARK SMILES IDX 100 25 92 26 93 27 94 28 95 29 96 30 99 31 97 32 98 33 19 34
REMARK SMILES IDX 20 35 21 36 22 37 23 38 24 39 25 40 26 41 27 42 88 43 28 44
REMARK SMILES IDX 87 45 29 46 30 47 31 48 81 49 32 50 86 51 80 52 82 53 33 54
REMARK SMILES IDX 85 55 79 56 78 57 34 59 66 60 46 61 65 62 47 63 50 64 64 65
REMARK SMILES IDX 83 66 48 67 49 68 63 70 84 71 51 72 35 73 36 74 44 75 37 76
REMARK SMILES IDX 38 77 42 78 45 79 39 80 40 81 43 82 41 83 67 84 68 85 76 86
REMARK SMILES IDX 69 87 70 88 74 89 77 90 71 91 72 92 75 93 73 94 52 95 53 96
REMARK SMILES IDX 61 97 54 98 55 99 59 100 62 101 56 102 57 103 60 104 58 105
REMARK H PARENT 3 14 89 23 82 58 50 69
REMARK Flexibility Score: inf
ROOT
ATOM      1  C   UNL A   1      30.971  27.952  24.532  1.00  0.00     0.188 C 
ENDROOT
BRANCH   1   2
ATOM      2  O   UNL A   1      31.011  27.186  23.340  1.00  0.00    -0.376 OA
BRANCH   2   3
ATOM      3  C   UNL A   1      31.975  27.454  22.333  1.00  0.00     0.202 C 
BRANCH   3   4
ATOM      4  C   UNL A   1      33.019  26.371  22.082  1.00  0.00     0.261 C 
BRANCH   4   5
ATOM      5  O   UNL A   1      32.623  25.097  22.631  1.00  0.00    -0.459 OA
BRANCH   5   6
ATOM      6  C   UNL A   1      33.368  24.017  22.305  1.00  0.00     0.370 C 
ATOM      7  O   UNL A   1      33.653  23.708  21.150  1.00  0.00    -0.245 OA
BRANCH   6   8
ATOM      8  C   UNL A   1      33.711  23.101  23.478  1.00  0.00     0.328 C 
BRANCH   8   9
ATOM      9  C   UNL A   1      34.752  23.543  24.540  1.00  0.00     0.049 A 
ATOM     10  C   UNL A   1      34.030  25.887  25.623  1.00  0.00     0.065 C 
ATOM     11  C   UNL A   1      34.858  24.692  25.339  1.00  0.00     0.022 A 
ATOM     12  N   UNL A   1      36.063  24.664  25.990  1.00  0.00    -0.358 N 
ATOM     13  C   UNL A   1      36.754  23.527  25.713  1.00  0.00     0.046 A 
ATOM     14  H   UNL A   1      36.388  25.378  26.585  1.00  0.00     0.166 HD
ATOM     15  C   UNL A   1      35.988  22.803  24.803  1.00  0.00     0.009 A 
ATOM     16  C   UNL A   1      37.998  23.118  26.201  1.00  0.00     0.027 A 
ATOM     17  C   UNL A   1      36.537  21.586  24.339  1.00  0.00     0.011 A 
ATOM     18  C   UNL A   1      38.494  21.900  25.751  1.00  0.00     0.002 A 
ATOM     19  C   UNL A   1      37.777  21.144  24.828  1.00  0.00     0.001 A 
ENDBRANCH   8   9
BRANCH   8  20
ATOM     20  N   UNL A   1      32.476  22.522  24.089  1.00  0.00    -0.316 N 
ATOM     21  C   UNL A   1      31.506  21.941  23.159  1.00  0.00     0.285 C 
ATOM     22  C   UNL A   1      32.718  21.578  25.193  1.00  0.00     0.285 C 
ATOM     23  H   UNL A   1      32.050  23.367  24.470  1.00  0.00     0.349 HD
ATOM     24  C   UNL A   1      31.778  20.508  22.670  1.00  0.00     0.181 C 
ATOM     25  C   UNL A   1      32.947  20.079  24.873  1.00  0.00     0.181 C 
ATOM     26  N   UNL A   1      32.378  19.570  23.622  1.00  0.00    -0.325 N 
ATOM     27  C   UNL A   1      32.701  18.296  23.101  1.00  0.00     0.289 C 
ATOM     28  O   UNL A   1      32.576  18.091  21.890  1.00  0.00    -0.265 OA
BRANCH  27  29
ATOM     29  C   UNL A   1      33.158  17.238  23.993  1.00  0.00     0.191 A 
ATOM     30  C   UNL A   1      34.364  16.577  24.163  1.00  0.00     0.056 A 
ATOM     31  O   UNL A   1      32.294  16.826  24.981  1.00  0.00    -0.459 OA
ATOM     32  C   UNL A   1      34.222  15.725  25.288  1.00  0.00     0.043 A 
ATOM     33  C   UNL A   1      32.942  15.915  25.750  1.00  0.00     0.196 A 
ENDBRANCH  27  29
ENDBRANCH   8  20
ENDBRANCH   6   8
ENDBRANCH   5   6
ENDBRANCH   4   5
ENDBRANCH   3   4
ENDBRANCH   2   3
ENDBRANCH   1   2
BRANCH   1  34
ATOM     34  C   UNL A   1      31.768  29.261  24.659  1.00  0.00     0.188 C 
BRANCH  34  35
ATOM     35  O   UNL A   1      31.253  30.388  25.359  1.00  0.00    -0.376 OA
BRANCH  35  36
ATOM     36  C   UNL A   1      31.822  30.780  26.598  1.00  0.00     0.202 C 
BRANCH  36  37
ATOM     37  C   UNL A   1      31.791  32.267  26.944  1.00  0.00     0.261 C 
BRANCH  37  38
ATOM     38  O   UNL A   1      33.072  32.893  26.830  1.00  0.00    -0.460 OA
BRANCH  38  39
ATOM     39  C   UNL A   1      33.602  33.306  28.005  1.00  0.00     0.338 C 
ATOM     40  O   UNL A   1      33.093  34.036  28.834  1.00  0.00    -0.246 OA
BRANCH  39  41
ATOM     41  C   UNL A   1      34.883  32.612  28.233  1.00  0.00     0.060 A 
ATOM     42  C   UNL A   1      34.855  31.218  28.373  1.00  0.00     0.016 A 
ATOM     43  C   UNL A   1      36.078  33.321  28.371  1.00  0.00     0.016 A 
ATOM     44  C   UNL A   1      36.007  30.536  28.739  1.00  0.00     0.010 A 
ATOM     45  C   UNL A   1      37.233  32.638  28.753  1.00  0.00     0.010 A 
ATOM     46  C   UNL A   1      37.180  31.256  28.997  1.00  0.00    -0.014 A 
BRANCH  46  47
ATOM     47  C   UNL A   1      38.262  30.600  29.758  1.00  0.00     0.031 A 
ATOM     48  C   UNL A   1      38.434  30.975  31.204  1.00  0.00     0.074 A 
ATOM     49  C   UNL A   1      39.034  29.663  29.187  1.00  0.00     0.049 A 
ATOM     50  N   UNL A   1      39.324  30.567  32.072  1.00  0.00    -0.248 NA
ATOM     51  C   UNL A   1      37.472  31.950  31.745  1.00  0.00     0.031 C 
ATOM     52  C   UNL A   1      38.912  29.195  27.808  1.00  0.00     0.029 A 
ATOM     53  N   UNL A   1      40.077  28.940  29.701  1.00  0.00    -0.354 N 
ATOM     54  C   UNL A   1      39.032  31.240  33.251  1.00  0.00     0.074 A 
ATOM     55  C   UNL A   1      37.910  32.110  32.983  1.00  0.00     0.031 C 
ATOM     56  C   UNL A   1      39.855  28.264  27.582  1.00  0.00     0.029 A 
ATOM     57  C   UNL A   1      40.663  28.101  28.788  1.00  0.00     0.049 A 
ATOM     58  H   UNL A   1      40.377  29.015  30.637  1.00  0.00     0.167 HD
ATOM     59  C   UNL A   1      39.644  31.131  34.453  1.00  0.00     0.037 A 
ATOM     60  C   UNL A   1      41.745  27.311  28.917  1.00  0.00     0.037 A 
ATOM     61  C   UNL A   1      40.763  30.261  34.703  1.00  0.00     0.049 A 
ATOM     62  C   UNL A   1      42.451  27.260  30.249  1.00  0.00     0.074 A 
ATOM     63  C   UNL A   1      41.459  30.063  35.880  1.00  0.00     0.029 A 
ATOM     64  N   UNL A   1      41.352  29.446  33.745  1.00  0.00    -0.354 N 
ATOM     65  N   UNL A   1      42.166  27.885  31.366  1.00  0.00    -0.248 NA
ATOM     66  C   UNL A   1      43.625  26.383  30.336  1.00  0.00     0.031 C 
ATOM     67  C   UNL A   1      42.509  29.174  35.620  1.00  0.00     0.029 A 
ATOM     68  C   UNL A   1      42.422  28.763  34.299  1.00  0.00     0.049 A 
ATOM     69  H   UNL A   1      41.054  29.366  32.810  1.00  0.00     0.167 HD
ATOM     70  C   UNL A   1      43.102  27.454  32.297  1.00  0.00     0.074 A 
ATOM     71  C   UNL A   1      43.951  26.498  31.615  1.00  0.00     0.031 C 
ATOM     72  C   UNL A   1      43.251  27.813  33.598  1.00  0.00     0.037 A 
BRANCH  59  73
ATOM     73  C   UNL A   1      39.139  31.998  35.573  1.00  0.00     0.064 A 
ATOM     74  C   UNL A   1      38.277  31.505  36.565  1.00  0.00     0.173 A 
ATOM     75  C   UNL A   1      39.537  33.341  35.663  1.00  0.00     0.173 A 
ATOM     76  F   UNL A   1      37.850  30.234  36.518  1.00  0.00    -0.203 F 
ATOM     77  C   UNL A   1      37.812  32.329  37.587  1.00  0.00     0.198 A 
ATOM     78  C   UNL A   1      39.098  34.153  36.704  1.00  0.00     0.198 A 
ATOM     79  F   UNL A   1      40.358  33.867  34.741  1.00  0.00    -0.203 F 
ATOM     80  F   UNL A   1      36.947  31.851  38.492  1.00  0.00    -0.200 F 
ATOM     81  C   UNL A   1      38.229  33.650  37.660  1.00  0.00     0.200 A 
ATOM     82  F   UNL A   1      39.512  35.426  36.779  1.00  0.00    -0.200 F 
ATOM     83  F   UNL A   1      37.787  34.440  38.648  1.00  0.00    -0.200 F 
ENDBRANCH  59  73
BRANCH  60  84
ATOM     84  C   UNL A   1      42.226  26.513  27.760  1.00  0.00     0.064 A 
ATOM     85  C   UNL A   1      43.240  26.993  26.920  1.00  0.00     0.173 A 
ATOM     86  C   UNL A   1      41.673  25.258  27.462  1.00  0.00     0.173 A 
ATOM     87  F   UNL A   1      43.786  28.196  27.149  1.00  0.00    -0.203 F 
ATOM     88  C   UNL A   1      43.666  26.261  25.813  1.00  0.00     0.198 A 
ATOM     89  C   UNL A   1      42.124  24.511  26.376  1.00  0.00     0.198 A 
ATOM     90  F   UNL A   1      40.702  24.750  28.234  1.00  0.00    -0.203 F 
ATOM     91  F   UNL A   1      44.600  26.767  24.998  1.00  0.00    -0.200 F 
ATOM     92  C   UNL A   1      43.113  25.017  25.546  1.00  0.00     0.200 A 
ATOM     93  F   UNL A   1      41.599  23.303  26.131  1.00  0.00    -0.200 F 
ATOM     94  F   UNL A   1      43.528  24.311  24.486  1.00  0.00    -0.200 F 
ENDBRANCH  60  84
BRANCH  72  95
ATOM     95  C   UNL A   1      44.342  27.130  34.374  1.00  0.00     0.064 A 
ATOM     96  C   UNL A   1      44.120  25.932  35.068  1.00  0.00     0.173 A 
ATOM     97  C   UNL A   1      45.634  27.679  34.409  1.00  0.00     0.173 A 
ATOM     98  F   UNL A   1      42.901  25.371  35.075  1.00  0.00    -0.203 F 
ATOM     99  C   UNL A   1      45.137  25.335  35.808  1.00  0.00     0.198 A 
ATOM    100  C   UNL A   1      46.658  27.057  35.117  1.00  0.00     0.198 A 
ATOM    101  F   UNL A   1      45.905  28.817  33.752  1.00  0.00    -0.203 F 
ATOM    102  F   UNL A   1      44.882  24.230  36.523  1.00  0.00    -0.200 F 
ATOM    103  C   UNL A   1      46.406  25.894  35.828  1.00  0.00     0.200 A 
ATOM    104  F   UNL A   1      47.888  27.590  35.117  1.00  0.00    -0.200 F 
ATOM    105  F   UNL A   1      47.383  25.319  36.541  1.00  0.00    -0.200 F 
ENDBRANCH  72  95
ENDBRANCH  46  47
ENDBRANCH  39  41
ENDBRANCH  38  39
ENDBRANCH  37  38
ENDBRANCH  36  37
ENDBRANCH  35  36
ENDBRANCH  34  35
ENDBRANCH   1  34
TORSDOF 20
ENDMDL
MODEL 3
REMARK VINA RESULT:     -12.4      4.969      9.945
REMARK SMILES Cc1[nH]c2ccccc2c1[C@H](C(=O)OCCOCCOCCOC(=O)c1ccc(-c2c3nc(c(-c4c(F)c(F)c(F)c(F)c4F)c4ccc([nH]4)c(-c4c(F)c(F)c(F)c(F)c4F)c4nc(c(-c5c(F)c(F)c(F)c(F)c5F)c5ccc2[nH]5)C=C4)C=C3)cc1)[NH+]1CCN(C(=O)c2ccco2)CC1
REMARK SMILES IDX 18 1 17 2 16 3 15 4 14 5 12 6 13 7 11 8 10 9 1 10 2 11 3 12
REMARK SMILES IDX 4 13 9 15 5 16 8 17 6 18 7 19 89 20 90 21 101 22 91 24
REMARK SMILES IDX 100 25 92 26 93 27 94 28 95 29 96 30 99 31 97 32 98 33 19 34
REMARK SMILES IDX 20 35 21 36 22 37 23 38 24 39 25 40 26 41 27 42 88 43 28 44
REMARK SMILES IDX 87 45 29 46 30 47 31 48 81 49 32 50 86 51 80 52 82 53 33 54
REMARK SMILES IDX 85 55 79 56 78 57 34 59 66 60 46 61 65 62 47 63 50 64 64 65
REMARK SMILES IDX 83 66 48 67 49 68 63 70 84 71 51 72 35 73 36 74 44 75 37 76
REMARK SMILES IDX 38 77 42 78 45 79 39 80 40 81 43 82 41 83 67 84 68 85 76 86
REMARK SMILES IDX 69 87 70 88 74 89 77 90 71 91 72 92 75 93 73 94 52 95 53 96
REMARK SMILES IDX 61 97 54 98 55 99 59 100 62 101 56 102 57 103 60 104 58 105
REMARK H PARENT 3 14 89 23 82 58 50 69
REMARK Flexibility Score: inf
ROOT
ATOM      1  C   UNL A   1      33.141  31.309  27.372  1.00  0.00     0.188 C 
ENDROOT
BRANCH   1   2
ATOM      2  O   UNL A   1      33.589  30.181  26.641  1.00  0.00    -0.376 OA
BRANCH   2   3
ATOM      3  C   UNL A   1      33.696  28.907  27.258  1.00  0.00     0.202 C 
BRANCH   3   4
ATOM      4  C   UNL A   1      32.388  28.180  27.554  1.00  0.00     0.261 C 
BRANCH   4   5
ATOM      5  O   UNL A   1      31.580  28.015  26.371  1.00  0.00    -0.459 OA
BRANCH   5   6
ATOM      6  C   UNL A   1      31.486  26.772  25.846  1.00  0.00     0.370 C 
ATOM      7  O   UNL A   1      31.217  25.771  26.506  1.00  0.00    -0.245 OA
BRANCH   6   8
ATOM      8  C   UNL A   1      31.895  26.669  24.378  1.00  0.00     0.328 C 
BRANCH   8   9
ATOM      9  C   UNL A   1      31.540  27.803  23.383  1.00  0.00     0.049 A 
ATOM     10  C   UNL A   1      33.778  28.881  22.372  1.00  0.00     0.065 C 
ATOM     11  C   UNL A   1      32.333  28.691  22.639  1.00  0.00     0.022 A 
ATOM     12  N   UNL A   1      31.515  29.613  22.040  1.00  0.00    -0.358 N 
ATOM     13  C   UNL A   1      30.205  29.360  22.297  1.00  0.00     0.046 A 
ATOM     14  H   UNL A   1      31.837  30.365  21.492  1.00  0.00     0.166 HD
ATOM     15  C   UNL A   1      30.167  28.253  23.141  1.00  0.00     0.009 A 
ATOM     16  C   UNL A   1      29.076  30.049  21.845  1.00  0.00     0.027 A 
ATOM     17  C   UNL A   1      28.890  27.830  23.575  1.00  0.00     0.011 A 
ATOM     18  C   UNL A   1      27.833  29.586  22.263  1.00  0.00     0.002 A 
ATOM     19  C   UNL A   1      27.739  28.493  23.120  1.00  0.00     0.001 A 
ENDBRANCH   8   9
BRANCH   8  20
ATOM     20  N   UNL A   1      33.311  26.207  24.244  1.00  0.00    -0.316 N 
ATOM     21  C   UNL A   1      34.029  25.954  25.495  1.00  0.00     0.285 C 
ATOM     22  C   UNL A   1      33.505  25.068  23.332  1.00  0.00     0.285 C 
ATOM     23  H   UNL A   1      33.731  27.036  23.825  1.00  0.00     0.349 HD
ATOM     24  C   UNL A   1      33.790  24.596  26.177  1.00  0.00     0.181 C 
ATOM     25  C   UNL A   1      33.362  23.625  23.880  1.00  0.00     0.181 C 
ATOM     26  N   UNL A   1      33.599  23.429  25.312  1.00  0.00    -0.325 N 
ATOM     27  C   UNL A   1      33.283  22.222  25.979  1.00  0.00     0.289 C 
ATOM     28  O   UNL A   1      33.075  22.242  27.196  1.00  0.00    -0.265 OA
BRANCH  27  29
ATOM     29  C   UNL A   1      33.224  20.971  25.233  1.00  0.00     0.191 A 
ATOM     30  C   UNL A   1      34.181  20.097  24.744  1.00  0.00     0.056 A 
ATOM     31  O   UNL A   1      31.982  20.417  25.022  1.00  0.00    -0.459 OA
ATOM     32  C   UNL A   1      33.494  18.978  24.207  1.00  0.00     0.043 A 
ATOM     33  C   UNL A   1      32.157  19.224  24.403  1.00  0.00     0.196 A 
ENDBRANCH  27  29
ENDBRANCH   8  20
ENDBRANCH   6   8
ENDBRANCH   5   6
ENDBRANCH   4   5
ENDBRANCH   3   4
ENDBRANCH   2   3
ENDBRANCH   1   2
BRANCH   1  34
ATOM     34  C   UNL A   1      34.140  32.280  28.024  1.00  0.00     0.188 C 
BRANCH  34  35
ATOM     35  O   UNL A   1      33.708  33.414  28.768  1.00  0.00    -0.376 OA
BRANCH  35  36
ATOM     36  C   UNL A   1      34.598  34.062  29.661  1.00  0.00     0.202 C 
BRANCH  36  37
ATOM     37  C   UNL A   1      34.407  33.799  31.153  1.00  0.00     0.261 C 
BRANCH  37  38
ATOM     38  O   UNL A   1      34.490  32.411  31.491  1.00  0.00    -0.460 OA
BRANCH  38  39
ATOM     39  C   UNL A   1      35.471  32.106  32.374  1.00  0.00     0.338 C 
ATOM     40  O   UNL A   1      35.531  32.405  33.550  1.00  0.00    -0.246 OA
BRANCH  39  41
ATOM     41  C   UNL A   1      36.440  31.198  31.730  1.00  0.00     0.060 A 
ATOM     42  C   UNL A   1      37.498  30.713  32.510  1.00  0.00     0.016 A 
ATOM     43  C   UNL A   1      36.348  30.883  30.373  1.00  0.00     0.016 A 
ATOM     44  C   UNL A   1      38.517  29.982  31.916  1.00  0.00     0.010 A 
ATOM     45  C   UNL A   1      37.378  30.161  29.772  1.00  0.00     0.010 A 
ATOM     46  C   UNL A   1      38.492  29.766  30.533  1.00  0.00    -0.014 A 
BRANCH  46  47
ATOM     47  C   UNL A   1      39.738  29.355  29.855  1.00  0.00     0.031 A 
ATOM     48  C   UNL A   1      40.843  30.368  29.738  1.00  0.00     0.074 A 
ATOM     49  C   UNL A   1      39.894  28.101  29.405  1.00  0.00     0.049 A 
ATOM     50  N   UNL A   1      42.014  30.263  29.165  1.00  0.00    -0.248 NA
ATOM     51  C   UNL A   1      40.590  31.684  30.349  1.00  0.00     0.031 C 
ATOM     52  C   UNL A   1      38.902  27.035  29.516  1.00  0.00     0.029 A 
ATOM     53  N   UNL A   1      40.951  27.518  28.758  1.00  0.00    -0.354 N 
ATOM     54  C   UNL A   1      42.628  31.497  29.339  1.00  0.00     0.074 A 
ATOM     55  C   UNL A   1      41.691  32.348  30.036  1.00  0.00     0.031 C 
ATOM     56  C   UNL A   1      39.396  25.922  28.947  1.00  0.00     0.029 A 
ATOM     57  C   UNL A   1      40.721  26.213  28.403  1.00  0.00     0.049 A 
ATOM     58  H   UNL A   1      41.795  27.989  28.567  1.00  0.00     0.167 HD
ATOM     59  C   UNL A   1      43.869  31.878  28.957  1.00  0.00     0.037 A 
ATOM     60  C   UNL A   1      41.493  25.365  27.697  1.00  0.00     0.037 A 
ATOM     61  C   UNL A   1      44.789  31.018  28.261  1.00  0.00     0.049 A 
ATOM     62  C   UNL A   1      42.844  25.838  27.223  1.00  0.00     0.074 A 
ATOM     63  C   UNL A   1      46.072  31.293  27.829  1.00  0.00     0.029 A 
ATOM     64  N   UNL A   1      44.511  29.710  27.888  1.00  0.00    -0.354 N 
ATOM     65  N   UNL A   1      43.428  26.999  27.400  1.00  0.00    -0.248 NA
ATOM     66  C   UNL A   1      43.645  24.874  26.458  1.00  0.00     0.031 C 
ATOM     67  C   UNL A   1      46.549  30.172  27.141  1.00  0.00     0.029 A 
ATOM     68  C   UNL A   1      45.591  29.172  27.207  1.00  0.00     0.049 A 
ATOM     69  H   UNL A   1      43.670  29.234  28.079  1.00  0.00     0.167 HD
ATOM     70  C   UNL A   1      44.676  26.896  26.800  1.00  0.00     0.074 A 
ATOM     71  C   UNL A   1      44.769  25.551  26.271  1.00  0.00     0.031 C 
ATOM     72  C   UNL A   1      45.659  27.827  26.692  1.00  0.00     0.037 A 
BRANCH  59  73
ATOM     73  C   UNL A   1      44.284  33.293  29.253  1.00  0.00     0.064 A 
ATOM     74  C   UNL A   1      44.904  33.649  30.461  1.00  0.00     0.173 A 
ATOM     75  C   UNL A   1      44.072  34.305  28.304  1.00  0.00     0.173 A 
ATOM     76  F   UNL A   1      45.115  32.725  31.410  1.00  0.00    -0.203 F 
ATOM     77  C   UNL A   1      45.270  34.969  30.718  1.00  0.00     0.198 A 
ATOM     78  C   UNL A   1      44.469  35.616  28.550  1.00  0.00     0.198 A 
ATOM     79  F   UNL A   1      43.482  34.023  27.133  1.00  0.00    -0.203 F 
ATOM     80  F   UNL A   1      45.811  35.294  31.900  1.00  0.00    -0.200 F 
ATOM     81  C   UNL A   1      45.060  35.949  29.760  1.00  0.00     0.200 A 
ATOM     82  F   UNL A   1      44.277  36.559  27.618  1.00  0.00    -0.200 F 
ATOM     83  F   UNL A   1      45.420  37.216  30.005  1.00  0.00    -0.200 F 
ENDBRANCH  59  73
BRANCH  60  84
ATOM     84  C   UNL A   1      41.007  23.994  27.395  1.00  0.00     0.064 A 
ATOM     85  C   UNL A   1      41.598  22.869  27.987  1.00  0.00     0.173 A 
ATOM     86  C   UNL A   1      39.949  23.778  26.499  1.00  0.00     0.173 A 
ATOM     87  F   UNL A   1      42.627  23.021  28.834  1.00  0.00    -0.203 F 
ATOM     88  C   UNL A   1      41.167  21.581  27.676  1.00  0.00     0.198 A 
ATOM     89  C   UNL A   1      39.496  22.491  26.216  1.00  0.00     0.198 A 
ATOM     90  F   UNL A   1      39.347  24.819  25.906  1.00  0.00    -0.203 F 
ATOM     91  F   UNL A   1      41.785  20.522  28.216  1.00  0.00    -0.200 F 
ATOM     92  C   UNL A   1      40.111  21.393  26.796  1.00  0.00     0.200 A 
ATOM     93  F   UNL A   1      38.465  22.316  25.378  1.00  0.00    -0.200 F 
ATOM     94  F   UNL A   1      39.693  20.155  26.503  1.00  0.00    -0.200 F 
ENDBRANCH  60  84
BRANCH  72  95
ATOM     95  C   UNL A   1      46.933  27.400  26.019  1.00  0.00     0.064 A 
ATOM     96  C   UNL A   1      47.132  27.561  24.640  1.00  0.00     0.173 A 
ATOM     97  C   UNL A   1      47.974  26.834  26.770  1.00  0.00     0.173 A 
ATOM     98  F   UNL A   1      46.165  28.087  23.873  1.00  0.00    -0.203 F 
ATOM     99  C   UNL A   1      48.308  27.127  24.032  1.00  0.00     0.198 A 
ATOM    100  C   UNL A   1      49.164  26.439  26.165  1.00  0.00     0.198 A 
ATOM    101  F   UNL A   1      47.842  26.668  28.095  1.00  0.00    -0.203 F 
ATOM    102  F   UNL A   1      48.447  27.224  22.702  1.00  0.00    -0.200 F 
ATOM    103  C   UNL A   1      49.324  26.572  24.794  1.00  0.00     0.200 A 
ATOM    104  F   UNL A   1      50.151  25.921  26.908  1.00  0.00    -0.200 F 
ATOM    105  F   UNL A   1      50.454  26.155  24.208  1.00  0.00    -0.200 F 
ENDBRANCH  72  95
ENDBRANCH  46  47
ENDBRANCH  39  41
ENDBRANCH  38  39
ENDBRANCH  37  38
ENDBRANCH  36  37
ENDBRANCH  35  36
ENDBRANCH  34  35
ENDBRANCH   1  34
TORSDOF 20
ENDMDL
