MODEL 1
REMARK VINA RESULT:     -13.2      0.000      0.000
REMARK SMILES Cc1ccc(-c2cc3cccnc3n2CCC(=O)OCCOCCOCCOC(=O)c2ccc(-c3c4nc(c(-c5c(F)c(F)c(F)c(F)c5F)c5ccc([nH]5)c(-c5c(F)c(F)c(F)c(F)c5F)c5nc(c(-c6c(F)c(F)c(F)c(F)c6F)c6ccc3[nH]6)C=C5)C=C4)cc2)cn1
REMARK SMILES IDX 23 1 22 2 21 3 20 4 19 5 17 6 18 7 16 8 15 9 14 10 6 11 7 12
REMARK SMILES IDX 8 13 13 14 9 15 12 16 10 17 11 18 5 19 1 20 2 21 3 22 95 23
REMARK SMILES IDX 4 24 94 25 24 26 25 27 26 28 27 29 28 30 29 31 30 32 31 33
REMARK SMILES IDX 32 34 93 35 33 36 92 37 34 38 35 39 36 40 86 41 37 42 91 43
REMARK SMILES IDX 85 44 87 45 38 46 90 47 84 48 83 49 39 51 71 52 51 53 70 54
REMARK SMILES IDX 52 55 55 56 69 57 88 58 53 59 54 60 68 62 89 63 56 64 40 65
REMARK SMILES IDX 41 66 49 67 42 68 43 69 47 70 50 71 44 72 45 73 48 74 46 75
REMARK SMILES IDX 72 76 73 77 81 78 74 79 75 80 79 81 82 82 76 83 77 84 80 85
REMARK SMILES IDX 78 86 57 87 58 88 66 89 59 90 60 91 64 92 67 93 61 94 62 95
REMARK SMILES IDX 65 96 63 97
REMARK H PARENT 87 50 55 61
REMARK Flexibility Score: inf
ROOT
ATOM      1  C   UNL A   1      34.532  34.048  28.196  1.00  0.00     0.188 C 
ENDROOT
BRANCH   1   2
ATOM      2  O   UNL A   1      34.251  32.728  27.487  1.00  0.00    -0.376 OA
BRANCH   2   3
ATOM      3  C   UNL A   1      33.366  30.937  27.466  1.00  0.00     0.202 C 
BRANCH   3   4
ATOM      4  C   UNL A   1      33.223  29.699  26.245  1.00  0.00     0.261 C 
BRANCH   4   5
ATOM      5  O   UNL A   1      32.038  28.872  26.066  1.00  0.00    -0.463 OA
BRANCH   5   6
ATOM      6  C   UNL A   1      31.744  27.912  26.975  1.00  0.00     0.307 C 
ATOM      7  O   UNL A   1      31.049  28.104  27.966  1.00  0.00    -0.252 OA
BRANCH   6   8
ATOM      8  C   UNL A   1      32.266  26.520  26.604  1.00  0.00     0.144 C 
BRANCH   8   9
ATOM      9  C   UNL A   1      32.769  26.247  25.178  1.00  0.00     0.136 C 
BRANCH   9  10
ATOM     10  N   UNL A   1      32.130  25.135  24.512  1.00  0.00    -0.325 N 
ATOM     11  C   UNL A   1      31.017  25.203  23.700  1.00  0.00     0.052 A 
ATOM     12  C   UNL A   1      30.874  23.949  23.125  1.00  0.00     0.039 A 
ATOM     13  C   UNL A   1      31.834  23.084  23.681  1.00  0.00     0.020 A 
ATOM     14  C   UNL A   1      32.570  23.832  24.590  1.00  0.00     0.140 A 
ATOM     15  C   UNL A   1      32.162  21.734  23.503  1.00  0.00     0.013 A 
ATOM     16  N   UNL A   1      33.565  23.377  25.381  1.00  0.00    -0.238 NA
ATOM     17  C   UNL A   1      33.172  21.215  24.303  1.00  0.00     0.021 A 
ATOM     18  C   UNL A   1      33.806  22.054  25.212  1.00  0.00     0.113 A 
BRANCH  11  19
ATOM     19  C   UNL A   1      30.205  26.388  23.386  1.00  0.00     0.017 A 
ATOM     20  C   UNL A   1      27.890  30.469  21.618  1.00  0.00     0.066 C 
ATOM     21  C   UNL A   1      28.607  29.427  22.418  1.00  0.00     0.037 A 
ATOM     22  C   UNL A   1      27.657  28.252  23.381  1.00  0.00     0.024 A 
ATOM     23  N   UNL A   1      30.277  29.161  21.990  1.00  0.00    -0.261 NA
ATOM     24  C   UNL A   1      28.459  26.704  23.874  1.00  0.00     0.014 A 
ATOM     25  C   UNL A   1      31.052  27.657  22.452  1.00  0.00     0.121 A 
ENDBRANCH  11  19
ENDBRANCH   9  10
ENDBRANCH   8   9
ENDBRANCH   6   8
ENDBRANCH   5   6
ENDBRANCH   4   5
ENDBRANCH   3   4
ENDBRANCH   2   3
ENDBRANCH   1   2
BRANCH   1  26
ATOM     26  C   UNL A   1      33.835  34.178  29.568  1.00  0.00     0.188 C 
BRANCH  26  27
ATOM     27  O   UNL A   1      34.559  34.783  30.641  1.00  0.00    -0.376 OA
BRANCH  27  28
ATOM     28  C   UNL A   1      34.839  34.011  31.810  1.00  0.00     0.202 C 
BRANCH  28  29
ATOM     29  C   UNL A   1      34.765  32.512  31.594  1.00  0.00     0.261 C 
BRANCH  29  30
ATOM     30  O   UNL A   1      36.081  32.002  31.762  1.00  0.00    -0.460 OA
BRANCH  30  31
ATOM     31  C   UNL A   1      36.284  30.799  31.182  1.00  0.00     0.338 C 
ATOM     32  O   UNL A   1      36.282  29.705  31.734  1.00  0.00    -0.246 OA
BRANCH  31  33
ATOM     33  C   UNL A   1      36.484  31.014  29.698  1.00  0.00     0.060 A 
ATOM     34  C   UNL A   1      36.436  29.782  29.050  1.00  0.00     0.016 A 
ATOM     35  C   UNL A   1      37.558  31.865  29.475  1.00  0.00     0.016 A 
ATOM     36  C   UNL A   1      37.639  29.130  28.941  1.00  0.00     0.010 A 
ATOM     37  C   UNL A   1      38.766  31.228  29.478  1.00  0.00     0.010 A 
ATOM     38  C   UNL A   1      38.782  29.838  29.316  1.00  0.00    -0.014 A 
BRANCH  38  39
ATOM     39  C   UNL A   1      40.045  29.150  29.352  1.00  0.00     0.031 A 
ATOM     40  C   UNL A   1      40.425  28.874  30.747  1.00  0.00     0.074 A 
ATOM     41  C   UNL A   1      40.710  28.724  28.266  1.00  0.00     0.049 A 
ATOM     42  N   UNL A   1      41.150  29.625  31.508  1.00  0.00    -0.248 NA
ATOM     43  C   UNL A   1      39.639  27.858  31.470  1.00  0.00     0.031 C 
ATOM     44  C   UNL A   1      40.297  28.694  26.865  1.00  0.00     0.029 A 
ATOM     45  N   UNL A   1      41.932  28.131  28.244  1.00  0.00    -0.354 N 
ATOM     46  C   UNL A   1      41.061  29.023  32.753  1.00  0.00     0.074 A 
ATOM     47  C   UNL A   1      39.866  28.231  32.729  1.00  0.00     0.031 C 
ATOM     48  C   UNL A   1      41.162  27.915  26.167  1.00  0.00     0.029 A 
ATOM     49  C   UNL A   1      42.241  27.498  27.045  1.00  0.00     0.049 A 
ATOM     50  H   UNL A   1      42.547  28.147  29.013  1.00  0.00     0.167 HD
ATOM     51  C   UNL A   1      42.155  28.890  33.547  1.00  0.00     0.037 A 
ATOM     52  C   UNL A   1      43.269  26.623  26.896  1.00  0.00     0.037 A 
ATOM     53  C   UNL A   1      43.227  29.742  33.094  1.00  0.00     0.049 A 
ATOM     54  C   UNL A   1      44.203  26.854  28.040  1.00  0.00     0.074 A 
ATOM     55  C   UNL A   1      43.369  31.105  32.920  1.00  0.00     0.029 A 
ATOM     56  N   UNL A   1      44.218  29.158  32.341  1.00  0.00    -0.354 N 
ATOM     57  N   UNL A   1      44.911  27.941  28.185  1.00  0.00    -0.248 NA
ATOM     58  C   UNL A   1      43.974  26.095  29.264  1.00  0.00     0.031 C 
ATOM     59  C   UNL A   1      44.144  31.253  31.733  1.00  0.00     0.029 A 
ATOM     60  C   UNL A   1      44.491  29.981  31.278  1.00  0.00     0.049 A 
ATOM     61  H   UNL A   1      44.656  28.297  32.532  1.00  0.00     0.167 HD
ATOM     62  C   UNL A   1      44.857  28.224  29.544  1.00  0.00     0.074 A 
ATOM     63  C   UNL A   1      44.325  27.016  30.167  1.00  0.00     0.031 C 
ATOM     64  C   UNL A   1      44.961  29.509  29.995  1.00  0.00     0.037 A 
BRANCH  51  65
ATOM     65  C   UNL A   1      42.378  27.709  34.460  1.00  0.00     0.064 A 
ATOM     66  C   UNL A   1      42.938  26.541  33.914  1.00  0.00     0.173 A 
ATOM     67  C   UNL A   1      41.858  27.574  35.769  1.00  0.00     0.173 A 
ATOM     68  F   UNL A   1      43.438  26.543  32.669  1.00  0.00    -0.203 F 
ATOM     69  C   UNL A   1      42.924  25.327  34.606  1.00  0.00     0.198 A 
ATOM     70  C   UNL A   1      41.907  26.381  36.480  1.00  0.00     0.198 A 
ATOM     71  F   UNL A   1      41.176  28.543  36.387  1.00  0.00    -0.203 F 
ATOM     72  F   UNL A   1      43.361  24.216  33.998  1.00  0.00    -0.200 F 
ATOM     73  C   UNL A   1      42.410  25.248  35.887  1.00  0.00     0.200 A 
ATOM     74  F   UNL A   1      41.384  26.330  37.713  1.00  0.00    -0.200 F 
ATOM     75  F   UNL A   1      42.353  24.076  36.531  1.00  0.00    -0.200 F 
ENDBRANCH  51  65
BRANCH  52  76
ATOM     76  C   UNL A   1      43.327  25.388  26.076  1.00  0.00     0.064 A 
ATOM     77  C   UNL A   1      44.456  25.097  25.290  1.00  0.00     0.173 A 
ATOM     78  C   UNL A   1      42.415  24.332  26.268  1.00  0.00     0.173 A 
ATOM     79  F   UNL A   1      45.398  26.031  25.092  1.00  0.00    -0.203 F 
ATOM     80  C   UNL A   1      44.677  23.820  24.762  1.00  0.00     0.198 A 
ATOM     81  C   UNL A   1      42.632  23.060  25.734  1.00  0.00     0.198 A 
ATOM     82  F   UNL A   1      41.344  24.481  27.061  1.00  0.00    -0.203 F 
ATOM     83  F   UNL A   1      45.800  23.564  24.077  1.00  0.00    -0.200 F 
ATOM     84  C   UNL A   1      43.770  22.800  24.995  1.00  0.00     0.200 A 
ATOM     85  F   UNL A   1      41.765  22.072  26.000  1.00  0.00    -0.200 F 
ATOM     86  F   UNL A   1      44.012  21.559  24.547  1.00  0.00    -0.200 F 
ENDBRANCH  52  76
BRANCH  64  87
ATOM     87  C   UNL A   1      45.383  30.563  29.007  1.00  0.00     0.064 A 
ATOM     88  C   UNL A   1      46.723  30.863  28.707  1.00  0.00     0.173 A 
ATOM     89  C   UNL A   1      44.395  31.164  28.219  1.00  0.00     0.173 A 
ATOM     90  F   UNL A   1      47.726  30.256  29.355  1.00  0.00    -0.203 F 
ATOM     91  C   UNL A   1      47.054  31.748  27.681  1.00  0.00     0.198 A 
ATOM     92  C   UNL A   1      44.728  32.019  27.171  1.00  0.00     0.198 A 
ATOM     93  F   UNL A   1      43.102  30.873  28.427  1.00  0.00    -0.203 F 
ATOM     94  F   UNL A   1      48.340  32.020  27.414  1.00  0.00    -0.200 F 
ATOM     95  C   UNL A   1      46.055  32.316  26.907  1.00  0.00     0.200 A 
ATOM     96  F   UNL A   1      43.762  32.525  26.394  1.00  0.00    -0.200 F 
ATOM     97  F   UNL A   1      46.373  33.126  25.887  1.00  0.00    -0.200 F 
ENDBRANCH  64  87
ENDBRANCH  38  39
ENDBRANCH  31  33
ENDBRANCH  30  31
ENDBRANCH  29  30
ENDBRANCH  28  29
ENDBRANCH  27  28
ENDBRANCH  26  27
ENDBRANCH   1  26
TORSDOF 20
ENDMDL
MODEL 2
REMARK VINA RESULT:     -13.2      1.109      3.390
REMARK SMILES Cc1ccc(-c2cc3cccnc3n2CCC(=O)OCCOCCOCCOC(=O)c2ccc(-c3c4nc(c(-c5c(F)c(F)c(F)c(F)c5F)c5ccc([nH]5)c(-c5c(F)c(F)c(F)c(F)c5F)c5nc(c(-c6c(F)c(F)c(F)c(F)c6F)c6ccc3[nH]6)C=C5)C=C4)cc2)cn1
REMARK SMILES IDX 23 1 22 2 21 3 20 4 19 5 17 6 18 7 16 8 15 9 14 10 6 11 7 12
REMARK SMILES IDX 8 13 13 14 9 15 12 16 10 17 11 18 5 19 1 20 2 21 3 22 95 23
REMARK SMILES IDX 4 24 94 25 24 26 25 27 26 28 27 29 28 30 29 31 30 32 31 33
REMARK SMILES IDX 32 34 93 35 33 36 92 37 34 38 35 39 36 40 86 41 37 42 91 43
REMARK SMILES IDX 85 44 87 45 38 46 90 47 84 48 83 49 39 51 71 52 51 53 70 54
REMARK SMILES IDX 52 55 55 56 69 57 88 58 53 59 54 60 68 62 89 63 56 64 40 65
REMARK SMILES IDX 41 66 49 67 42 68 43 69 47 70 50 71 44 72 45 73 48 74 46 75
REMARK SMILES IDX 72 76 73 77 81 78 74 79 75 80 79 81 82 82 76 83 77 84 80 85
REMARK SMILES IDX 78 86 57 87 58 88 66 89 59 90 60 91 64 92 67 93 61 94 62 95
REMARK SMILES IDX 65 96 63 97
REMARK H PARENT 87 50 55 61
REMARK Flexibility Score: inf
ROOT
ATOM      1  C   UNL A   1      33.273  34.601  28.364  1.00  0.00     0.188 C 
ENDROOT
BRANCH   1   2
ATOM      2  O   UNL A   1      32.182  33.775  27.693  1.00  0.00    -0.376 OA
BRANCH   2   3
ATOM      3  C   UNL A   1      31.600  32.081  26.809  1.00  0.00     0.202 C 
BRANCH   3   4
ATOM      4  C   UNL A   1      32.298  30.484  26.728  1.00  0.00     0.261 C 
BRANCH   4   5
ATOM      5  O   UNL A   1      31.675  29.362  26.041  1.00  0.00    -0.463 OA
BRANCH   5   6
ATOM      6  C   UNL A   1      32.450  28.400  25.484  1.00  0.00     0.307 C 
ATOM      7  O   UNL A   1      32.835  27.403  26.087  1.00  0.00    -0.252 OA
BRANCH   6   8
ATOM      8  C   UNL A   1      32.723  28.604  23.991  1.00  0.00     0.144 C 
BRANCH   8   9
ATOM      9  C   UNL A   1      32.019  27.712  22.957  1.00  0.00     0.136 C 
BRANCH   9  10
ATOM     10  N   UNL A   1      30.584  27.628  23.102  1.00  0.00    -0.325 N 
ATOM     11  C   UNL A   1      29.887  26.612  23.723  1.00  0.00     0.052 A 
ATOM     12  C   UNL A   1      28.568  27.035  23.804  1.00  0.00     0.039 A 
ATOM     13  C   UNL A   1      28.443  28.260  23.125  1.00  0.00     0.020 A 
ATOM     14  C   UNL A   1      29.704  28.583  22.642  1.00  0.00     0.140 A 
ATOM     15  C   UNL A   1      27.383  29.139  22.870  1.00  0.00     0.013 A 
ATOM     16  N   UNL A   1      30.022  29.658  21.890  1.00  0.00    -0.238 NA
ATOM     17  C   UNL A   1      27.657  30.257  22.090  1.00  0.00     0.021 A 
ATOM     18  C   UNL A   1      28.953  30.448  21.624  1.00  0.00     0.113 A 
BRANCH  11  19
ATOM     19  C   UNL A   1      30.429  25.378  24.309  1.00  0.00     0.017 A 
ATOM     20  C   UNL A   1      32.821  21.187  25.670  1.00  0.00     0.066 C 
ATOM     21  C   UNL A   1      31.840  22.255  25.302  1.00  0.00     0.037 A 
ATOM     22  C   UNL A   1      31.180  23.320  26.583  1.00  0.00     0.024 A 
ATOM     23  N   UNL A   1      31.770  22.666  23.607  1.00  0.00    -0.261 NA
ATOM     24  C   UNL A   1      30.465  24.910  26.088  1.00  0.00     0.014 A 
ATOM     25  C   UNL A   1      31.093  24.211  23.127  1.00  0.00     0.121 A 
ENDBRANCH  11  19
ENDBRANCH   9  10
ENDBRANCH   8   9
ENDBRANCH   6   8
ENDBRANCH   5   6
ENDBRANCH   4   5
ENDBRANCH   3   4
ENDBRANCH   2   3
ENDBRANCH   1   2
BRANCH   1  26
ATOM     26  C   UNL A   1      34.271  33.760  29.189  1.00  0.00     0.188 C 
BRANCH  26  27
ATOM     27  O   UNL A   1      34.035  33.610  30.590  1.00  0.00    -0.376 OA
BRANCH  27  28
ATOM     28  C   UNL A   1      35.094  33.893  31.506  1.00  0.00     0.202 C 
BRANCH  28  29
ATOM     29  C   UNL A   1      35.384  32.769  32.483  1.00  0.00     0.261 C 
BRANCH  29  30
ATOM     30  O   UNL A   1      35.423  31.564  31.732  1.00  0.00    -0.460 OA
BRANCH  30  31
ATOM     31  C   UNL A   1      36.656  31.224  31.298  1.00  0.00     0.338 C 
ATOM     32  O   UNL A   1      37.654  31.039  31.984  1.00  0.00    -0.246 OA
BRANCH  31  33
ATOM     33  C   UNL A   1      36.604  31.066  29.795  1.00  0.00     0.060 A 
ATOM     34  C   UNL A   1      36.492  29.712  29.484  1.00  0.00     0.016 A 
ATOM     35  C   UNL A   1      37.598  31.827  29.195  1.00  0.00     0.016 A 
ATOM     36  C   UNL A   1      37.682  29.045  29.339  1.00  0.00     0.010 A 
ATOM     37  C   UNL A   1      38.810  31.202  29.152  1.00  0.00     0.010 A 
ATOM     38  C   UNL A   1      38.847  29.814  29.334  1.00  0.00    -0.014 A 
BRANCH  38  39
ATOM     39  C   UNL A   1      40.122  29.147  29.326  1.00  0.00     0.031 A 
ATOM     40  C   UNL A   1      40.619  29.002  30.704  1.00  0.00     0.074 A 
ATOM     41  C   UNL A   1      40.704  28.633  28.230  1.00  0.00     0.049 A 
ATOM     42  N   UNL A   1      41.390  29.826  31.333  1.00  0.00    -0.248 NA
ATOM     43  C   UNL A   1      39.913  28.046  31.576  1.00  0.00     0.031 C 
ATOM     44  C   UNL A   1      40.179  28.473  26.877  1.00  0.00     0.029 A 
ATOM     45  N   UNL A   1      41.931  28.055  28.160  1.00  0.00    -0.354 N 
ATOM     46  C   UNL A   1      41.413  29.338  32.629  1.00  0.00     0.074 A 
ATOM     47  C   UNL A   1      40.235  28.532  32.774  1.00  0.00     0.031 C 
ATOM     48  C   UNL A   1      40.998  27.645  26.181  1.00  0.00     0.029 A 
ATOM     49  C   UNL A   1      42.154  27.321  27.001  1.00  0.00     0.049 A 
ATOM     50  H   UNL A   1      42.606  28.147  28.871  1.00  0.00     0.167 HD
ATOM     51  C   UNL A   1      42.570  29.289  33.339  1.00  0.00     0.037 A 
ATOM     52  C   UNL A   1      43.182  26.448  26.845  1.00  0.00     0.037 A 
ATOM     53  C   UNL A   1      43.586  30.108  32.725  1.00  0.00     0.049 A 
ATOM     54  C   UNL A   1      44.202  26.791  27.883  1.00  0.00     0.074 A 
ATOM     55  C   UNL A   1      43.687  31.452  32.420  1.00  0.00     0.029 A 
ATOM     56  N   UNL A   1      44.523  29.471  31.947  1.00  0.00    -0.354 N 
ATOM     57  N   UNL A   1      44.898  27.895  27.872  1.00  0.00    -0.248 NA
ATOM     58  C   UNL A   1      44.087  26.142  29.183  1.00  0.00     0.031 C 
ATOM     59  C   UNL A   1      44.360  31.503  31.165  1.00  0.00     0.029 A 
ATOM     60  C   UNL A   1      44.693  30.199  30.797  1.00  0.00     0.049 A 
ATOM     61  H   UNL A   1      44.991  28.636  32.176  1.00  0.00     0.167 HD
ATOM     62  C   UNL A   1      44.949  28.298  29.201  1.00  0.00     0.074 A 
ATOM     63  C   UNL A   1      44.493  27.144  29.969  1.00  0.00     0.031 C 
ATOM     64  C   UNL A   1      45.066  29.619  29.527  1.00  0.00     0.037 A 
BRANCH  51  65
ATOM     65  C   UNL A   1      42.889  28.196  34.331  1.00  0.00     0.064 A 
ATOM     66  C   UNL A   1      43.199  28.564  35.651  1.00  0.00     0.173 A 
ATOM     67  C   UNL A   1      43.142  26.843  34.005  1.00  0.00     0.173 A 
ATOM     68  F   UNL A   1      43.027  29.828  36.065  1.00  0.00    -0.203 F 
ATOM     69  C   UNL A   1      43.768  27.659  36.551  1.00  0.00     0.198 A 
ATOM     70  C   UNL A   1      43.645  25.928  34.924  1.00  0.00     0.198 A 
ATOM     71  F   UNL A   1      43.028  26.355  32.766  1.00  0.00    -0.203 F 
ATOM     72  F   UNL A   1      44.156  28.086  37.760  1.00  0.00    -0.200 F 
ATOM     73  C   UNL A   1      43.989  26.343  36.188  1.00  0.00     0.200 A 
ATOM     74  F   UNL A   1      43.866  24.664  34.537  1.00  0.00    -0.200 F 
ATOM     75  F   UNL A   1      44.577  25.488  37.033  1.00  0.00    -0.200 F 
ENDBRANCH  51  65
BRANCH  52  76
ATOM     76  C   UNL A   1      43.196  25.145  26.135  1.00  0.00     0.064 A 
ATOM     77  C   UNL A   1      44.189  24.854  25.183  1.00  0.00     0.173 A 
ATOM     78  C   UNL A   1      42.423  24.055  26.580  1.00  0.00     0.173 A 
ATOM     79  F   UNL A   1      45.001  25.824  24.737  1.00  0.00    -0.203 F 
ATOM     80  C   UNL A   1      44.418  23.549  24.733  1.00  0.00     0.198 A 
ATOM     81  C   UNL A   1      42.647  22.754  26.124  1.00  0.00     0.198 A 
ATOM     82  F   UNL A   1      41.501  24.209  27.540  1.00  0.00    -0.203 F 
ATOM     83  F   UNL A   1      45.420  23.302  23.877  1.00  0.00    -0.200 F 
ATOM     84  C   UNL A   1      43.655  22.499  25.213  1.00  0.00     0.200 A 
ATOM     85  F   UNL A   1      41.926  21.741  26.627  1.00  0.00    -0.200 F 
ATOM     86  F   UNL A   1      43.916  21.239  24.835  1.00  0.00    -0.200 F 
ENDBRANCH  52  76
BRANCH  64  87
ATOM     87  C   UNL A   1      45.386  30.585  28.418  1.00  0.00     0.064 A 
ATOM     88  C   UNL A   1      44.416  31.168  27.583  1.00  0.00     0.173 A 
ATOM     89  C   UNL A   1      46.698  31.061  28.312  1.00  0.00     0.173 A 
ATOM     90  F   UNL A   1      43.124  30.832  27.691  1.00  0.00    -0.203 F 
ATOM     91  C   UNL A   1      44.754  32.163  26.667  1.00  0.00     0.198 A 
ATOM     92  C   UNL A   1      47.026  32.080  27.422  1.00  0.00     0.198 A 
ATOM     93  F   UNL A   1      47.654  30.577  29.120  1.00  0.00    -0.203 F 
ATOM     94  F   UNL A   1      43.812  32.704  25.881  1.00  0.00    -0.200 F 
ATOM     95  C   UNL A   1      46.058  32.626  26.596  1.00  0.00     0.200 A 
ATOM     96  F   UNL A   1      48.278  32.559  27.393  1.00  0.00    -0.200 F 
ATOM     97  F   UNL A   1      46.375  33.619  25.752  1.00  0.00    -0.200 F 
ENDBRANCH  64  87
ENDBRANCH  38  39
ENDBRANCH  31  33
ENDBRANCH  30  31
ENDBRANCH  29  30
ENDBRANCH  28  29
ENDBRANCH  27  28
ENDBRANCH  26  27
ENDBRANCH   1  26
TORSDOF 20
ENDMDL
MODEL 3
REMARK VINA RESULT:     -12.4      2.826      5.065
REMARK SMILES Cc1ccc(-c2cc3cccnc3n2CCC(=O)OCCOCCOCCOC(=O)c2ccc(-c3c4nc(c(-c5c(F)c(F)c(F)c(F)c5F)c5ccc([nH]5)c(-c5c(F)c(F)c(F)c(F)c5F)c5nc(c(-c6c(F)c(F)c(F)c(F)c6F)c6ccc3[nH]6)C=C5)C=C4)cc2)cn1
REMARK SMILES IDX 23 1 22 2 21 3 20 4 19 5 17 6 18 7 16 8 15 9 14 10 6 11 7 12
REMARK SMILES IDX 8 13 13 14 9 15 12 16 10 17 11 18 5 19 1 20 2 21 3 22 95 23
REMARK SMILES IDX 4 24 94 25 24 26 25 27 26 28 27 29 28 30 29 31 30 32 31 33
REMARK SMILES IDX 32 34 93 35 33 36 92 37 34 38 35 39 36 40 86 41 37 42 91 43
REMARK SMILES IDX 85 44 87 45 38 46 90 47 84 48 83 49 39 51 71 52 51 53 70 54
REMARK SMILES IDX 52 55 55 56 69 57 88 58 53 59 54 60 68 62 89 63 56 64 40 65
REMARK SMILES IDX 41 66 49 67 42 68 43 69 47 70 50 71 44 72 45 73 48 74 46 75
REMARK SMILES IDX 72 76 73 77 81 78 74 79 75 80 79 81 82 82 76 83 77 84 80 85
REMARK SMILES IDX 78 86 57 87 58 88 66 89 59 90 60 91 64 92 67 93 61 94 62 95
REMARK SMILES IDX 65 96 63 97
REMARK H PARENT 87 50 55 61
REMARK Flexibility Score: inf
ROOT
ATOM      1  C   UNL A   1      34.143  33.846  30.121  1.00  0.00     0.188 C 
ENDROOT
BRANCH   1   2
ATOM      2  O   UNL A   1      34.752  33.294  28.837  1.00  0.00    -0.376 OA
BRANCH   2   3
ATOM      3  C   UNL A   1      35.007  31.777  27.563  1.00  0.00     0.202 C 
BRANCH   3   4
ATOM      4  C   UNL A   1      34.864  30.047  27.734  1.00  0.00     0.261 C 
BRANCH   4   5
ATOM      5  O   UNL A   1      34.968  29.112  26.623  1.00  0.00    -0.463 OA
BRANCH   5   6
ATOM      6  C   UNL A   1      33.857  28.488  26.163  1.00  0.00     0.307 C 
ATOM      7  O   UNL A   1      33.555  27.335  26.452  1.00  0.00    -0.252 OA
BRANCH   6   8
ATOM      8  C   UNL A   1      32.937  29.384  25.328  1.00  0.00     0.144 C 
BRANCH   8   9
ATOM      9  C   UNL A   1      31.412  29.227  25.437  1.00  0.00     0.136 C 
BRANCH   9  10
ATOM     10  N   UNL A   1      30.720  29.132  24.172  1.00  0.00    -0.325 N 
ATOM     11  C   UNL A   1      30.801  28.086  23.277  1.00  0.00     0.052 A 
ATOM     12  C   UNL A   1      29.834  28.321  22.311  1.00  0.00     0.039 A 
ATOM     13  C   UNL A   1      29.243  29.574  22.557  1.00  0.00     0.020 A 
ATOM     14  C   UNL A   1      29.855  30.090  23.692  1.00  0.00     0.140 A 
ATOM     15  C   UNL A   1      28.242  30.329  21.933  1.00  0.00     0.013 A 
ATOM     16  N   UNL A   1      29.619  31.297  24.248  1.00  0.00    -0.238 NA
ATOM     17  C   UNL A   1      27.970  31.585  22.463  1.00  0.00     0.021 A 
ATOM     18  C   UNL A   1      28.684  32.012  23.576  1.00  0.00     0.113 A 
BRANCH  11  19
ATOM     19  C   UNL A   1      31.643  26.885  23.373  1.00  0.00     0.017 A 
ATOM     20  C   UNL A   1      35.136  23.289  23.456  1.00  0.00     0.066 C 
ATOM     21  C   UNL A   1      33.924  24.144  23.259  1.00  0.00     0.037 A 
ATOM     22  C   UNL A   1      32.598  24.079  24.462  1.00  0.00     0.024 A 
ATOM     23  N   UNL A   1      34.103  25.459  22.125  1.00  0.00    -0.261 NA
ATOM     24  C   UNL A   1      31.437  25.469  24.530  1.00  0.00     0.014 A 
ATOM     25  C   UNL A   1      32.990  26.812  22.199  1.00  0.00     0.121 A 
ENDBRANCH  11  19
ENDBRANCH   9  10
ENDBRANCH   8   9
ENDBRANCH   6   8
ENDBRANCH   5   6
ENDBRANCH   4   5
ENDBRANCH   3   4
ENDBRANCH   2   3
ENDBRANCH   1   2
BRANCH   1  26
ATOM     26  C   UNL A   1      33.570  35.272  29.975  1.00  0.00     0.188 C 
BRANCH  26  27
ATOM     27  O   UNL A   1      32.490  35.660  30.825  1.00  0.00    -0.376 OA
BRANCH  27  28
ATOM     28  C   UNL A   1      32.709  35.736  32.234  1.00  0.00     0.202 C 
BRANCH  28  29
ATOM     29  C   UNL A   1      33.842  36.661  32.635  1.00  0.00     0.261 C 
BRANCH  29  30
ATOM     30  O   UNL A   1      34.503  36.057  33.738  1.00  0.00    -0.460 OA
BRANCH  30  31
ATOM     31  C   UNL A   1      35.463  35.172  33.389  1.00  0.00     0.338 C 
ATOM     32  O   UNL A   1      36.341  35.331  32.549  1.00  0.00    -0.246 OA
BRANCH  31  33
ATOM     33  C   UNL A   1      35.304  33.936  34.245  1.00  0.00     0.060 A 
ATOM     34  C   UNL A   1      36.366  33.866  35.145  1.00  0.00     0.016 A 
ATOM     35  C   UNL A   1      35.002  32.836  33.454  1.00  0.00     0.016 A 
ATOM     36  C   UNL A   1      37.474  33.197  34.690  1.00  0.00     0.010 A 
ATOM     37  C   UNL A   1      36.104  32.238  32.912  1.00  0.00     0.010 A 
ATOM     38  C   UNL A   1      37.354  32.515  33.478  1.00  0.00    -0.014 A 
BRANCH  38  39
ATOM     39  C   UNL A   1      38.527  31.919  32.896  1.00  0.00     0.031 A 
ATOM     40  C   UNL A   1      39.521  31.643  33.945  1.00  0.00     0.074 A 
ATOM     41  C   UNL A   1      38.638  31.564  31.606  1.00  0.00     0.049 A 
ATOM     42  N   UNL A   1      40.474  32.428  34.326  1.00  0.00    -0.248 NA
ATOM     43  C   UNL A   1      39.213  30.558  34.896  1.00  0.00     0.031 C 
ATOM     44  C   UNL A   1      37.628  31.533  30.551  1.00  0.00     0.029 A 
ATOM     45  N   UNL A   1      39.742  31.061  30.995  1.00  0.00    -0.354 N 
ATOM     46  C   UNL A   1      41.001  31.796  35.441  1.00  0.00     0.074 A 
ATOM     47  C   UNL A   1      39.974  30.920  35.927  1.00  0.00     0.031 C 
ATOM     48  C   UNL A   1      38.114  30.833  29.495  1.00  0.00     0.029 A 
ATOM     49  C   UNL A   1      39.498  30.477  29.758  1.00  0.00     0.049 A 
ATOM     50  H   UNL A   1      40.640  31.106  31.396  1.00  0.00     0.167 HD
ATOM     51  C   UNL A   1      42.344  31.726  35.637  1.00  0.00     0.037 A 
ATOM     52  C   UNL A   1      40.387  29.680  29.109  1.00  0.00     0.037 A 
ATOM     53  C   UNL A   1      43.038  32.661  34.787  1.00  0.00     0.049 A 
ATOM     54  C   UNL A   1      41.729  29.954  29.707  1.00  0.00     0.074 A 
ATOM     55  C   UNL A   1      43.009  34.034  34.637  1.00  0.00     0.029 A 
ATOM     56  N   UNL A   1      43.600  32.165  33.634  1.00  0.00    -0.354 N 
ATOM     57  N   UNL A   1      42.363  31.087  29.567  1.00  0.00    -0.248 NA
ATOM     58  C   UNL A   1      42.131  29.156  30.860  1.00  0.00     0.031 C 
ATOM     59  C   UNL A   1      43.141  34.262  33.236  1.00  0.00     0.029 A 
ATOM     60  C   UNL A   1      43.307  33.027  32.608  1.00  0.00     0.049 A 
ATOM     61  H   UNL A   1      44.123  31.334  33.558  1.00  0.00     0.167 HD
ATOM     62  C   UNL A   1      42.927  31.337  30.812  1.00  0.00     0.074 A 
ATOM     63  C   UNL A   1      42.808  30.081  31.547  1.00  0.00     0.031 C 
ATOM     64  C   UNL A   1      43.158  32.617  31.231  1.00  0.00     0.037 A 
BRANCH  51  65
ATOM     65  C   UNL A   1      43.026  30.545  36.284  1.00  0.00     0.064 A 
ATOM     66  C   UNL A   1      43.885  30.783  37.370  1.00  0.00     0.173 A 
ATOM     67  C   UNL A   1      43.073  29.234  35.753  1.00  0.00     0.173 A 
ATOM     68  F   UNL A   1      43.945  31.997  37.937  1.00  0.00    -0.203 F 
ATOM     69  C   UNL A   1      44.759  29.801  37.844  1.00  0.00     0.198 A 
ATOM     70  C   UNL A   1      43.895  28.240  36.271  1.00  0.00     0.198 A 
ATOM     71  F   UNL A   1      42.422  28.871  34.643  1.00  0.00    -0.203 F 
ATOM     72  F   UNL A   1      45.643  30.112  38.802  1.00  0.00    -0.200 F 
ATOM     73  C   UNL A   1      44.763  28.532  37.296  1.00  0.00     0.200 A 
ATOM     74  F   UNL A   1      43.891  27.024  35.707  1.00  0.00    -0.200 F 
ATOM     75  F   UNL A   1      45.632  27.606  37.718  1.00  0.00    -0.200 F 
ENDBRANCH  51  65
BRANCH  52  76
ATOM     76  C   UNL A   1      40.127  28.470  28.293  1.00  0.00     0.064 A 
ATOM     77  C   UNL A   1      40.763  28.287  27.052  1.00  0.00     0.173 A 
ATOM     78  C   UNL A   1      39.485  27.339  28.834  1.00  0.00     0.173 A 
ATOM     79  F   UNL A   1      41.437  29.299  26.485  1.00  0.00    -0.203 F 
ATOM     80  C   UNL A   1      40.788  27.043  26.412  1.00  0.00     0.198 A 
ATOM     81  C   UNL A   1      39.503  26.100  28.191  1.00  0.00     0.198 A 
ATOM     82  F   UNL A   1      38.912  27.385  30.045  1.00  0.00    -0.203 F 
ATOM     83  F   UNL A   1      41.465  26.893  25.265  1.00  0.00    -0.200 F 
ATOM     84  C   UNL A   1      40.168  25.948  26.988  1.00  0.00     0.200 A 
ATOM     85  F   UNL A   1      38.932  25.039  28.779  1.00  0.00    -0.200 F 
ATOM     86  F   UNL A   1      40.247  24.740  26.412  1.00  0.00    -0.200 F 
ENDBRANCH  52  76
BRANCH  64  87
ATOM     87  C   UNL A   1      43.018  33.718  30.215  1.00  0.00     0.064 A 
ATOM     88  C   UNL A   1      44.036  34.088  29.317  1.00  0.00     0.173 A 
ATOM     89  C   UNL A   1      41.757  34.297  30.034  1.00  0.00     0.173 A 
ATOM     90  F   UNL A   1      45.241  33.509  29.367  1.00  0.00    -0.203 F 
ATOM     91  C   UNL A   1      43.803  35.018  28.304  1.00  0.00     0.198 A 
ATOM     92  C   UNL A   1      41.517  35.197  29.000  1.00  0.00     0.198 A 
ATOM     93  F   UNL A   1      40.736  33.941  30.830  1.00  0.00    -0.203 F 
ATOM     94  F   UNL A   1      44.789  35.357  27.461  1.00  0.00    -0.200 F 
ATOM     95  C   UNL A   1      42.539  35.562  28.140  1.00  0.00     0.200 A 
ATOM     96  F   UNL A   1      40.281  35.681  28.815  1.00  0.00    -0.200 F 
ATOM     97  F   UNL A   1      42.300  36.416  27.134  1.00  0.00    -0.200 F 
ENDBRANCH  64  87
ENDBRANCH  38  39
ENDBRANCH  31  33
ENDBRANCH  30  31
ENDBRANCH  29  30
ENDBRANCH  28  29
ENDBRANCH  27  28
ENDBRANCH  26  27
ENDBRANCH   1  26
TORSDOF 20
ENDMDL
