MODEL 1
REMARK VINA RESULT:     -11.0      0.000      0.000
REMARK SMILES O=C(N[C@@H]1C=C[C@@H](C(=O)OCCOCCOCCOC(=O)c2ccc(-c3c4nc(c(-c5c(F)c(F)c(F)c(F)c5F)c5ccc([nH]5)c(-c5c(F)c(F)c(F)c(F)c5F)c5nc(c(-c6c(F)c(F)c(F)c(F)c6F)c6ccc3[nH]6)C=C5)C=C4)cc2)C1)Oc1ccccc1
REMARK SMILES IDX 14 1 13 2 12 3 11 4 10 5 8 6 9 7 7 8 4 9 5 10 85 11 6 12
REMARK SMILES IDX 3 13 1 14 2 15 86 17 87 18 88 19 92 20 89 21 91 22 90 23
REMARK SMILES IDX 15 24 16 25 17 26 18 27 19 28 20 29 21 30 22 31 23 32 84 33
REMARK SMILES IDX 24 34 83 35 25 36 26 37 27 38 77 39 28 40 82 41 76 42 78 43
REMARK SMILES IDX 29 44 81 45 75 46 74 47 30 49 62 50 42 51 61 52 43 53 46 54
REMARK SMILES IDX 60 55 79 56 44 57 45 58 59 60 80 61 47 62 31 63 32 64 40 65
REMARK SMILES IDX 33 66 34 67 38 68 41 69 35 70 36 71 39 72 37 73 63 74 64 75
REMARK SMILES IDX 72 76 65 77 66 78 70 79 73 80 67 81 68 82 71 83 69 84 48 85
REMARK SMILES IDX 49 86 57 87 50 88 51 89 55 90 58 91 52 92 53 93 56 94 54 95
REMARK H PARENT 3 16 78 48 46 59
REMARK Flexibility Score: inf
ROOT
ATOM      1  C   UNL A   1      34.798  32.452  27.995  1.00  0.00     0.188 C 
ENDROOT
BRANCH   1   2
ATOM      2  O   UNL A   1      33.744  31.505  28.113  1.00  0.00    -0.376 OA
BRANCH   2   3
ATOM      3  C   UNL A   1      33.617  30.469  27.141  1.00  0.00     0.202 C 
BRANCH   3   4
ATOM      4  C   UNL A   1      32.246  30.163  26.497  1.00  0.00     0.261 C 
BRANCH   4   5
ATOM      5  O   UNL A   1      31.510  29.101  27.133  1.00  0.00    -0.463 OA
BRANCH   5   6
ATOM      6  C   UNL A   1      31.575  27.863  26.571  1.00  0.00     0.312 C 
ATOM      7  O   UNL A   1      31.580  26.820  27.213  1.00  0.00    -0.252 OA
BRANCH   6   8
ATOM      8  C   UNL A   1      31.413  27.928  25.039  1.00  0.00     0.124 C 
ATOM      9  C   UNL A   1      32.503  26.231  23.632  1.00  0.00     0.109 C 
ATOM     10  C   UNL A   1      31.041  25.978  23.778  1.00  0.00    -0.006 C 
ATOM     11  C   UNL A   1      32.647  27.658  24.154  1.00  0.00     0.049 C 
ATOM     12  C   UNL A   1      30.449  26.890  24.555  1.00  0.00    -0.014 C 
BRANCH   9  13
ATOM     13  N   UNL A   1      32.876  26.051  22.253  1.00  0.00    -0.315 N 
ATOM     14  O   UNL A   1      33.136  25.081  20.260  1.00  0.00    -0.224 OA
ATOM     15  C   UNL A   1      32.980  24.927  21.472  1.00  0.00     0.413 C 
ATOM     16  H   UNL A   1      33.096  26.888  21.785  1.00  0.00     0.167 HD
BRANCH  15  17
ATOM     17  O   UNL A   1      32.891  23.620  22.003  1.00  0.00    -0.410 OA
BRANCH  17  18
ATOM     18  C   UNL A   1      33.723  23.023  22.972  1.00  0.00     0.132 A 
ATOM     19  C   UNL A   1      33.173  22.093  23.851  1.00  0.00     0.047 A 
ATOM     20  C   UNL A   1      35.082  23.330  22.981  1.00  0.00     0.047 A 
ATOM     21  C   UNL A   1      34.030  21.366  24.675  1.00  0.00     0.004 A 
ATOM     22  C   UNL A   1      35.936  22.556  23.763  1.00  0.00     0.004 A 
ATOM     23  C   UNL A   1      35.412  21.567  24.599  1.00  0.00     0.000 A 
ENDBRANCH  17  18
ENDBRANCH  15  17
ENDBRANCH   9  13
ENDBRANCH   6   8
ENDBRANCH   5   6
ENDBRANCH   4   5
ENDBRANCH   3   4
ENDBRANCH   2   3
ENDBRANCH   1   2
BRANCH   1  24
ATOM     24  C   UNL A   1      34.508  33.933  28.288  1.00  0.00     0.188 C 
BRANCH  24  25
ATOM     25  O   UNL A   1      33.620  34.146  29.357  1.00  0.00    -0.376 OA
BRANCH  25  26
ATOM     26  C   UNL A   1      34.131  34.765  30.521  1.00  0.00     0.202 C 
BRANCH  26  27
ATOM     27  C   UNL A   1      34.320  33.964  31.826  1.00  0.00     0.261 C 
BRANCH  27  28
ATOM     28  O   UNL A   1      34.913  32.654  31.741  1.00  0.00    -0.460 OA
BRANCH  28  29
ATOM     29  C   UNL A   1      35.841  32.310  32.663  1.00  0.00     0.338 C 
ATOM     30  O   UNL A   1      35.737  32.400  33.878  1.00  0.00    -0.246 OA
BRANCH  29  31
ATOM     31  C   UNL A   1      36.921  31.568  31.965  1.00  0.00     0.060 A 
ATOM     32  C   UNL A   1      37.817  30.785  32.710  1.00  0.00     0.016 A 
ATOM     33  C   UNL A   1      37.037  31.629  30.576  1.00  0.00     0.016 A 
ATOM     34  C   UNL A   1      38.844  30.081  32.069  1.00  0.00     0.010 A 
ATOM     35  C   UNL A   1      38.078  30.944  29.938  1.00  0.00     0.010 A 
ATOM     36  C   UNL A   1      39.005  30.190  30.682  1.00  0.00    -0.014 A 
BRANCH  36  37
ATOM     37  C   UNL A   1      40.240  29.687  30.024  1.00  0.00     0.031 A 
ATOM     38  C   UNL A   1      41.378  30.649  29.810  1.00  0.00     0.074 A 
ATOM     39  C   UNL A   1      40.358  28.413  29.608  1.00  0.00     0.049 A 
ATOM     40  N   UNL A   1      42.507  30.481  29.171  1.00  0.00    -0.248 NA
ATOM     41  C   UNL A   1      41.210  31.989  30.396  1.00  0.00     0.031 C 
ATOM     42  C   UNL A   1      39.355  27.367  29.788  1.00  0.00     0.029 A 
ATOM     43  N   UNL A   1      41.377  27.790  28.926  1.00  0.00    -0.354 N 
ATOM     44  C   UNL A   1      43.177  31.695  29.264  1.00  0.00     0.074 A 
ATOM     45  C   UNL A   1      42.316  32.599  29.997  1.00  0.00     0.031 C 
ATOM     46  C   UNL A   1      39.798  26.236  29.211  1.00  0.00     0.029 A 
ATOM     47  C   UNL A   1      41.098  26.487  28.589  1.00  0.00     0.049 A 
ATOM     48  H   UNL A   1      42.226  28.235  28.702  1.00  0.00     0.167 HD
ATOM     49  C   UNL A   1      44.401  32.026  28.788  1.00  0.00     0.037 A 
ATOM     50  C   UNL A   1      41.797  25.613  27.837  1.00  0.00     0.037 A 
ATOM     51  C   UNL A   1      45.257  31.129  28.057  1.00  0.00     0.049 A 
ATOM     52  C   UNL A   1      43.123  26.030  27.246  1.00  0.00     0.074 A 
ATOM     53  C   UNL A   1      46.524  31.366  27.554  1.00  0.00     0.029 A 
ATOM     54  N   UNL A   1      44.929  29.826  27.716  1.00  0.00    -0.354 N 
ATOM     55  N   UNL A   1      43.762  27.169  27.361  1.00  0.00    -0.248 NA
ATOM     56  C   UNL A   1      43.827  25.034  26.424  1.00  0.00     0.031 C 
ATOM     57  C   UNL A   1      46.936  30.229  26.853  1.00  0.00     0.029 A 
ATOM     58  C   UNL A   1      45.957  29.257  26.980  1.00  0.00     0.049 A 
ATOM     59  H   UNL A   1      44.090  29.371  27.960  1.00  0.00     0.167 HD
ATOM     60  C   UNL A   1      44.951  27.016  26.657  1.00  0.00     0.074 A 
ATOM     61  C   UNL A   1      44.953  25.668  26.129  1.00  0.00     0.031 C 
ATOM     62  C   UNL A   1      45.953  27.911  26.466  1.00  0.00     0.037 A 
BRANCH  49  63
ATOM     63  C   UNL A   1      44.874  33.434  29.012  1.00  0.00     0.064 A 
ATOM     64  C   UNL A   1      45.587  33.801  30.163  1.00  0.00     0.173 A 
ATOM     65  C   UNL A   1      44.636  34.422  28.045  1.00  0.00     0.173 A 
ATOM     66  F   UNL A   1      45.828  32.898  31.126  1.00  0.00    -0.203 F 
ATOM     67  C   UNL A   1      46.019  35.113  30.350  1.00  0.00     0.198 A 
ATOM     68  C   UNL A   1      45.099  35.724  28.220  1.00  0.00     0.198 A 
ATOM     69  F   UNL A   1      43.962  34.125  26.923  1.00  0.00    -0.203 F 
ATOM     70  F   UNL A   1      46.652  35.452  31.481  1.00  0.00    -0.200 F 
ATOM     71  C   UNL A   1      45.781  36.070  29.375  1.00  0.00     0.200 A 
ATOM     72  F   UNL A   1      44.881  36.643  27.269  1.00  0.00    -0.200 F 
ATOM     73  F   UNL A   1      46.205  37.329  29.553  1.00  0.00    -0.200 F 
ENDBRANCH  49  63
BRANCH  50  74
ATOM     74  C   UNL A   1      41.251  24.254  27.572  1.00  0.00     0.064 A 
ATOM     75  C   UNL A   1      41.830  23.115  28.151  1.00  0.00     0.173 A 
ATOM     76  C   UNL A   1      40.163  24.061  26.708  1.00  0.00     0.173 A 
ATOM     77  F   UNL A   1      42.892  23.241  28.960  1.00  0.00    -0.203 F 
ATOM     78  C   UNL A   1      41.353  21.837  27.861  1.00  0.00     0.198 A 
ATOM     79  C   UNL A   1      39.667  22.786  26.444  1.00  0.00     0.198 A 
ATOM     80  F   UNL A   1      39.577  25.115  26.120  1.00  0.00    -0.203 F 
ATOM     81  F   UNL A   1      41.961  20.764  28.386  1.00  0.00    -0.200 F 
ATOM     82  C   UNL A   1      40.269  21.674  27.014  1.00  0.00     0.200 A 
ATOM     83  F   UNL A   1      38.612  22.634  25.633  1.00  0.00    -0.200 F 
ATOM     84  F   UNL A   1      39.810  20.446  26.737  1.00  0.00    -0.200 F 
ENDBRANCH  50  74
BRANCH  62  85
ATOM     85  C   UNL A   1      47.161  27.453  25.695  1.00  0.00     0.064 A 
ATOM     86  C   UNL A   1      47.312  27.719  24.326  1.00  0.00     0.173 A 
ATOM     87  C   UNL A   1      48.205  26.779  26.349  1.00  0.00     0.173 A 
ATOM     88  F   UNL A   1      46.341  28.350  23.649  1.00  0.00    -0.203 F 
ATOM     89  C   UNL A   1      48.449  27.302  23.636  1.00  0.00     0.198 A 
ATOM     90  C   UNL A   1      49.355  26.395  25.664  1.00  0.00     0.198 A 
ATOM     91  F   UNL A   1      48.118  26.507  27.660  1.00  0.00    -0.203 F 
ATOM     92  F   UNL A   1      48.547  27.522  22.318  1.00  0.00    -0.200 F 
ATOM     93  C   UNL A   1      49.472  26.649  24.307  1.00  0.00     0.200 A 
ATOM     94  F   UNL A   1      50.350  25.781  26.319  1.00  0.00    -0.200 F 
ATOM     95  F   UNL A   1      50.568  26.257  23.643  1.00  0.00    -0.200 F 
ENDBRANCH  62  85
ENDBRANCH  36  37
ENDBRANCH  29  31
ENDBRANCH  28  29
ENDBRANCH  27  28
ENDBRANCH  26  27
ENDBRANCH  25  26
ENDBRANCH  24  25
ENDBRANCH   1  24
TORSDOF 20
ENDMDL
MODEL 2
REMARK VINA RESULT:     -11.0      4.140      7.364
REMARK SMILES O=C(N[C@@H]1C=C[C@@H](C(=O)OCCOCCOCCOC(=O)c2ccc(-c3c4nc(c(-c5c(F)c(F)c(F)c(F)c5F)c5ccc([nH]5)c(-c5c(F)c(F)c(F)c(F)c5F)c5nc(c(-c6c(F)c(F)c(F)c(F)c6F)c6ccc3[nH]6)C=C5)C=C4)cc2)C1)Oc1ccccc1
REMARK SMILES IDX 14 1 13 2 12 3 11 4 10 5 8 6 9 7 7 8 4 9 5 10 85 11 6 12
REMARK SMILES IDX 3 13 1 14 2 15 86 17 87 18 88 19 92 20 89 21 91 22 90 23
REMARK SMILES IDX 15 24 16 25 17 26 18 27 19 28 20 29 21 30 22 31 23 32 84 33
REMARK SMILES IDX 24 34 83 35 25 36 26 37 27 38 77 39 28 40 82 41 76 42 78 43
REMARK SMILES IDX 29 44 81 45 75 46 74 47 30 49 62 50 42 51 61 52 43 53 46 54
REMARK SMILES IDX 60 55 79 56 44 57 45 58 59 60 80 61 47 62 31 63 32 64 40 65
REMARK SMILES IDX 33 66 34 67 38 68 41 69 35 70 36 71 39 72 37 73 63 74 64 75
REMARK SMILES IDX 72 76 65 77 66 78 70 79 73 80 67 81 68 82 71 83 69 84 48 85
REMARK SMILES IDX 49 86 57 87 50 88 51 89 55 90 58 91 52 92 53 93 56 94 54 95
REMARK H PARENT 3 16 78 48 46 59
REMARK Flexibility Score: inf
ROOT
ATOM      1  C   UNL A   1      32.901  35.977  30.625  1.00  0.00     0.188 C 
ENDROOT
BRANCH   1   2
ATOM      2  O   UNL A   1      33.122  34.893  31.519  1.00  0.00    -0.376 OA
BRANCH   2   3
ATOM      3  C   UNL A   1      34.406  34.726  32.117  1.00  0.00     0.202 C 
BRANCH   3   4
ATOM      4  C   UNL A   1      35.067  33.330  32.178  1.00  0.00     0.261 C 
BRANCH   4   5
ATOM      5  O   UNL A   1      36.252  33.264  32.994  1.00  0.00    -0.463 OA
BRANCH   5   6
ATOM      6  C   UNL A   1      36.687  32.032  33.374  1.00  0.00     0.312 C 
ATOM      7  O   UNL A   1      36.559  31.021  32.693  1.00  0.00    -0.252 OA
BRANCH   6   8
ATOM      8  C   UNL A   1      37.553  32.104  34.647  1.00  0.00     0.124 C 
ATOM      9  C   UNL A   1      39.576  30.718  34.819  1.00  0.00     0.109 C 
ATOM     10  C   UNL A   1      39.901  32.141  34.515  1.00  0.00    -0.006 C 
ATOM     11  C   UNL A   1      38.111  30.793  35.236  1.00  0.00     0.049 C 
ATOM     12  C   UNL A   1      38.802  32.894  34.406  1.00  0.00    -0.014 C 
BRANCH   9  13
ATOM     13  N   UNL A   1      40.472  30.239  35.839  1.00  0.00    -0.315 N 
ATOM     14  O   UNL A   1      42.094  29.061  36.822  1.00  0.00    -0.224 OA
ATOM     15  C   UNL A   1      41.277  29.127  35.903  1.00  0.00     0.413 C 
ATOM     16  H   UNL A   1      40.517  30.814  36.636  1.00  0.00     0.167 HD
BRANCH  15  17
ATOM     17  O   UNL A   1      41.214  28.086  34.949  1.00  0.00    -0.410 OA
BRANCH  17  18
ATOM     18  C   UNL A   1      42.179  27.093  34.690  1.00  0.00     0.132 A 
ATOM     19  C   UNL A   1      42.044  25.847  35.298  1.00  0.00     0.047 A 
ATOM     20  C   UNL A   1      43.203  27.362  33.785  1.00  0.00     0.047 A 
ATOM     21  C   UNL A   1      42.884  24.812  34.894  1.00  0.00     0.004 A 
ATOM     22  C   UNL A   1      43.998  26.307  33.342  1.00  0.00     0.004 A 
ATOM     23  C   UNL A   1      43.830  25.031  33.886  1.00  0.00     0.000 A 
ENDBRANCH  17  18
ENDBRANCH  15  17
ENDBRANCH   9  13
ENDBRANCH   6   8
ENDBRANCH   5   6
ENDBRANCH   4   5
ENDBRANCH   3   4
ENDBRANCH   2   3
ENDBRANCH   1   2
BRANCH   1  24
ATOM     24  C   UNL A   1      33.174  35.775  29.126  1.00  0.00     0.188 C 
BRANCH  24  25
ATOM     25  O   UNL A   1      32.871  34.487  28.652  1.00  0.00    -0.376 OA
BRANCH  25  26
ATOM     26  C   UNL A   1      33.915  33.743  28.055  1.00  0.00     0.202 C 
BRANCH  26  27
ATOM     27  C   UNL A   1      34.173  32.276  28.456  1.00  0.00     0.261 C 
BRANCH  27  28
ATOM     28  O   UNL A   1      34.456  31.325  27.412  1.00  0.00    -0.460 OA
BRANCH  28  29
ATOM     29  C   UNL A   1      34.582  30.021  27.751  1.00  0.00     0.338 C 
ATOM     30  O   UNL A   1      33.775  29.128  27.543  1.00  0.00    -0.246 OA
BRANCH  29  31
ATOM     31  C   UNL A   1      35.980  29.804  28.199  1.00  0.00     0.060 A 
ATOM     32  C   UNL A   1      37.039  30.058  27.312  1.00  0.00     0.016 A 
ATOM     33  C   UNL A   1      36.248  29.369  29.497  1.00  0.00     0.016 A 
ATOM     34  C   UNL A   1      38.365  29.856  27.715  1.00  0.00     0.010 A 
ATOM     35  C   UNL A   1      37.572  29.144  29.892  1.00  0.00     0.010 A 
ATOM     36  C   UNL A   1      38.637  29.358  28.996  1.00  0.00    -0.014 A 
BRANCH  36  37
ATOM     37  C   UNL A   1      39.999  28.874  29.344  1.00  0.00     0.031 A 
ATOM     38  C   UNL A   1      40.886  29.770  30.166  1.00  0.00     0.074 A 
ATOM     39  C   UNL A   1      40.456  27.676  28.938  1.00  0.00     0.049 A 
ATOM     40  N   UNL A   1      42.141  29.621  30.507  1.00  0.00    -0.248 NA
ATOM     41  C   UNL A   1      40.270  31.010  30.665  1.00  0.00     0.031 C 
ATOM     42  C   UNL A   1      39.691  26.692  28.175  1.00  0.00     0.029 A 
ATOM     43  N   UNL A   1      41.691  27.094  29.097  1.00  0.00    -0.354 N 
ATOM     44  C   UNL A   1      42.467  30.752  31.246  1.00  0.00     0.074 A 
ATOM     45  C   UNL A   1      41.288  31.591  31.279  1.00  0.00     0.031 C 
ATOM     46  C   UNL A   1      40.481  25.636  27.913  1.00  0.00     0.029 A 
ATOM     47  C   UNL A   1      41.817  25.884  28.456  1.00  0.00     0.049 A 
ATOM     48  H   UNL A   1      42.416  27.503  29.621  1.00  0.00     0.167 HD
ATOM     49  C   UNL A   1      43.641  31.062  31.847  1.00  0.00     0.037 A 
ATOM     50  C   UNL A   1      42.895  25.090  28.298  1.00  0.00     0.037 A 
ATOM     51  C   UNL A   1      44.814  30.229  31.812  1.00  0.00     0.049 A 
ATOM     52  C   UNL A   1      44.216  25.494  28.908  1.00  0.00     0.074 A 
ATOM     53  C   UNL A   1      46.043  30.447  32.410  1.00  0.00     0.029 A 
ATOM     54  N   UNL A   1      44.909  29.024  31.133  1.00  0.00    -0.354 N 
ATOM     55  N   UNL A   1      44.510  26.551  29.627  1.00  0.00    -0.248 NA
ATOM     56  C   UNL A   1      45.355  24.590  28.686  1.00  0.00     0.031 C 
ATOM     57  C   UNL A   1      46.901  29.407  32.040  1.00  0.00     0.029 A 
ATOM     58  C   UNL A   1      46.186  28.503  31.270  1.00  0.00     0.049 A 
ATOM     59  H   UNL A   1      44.177  28.600  30.628  1.00  0.00     0.167 HD
ATOM     60  C   UNL A   1      45.852  26.422  29.969  1.00  0.00     0.074 A 
ATOM     61  C   UNL A   1      46.312  25.177  29.390  1.00  0.00     0.031 C 
ATOM     62  C   UNL A   1      46.632  27.258  30.698  1.00  0.00     0.037 A 
BRANCH  49  63
ATOM     63  C   UNL A   1      43.725  32.377  32.566  1.00  0.00     0.064 A 
ATOM     64  C   UNL A   1      43.550  32.475  33.955  1.00  0.00     0.173 A 
ATOM     65  C   UNL A   1      44.016  33.553  31.858  1.00  0.00     0.173 A 
ATOM     66  F   UNL A   1      43.254  31.384  34.677  1.00  0.00    -0.203 F 
ATOM     67  C   UNL A   1      43.634  33.706  34.602  1.00  0.00     0.198 A 
ATOM     68  C   UNL A   1      44.134  34.776  32.514  1.00  0.00     0.198 A 
ATOM     69  F   UNL A   1      44.197  33.516  30.529  1.00  0.00    -0.203 F 
ATOM     70  F   UNL A   1      43.410  33.783  35.921  1.00  0.00    -0.200 F 
ATOM     71  C   UNL A   1      43.934  34.852  33.882  1.00  0.00     0.200 A 
ATOM     72  F   UNL A   1      44.439  35.880  31.818  1.00  0.00    -0.200 F 
ATOM     73  F   UNL A   1      44.023  36.034  34.509  1.00  0.00    -0.200 F 
ENDBRANCH  49  63
BRANCH  50  74
ATOM     74  C   UNL A   1      42.786  23.834  27.507  1.00  0.00     0.064 A 
ATOM     75  C   UNL A   1      42.401  22.628  28.112  1.00  0.00     0.173 A 
ATOM     76  C   UNL A   1      43.097  23.804  26.140  1.00  0.00     0.173 A 
ATOM     77  F   UNL A   1      42.123  22.595  29.423  1.00  0.00    -0.203 F 
ATOM     78  C   UNL A   1      42.351  21.440  27.383  1.00  0.00     0.198 A 
ATOM     79  C   UNL A   1      43.016  22.622  25.406  1.00  0.00     0.198 A 
ATOM     80  F   UNL A   1      43.479  24.927  25.514  1.00  0.00    -0.203 F 
ATOM     81  F   UNL A   1      42.034  20.293  27.999  1.00  0.00    -0.200 F 
ATOM     82  C   UNL A   1      42.651  21.439  26.030  1.00  0.00     0.200 A 
ATOM     83  F   UNL A   1      43.297  22.629  24.096  1.00  0.00    -0.200 F 
ATOM     84  F   UNL A   1      42.602  20.298  25.331  1.00  0.00    -0.200 F 
ENDBRANCH  50  74
BRANCH  62  85
ATOM     85  C   UNL A   1      48.053  26.838  30.958  1.00  0.00     0.064 A 
ATOM     86  C   UNL A   1      48.402  26.033  32.051  1.00  0.00     0.173 A 
ATOM     87  C   UNL A   1      49.075  27.211  30.069  1.00  0.00     0.173 A 
ATOM     88  F   UNL A   1      47.468  25.657  32.938  1.00  0.00    -0.203 F 
ATOM     89  C   UNL A   1      49.722  25.641  32.262  1.00  0.00     0.198 A 
ATOM     90  C   UNL A   1      50.388  26.788  30.263  1.00  0.00     0.198 A 
ATOM     91  F   UNL A   1      48.798  27.973  29.000  1.00  0.00    -0.203 F 
ATOM     92  F   UNL A   1      50.038  24.914  33.342  1.00  0.00    -0.200 F 
ATOM     93  C   UNL A   1      50.711  26.011  31.364  1.00  0.00     0.200 A 
ATOM     94  F   UNL A   1      51.338  27.132  29.383  1.00  0.00    -0.200 F 
ATOM     95  F   UNL A   1      51.980  25.625  31.563  1.00  0.00    -0.200 F 
ENDBRANCH  62  85
ENDBRANCH  36  37
ENDBRANCH  29  31
ENDBRANCH  28  29
ENDBRANCH  27  28
ENDBRANCH  26  27
ENDBRANCH  25  26
ENDBRANCH  24  25
ENDBRANCH   1  24
TORSDOF 20
ENDMDL
MODEL 3
REMARK VINA RESULT:     -10.9      5.005      7.514
REMARK SMILES O=C(N[C@@H]1C=C[C@@H](C(=O)OCCOCCOCCOC(=O)c2ccc(-c3c4nc(c(-c5c(F)c(F)c(F)c(F)c5F)c5ccc([nH]5)c(-c5c(F)c(F)c(F)c(F)c5F)c5nc(c(-c6c(F)c(F)c(F)c(F)c6F)c6ccc3[nH]6)C=C5)C=C4)cc2)C1)Oc1ccccc1
REMARK SMILES IDX 14 1 13 2 12 3 11 4 10 5 8 6 9 7 7 8 4 9 5 10 85 11 6 12
REMARK SMILES IDX 3 13 1 14 2 15 86 17 87 18 88 19 92 20 89 21 91 22 90 23
REMARK SMILES IDX 15 24 16 25 17 26 18 27 19 28 20 29 21 30 22 31 23 32 84 33
REMARK SMILES IDX 24 34 83 35 25 36 26 37 27 38 77 39 28 40 82 41 76 42 78 43
REMARK SMILES IDX 29 44 81 45 75 46 74 47 30 49 62 50 42 51 61 52 43 53 46 54
REMARK SMILES IDX 60 55 79 56 44 57 45 58 59 60 80 61 47 62 31 63 32 64 40 65
REMARK SMILES IDX 33 66 34 67 38 68 41 69 35 70 36 71 39 72 37 73 63 74 64 75
REMARK SMILES IDX 72 76 65 77 66 78 70 79 73 80 67 81 68 82 71 83 69 84 48 85
REMARK SMILES IDX 49 86 57 87 50 88 51 89 55 90 58 91 52 92 53 93 56 94 54 95
REMARK H PARENT 3 16 78 48 46 59
REMARK Flexibility Score: inf
ROOT
ATOM      1  C   UNL A   1      35.070  32.961  28.007  1.00  0.00     0.188 C 
ENDROOT
BRANCH   1   2
ATOM      2  O   UNL A   1      35.513  31.610  27.960  1.00  0.00    -0.376 OA
BRANCH   2   3
ATOM      3  C   UNL A   1      34.686  30.620  27.353  1.00  0.00     0.202 C 
BRANCH   3   4
ATOM      4  C   UNL A   1      33.149  30.779  27.344  1.00  0.00     0.261 C 
BRANCH   4   5
ATOM      5  O   UNL A   1      32.424  29.569  27.050  1.00  0.00    -0.463 OA
BRANCH   5   6
ATOM      6  C   UNL A   1      31.902  29.435  25.800  1.00  0.00     0.312 C 
ATOM      7  O   UNL A   1      31.186  30.273  25.265  1.00  0.00    -0.252 OA
BRANCH   6   8
ATOM      8  C   UNL A   1      32.501  28.221  25.063  1.00  0.00     0.124 C 
ATOM      9  C   UNL A   1      32.412  28.129  22.607  1.00  0.00     0.109 C 
ATOM     10  C   UNL A   1      33.768  28.501  23.101  1.00  0.00    -0.006 C 
ATOM     11  C   UNL A   1      31.724  27.623  23.872  1.00  0.00     0.049 C 
ATOM     12  C   UNL A   1      33.816  28.567  24.435  1.00  0.00    -0.014 C 
BRANCH   9  13
ATOM     13  N   UNL A   1      32.545  27.150  21.559  1.00  0.00    -0.315 N 
ATOM     14  O   UNL A   1      32.977  25.210  20.544  1.00  0.00    -0.224 OA
ATOM     15  C   UNL A   1      33.187  25.937  21.515  1.00  0.00     0.413 C 
ATOM     16  H   UNL A   1      32.091  27.395  20.721  1.00  0.00     0.167 HD
BRANCH  15  17
ATOM     17  O   UNL A   1      34.049  25.495  22.544  1.00  0.00    -0.410 OA
BRANCH  17  18
ATOM     18  C   UNL A   1      33.706  24.781  23.710  1.00  0.00     0.132 A 
ATOM     19  C   UNL A   1      34.534  24.876  24.826  1.00  0.00     0.047 A 
ATOM     20  C   UNL A   1      32.518  24.054  23.735  1.00  0.00     0.047 A 
ATOM     21  C   UNL A   1      34.096  24.330  26.031  1.00  0.00     0.004 A 
ATOM     22  C   UNL A   1      32.060  23.565  24.957  1.00  0.00     0.004 A 
ATOM     23  C   UNL A   1      32.842  23.714  26.105  1.00  0.00     0.000 A 
ENDBRANCH  17  18
ENDBRANCH  15  17
ENDBRANCH   9  13
ENDBRANCH   6   8
ENDBRANCH   5   6
ENDBRANCH   4   5
ENDBRANCH   3   4
ENDBRANCH   2   3
ENDBRANCH   1   2
BRANCH   1  24
ATOM     24  C   UNL A   1      34.433  33.493  29.301  1.00  0.00     0.188 C 
BRANCH  24  25
ATOM     25  O   UNL A   1      33.216  34.171  29.108  1.00  0.00    -0.376 OA
BRANCH  25  26
ATOM     26  C   UNL A   1      33.261  35.581  28.996  1.00  0.00     0.202 C 
BRANCH  26  27
ATOM     27  C   UNL A   1      32.625  36.482  30.075  1.00  0.00     0.261 C 
BRANCH  27  28
ATOM     28  O   UNL A   1      32.092  35.855  31.257  1.00  0.00    -0.460 OA
BRANCH  28  29
ATOM     29  C   UNL A   1      32.696  36.105  32.442  1.00  0.00     0.338 C 
ATOM     30  O   UNL A   1      32.261  36.787  33.358  1.00  0.00    -0.246 OA
BRANCH  29  31
ATOM     31  C   UNL A   1      33.873  35.206  32.548  1.00  0.00     0.060 A 
ATOM     32  C   UNL A   1      33.690  33.868  32.930  1.00  0.00     0.016 A 
ATOM     33  C   UNL A   1      35.152  35.677  32.251  1.00  0.00     0.016 A 
ATOM     34  C   UNL A   1      34.788  33.006  33.039  1.00  0.00     0.010 A 
ATOM     35  C   UNL A   1      36.252  34.822  32.383  1.00  0.00     0.010 A 
ATOM     36  C   UNL A   1      36.082  33.490  32.805  1.00  0.00    -0.014 A 
BRANCH  36  37
ATOM     37  C   UNL A   1      37.270  32.681  33.184  1.00  0.00     0.031 A 
ATOM     38  C   UNL A   1      37.957  32.989  34.487  1.00  0.00     0.074 A 
ATOM     39  C   UNL A   1      37.748  31.703  32.394  1.00  0.00     0.049 A 
ATOM     40  N   UNL A   1      39.065  32.500  34.986  1.00  0.00    -0.248 NA
ATOM     41  C   UNL A   1      37.304  33.994  35.342  1.00  0.00     0.031 C 
ATOM     42  C   UNL A   1      37.158  31.271  31.129  1.00  0.00     0.029 A 
ATOM     43  N   UNL A   1      38.860  30.907  32.537  1.00  0.00    -0.354 N 
ATOM     44  C   UNL A   1      39.248  33.148  36.202  1.00  0.00     0.074 A 
ATOM     45  C   UNL A   1      38.154  34.084  36.353  1.00  0.00     0.031 C 
ATOM     46  C   UNL A   1      37.926  30.303  30.600  1.00  0.00     0.029 A 
ATOM     47  C   UNL A   1      39.081  30.072  31.468  1.00  0.00     0.049 A 
ATOM     48  H   UNL A   1      39.442  30.931  33.330  1.00  0.00     0.167 HD
ATOM     49  C   UNL A   1      40.235  32.975  37.113  1.00  0.00     0.037 A 
ATOM     50  C   UNL A   1      40.113  29.244  31.208  1.00  0.00     0.037 A 
ATOM     51  C   UNL A   1      41.324  32.046  36.963  1.00  0.00     0.049 A 
ATOM     52  C   UNL A   1      41.245  29.127  32.201  1.00  0.00     0.074 A 
ATOM     53  C   UNL A   1      42.359  31.783  37.843  1.00  0.00     0.029 A 
ATOM     54  N   UNL A   1      41.525  31.236  35.856  1.00  0.00    -0.354 N 
ATOM     55  N   UNL A   1      41.399  29.721  33.359  1.00  0.00    -0.248 NA
ATOM     56  C   UNL A   1      42.347  28.218  31.848  1.00  0.00     0.031 C 
ATOM     57  C   UNL A   1      43.222  30.862  37.241  1.00  0.00     0.029 A 
ATOM     58  C   UNL A   1      42.687  30.496  36.016  1.00  0.00     0.049 A 
ATOM     59  H   UNL A   1      40.931  31.192  35.072  1.00  0.00     0.167 HD
ATOM     60  C   UNL A   1      42.591  29.236  33.886  1.00  0.00     0.074 A 
ATOM     61  C   UNL A   1      43.115  28.287  32.926  1.00  0.00     0.031 C 
ATOM     62  C   UNL A   1      43.196  29.547  35.059  1.00  0.00     0.037 A 
BRANCH  49  63
ATOM     63  C   UNL A   1      40.201  33.836  38.343  1.00  0.00     0.064 A 
ATOM     64  C   UNL A   1      40.898  35.051  38.417  1.00  0.00     0.173 A 
ATOM     65  C   UNL A   1      39.434  33.452  39.454  1.00  0.00     0.173 A 
ATOM     66  F   UNL A   1      41.659  35.457  37.389  1.00  0.00    -0.203 F 
ATOM     67  C   UNL A   1      40.851  35.835  39.567  1.00  0.00     0.198 A 
ATOM     68  C   UNL A   1      39.362  34.255  40.589  1.00  0.00     0.198 A 
ATOM     69  F   UNL A   1      38.745  32.301  39.436  1.00  0.00    -0.203 F 
ATOM     70  F   UNL A   1      41.568  36.966  39.634  1.00  0.00    -0.200 F 
ATOM     71  C   UNL A   1      40.078  35.441  40.648  1.00  0.00     0.200 A 
ATOM     72  F   UNL A   1      38.602  33.879  41.626  1.00  0.00    -0.200 F 
ATOM     73  F   UNL A   1      40.028  36.201  41.751  1.00  0.00    -0.200 F 
ENDBRANCH  49  63
BRANCH  50  74
ATOM     74  C   UNL A   1      40.146  28.470  29.936  1.00  0.00     0.064 A 
ATOM     75  C   UNL A   1      40.777  28.981  28.793  1.00  0.00     0.173 A 
ATOM     76  C   UNL A   1      39.519  27.220  29.828  1.00  0.00     0.173 A 
ATOM     77  F   UNL A   1      41.365  30.186  28.834  1.00  0.00    -0.203 F 
ATOM     78  C   UNL A   1      40.762  28.281  27.587  1.00  0.00     0.198 A 
ATOM     79  C   UNL A   1      39.532  26.507  28.630  1.00  0.00     0.198 A 
ATOM     80  F   UNL A   1      38.893  26.688  30.889  1.00  0.00    -0.203 F 
ATOM     81  F   UNL A   1      41.325  28.819  26.496  1.00  0.00    -0.200 F 
ATOM     82  C   UNL A   1      40.146  27.042  27.509  1.00  0.00     0.200 A 
ATOM     83  F   UNL A   1      38.944  25.305  28.563  1.00  0.00    -0.200 F 
ATOM     84  F   UNL A   1      40.133  26.370  26.350  1.00  0.00    -0.200 F 
ENDBRANCH  50  74
BRANCH  62  85
ATOM     85  C   UNL A   1      44.469  28.823  35.402  1.00  0.00     0.064 A 
ATOM     86  C   UNL A   1      44.466  27.607  36.101  1.00  0.00     0.173 A 
ATOM     87  C   UNL A   1      45.708  29.332  34.981  1.00  0.00     0.173 A 
ATOM     88  F   UNL A   1      43.312  27.080  36.537  1.00  0.00    -0.203 F 
ATOM     89  C   UNL A   1      45.657  26.944  36.391  1.00  0.00     0.198 A 
ATOM     90  C   UNL A   1      46.893  28.649  35.242  1.00  0.00     0.198 A 
ATOM     91  F   UNL A   1      45.770  30.486  34.300  1.00  0.00    -0.203 F 
ATOM     92  F   UNL A   1      45.632  25.810  37.106  1.00  0.00    -0.200 F 
ATOM     93  C   UNL A   1      46.867  27.460  35.955  1.00  0.00     0.200 A 
ATOM     94  F   UNL A   1      48.060  29.141  34.803  1.00  0.00    -0.200 F 
ATOM     95  F   UNL A   1      48.011  26.816  36.227  1.00  0.00    -0.200 F 
ENDBRANCH  62  85
ENDBRANCH  36  37
ENDBRANCH  29  31
ENDBRANCH  28  29
ENDBRANCH  27  28
ENDBRANCH  26  27
ENDBRANCH  25  26
ENDBRANCH  24  25
ENDBRANCH   1  24
TORSDOF 20
ENDMDL
