MODEL 1
REMARK VINA RESULT:     -11.5      0.000      0.000
REMARK SMILES Cc1ccc([C@@H](CC(=O)OCCOCCOCCOC(=O)c2ccc(-c3c4nc(c(-c5c(F)c(F)c(F)c(F)c5F)c5ccc([nH]5)c(-c5c(F)c(F)c(F)c(F)c5F)c5nc(c(-c6c(F)c(F)c(F)c(F)c6F)c6ccc3[nH]6)C=C5)C=C4)cc2)NC(=O)c2ccc(OC(F)F)cc2)cc1
REMARK SMILES IDX 13 1 12 2 11 3 10 4 8 5 9 6 7 7 6 8 5 9 1 10 2 11 3 12 99 13
REMARK SMILES IDX 4 14 98 15 85 16 86 17 87 19 88 20 89 21 97 22 90 23 96 24
REMARK SMILES IDX 91 25 92 26 93 27 94 28 95 29 14 30 15 31 16 32 17 33 18 34
REMARK SMILES IDX 19 35 20 36 21 37 22 38 23 39 84 40 24 41 83 42 25 43 26 44
REMARK SMILES IDX 27 45 77 46 28 47 82 48 76 49 78 50 29 51 81 52 75 53 74 54
REMARK SMILES IDX 30 56 62 57 42 58 61 59 43 60 46 61 60 62 79 63 44 64 45 65
REMARK SMILES IDX 59 67 80 68 47 69 31 70 32 71 40 72 33 73 34 74 38 75 41 76
REMARK SMILES IDX 35 77 36 78 39 79 37 80 63 81 64 82 72 83 65 84 66 85 70 86
REMARK SMILES IDX 73 87 67 88 68 89 71 90 69 91 48 92 49 93 57 94 50 95 51 96
REMARK SMILES IDX 55 97 58 98 52 99 53 100 56 101 54 102
REMARK H PARENT 85 18 78 55 46 66
REMARK Flexibility Score: inf
ROOT
ATOM      1  O   UNL A   1      37.701  22.393  25.879  1.00  0.00    -0.376 OA
ENDROOT
BRANCH   1   2
ATOM      2  C   UNL A   1      37.242  21.710  24.688  1.00  0.00     0.202 C 
BRANCH   2   3
ATOM      3  C   UNL A   1      36.474  20.270  24.763  1.00  0.00     0.261 C 
BRANCH   3   4
ATOM      4  O   UNL A   1      34.837  19.830  25.153  1.00  0.00    -0.463 OA
BRANCH   4   5
ATOM      5  C   UNL A   1      33.655  19.286  24.532  1.00  0.00     0.308 C 
ATOM      6  O   UNL A   1      33.460  18.131  24.136  1.00  0.00    -0.252 OA
BRANCH   5   7
ATOM      7  C   UNL A   1      32.486  20.078  24.041  1.00  0.00     0.152 C 
BRANCH   7   8
ATOM      8  C   UNL A   1      32.030  21.311  24.754  1.00  0.00     0.123 C 
BRANCH   8   9
ATOM      9  C   UNL A   1      32.092  22.334  23.620  1.00  0.00    -0.025 A 
ATOM     10  C   UNL A   1      32.999  26.158  21.850  1.00  0.00     0.044 C 
ATOM     11  C   UNL A   1      32.660  24.794  22.372  1.00  0.00    -0.051 A 
ATOM     12  C   UNL A   1      31.384  24.533  22.878  1.00  0.00     0.004 A 
ATOM     13  C   UNL A   1      33.635  23.795  22.434  1.00  0.00     0.004 A 
ATOM     14  C   UNL A   1      31.086  23.296  23.454  1.00  0.00     0.006 A 
ATOM     15  C   UNL A   1      33.353  22.575  23.045  1.00  0.00     0.006 A 
ENDBRANCH   8   9
BRANCH   8  16
ATOM     16  N   UNL A   1      32.764  21.652  25.964  1.00  0.00    -0.345 N 
ATOM     17  C   UNL A   1      33.268  22.800  26.532  1.00  0.00     0.251 C 
ATOM     18  H   UNL A   1      32.948  20.858  26.518  1.00  0.00     0.164 HD
ATOM     19  O   UNL A   1      34.113  22.619  27.416  1.00  0.00    -0.269 OA
BRANCH  17  20
ATOM     20  C   UNL A   1      32.951  24.221  26.204  1.00  0.00     0.040 A 
ATOM     21  C   UNL A   1      34.041  25.016  25.801  1.00  0.00     0.017 A 
ATOM     22  C   UNL A   1      31.758  24.879  26.516  1.00  0.00     0.017 A 
ATOM     23  C   UNL A   1      33.927  26.406  25.655  1.00  0.00     0.047 A 
ATOM     24  C   UNL A   1      31.636  26.283  26.349  1.00  0.00     0.047 A 
ATOM     25  C   UNL A   1      32.717  27.049  25.903  1.00  0.00     0.126 A 
BRANCH  25  26
ATOM     26  O   UNL A   1      32.752  28.401  25.718  1.00  0.00    -0.435 OA
BRANCH  26  27
ATOM     27  C   UNL A   1      32.769  29.251  26.858  1.00  0.00     0.542 C 
ATOM     28  F   UNL A   1      31.653  29.061  27.602  1.00  0.00    -0.167 F 
ATOM     29  F   UNL A   1      33.848  28.973  27.623  1.00  0.00    -0.167 F 
ENDBRANCH  26  27
ENDBRANCH  25  26
ENDBRANCH  17  20
ENDBRANCH   8  16
ENDBRANCH   7   8
ENDBRANCH   5   7
ENDBRANCH   4   5
ENDBRANCH   3   4
ENDBRANCH   2   3
ENDBRANCH   1   2
BRANCH   1  30
ATOM     30  C   UNL A   1      39.086  22.506  26.267  1.00  0.00     0.188 C 
BRANCH  30  31
ATOM     31  C   UNL A   1      40.035  21.327  26.154  1.00  0.00     0.188 C 
BRANCH  31  32
ATOM     32  O   UNL A   1      40.415  20.941  27.459  1.00  0.00    -0.376 OA
BRANCH  32  33
ATOM     33  C   UNL A   1      41.361  21.764  28.109  1.00  0.00     0.202 C 
BRANCH  33  34
ATOM     34  C   UNL A   1      42.623  21.992  27.253  1.00  0.00     0.261 C 
BRANCH  34  35
ATOM     35  O   UNL A   1      42.944  23.411  27.179  1.00  0.00    -0.460 OA
BRANCH  35  36
ATOM     36  C   UNL A   1      42.420  24.180  26.147  1.00  0.00     0.338 C 
ATOM     37  O   UNL A   1      42.791  24.135  25.006  1.00  0.00    -0.246 OA
BRANCH  36  38
ATOM     38  C   UNL A   1      41.566  25.300  26.728  1.00  0.00     0.060 A 
ATOM     39  C   UNL A   1      41.051  26.463  26.121  1.00  0.00     0.016 A 
ATOM     40  C   UNL A   1      41.633  25.371  28.067  1.00  0.00     0.016 A 
ATOM     41  C   UNL A   1      40.794  27.705  26.888  1.00  0.00     0.010 A 
ATOM     42  C   UNL A   1      41.742  26.641  28.599  1.00  0.00     0.010 A 
ATOM     43  C   UNL A   1      41.242  27.868  28.199  1.00  0.00    -0.014 A 
BRANCH  43  44
ATOM     44  C   UNL A   1      41.345  29.146  29.217  1.00  0.00     0.031 A 
ATOM     45  C   UNL A   1      40.203  30.290  29.755  1.00  0.00     0.074 A 
ATOM     46  C   UNL A   1      42.537  29.216  29.833  1.00  0.00     0.049 A 
ATOM     47  N   UNL A   1      40.298  31.602  29.668  1.00  0.00    -0.248 NA
ATOM     48  C   UNL A   1      38.851  30.053  30.400  1.00  0.00     0.031 C 
ATOM     49  C   UNL A   1      42.963  30.044  30.948  1.00  0.00     0.029 A 
ATOM     50  N   UNL A   1      43.702  28.532  29.465  1.00  0.00    -0.354 N 
ATOM     51  C   UNL A   1      39.183  32.150  30.372  1.00  0.00     0.074 A 
ATOM     52  C   UNL A   1      38.166  31.179  30.361  1.00  0.00     0.031 C 
ATOM     53  C   UNL A   1      44.310  30.101  30.925  1.00  0.00     0.029 A 
ATOM     54  C   UNL A   1      44.754  29.425  29.713  1.00  0.00     0.049 A 
ATOM     55  H   UNL A   1      43.768  27.617  29.108  1.00  0.00     0.167 HD
ATOM     56  C   UNL A   1      39.272  33.045  31.413  1.00  0.00     0.037 A 
ATOM     57  C   UNL A   1      45.379  29.965  28.625  1.00  0.00     0.037 A 
ATOM     58  C   UNL A   1      40.663  33.340  31.646  1.00  0.00     0.049 A 
ATOM     59  C   UNL A   1      45.097  31.456  28.507  1.00  0.00     0.074 A 
ATOM     60  C   UNL A   1      41.618  33.036  32.596  1.00  0.00     0.029 A 
ATOM     61  N   UNL A   1      41.360  33.746  30.544  1.00  0.00    -0.354 N 
ATOM     62  N   UNL A   1      44.378  32.133  29.364  1.00  0.00    -0.248 NA
ATOM     63  C   UNL A   1      45.549  32.300  27.404  1.00  0.00     0.031 C 
ATOM     64  C   UNL A   1      42.901  33.344  32.033  1.00  0.00     0.029 A 
ATOM     65  C   UNL A   1      42.701  33.838  30.758  1.00  0.00     0.049 A 
ATOM     66  H   UNL A   1      40.935  33.953  29.681  1.00  0.00     0.167 HD
ATOM     67  C   UNL A   1      44.212  33.420  28.940  1.00  0.00     0.074 A 
ATOM     68  C   UNL A   1      44.963  33.474  27.698  1.00  0.00     0.031 C 
ATOM     69  C   UNL A   1      43.445  34.327  29.619  1.00  0.00     0.037 A 
BRANCH  56  70
ATOM     70  C   UNL A   1      38.127  33.361  32.397  1.00  0.00     0.064 A 
ATOM     71  C   UNL A   1      37.036  34.168  32.017  1.00  0.00     0.173 A 
ATOM     72  C   UNL A   1      38.054  32.897  33.737  1.00  0.00     0.173 A 
ATOM     73  F   UNL A   1      36.886  34.588  30.756  1.00  0.00    -0.203 F 
ATOM     74  C   UNL A   1      36.040  34.577  32.916  1.00  0.00     0.198 A 
ATOM     75  C   UNL A   1      37.097  33.362  34.655  1.00  0.00     0.198 A 
ATOM     76  F   UNL A   1      38.904  31.966  34.198  1.00  0.00    -0.203 F 
ATOM     77  F   UNL A   1      35.030  35.347  32.483  1.00  0.00    -0.200 F 
ATOM     78  C   UNL A   1      36.091  34.209  34.244  1.00  0.00     0.200 A 
ATOM     79  F   UNL A   1      37.165  32.988  35.943  1.00  0.00    -0.200 F 
ATOM     80  F   UNL A   1      35.167  34.645  35.111  1.00  0.00    -0.200 F 
ENDBRANCH  56  70
BRANCH  57  81
ATOM     81  C   UNL A   1      45.549  28.946  27.520  1.00  0.00     0.064 A 
ATOM     82  C   UNL A   1      46.573  27.970  27.675  1.00  0.00     0.173 A 
ATOM     83  C   UNL A   1      44.585  28.670  26.545  1.00  0.00     0.173 A 
ATOM     84  F   UNL A   1      47.554  28.165  28.573  1.00  0.00    -0.203 F 
ATOM     85  C   UNL A   1      46.534  26.736  27.025  1.00  0.00     0.198 A 
ATOM     86  C   UNL A   1      44.586  27.451  25.845  1.00  0.00     0.198 A 
ATOM     87  F   UNL A   1      43.560  29.509  26.342  1.00  0.00    -0.203 F 
ATOM     88  F   UNL A   1      47.424  25.783  27.341  1.00  0.00    -0.200 F 
ATOM     89  C   UNL A   1      45.527  26.469  26.121  1.00  0.00     0.200 A 
ATOM     90  F   UNL A   1      43.583  27.170  24.999  1.00  0.00    -0.200 F 
ATOM     91  F   UNL A   1      45.426  25.254  25.562  1.00  0.00    -0.200 F 
ENDBRANCH  57  81
BRANCH  69  92
ATOM     92  C   UNL A   1      43.207  35.756  29.180  1.00  0.00     0.064 A 
ATOM     93  C   UNL A   1      43.605  36.829  29.981  1.00  0.00     0.173 A 
ATOM     94  C   UNL A   1      42.484  36.112  28.006  1.00  0.00     0.173 A 
ATOM     95  F   UNL A   1      44.169  36.617  31.178  1.00  0.00    -0.203 F 
ATOM     96  C   UNL A   1      43.400  38.152  29.587  1.00  0.00     0.198 A 
ATOM     97  C   UNL A   1      42.231  37.429  27.645  1.00  0.00     0.198 A 
ATOM     98  F   UNL A   1      41.998  35.217  27.138  1.00  0.00    -0.203 F 
ATOM     99  F   UNL A   1      43.867  39.145  30.354  1.00  0.00    -0.200 F 
ATOM    100  C   UNL A   1      42.718  38.452  28.421  1.00  0.00     0.200 A 
ATOM    101  F   UNL A   1      41.524  37.687  26.536  1.00  0.00    -0.200 F 
ATOM    102  F   UNL A   1      42.520  39.723  28.049  1.00  0.00    -0.200 F 
ENDBRANCH  69  92
ENDBRANCH  43  44
ENDBRANCH  36  38
ENDBRANCH  35  36
ENDBRANCH  34  35
ENDBRANCH  33  34
ENDBRANCH  32  33
ENDBRANCH  31  32
ENDBRANCH  30  31
ENDBRANCH   1  30
TORSDOF 23
ENDMDL
MODEL 2
REMARK VINA RESULT:     -11.4      1.582      1.961
REMARK SMILES Cc1ccc([C@@H](CC(=O)OCCOCCOCCOC(=O)c2ccc(-c3c4nc(c(-c5c(F)c(F)c(F)c(F)c5F)c5ccc([nH]5)c(-c5c(F)c(F)c(F)c(F)c5F)c5nc(c(-c6c(F)c(F)c(F)c(F)c6F)c6ccc3[nH]6)C=C5)C=C4)cc2)NC(=O)c2ccc(OC(F)F)cc2)cc1
REMARK SMILES IDX 13 1 12 2 11 3 10 4 8 5 9 6 7 7 6 8 5 9 1 10 2 11 3 12 99 13
REMARK SMILES IDX 4 14 98 15 85 16 86 17 87 19 88 20 89 21 97 22 90 23 96 24
REMARK SMILES IDX 91 25 92 26 93 27 94 28 95 29 14 30 15 31 16 32 17 33 18 34
REMARK SMILES IDX 19 35 20 36 21 37 22 38 23 39 84 40 24 41 83 42 25 43 26 44
REMARK SMILES IDX 27 45 77 46 28 47 82 48 76 49 78 50 29 51 81 52 75 53 74 54
REMARK SMILES IDX 30 56 62 57 42 58 61 59 43 60 46 61 60 62 79 63 44 64 45 65
REMARK SMILES IDX 59 67 80 68 47 69 31 70 32 71 40 72 33 73 34 74 38 75 41 76
REMARK SMILES IDX 35 77 36 78 39 79 37 80 63 81 64 82 72 83 65 84 66 85 70 86
REMARK SMILES IDX 73 87 67 88 68 89 71 90 69 91 48 92 49 93 57 94 50 95 51 96
REMARK SMILES IDX 55 97 58 98 52 99 53 100 56 101 54 102
REMARK H PARENT 85 18 78 55 46 66
REMARK Flexibility Score: inf
ROOT
ATOM      1  O   UNL A   1      37.895  22.232  26.336  1.00  0.00    -0.376 OA
ENDROOT
BRANCH   1   2
ATOM      2  C   UNL A   1      36.866  22.292  25.321  1.00  0.00     0.202 C 
BRANCH   2   3
ATOM      3  C   UNL A   1      35.488  21.422  25.437  1.00  0.00     0.261 C 
BRANCH   3   4
ATOM      4  O   UNL A   1      33.814  21.880  25.549  1.00  0.00    -0.463 OA
BRANCH   4   5
ATOM      5  C   UNL A   1      32.555  21.662  24.882  1.00  0.00     0.308 C 
ATOM      6  O   UNL A   1      31.701  20.801  25.123  1.00  0.00    -0.252 OA
BRANCH   5   7
ATOM      7  C   UNL A   1      32.120  22.309  23.607  1.00  0.00     0.152 C 
BRANCH   7   8
ATOM      8  C   UNL A   1      31.310  23.566  23.613  1.00  0.00     0.123 C 
BRANCH   8   9
ATOM      9  C   UNL A   1      32.325  24.560  23.050  1.00  0.00    -0.025 A 
ATOM     10  C   UNL A   1      34.167  28.430  22.595  1.00  0.00     0.044 C 
ATOM     11  C   UNL A   1      33.603  27.045  22.697  1.00  0.00    -0.051 A 
ATOM     12  C   UNL A   1      32.617  26.621  21.803  1.00  0.00     0.004 A 
ATOM     13  C   UNL A   1      33.994  26.194  23.734  1.00  0.00     0.004 A 
ATOM     14  C   UNL A   1      32.016  25.369  21.947  1.00  0.00     0.006 A 
ATOM     15  C   UNL A   1      33.369  24.961  23.905  1.00  0.00     0.006 A 
ENDBRANCH   8   9
BRANCH   8  16
ATOM     16  N   UNL A   1      30.703  23.923  24.886  1.00  0.00    -0.345 N 
ATOM     17  C   UNL A   1      30.345  25.088  25.526  1.00  0.00     0.251 C 
ATOM     18  H   UNL A   1      30.493  23.128  25.429  1.00  0.00     0.164 HD
ATOM     19  O   UNL A   1      30.150  24.978  26.742  1.00  0.00    -0.269 OA
BRANCH  17  20
ATOM     20  C   UNL A   1      30.194  26.459  24.955  1.00  0.00     0.040 A 
ATOM     21  C   UNL A   1      29.304  26.577  23.870  1.00  0.00     0.017 A 
ATOM     22  C   UNL A   1      31.037  27.543  25.216  1.00  0.00     0.017 A 
ATOM     23  C   UNL A   1      29.215  27.755  23.114  1.00  0.00     0.047 A 
ATOM     24  C   UNL A   1      30.932  28.742  24.463  1.00  0.00     0.047 A 
ATOM     25  C   UNL A   1      30.010  28.857  23.420  1.00  0.00     0.126 A 
BRANCH  25  26
ATOM     26  O   UNL A   1      29.814  29.933  22.603  1.00  0.00    -0.435 OA
BRANCH  26  27
ATOM     27  C   UNL A   1      28.986  30.997  23.052  1.00  0.00     0.542 C 
ATOM     28  F   UNL A   1      29.319  31.350  24.317  1.00  0.00    -0.167 F 
ATOM     29  F   UNL A   1      29.146  32.074  22.251  1.00  0.00    -0.167 F 
ENDBRANCH  26  27
ENDBRANCH  25  26
ENDBRANCH  17  20
ENDBRANCH   8  16
ENDBRANCH   7   8
ENDBRANCH   5   7
ENDBRANCH   4   5
ENDBRANCH   3   4
ENDBRANCH   2   3
ENDBRANCH   1   2
BRANCH   1  30
ATOM     30  C   UNL A   1      39.312  22.246  26.059  1.00  0.00     0.188 C 
BRANCH  30  31
ATOM     31  C   UNL A   1      40.154  20.990  26.190  1.00  0.00     0.188 C 
BRANCH  31  32
ATOM     32  O   UNL A   1      40.450  20.801  27.558  1.00  0.00    -0.376 OA
BRANCH  32  33
ATOM     33  C   UNL A   1      41.370  21.703  28.136  1.00  0.00     0.202 C 
BRANCH  33  34
ATOM     34  C   UNL A   1      42.532  22.042  27.182  1.00  0.00     0.261 C 
BRANCH  34  35
ATOM     35  O   UNL A   1      42.822  23.470  27.213  1.00  0.00    -0.460 OA
BRANCH  35  36
ATOM     36  C   UNL A   1      42.392  24.280  26.169  1.00  0.00     0.338 C 
ATOM     37  O   UNL A   1      42.830  24.245  25.052  1.00  0.00    -0.246 OA
BRANCH  36  38
ATOM     38  C   UNL A   1      41.547  25.420  26.723  1.00  0.00     0.060 A 
ATOM     39  C   UNL A   1      41.109  26.611  26.110  1.00  0.00     0.016 A 
ATOM     40  C   UNL A   1      41.541  25.466  28.065  1.00  0.00     0.016 A 
ATOM     41  C   UNL A   1      40.853  27.849  26.887  1.00  0.00     0.010 A 
ATOM     42  C   UNL A   1      41.666  26.722  28.626  1.00  0.00     0.010 A 
ATOM     43  C   UNL A   1      41.232  27.973  28.223  1.00  0.00    -0.014 A 
BRANCH  43  44
ATOM     44  C   UNL A   1      41.323  29.228  29.269  1.00  0.00     0.031 A 
ATOM     45  C   UNL A   1      40.182  30.378  29.798  1.00  0.00     0.074 A 
ATOM     46  C   UNL A   1      42.498  29.269  29.920  1.00  0.00     0.049 A 
ATOM     47  N   UNL A   1      40.298  31.690  29.740  1.00  0.00    -0.248 NA
ATOM     48  C   UNL A   1      38.808  30.147  30.398  1.00  0.00     0.031 C 
ATOM     49  C   UNL A   1      42.903  30.069  31.064  1.00  0.00     0.029 A 
ATOM     50  N   UNL A   1      43.664  28.576  29.572  1.00  0.00    -0.354 N 
ATOM     51  C   UNL A   1      39.170  32.239  30.423  1.00  0.00     0.074 A 
ATOM     52  C   UNL A   1      38.141  31.283  30.363  1.00  0.00     0.031 C 
ATOM     53  C   UNL A   1      44.250  30.107  31.081  1.00  0.00     0.029 A 
ATOM     54  C   UNL A   1      44.720  29.449  29.868  1.00  0.00     0.049 A 
ATOM     55  H   UNL A   1      43.728  27.667  29.199  1.00  0.00     0.167 HD
ATOM     56  C   UNL A   1      39.242  33.112  31.484  1.00  0.00     0.037 A 
ATOM     57  C   UNL A   1      45.383  30.002  28.810  1.00  0.00     0.037 A 
ATOM     58  C   UNL A   1      40.629  33.382  31.763  1.00  0.00     0.049 A 
ATOM     59  C   UNL A   1      45.126  31.499  28.715  1.00  0.00     0.074 A 
ATOM     60  C   UNL A   1      41.552  33.046  32.734  1.00  0.00     0.029 A 
ATOM     61  N   UNL A   1      41.363  33.801  30.690  1.00  0.00    -0.354 N 
ATOM     62  N   UNL A   1      44.391  32.168  29.564  1.00  0.00    -0.248 NA
ATOM     63  C   UNL A   1      45.620  32.357  27.643  1.00  0.00     0.031 C 
ATOM     64  C   UNL A   1      42.854  33.347  32.214  1.00  0.00     0.029 A 
ATOM     65  C   UNL A   1      42.698  33.868  30.944  1.00  0.00     0.049 A 
ATOM     66  H   UNL A   1      40.966  34.031  29.819  1.00  0.00     0.167 HD
ATOM     67  C   UNL A   1      44.255  33.466  29.162  1.00  0.00     0.074 A 
ATOM     68  C   UNL A   1      45.043  33.534  27.944  1.00  0.00     0.031 C 
ATOM     69  C   UNL A   1      43.482  34.370  29.837  1.00  0.00     0.037 A 
BRANCH  56  70
ATOM     70  C   UNL A   1      38.073  33.424  32.441  1.00  0.00     0.064 A 
ATOM     71  C   UNL A   1      36.956  34.171  32.015  1.00  0.00     0.173 A 
ATOM     72  C   UNL A   1      38.001  33.017  33.799  1.00  0.00     0.173 A 
ATOM     73  F   UNL A   1      36.805  34.529  30.735  1.00  0.00    -0.203 F 
ATOM     74  C   UNL A   1      35.933  34.579  32.884  1.00  0.00     0.198 A 
ATOM     75  C   UNL A   1      37.016  33.482  34.686  1.00  0.00     0.198 A 
ATOM     76  F   UNL A   1      38.881  32.141  34.309  1.00  0.00    -0.203 F 
ATOM     77  F   UNL A   1      34.900  35.288  32.407  1.00  0.00    -0.200 F 
ATOM     78  C   UNL A   1      35.983  34.270  34.227  1.00  0.00     0.200 A 
ATOM     79  F   UNL A   1      37.081  33.167  35.989  1.00  0.00    -0.200 F 
ATOM     80  F   UNL A   1      35.031  34.706  35.065  1.00  0.00    -0.200 F 
ENDBRANCH  56  70
BRANCH  57  81
ATOM     81  C   UNL A   1      45.572  29.002  27.690  1.00  0.00     0.064 A 
ATOM     82  C   UNL A   1      46.552  27.987  27.870  1.00  0.00     0.173 A 
ATOM     83  C   UNL A   1      44.648  28.784  26.663  1.00  0.00     0.173 A 
ATOM     84  F   UNL A   1      47.494  28.126  28.818  1.00  0.00    -0.203 F 
ATOM     85  C   UNL A   1      46.502  26.770  27.188  1.00  0.00     0.198 A 
ATOM     86  C   UNL A   1      44.639  27.582  25.934  1.00  0.00     0.198 A 
ATOM     87  F   UNL A   1      43.663  29.663  26.432  1.00  0.00    -0.203 F 
ATOM     88  F   UNL A   1      47.342  25.779  27.523  1.00  0.00    -0.200 F 
ATOM     89  C   UNL A   1      45.532  26.560  26.231  1.00  0.00     0.200 A 
ATOM     90  F   UNL A   1      43.670  27.357  25.034  1.00  0.00    -0.200 F 
ATOM     91  F   UNL A   1      45.415  25.363  25.638  1.00  0.00    -0.200 F 
ENDBRANCH  57  81
BRANCH  69  92
ATOM     92  C   UNL A   1      43.276  35.810  29.420  1.00  0.00     0.064 A 
ATOM     93  C   UNL A   1      43.753  36.861  30.208  1.00  0.00     0.173 A 
ATOM     94  C   UNL A   1      42.509  36.204  28.287  1.00  0.00     0.173 A 
ATOM     95  F   UNL A   1      44.369  36.618  31.374  1.00  0.00    -0.203 F 
ATOM     96  C   UNL A   1      43.579  38.194  29.834  1.00  0.00     0.198 A 
ATOM     97  C   UNL A   1      42.289  37.533  27.948  1.00  0.00     0.198 A 
ATOM     98  F   UNL A   1      41.948  35.336  27.438  1.00  0.00    -0.203 F 
ATOM     99  F   UNL A   1      44.121  39.162  30.583  1.00  0.00    -0.200 F 
ATOM    100  C   UNL A   1      42.852  38.530  28.706  1.00  0.00     0.200 A 
ATOM    101  F   UNL A   1      41.538  37.827  26.878  1.00  0.00    -0.200 F 
ATOM    102  F   UNL A   1      42.684  39.810  28.353  1.00  0.00    -0.200 F 
ENDBRANCH  69  92
ENDBRANCH  43  44
ENDBRANCH  36  38
ENDBRANCH  35  36
ENDBRANCH  34  35
ENDBRANCH  33  34
ENDBRANCH  32  33
ENDBRANCH  31  32
ENDBRANCH  30  31
ENDBRANCH   1  30
TORSDOF 23
ENDMDL
MODEL 3
REMARK VINA RESULT:     -11.3      4.067      9.929
REMARK SMILES Cc1ccc([C@@H](CC(=O)OCCOCCOCCOC(=O)c2ccc(-c3c4nc(c(-c5c(F)c(F)c(F)c(F)c5F)c5ccc([nH]5)c(-c5c(F)c(F)c(F)c(F)c5F)c5nc(c(-c6c(F)c(F)c(F)c(F)c6F)c6ccc3[nH]6)C=C5)C=C4)cc2)NC(=O)c2ccc(OC(F)F)cc2)cc1
REMARK SMILES IDX 13 1 12 2 11 3 10 4 8 5 9 6 7 7 6 8 5 9 1 10 2 11 3 12 99 13
REMARK SMILES IDX 4 14 98 15 85 16 86 17 87 19 88 20 89 21 97 22 90 23 96 24
REMARK SMILES IDX 91 25 92 26 93 27 94 28 95 29 14 30 15 31 16 32 17 33 18 34
REMARK SMILES IDX 19 35 20 36 21 37 22 38 23 39 84 40 24 41 83 42 25 43 26 44
REMARK SMILES IDX 27 45 77 46 28 47 82 48 76 49 78 50 29 51 81 52 75 53 74 54
REMARK SMILES IDX 30 56 62 57 42 58 61 59 43 60 46 61 60 62 79 63 44 64 45 65
REMARK SMILES IDX 59 67 80 68 47 69 31 70 32 71 40 72 33 73 34 74 38 75 41 76
REMARK SMILES IDX 35 77 36 78 39 79 37 80 63 81 64 82 72 83 65 84 66 85 70 86
REMARK SMILES IDX 73 87 67 88 68 89 71 90 69 91 48 92 49 93 57 94 50 95 51 96
REMARK SMILES IDX 55 97 58 98 52 99 53 100 56 101 54 102
REMARK H PARENT 85 18 78 55 46 66
REMARK Flexibility Score: inf
ROOT
ATOM      1  O   UNL A   1      32.684  30.509  27.022  1.00  0.00    -0.376 OA
ENDROOT
BRANCH   1   2
ATOM      2  C   UNL A   1      31.774  29.385  26.960  1.00  0.00     0.202 C 
BRANCH   2   3
ATOM      3  C   UNL A   1      32.310  27.841  26.955  1.00  0.00     0.261 C 
BRANCH   3   4
ATOM      4  O   UNL A   1      31.559  26.338  26.506  1.00  0.00    -0.463 OA
BRANCH   4   5
ATOM      5  C   UNL A   1      31.819  24.920  26.514  1.00  0.00     0.308 C 
ATOM      6  O   UNL A   1      31.356  24.061  27.273  1.00  0.00    -0.252 OA
BRANCH   5   7
ATOM      7  C   UNL A   1      32.883  24.225  25.727  1.00  0.00     0.152 C 
BRANCH   7   8
ATOM      8  C   UNL A   1      32.715  23.953  24.266  1.00  0.00     0.123 C 
BRANCH   8   9
ATOM      9  C   UNL A   1      33.134  22.486  24.200  1.00  0.00    -0.025 A 
ATOM     10  C   UNL A   1      32.772  18.274  25.045  1.00  0.00     0.044 C 
ATOM     11  C   UNL A   1      32.974  19.716  24.687  1.00  0.00    -0.051 A 
ATOM     12  C   UNL A   1      33.772  20.533  25.492  1.00  0.00     0.004 A 
ATOM     13  C   UNL A   1      32.305  20.277  23.597  1.00  0.00     0.004 A 
ATOM     14  C   UNL A   1      33.891  21.898  25.223  1.00  0.00     0.006 A 
ATOM     15  C   UNL A   1      32.390  21.646  23.350  1.00  0.00     0.006 A 
ENDBRANCH   8   9
BRANCH   8  16
ATOM     16  N   UNL A   1      33.414  24.860  23.368  1.00  0.00    -0.345 N 
ATOM     17  C   UNL A   1      33.092  25.976  22.631  1.00  0.00     0.251 C 
ATOM     18  H   UNL A   1      34.361  24.610  23.259  1.00  0.00     0.164 HD
ATOM     19  O   UNL A   1      33.898  26.266  21.740  1.00  0.00    -0.269 OA
BRANCH  17  20
ATOM     20  C   UNL A   1      31.893  26.857  22.747  1.00  0.00     0.040 A 
ATOM     21  C   UNL A   1      32.142  28.243  22.710  1.00  0.00     0.017 A 
ATOM     22  C   UNL A   1      30.620  26.445  23.152  1.00  0.00     0.017 A 
ATOM     23  C   UNL A   1      31.143  29.181  23.005  1.00  0.00     0.047 A 
ATOM     24  C   UNL A   1      29.602  27.395  23.431  1.00  0.00     0.047 A 
ATOM     25  C   UNL A   1      29.857  28.766  23.344  1.00  0.00     0.126 A 
BRANCH  25  26
ATOM     26  O   UNL A   1      28.988  29.787  23.602  1.00  0.00    -0.435 OA
BRANCH  26  27
ATOM     27  C   UNL A   1      28.376  30.462  22.512  1.00  0.00     0.542 C 
ATOM     28  F   UNL A   1      29.057  31.596  22.218  1.00  0.00    -0.167 F 
ATOM     29  F   UNL A   1      28.377  29.666  21.419  1.00  0.00    -0.167 F 
ENDBRANCH  26  27
ENDBRANCH  25  26
ENDBRANCH  17  20
ENDBRANCH   8  16
ENDBRANCH   7   8
ENDBRANCH   5   7
ENDBRANCH   4   5
ENDBRANCH   3   4
ENDBRANCH   2   3
ENDBRANCH   1   2
BRANCH   1  30
ATOM     30  C   UNL A   1      34.071  30.411  27.411  1.00  0.00     0.188 C 
BRANCH  30  31
ATOM     31  C   UNL A   1      34.883  31.646  27.753  1.00  0.00     0.188 C 
BRANCH  31  32
ATOM     32  O   UNL A   1      34.070  32.509  28.522  1.00  0.00    -0.376 OA
BRANCH  32  33
ATOM     33  C   UNL A   1      34.734  33.522  29.247  1.00  0.00     0.202 C 
BRANCH  33  34
ATOM     34  C   UNL A   1      33.751  34.514  29.898  1.00  0.00     0.261 C 
BRANCH  34  35
ATOM     35  O   UNL A   1      34.228  34.922  31.213  1.00  0.00    -0.460 OA
BRANCH  35  36
ATOM     36  C   UNL A   1      34.284  33.990  32.241  1.00  0.00     0.338 C 
ATOM     37  O   UNL A   1      33.340  33.626  32.887  1.00  0.00    -0.246 OA
BRANCH  36  38
ATOM     38  C   UNL A   1      35.736  33.760  32.641  1.00  0.00     0.060 A 
ATOM     39  C   UNL A   1      36.877  34.560  32.432  1.00  0.00     0.016 A 
ATOM     40  C   UNL A   1      36.016  32.469  32.886  1.00  0.00     0.016 A 
ATOM     41  C   UNL A   1      38.236  33.979  32.308  1.00  0.00     0.010 A 
ATOM     42  C   UNL A   1      37.211  32.003  32.373  1.00  0.00     0.010 A 
ATOM     43  C   UNL A   1      38.442  32.606  32.175  1.00  0.00    -0.014 A 
BRANCH  43  44
ATOM     44  C   UNL A   1      39.734  31.681  31.786  1.00  0.00     0.031 A 
ATOM     45  C   UNL A   1      39.901  30.256  30.866  1.00  0.00     0.074 A 
ATOM     46  C   UNL A   1      40.896  32.234  32.171  1.00  0.00     0.049 A 
ATOM     47  N   UNL A   1      40.442  29.120  31.261  1.00  0.00    -0.248 NA
ATOM     48  C   UNL A   1      39.443  29.981  29.447  1.00  0.00     0.031 C 
ATOM     49  C   UNL A   1      42.262  31.863  31.840  1.00  0.00     0.029 A 
ATOM     50  N   UNL A   1      41.052  33.289  33.080  1.00  0.00    -0.354 N 
ATOM     51  C   UNL A   1      40.492  28.263  30.120  1.00  0.00     0.074 A 
ATOM     52  C   UNL A   1      39.477  28.680  29.241  1.00  0.00     0.031 C 
ATOM     53  C   UNL A   1      43.070  32.394  32.780  1.00  0.00     0.029 A 
ATOM     54  C   UNL A   1      42.219  32.993  33.800  1.00  0.00     0.049 A 
ATOM     55  H   UNL A   1      40.465  34.072  33.190  1.00  0.00     0.167 HD
ATOM     56  C   UNL A   1      41.634  27.673  29.628  1.00  0.00     0.037 A 
ATOM     57  C   UNL A   1      42.064  32.612  35.102  1.00  0.00     0.037 A 
ATOM     58  C   UNL A   1      42.743  28.054  30.464  1.00  0.00     0.049 A 
ATOM     59  C   UNL A   1      42.435  31.149  35.300  1.00  0.00     0.074 A 
ATOM     60  C   UNL A   1      43.839  28.889  30.376  1.00  0.00     0.029 A 
ATOM     61  N   UNL A   1      42.567  27.820  31.799  1.00  0.00    -0.354 N 
ATOM     62  N   UNL A   1      42.878  30.373  34.345  1.00  0.00    -0.248 NA
ATOM     63  C   UNL A   1      42.293  30.422  36.558  1.00  0.00     0.031 C 
ATOM     64  C   UNL A   1      44.341  29.083  31.706  1.00  0.00     0.029 A 
ATOM     65  C   UNL A   1      43.549  28.356  32.573  1.00  0.00     0.049 A 
ATOM     66  H   UNL A   1      41.805  27.315  32.163  1.00  0.00     0.167 HD
ATOM     67  C   UNL A   1      43.022  29.093  34.796  1.00  0.00     0.074 A 
ATOM     68  C   UNL A   1      42.635  29.173  36.193  1.00  0.00     0.031 C 
ATOM     69  C   UNL A   1      43.410  28.064  33.982  1.00  0.00     0.037 A 
BRANCH  56  70
ATOM     70  C   UNL A   1      41.762  27.053  28.221  1.00  0.00     0.064 A 
ATOM     71  C   UNL A   1      41.677  25.660  28.024  1.00  0.00     0.173 A 
ATOM     72  C   UNL A   1      41.976  27.786  27.024  1.00  0.00     0.173 A 
ATOM     73  F   UNL A   1      41.357  24.833  29.026  1.00  0.00    -0.203 F 
ATOM     74  C   UNL A   1      41.909  25.049  26.783  1.00  0.00     0.198 A 
ATOM     75  C   UNL A   1      42.278  27.173  25.796  1.00  0.00     0.198 A 
ATOM     76  F   UNL A   1      41.888  29.125  27.004  1.00  0.00    -0.203 F 
ATOM     77  F   UNL A   1      41.811  23.716  26.670  1.00  0.00    -0.200 F 
ATOM     78  C   UNL A   1      42.250  25.800  25.678  1.00  0.00     0.200 A 
ATOM     79  F   UNL A   1      42.604  27.924  24.733  1.00  0.00    -0.200 F 
ATOM     80  F   UNL A   1      42.523  25.209  24.506  1.00  0.00    -0.200 F 
ENDBRANCH  56  70
BRANCH  57  81
ATOM     81  C   UNL A   1      40.982  33.414  35.790  1.00  0.00     0.064 A 
ATOM     82  C   UNL A   1      39.711  32.797  35.961  1.00  0.00     0.173 A 
ATOM     83  C   UNL A   1      41.217  34.554  36.565  1.00  0.00     0.173 A 
ATOM     84  F   UNL A   1      39.391  31.711  35.238  1.00  0.00    -0.203 F 
ATOM     85  C   UNL A   1      38.816  33.192  36.957  1.00  0.00     0.198 A 
ATOM     86  C   UNL A   1      40.284  34.988  37.525  1.00  0.00     0.198 A 
ATOM     87  F   UNL A   1      42.394  35.191  36.505  1.00  0.00    -0.203 F 
ATOM     88  F   UNL A   1      37.713  32.467  37.192  1.00  0.00    -0.200 F 
ATOM     89  C   UNL A   1      39.112  34.279  37.752  1.00  0.00     0.200 A 
ATOM     90  F   UNL A   1      40.589  36.016  38.330  1.00  0.00    -0.200 F 
ATOM     91  F   UNL A   1      38.306  34.609  38.772  1.00  0.00    -0.200 F 
ENDBRANCH  57  81
BRANCH  69  92
ATOM     92  C   UNL A   1      43.559  26.624  34.424  1.00  0.00     0.064 A 
ATOM     93  C   UNL A   1      44.799  25.982  34.374  1.00  0.00     0.173 A 
ATOM     94  C   UNL A   1      42.465  25.798  34.809  1.00  0.00     0.173 A 
ATOM     95  F   UNL A   1      45.879  26.615  33.894  1.00  0.00    -0.203 F 
ATOM     96  C   UNL A   1      44.955  24.657  34.786  1.00  0.00     0.198 A 
ATOM     97  C   UNL A   1      42.614  24.463  35.163  1.00  0.00     0.198 A 
ATOM     98  F   UNL A   1      41.201  26.232  34.882  1.00  0.00    -0.203 F 
ATOM     99  F   UNL A   1      46.177  24.111  34.791  1.00  0.00    -0.200 F 
ATOM    100  C   UNL A   1      43.866  23.900  35.181  1.00  0.00     0.200 A 
ATOM    101  F   UNL A   1      41.534  23.742  35.494  1.00  0.00    -0.200 F 
ATOM    102  F   UNL A   1      44.020  22.629  35.571  1.00  0.00    -0.200 F 
ENDBRANCH  69  92
ENDBRANCH  43  44
ENDBRANCH  36  38
ENDBRANCH  35  36
ENDBRANCH  34  35
ENDBRANCH  33  34
ENDBRANCH  32  33
ENDBRANCH  31  32
ENDBRANCH  30  31
ENDBRANCH   1  30
TORSDOF 23
ENDMDL
