MODEL 1
REMARK VINA RESULT:     -11.0      0.000      0.000
REMARK SMILES C[NH2+][C@]1(C(=O)OCCOCCOCCOC(=O)c2ccc(-c3c4nc(c(-c5c(F)c(F)c(F)c(F)c5F)c5ccc([nH]5)c(-c5c(F)c(F)c(F)c(F)c5F)c5nc(c(-c6c(F)c(F)c(F)c(F)c6F)c6ccc3[nH]6)C=C5)C=C4)cc2)CC[C@H](SC2CCCCC2)C1
REMARK SMILES IDX 10 1 9 2 8 3 7 4 6 5 4 6 5 7 3 8 81 9 91 10 82 11 83 12 2 13
REMARK SMILES IDX 1 14 84 17 85 18 86 19 90 20 87 21 89 22 88 23 11 24 12 25
REMARK SMILES IDX 13 26 14 27 15 28 16 29 17 30 18 31 19 32 80 33 20 34 79 35
REMARK SMILES IDX 21 36 22 37 23 38 73 39 24 40 78 41 72 42 74 43 25 44 77 45
REMARK SMILES IDX 71 46 70 47 26 49 58 50 38 51 57 52 39 53 42 54 56 55 75 56
REMARK SMILES IDX 40 57 41 58 55 60 76 61 43 62 27 63 28 64 36 65 29 66 30 67
REMARK SMILES IDX 34 68 37 69 31 70 32 71 35 72 33 73 59 74 60 75 68 76 61 77
REMARK SMILES IDX 62 78 66 79 69 80 63 81 64 82 67 83 65 84 44 85 45 86 53 87
REMARK SMILES IDX 46 88 47 89 51 90 54 91 48 92 49 93 52 94 50 95
REMARK H PARENT 2 15 2 16 74 48 42 59
REMARK Flexibility Score: inf
ROOT
ATOM      1  C   UNL A   1      40.065  21.083  26.688  1.00  0.00     0.188 C 
ENDROOT
BRANCH   1   2
ATOM      2  O   UNL A   1      39.474  22.111  25.900  1.00  0.00    -0.376 OA
BRANCH   2   3
ATOM      3  C   UNL A   1      38.056  22.121  25.745  1.00  0.00     0.202 C 
BRANCH   3   4
ATOM      4  C   UNL A   1      37.419  21.264  24.637  1.00  0.00     0.261 C 
BRANCH   4   5
ATOM      5  O   UNL A   1      36.033  21.563  24.380  1.00  0.00    -0.459 OA
BRANCH   5   6
ATOM      6  C   UNL A   1      35.119  20.715  24.929  1.00  0.00     0.368 C 
ATOM      7  O   UNL A   1      35.221  19.491  24.909  1.00  0.00    -0.245 OA
BRANCH   6   8
ATOM      8  C   UNL A   1      33.960  21.452  25.656  1.00  0.00     0.195 C 
ATOM      9  C   UNL A   1      34.046  21.428  27.199  1.00  0.00     0.082 C 
ATOM     10  C   UNL A   1      34.139  22.969  25.438  1.00  0.00     0.095 C 
ATOM     11  C   UNL A   1      33.176  22.602  27.642  1.00  0.00     0.022 C 
ATOM     12  C   UNL A   1      33.367  23.672  26.564  1.00  0.00     0.054 C 
BRANCH   8  13
ATOM     13  N   UNL A   1      32.636  20.900  25.231  1.00  0.00    -0.335 N 
ATOM     14  C   UNL A   1      32.458  20.776  23.786  1.00  0.00     0.331 C 
ATOM     15  H   UNL A   1      32.532  19.973  25.644  1.00  0.00     0.347 HD
ATOM     16  H   UNL A   1      31.931  21.565  25.551  1.00  0.00     0.347 HD
ENDBRANCH   8  13
BRANCH  12  17
ATOM     17  S   UNL A   1      31.800  24.346  25.893  1.00  0.00    -0.155 SA
BRANCH  17  18
ATOM     18  C   UNL A   1      32.112  26.148  25.771  1.00  0.00     0.047 C 
ATOM     19  C   UNL A   1      33.589  26.488  25.986  1.00  0.00     0.014 C 
ATOM     20  C   UNL A   1      31.548  26.792  24.502  1.00  0.00     0.014 C 
ATOM     21  C   UNL A   1      33.812  27.998  25.983  1.00  0.00     0.001 C 
ATOM     22  C   UNL A   1      31.788  28.301  24.506  1.00  0.00     0.001 C 
ATOM     23  C   UNL A   1      33.267  28.629  24.705  1.00  0.00     0.000 C 
ENDBRANCH  17  18
ENDBRANCH  12  17
ENDBRANCH   6   8
ENDBRANCH   5   6
ENDBRANCH   4   5
ENDBRANCH   3   4
ENDBRANCH   2   3
ENDBRANCH   1   2
BRANCH   1  24
ATOM     24  C   UNL A   1      40.399  19.742  26.016  1.00  0.00     0.188 C 
BRANCH  24  25
ATOM     25  O   UNL A   1      41.727  19.629  25.558  1.00  0.00    -0.376 OA
BRANCH  25  26
ATOM     26  C   UNL A   1      42.725  20.422  26.175  1.00  0.00     0.202 C 
BRANCH  26  27
ATOM     27  C   UNL A   1      43.507  21.489  25.384  1.00  0.00     0.261 C 
BRANCH  27  28
ATOM     28  O   UNL A   1      42.830  22.717  25.073  1.00  0.00    -0.460 OA
BRANCH  28  29
ATOM     29  C   UNL A   1      43.579  23.846  25.024  1.00  0.00     0.338 C 
ATOM     30  O   UNL A   1      44.472  24.103  24.242  1.00  0.00    -0.246 OA
BRANCH  29  31
ATOM     31  C   UNL A   1      42.973  24.823  25.962  1.00  0.00     0.060 A 
ATOM     32  C   UNL A   1      43.469  26.134  25.992  1.00  0.00     0.016 A 
ATOM     33  C   UNL A   1      41.918  24.450  26.797  1.00  0.00     0.016 A 
ATOM     34  C   UNL A   1      42.928  27.070  26.876  1.00  0.00     0.010 A 
ATOM     35  C   UNL A   1      41.394  25.381  27.700  1.00  0.00     0.010 A 
ATOM     36  C   UNL A   1      41.914  26.687  27.765  1.00  0.00    -0.014 A 
BRANCH  36  37
ATOM     37  C   UNL A   1      41.529  27.580  28.887  1.00  0.00     0.031 A 
ATOM     38  C   UNL A   1      42.307  27.491  30.169  1.00  0.00     0.074 A 
ATOM     39  C   UNL A   1      40.511  28.453  28.776  1.00  0.00     0.049 A 
ATOM     40  N   UNL A   1      42.104  28.092  31.314  1.00  0.00    -0.248 NA
ATOM     41  C   UNL A   1      43.474  26.593  30.159  1.00  0.00     0.031 C 
ATOM     42  C   UNL A   1      39.711  28.675  27.576  1.00  0.00     0.029 A 
ATOM     43  N   UNL A   1      39.970  29.307  29.708  1.00  0.00    -0.354 N 
ATOM     44  C   UNL A   1      43.108  27.637  32.160  1.00  0.00     0.074 A 
ATOM     45  C   UNL A   1      43.902  26.692  31.408  1.00  0.00     0.031 C 
ATOM     46  C   UNL A   1      38.764  29.590  27.849  1.00  0.00     0.029 A 
ATOM     47  C   UNL A   1      38.870  29.991  29.252  1.00  0.00     0.049 A 
ATOM     48  H   UNL A   1      40.336  29.418  30.615  1.00  0.00     0.167 HD
ATOM     49  C   UNL A   1      43.349  27.984  33.446  1.00  0.00     0.037 A 
ATOM     50  C   UNL A   1      38.029  30.819  29.904  1.00  0.00     0.037 A 
ATOM     51  C   UNL A   1      42.558  28.923  34.196  1.00  0.00     0.049 A 
ATOM     52  C   UNL A   1      38.269  31.123  31.363  1.00  0.00     0.074 A 
ATOM     53  C   UNL A   1      42.732  29.350  35.501  1.00  0.00     0.029 A 
ATOM     54  N   UNL A   1      41.435  29.574  33.709  1.00  0.00    -0.354 N 
ATOM     55  N   UNL A   1      39.230  30.708  32.152  1.00  0.00    -0.248 NA
ATOM     56  C   UNL A   1      37.303  32.016  32.022  1.00  0.00     0.031 C 
ATOM     57  C   UNL A   1      41.679  30.214  35.822  1.00  0.00     0.029 A 
ATOM     58  C   UNL A   1      40.888  30.377  34.696  1.00  0.00     0.049 A 
ATOM     59  H   UNL A   1      41.078  29.478  32.795  1.00  0.00     0.167 HD
ATOM     60  C   UNL A   1      39.005  31.312  33.384  1.00  0.00     0.074 A 
ATOM     61  C   UNL A   1      37.822  32.133  33.236  1.00  0.00     0.031 C 
ATOM     62  C   UNL A   1      39.716  31.200  34.533  1.00  0.00     0.037 A 
BRANCH  49  63
ATOM     63  C   UNL A   1      44.502  27.315  34.138  1.00  0.00     0.064 A 
ATOM     64  C   UNL A   1      45.783  27.889  34.166  1.00  0.00     0.173 A 
ATOM     65  C   UNL A   1      44.316  26.095  34.806  1.00  0.00     0.173 A 
ATOM     66  F   UNL A   1      46.018  29.046  33.529  1.00  0.00    -0.203 F 
ATOM     67  C   UNL A   1      46.838  27.252  34.813  1.00  0.00     0.198 A 
ATOM     68  C   UNL A   1      45.366  25.478  35.481  1.00  0.00     0.198 A 
ATOM     69  F   UNL A   1      43.111  25.504  34.813  1.00  0.00    -0.203 F 
ATOM     70  F   UNL A   1      48.064  27.794  34.784  1.00  0.00    -0.200 F 
ATOM     71  C   UNL A   1      46.628  26.052  35.476  1.00  0.00     0.200 A 
ATOM     72  F   UNL A   1      45.157  24.325  36.131  1.00  0.00    -0.200 F 
ATOM     73  F   UNL A   1      47.643  25.446  36.106  1.00  0.00    -0.200 F 
ENDBRANCH  49  63
BRANCH  50  74
ATOM     74  C   UNL A   1      36.863  31.410  29.193  1.00  0.00     0.064 A 
ATOM     75  C   UNL A   1      36.842  32.768  28.842  1.00  0.00     0.173 A 
ATOM     76  C   UNL A   1      35.733  30.640  28.882  1.00  0.00     0.173 A 
ATOM     77  F   UNL A   1      37.884  33.555  29.147  1.00  0.00    -0.203 F 
ATOM     78  C   UNL A   1      35.727  33.334  28.227  1.00  0.00     0.198 A 
ATOM     79  C   UNL A   1      34.633  31.200  28.238  1.00  0.00     0.198 A 
ATOM     80  F   UNL A   1      35.699  29.338  29.204  1.00  0.00    -0.203 F 
ATOM     81  F   UNL A   1      35.711  34.647  27.954  1.00  0.00    -0.200 F 
ATOM     82  C   UNL A   1      34.626  32.549  27.919  1.00  0.00     0.200 A 
ATOM     83  F   UNL A   1      33.573  30.436  27.937  1.00  0.00    -0.200 F 
ATOM     84  F   UNL A   1      33.554  33.096  27.329  1.00  0.00    -0.200 F 
ENDBRANCH  50  74
BRANCH  62  85
ATOM     85  C   UNL A   1      39.268  32.019  35.713  1.00  0.00     0.064 A 
ATOM     86  C   UNL A   1      39.683  33.346  35.894  1.00  0.00     0.173 A 
ATOM     87  C   UNL A   1      38.371  31.479  36.649  1.00  0.00     0.173 A 
ATOM     88  F   UNL A   1      40.548  33.907  35.036  1.00  0.00    -0.203 F 
ATOM     89  C   UNL A   1      39.239  34.092  36.983  1.00  0.00     0.198 A 
ATOM     90  C   UNL A   1      37.903  32.239  37.717  1.00  0.00     0.198 A 
ATOM     91  F   UNL A   1      37.935  30.217  36.517  1.00  0.00    -0.203 F 
ATOM     92  F   UNL A   1      39.687  35.343  37.164  1.00  0.00    -0.200 F 
ATOM     93  C   UNL A   1      38.344  33.542  37.888  1.00  0.00     0.200 A 
ATOM     94  F   UNL A   1      37.025  31.709  38.579  1.00  0.00    -0.200 F 
ATOM     95  F   UNL A   1      37.910  34.265  38.930  1.00  0.00    -0.200 F 
ENDBRANCH  62  85
ENDBRANCH  36  37
ENDBRANCH  29  31
ENDBRANCH  28  29
ENDBRANCH  27  28
ENDBRANCH  26  27
ENDBRANCH  25  26
ENDBRANCH  24  25
ENDBRANCH   1  24
TORSDOF 20
ENDMDL
MODEL 2
REMARK VINA RESULT:     -10.6      1.397      3.422
REMARK SMILES C[NH2+][C@]1(C(=O)OCCOCCOCCOC(=O)c2ccc(-c3c4nc(c(-c5c(F)c(F)c(F)c(F)c5F)c5ccc([nH]5)c(-c5c(F)c(F)c(F)c(F)c5F)c5nc(c(-c6c(F)c(F)c(F)c(F)c6F)c6ccc3[nH]6)C=C5)C=C4)cc2)CC[C@H](SC2CCCCC2)C1
REMARK SMILES IDX 10 1 9 2 8 3 7 4 6 5 4 6 5 7 3 8 81 9 91 10 82 11 83 12 2 13
REMARK SMILES IDX 1 14 84 17 85 18 86 19 90 20 87 21 89 22 88 23 11 24 12 25
REMARK SMILES IDX 13 26 14 27 15 28 16 29 17 30 18 31 19 32 80 33 20 34 79 35
REMARK SMILES IDX 21 36 22 37 23 38 73 39 24 40 78 41 72 42 74 43 25 44 77 45
REMARK SMILES IDX 71 46 70 47 26 49 58 50 38 51 57 52 39 53 42 54 56 55 75 56
REMARK SMILES IDX 40 57 41 58 55 60 76 61 43 62 27 63 28 64 36 65 29 66 30 67
REMARK SMILES IDX 34 68 37 69 31 70 32 71 35 72 33 73 59 74 60 75 68 76 61 77
REMARK SMILES IDX 62 78 66 79 69 80 63 81 64 82 67 83 65 84 44 85 45 86 53 87
REMARK SMILES IDX 46 88 47 89 51 90 54 91 48 92 49 93 52 94 50 95
REMARK H PARENT 2 15 2 16 74 48 42 59
REMARK Flexibility Score: inf
ROOT
ATOM      1  C   UNL A   1      40.813  21.019  27.421  1.00  0.00     0.188 C 
ENDROOT
BRANCH   1   2
ATOM      2  O   UNL A   1      39.883  22.058  27.140  1.00  0.00    -0.376 OA
BRANCH   2   3
ATOM      3  C   UNL A   1      38.912  21.845  26.117  1.00  0.00     0.202 C 
BRANCH   3   4
ATOM      4  C   UNL A   1      38.134  23.051  25.560  1.00  0.00     0.261 C 
BRANCH   4   5
ATOM      5  O   UNL A   1      36.860  22.715  24.976  1.00  0.00    -0.459 OA
BRANCH   5   6
ATOM      6  C   UNL A   1      35.812  23.520  25.307  1.00  0.00     0.368 C 
ATOM      7  O   UNL A   1      35.935  24.640  25.795  1.00  0.00    -0.245 OA
BRANCH   6   8
ATOM      8  C   UNL A   1      34.431  22.909  24.937  1.00  0.00     0.195 C 
ATOM      9  C   UNL A   1      33.921  23.276  23.525  1.00  0.00     0.082 C 
ATOM     10  C   UNL A   1      34.613  21.392  24.729  1.00  0.00     0.095 C 
ATOM     11  C   UNL A   1      32.896  22.191  23.202  1.00  0.00     0.022 C 
ATOM     12  C   UNL A   1      33.438  20.920  23.860  1.00  0.00     0.054 C 
BRANCH   8  13
ATOM     13  N   UNL A   1      33.397  23.295  25.946  1.00  0.00    -0.335 N 
ATOM     14  C   UNL A   1      33.573  22.691  27.265  1.00  0.00     0.331 C 
ATOM     15  H   UNL A   1      33.423  24.309  26.056  1.00  0.00     0.347 HD
ATOM     16  H   UNL A   1      32.505  22.952  25.590  1.00  0.00     0.347 HD
ENDBRANCH   8  13
BRANCH  12  17
ATOM     17  S   UNL A   1      32.219  20.046  24.915  1.00  0.00    -0.155 SA
BRANCH  17  18
ATOM     18  C   UNL A   1      32.599  18.273  24.647  1.00  0.00     0.047 C 
ATOM     19  C   UNL A   1      33.849  18.079  23.785  1.00  0.00     0.014 C 
ATOM     20  C   UNL A   1      32.652  17.448  25.936  1.00  0.00     0.014 C 
ATOM     21  C   UNL A   1      34.090  16.601  23.490  1.00  0.00     0.001 C 
ATOM     22  C   UNL A   1      32.906  15.973  25.627  1.00  0.00     0.001 C 
ATOM     23  C   UNL A   1      34.163  15.790  24.780  1.00  0.00     0.000 C 
ENDBRANCH  17  18
ENDBRANCH  12  17
ENDBRANCH   6   8
ENDBRANCH   5   6
ENDBRANCH   4   5
ENDBRANCH   3   4
ENDBRANCH   2   3
ENDBRANCH   1   2
BRANCH   1  24
ATOM     24  C   UNL A   1      41.003  19.901  26.383  1.00  0.00     0.188 C 
BRANCH  24  25
ATOM     25  O   UNL A   1      42.296  19.828  25.827  1.00  0.00    -0.376 OA
BRANCH  25  26
ATOM     26  C   UNL A   1      43.205  20.881  26.091  1.00  0.00     0.202 C 
BRANCH  26  27
ATOM     27  C   UNL A   1      43.687  21.827  24.972  1.00  0.00     0.261 C 
BRANCH  27  28
ATOM     28  O   UNL A   1      43.084  23.128  24.894  1.00  0.00    -0.460 OA
BRANCH  28  29
ATOM     29  C   UNL A   1      43.895  24.201  25.057  1.00  0.00     0.338 C 
ATOM     30  O   UNL A   1      44.899  24.467  24.428  1.00  0.00    -0.246 OA
BRANCH  29  31
ATOM     31  C   UNL A   1      43.224  25.126  26.003  1.00  0.00     0.060 A 
ATOM     32  C   UNL A   1      43.600  26.477  26.014  1.00  0.00     0.016 A 
ATOM     33  C   UNL A   1      42.225  24.666  26.863  1.00  0.00     0.016 A 
ATOM     34  C   UNL A   1      42.995  27.367  26.905  1.00  0.00     0.010 A 
ATOM     35  C   UNL A   1      41.639  25.553  27.772  1.00  0.00     0.010 A 
ATOM     36  C   UNL A   1      42.040  26.901  27.818  1.00  0.00    -0.014 A 
BRANCH  36  37
ATOM     37  C   UNL A   1      41.599  27.764  28.943  1.00  0.00     0.031 A 
ATOM     38  C   UNL A   1      42.353  27.683  30.241  1.00  0.00     0.074 A 
ATOM     39  C   UNL A   1      40.554  28.602  28.823  1.00  0.00     0.049 A 
ATOM     40  N   UNL A   1      42.105  28.261  31.389  1.00  0.00    -0.248 NA
ATOM     41  C   UNL A   1      43.551  26.827  30.244  1.00  0.00     0.031 C 
ATOM     42  C   UNL A   1      39.772  28.812  27.609  1.00  0.00     0.029 A 
ATOM     43  N   UNL A   1      39.964  29.423  29.754  1.00  0.00    -0.354 N 
ATOM     44  C   UNL A   1      43.106  27.830  32.250  1.00  0.00     0.074 A 
ATOM     45  C   UNL A   1      43.949  26.923  31.503  1.00  0.00     0.031 C 
ATOM     46  C   UNL A   1      38.788  29.690  27.873  1.00  0.00     0.029 A 
ATOM     47  C   UNL A   1      38.850  30.075  29.283  1.00  0.00     0.049 A 
ATOM     48  H   UNL A   1      40.306  29.534  30.670  1.00  0.00     0.167 HD
ATOM     49  C   UNL A   1      43.308  28.166  33.547  1.00  0.00     0.037 A 
ATOM     50  C   UNL A   1      37.967  30.863  29.929  1.00  0.00     0.037 A 
ATOM     51  C   UNL A   1      42.468  29.066  34.291  1.00  0.00     0.049 A 
ATOM     52  C   UNL A   1      38.164  31.154  31.396  1.00  0.00     0.074 A 
ATOM     53  C   UNL A   1      42.599  29.480  35.606  1.00  0.00     0.029 A 
ATOM     54  N   UNL A   1      41.333  29.683  33.789  1.00  0.00    -0.354 N 
ATOM     55  N   UNL A   1      39.123  30.762  32.201  1.00  0.00    -0.248 NA
ATOM     56  C   UNL A   1      37.153  32.004  32.046  1.00  0.00     0.031 C 
ATOM     57  C   UNL A   1      41.510  30.302  35.915  1.00  0.00     0.029 A 
ATOM     58  C   UNL A   1      40.737  30.453  34.775  1.00  0.00     0.049 A 
ATOM     59  H   UNL A   1      40.999  29.589  32.867  1.00  0.00     0.167 HD
ATOM     60  C   UNL A   1      38.850  31.341  33.435  1.00  0.00     0.074 A 
ATOM     61  C   UNL A   1      37.643  32.121  33.272  1.00  0.00     0.031 C 
ATOM     62  C   UNL A   1      39.540  31.237  34.598  1.00  0.00     0.037 A 
BRANCH  49  63
ATOM     63  C   UNL A   1      44.468  27.528  34.254  1.00  0.00     0.064 A 
ATOM     64  C   UNL A   1      44.353  26.286  34.897  1.00  0.00     0.173 A 
ATOM     65  C   UNL A   1      45.723  28.157  34.265  1.00  0.00     0.173 A 
ATOM     66  F   UNL A   1      43.172  25.650  34.930  1.00  0.00    -0.203 F 
ATOM     67  C   UNL A   1      45.442  25.712  35.546  1.00  0.00     0.198 A 
ATOM     68  C   UNL A   1      46.819  27.564  34.886  1.00  0.00     0.198 A 
ATOM     69  F   UNL A   1      45.890  29.345  33.662  1.00  0.00    -0.203 F 
ATOM     70  F   UNL A   1      45.296  24.549  36.197  1.00  0.00    -0.200 F 
ATOM     71  C   UNL A   1      46.675  26.347  35.534  1.00  0.00     0.200 A 
ATOM     72  F   UNL A   1      48.012  28.173  34.862  1.00  0.00    -0.200 F 
ATOM     73  F   UNL A   1      47.724  25.788  36.152  1.00  0.00    -0.200 F 
ENDBRANCH  49  63
BRANCH  50  74
ATOM     74  C   UNL A   1      36.796  31.423  29.200  1.00  0.00     0.064 A 
ATOM     75  C   UNL A   1      36.732  32.784  28.871  1.00  0.00     0.173 A 
ATOM     76  C   UNL A   1      35.702  30.617  28.852  1.00  0.00     0.173 A 
ATOM     77  F   UNL A   1      37.737  33.604  29.212  1.00  0.00    -0.203 F 
ATOM     78  C   UNL A   1      35.611  33.320  28.239  1.00  0.00     0.198 A 
ATOM     79  C   UNL A   1      34.597  31.148  28.191  1.00  0.00     0.198 A 
ATOM     80  F   UNL A   1      35.709  29.310  29.151  1.00  0.00    -0.203 F 
ATOM     81  F   UNL A   1      35.553  34.636  27.987  1.00  0.00    -0.200 F 
ATOM     82  C   UNL A   1      34.547  32.501  27.894  1.00  0.00     0.200 A 
ATOM     83  F   UNL A   1      33.573  30.351  27.854  1.00  0.00    -0.200 F 
ATOM     84  F   UNL A   1      33.469  33.018  27.288  1.00  0.00    -0.200 F 
ENDBRANCH  50  74
BRANCH  62  85
ATOM     85  C   UNL A   1      39.039  32.022  35.778  1.00  0.00     0.064 A 
ATOM     86  C   UNL A   1      38.225  31.443  36.762  1.00  0.00     0.173 A 
ATOM     87  C   UNL A   1      39.422  33.362  35.950  1.00  0.00     0.173 A 
ATOM     88  F   UNL A   1      37.821  30.169  36.642  1.00  0.00    -0.203 F 
ATOM     89  C   UNL A   1      37.790  32.183  37.859  1.00  0.00     0.198 A 
ATOM     90  C   UNL A   1      39.012  34.090  37.064  1.00  0.00     0.198 A 
ATOM     91  F   UNL A   1      40.208  33.963  35.044  1.00  0.00    -0.203 F 
ATOM     92  F   UNL A   1      36.972  31.623  38.761  1.00  0.00    -0.200 F 
ATOM     93  C   UNL A   1      38.190  33.502  38.013  1.00  0.00     0.200 A 
ATOM     94  F   UNL A   1      39.415  35.358  37.219  1.00  0.00    -0.200 F 
ATOM     95  F   UNL A   1      37.778  34.210  39.074  1.00  0.00    -0.200 F 
ENDBRANCH  62  85
ENDBRANCH  36  37
ENDBRANCH  29  31
ENDBRANCH  28  29
ENDBRANCH  27  28
ENDBRANCH  26  27
ENDBRANCH  25  26
ENDBRANCH  24  25
ENDBRANCH   1  24
TORSDOF 20
ENDMDL
MODEL 3
REMARK VINA RESULT:     -10.4      3.504      8.806
REMARK SMILES C[NH2+][C@]1(C(=O)OCCOCCOCCOC(=O)c2ccc(-c3c4nc(c(-c5c(F)c(F)c(F)c(F)c5F)c5ccc([nH]5)c(-c5c(F)c(F)c(F)c(F)c5F)c5nc(c(-c6c(F)c(F)c(F)c(F)c6F)c6ccc3[nH]6)C=C5)C=C4)cc2)CC[C@H](SC2CCCCC2)C1
REMARK SMILES IDX 10 1 9 2 8 3 7 4 6 5 4 6 5 7 3 8 81 9 91 10 82 11 83 12 2 13
REMARK SMILES IDX 1 14 84 17 85 18 86 19 90 20 87 21 89 22 88 23 11 24 12 25
REMARK SMILES IDX 13 26 14 27 15 28 16 29 17 30 18 31 19 32 80 33 20 34 79 35
REMARK SMILES IDX 21 36 22 37 23 38 73 39 24 40 78 41 72 42 74 43 25 44 77 45
REMARK SMILES IDX 71 46 70 47 26 49 58 50 38 51 57 52 39 53 42 54 56 55 75 56
REMARK SMILES IDX 40 57 41 58 55 60 76 61 43 62 27 63 28 64 36 65 29 66 30 67
REMARK SMILES IDX 34 68 37 69 31 70 32 71 35 72 33 73 59 74 60 75 68 76 61 77
REMARK SMILES IDX 62 78 66 79 69 80 63 81 64 82 67 83 65 84 44 85 45 86 53 87
REMARK SMILES IDX 46 88 47 89 51 90 54 91 48 92 49 93 52 94 50 95
REMARK H PARENT 2 15 2 16 74 48 42 59
REMARK Flexibility Score: inf
ROOT
ATOM      1  C   UNL A   1      31.801  28.785  25.700  1.00  0.00     0.188 C 
ENDROOT
BRANCH   1   2
ATOM      2  O   UNL A   1      31.201  29.225  24.486  1.00  0.00    -0.376 OA
BRANCH   2   3
ATOM      3  C   UNL A   1      30.741  28.243  23.558  1.00  0.00     0.202 C 
BRANCH   3   4
ATOM      4  C   UNL A   1      31.610  27.906  22.334  1.00  0.00     0.261 C 
BRANCH   4   5
ATOM      5  O   UNL A   1      31.602  26.511  21.968  1.00  0.00    -0.459 OA
BRANCH   5   6
ATOM      6  C   UNL A   1      32.676  25.776  22.368  1.00  0.00     0.368 C 
ATOM      7  O   UNL A   1      33.799  25.881  21.881  1.00  0.00    -0.245 OA
BRANCH   6   8
ATOM      8  C   UNL A   1      32.361  24.832  23.562  1.00  0.00     0.195 C 
ATOM      9  C   UNL A   1      30.946  24.211  23.538  1.00  0.00     0.082 C 
ATOM     10  C   UNL A   1      33.183  23.539  23.387  1.00  0.00     0.095 C 
ATOM     11  C   UNL A   1      31.060  22.980  24.435  1.00  0.00     0.022 C 
ATOM     12  C   UNL A   1      32.478  22.451  24.210  1.00  0.00     0.054 C 
BRANCH   8  13
ATOM     13  N   UNL A   1      32.561  25.543  24.863  1.00  0.00    -0.335 N 
ATOM     14  C   UNL A   1      33.944  25.917  25.152  1.00  0.00     0.331 C 
ATOM     15  H   UNL A   1      31.999  26.394  24.849  1.00  0.00     0.347 HD
ATOM     16  H   UNL A   1      32.282  24.888  25.594  1.00  0.00     0.347 HD
ENDBRANCH   8  13
BRANCH  12  17
ATOM     17  S   UNL A   1      33.420  22.155  25.754  1.00  0.00    -0.155 SA
BRANCH  17  18
ATOM     18  C   UNL A   1      35.170  22.353  25.247  1.00  0.00     0.047 C 
ATOM     19  C   UNL A   1      35.931  23.304  26.174  1.00  0.00     0.014 C 
ATOM     20  C   UNL A   1      35.911  21.030  25.040  1.00  0.00     0.014 C 
ATOM     21  C   UNL A   1      37.355  23.536  25.676  1.00  0.00     0.001 C 
ATOM     22  C   UNL A   1      37.339  21.276  24.554  1.00  0.00     0.001 C 
ATOM     23  C   UNL A   1      38.093  22.213  25.495  1.00  0.00     0.000 C 
ENDBRANCH  17  18
ENDBRANCH  12  17
ENDBRANCH   6   8
ENDBRANCH   5   6
ENDBRANCH   4   5
ENDBRANCH   3   4
ENDBRANCH   2   3
ENDBRANCH   1   2
BRANCH   1  24
ATOM     24  C   UNL A   1      31.771  29.724  26.917  1.00  0.00     0.188 C 
BRANCH  24  25
ATOM     25  O   UNL A   1      32.385  30.975  26.709  1.00  0.00    -0.376 OA
BRANCH  25  26
ATOM     26  C   UNL A   1      31.571  32.133  26.692  1.00  0.00     0.202 C 
BRANCH  26  27
ATOM     27  C   UNL A   1      32.107  33.500  27.162  1.00  0.00     0.261 C 
BRANCH  27  28
ATOM     28  O   UNL A   1      33.099  33.506  28.200  1.00  0.00    -0.460 OA
BRANCH  28  29
ATOM     29  C   UNL A   1      34.263  34.153  27.946  1.00  0.00     0.338 C 
ATOM     30  O   UNL A   1      34.402  35.302  27.579  1.00  0.00    -0.246 OA
BRANCH  29  31
ATOM     31  C   UNL A   1      35.368  33.276  28.405  1.00  0.00     0.060 A 
ATOM     32  C   UNL A   1      35.082  31.952  28.764  1.00  0.00     0.016 A 
ATOM     33  C   UNL A   1      36.678  33.756  28.469  1.00  0.00     0.016 A 
ATOM     34  C   UNL A   1      36.101  31.109  29.214  1.00  0.00     0.010 A 
ATOM     35  C   UNL A   1      37.694  32.918  28.943  1.00  0.00     0.010 A 
ATOM     36  C   UNL A   1      37.407  31.600  29.345  1.00  0.00    -0.014 A 
BRANCH  36  37
ATOM     37  C   UNL A   1      38.431  30.813  30.077  1.00  0.00     0.031 A 
ATOM     38  C   UNL A   1      38.660  31.117  31.531  1.00  0.00     0.074 A 
ATOM     39  C   UNL A   1      39.146  29.848  29.470  1.00  0.00     0.049 A 
ATOM     40  N   UNL A   1      39.556  30.636  32.355  1.00  0.00    -0.248 NA
ATOM     41  C   UNL A   1      37.753  32.105  32.138  1.00  0.00     0.031 C 
ATOM     42  C   UNL A   1      38.988  29.421  28.083  1.00  0.00     0.029 A 
ATOM     43  N   UNL A   1      40.166  29.064  29.953  1.00  0.00    -0.354 N 
ATOM     44  C   UNL A   1      39.328  31.270  33.569  1.00  0.00     0.074 A 
ATOM     45  C   UNL A   1      38.229  32.188  33.370  1.00  0.00     0.031 C 
ATOM     46  C   UNL A   1      39.895  28.464  27.818  1.00  0.00     0.029 A 
ATOM     47  C   UNL A   1      40.720  28.239  29.005  1.00  0.00     0.049 A 
ATOM     48  H   UNL A   1      40.470  29.090  30.889  1.00  0.00     0.167 HD
ATOM     49  C   UNL A   1      39.974  31.097  34.747  1.00  0.00     0.037 A 
ATOM     50  C   UNL A   1      41.790  27.422  29.082  1.00  0.00     0.037 A 
ATOM     51  C   UNL A   1      41.069  30.185  34.944  1.00  0.00     0.049 A 
ATOM     52  C   UNL A   1      42.547  27.310  30.383  1.00  0.00     0.074 A 
ATOM     53  C   UNL A   1      41.780  29.928  36.105  1.00  0.00     0.029 A 
ATOM     54  N   UNL A   1      41.621  29.388  33.954  1.00  0.00    -0.354 N 
ATOM     55  N   UNL A   1      42.317  27.895  31.533  1.00  0.00    -0.248 NA
ATOM     56  C   UNL A   1      43.718  26.418  30.394  1.00  0.00     0.031 C 
ATOM     57  C   UNL A   1      42.798  29.018  35.801  1.00  0.00     0.029 A 
ATOM     58  C   UNL A   1      42.681  28.659  34.468  1.00  0.00     0.049 A 
ATOM     59  H   UNL A   1      41.306  29.346  33.021  1.00  0.00     0.167 HD
ATOM     60  C   UNL A   1      43.286  27.419  32.409  1.00  0.00     0.074 A 
ATOM     61  C   UNL A   1      44.102  26.487  31.661  1.00  0.00     0.031 C 
ATOM     62  C   UNL A   1      43.480  27.724  33.716  1.00  0.00     0.037 A 
BRANCH  49  63
ATOM     63  C   UNL A   1      39.531  31.938  35.909  1.00  0.00     0.064 A 
ATOM     64  C   UNL A   1      40.132  33.171  36.202  1.00  0.00     0.173 A 
ATOM     65  C   UNL A   1      38.470  31.516  36.725  1.00  0.00     0.173 A 
ATOM     66  F   UNL A   1      41.161  33.614  35.464  1.00  0.00    -0.203 F 
ATOM     67  C   UNL A   1      39.706  33.936  37.284  1.00  0.00     0.198 A 
ATOM     68  C   UNL A   1      38.024  32.299  37.785  1.00  0.00     0.198 A 
ATOM     69  F   UNL A   1      37.857  30.346  36.486  1.00  0.00    -0.203 F 
ATOM     70  F   UNL A   1      40.329  35.087  37.576  1.00  0.00    -0.200 F 
ATOM     71  C   UNL A   1      38.648  33.504  38.070  1.00  0.00     0.200 A 
ATOM     72  F   UNL A   1      36.993  31.886  38.535  1.00  0.00    -0.200 F 
ATOM     73  F   UNL A   1      38.234  34.246  39.106  1.00  0.00    -0.200 F 
ENDBRANCH  49  63
BRANCH  50  74
ATOM     74  C   UNL A   1      42.230  26.654  27.886  1.00  0.00     0.064 A 
ATOM     75  C   UNL A   1      43.159  27.190  26.983  1.00  0.00     0.173 A 
ATOM     76  C   UNL A   1      41.703  25.386  27.600  1.00  0.00     0.173 A 
ATOM     77  F   UNL A   1      43.668  28.413  27.193  1.00  0.00    -0.203 F 
ATOM     78  C   UNL A   1      43.529  26.495  25.833  1.00  0.00     0.198 A 
ATOM     79  C   UNL A   1      42.097  24.679  26.467  1.00  0.00     0.198 A 
ATOM     80  F   UNL A   1      40.803  24.831  28.426  1.00  0.00    -0.203 F 
ATOM     81  F   UNL A   1      44.377  27.056  24.959  1.00  0.00    -0.200 F 
ATOM     82  C   UNL A   1      43.002  25.238  25.579  1.00  0.00     0.200 A 
ATOM     83  F   UNL A   1      41.591  23.460  26.228  1.00  0.00    -0.200 F 
ATOM     84  F   UNL A   1      43.358  24.571  24.471  1.00  0.00    -0.200 F 
ENDBRANCH  50  74
BRANCH  62  85
ATOM     85  C   UNL A   1      44.588  27.011  34.441  1.00  0.00     0.064 A 
ATOM     86  C   UNL A   1      44.390  25.768  35.059  1.00  0.00     0.173 A 
ATOM     87  C   UNL A   1      45.880  27.561  34.475  1.00  0.00     0.173 A 
ATOM     88  F   UNL A   1      43.174  25.203  35.066  1.00  0.00    -0.203 F 
ATOM     89  C   UNL A   1      45.436  25.116  35.707  1.00  0.00     0.198 A 
ATOM     90  C   UNL A   1      46.931  26.891  35.094  1.00  0.00     0.198 A 
ATOM     91  F   UNL A   1      46.127  28.744  33.891  1.00  0.00    -0.203 F 
ATOM     92  F   UNL A   1      45.213  23.952  36.332  1.00  0.00    -0.200 F 
ATOM     93  C   UNL A   1      46.706  25.673  35.716  1.00  0.00     0.200 A 
ATOM     94  F   UNL A   1      48.160  27.424  35.087  1.00  0.00    -0.200 F 
ATOM     95  F   UNL A   1      47.714  25.039  36.332  1.00  0.00    -0.200 F 
ENDBRANCH  62  85
ENDBRANCH  36  37
ENDBRANCH  29  31
ENDBRANCH  28  29
ENDBRANCH  27  28
ENDBRANCH  26  27
ENDBRANCH  25  26
ENDBRANCH  24  25
ENDBRANCH   1  24
TORSDOF 20
ENDMDL
