MODEL 1
REMARK VINA RESULT:     -10.9      0.000      0.000
REMARK SMILES N#C[C@@]1([C@@H](O)C(=O)OCCOCCOCCOC(=O)c2ccc(-c3c4nc(c(-c5c(F)c(F)c(F)c(F)c5F)c5ccc([nH]5)c(-c5c(F)c(F)c(F)c(F)c5F)c5nc(c(-c6c(F)c(F)c(F)c(F)c6F)c6ccc3[nH]6)C=C5)C=C4)cc2)CCCc2ccccc21
REMARK SMILES IDX 12 1 11 2 10 3 9 4 8 5 6 6 7 7 4 8 3 9 83 10 91 11 84 12
REMARK SMILES IDX 86 13 90 14 85 15 87 16 89 17 88 18 2 19 1 20 5 21 13 23
REMARK SMILES IDX 14 24 15 25 16 26 17 27 18 28 19 29 20 30 21 31 82 32 22 33
REMARK SMILES IDX 81 34 23 35 24 36 25 37 75 38 26 39 80 40 74 41 76 42 27 43
REMARK SMILES IDX 79 44 73 45 72 46 28 48 60 49 40 50 59 51 41 52 44 53 58 54
REMARK SMILES IDX 77 55 42 56 43 57 57 59 78 60 45 61 29 62 30 63 38 64 31 65
REMARK SMILES IDX 32 66 36 67 39 68 33 69 34 70 37 71 35 72 61 73 62 74 70 75
REMARK SMILES IDX 63 76 64 77 68 78 71 79 65 80 66 81 69 82 67 83 46 84 47 85
REMARK SMILES IDX 55 86 48 87 49 88 53 89 56 90 50 91 51 92 54 93 52 94
REMARK H PARENT 5 22 76 47 44 58
REMARK Flexibility Score: inf
ROOT
ATOM      1  C   UNL A   1      32.478  20.866  24.026  1.00  0.00     0.188 C 
ENDROOT
BRANCH   1   2
ATOM      2  O   UNL A   1      32.793  22.017  23.266  1.00  0.00    -0.376 OA
BRANCH   2   3
ATOM      3  C   UNL A   1      33.407  23.128  23.906  1.00  0.00     0.202 C 
BRANCH   3   4
ATOM      4  C   UNL A   1      34.600  23.786  23.203  1.00  0.00     0.261 C 
BRANCH   4   5
ATOM      5  O   UNL A   1      34.358  25.114  22.666  1.00  0.00    -0.461 OA
BRANCH   5   6
ATOM      6  C   UNL A   1      33.317  25.235  21.805  1.00  0.00     0.337 C 
ATOM      7  O   UNL A   1      33.089  24.426  20.905  1.00  0.00    -0.249 OA
BRANCH   6   8
ATOM      8  C   UNL A   1      32.525  26.548  21.878  1.00  0.00     0.248 C 
BRANCH   8   9
ATOM      9  C   UNL A   1      31.431  26.922  22.945  1.00  0.00     0.119 C 
ATOM     10  C   UNL A   1      30.244  27.781  22.424  1.00  0.00     0.031 C 
ATOM     11  C   UNL A   1      32.030  27.464  24.264  1.00  0.00    -0.021 A 
ATOM     12  C   UNL A   1      30.363  29.273  22.673  1.00  0.00     0.007 C 
ATOM     13  C   UNL A   1      31.617  28.686  24.821  1.00  0.00    -0.043 A 
ATOM     14  C   UNL A   1      32.907  26.651  25.028  1.00  0.00     0.006 A 
ATOM     15  C   UNL A   1      30.660  29.620  24.127  1.00  0.00     0.036 C 
ATOM     16  C   UNL A   1      32.037  29.036  26.122  1.00  0.00     0.004 A 
ATOM     17  C   UNL A   1      33.324  27.015  26.310  1.00  0.00     0.000 A 
ATOM     18  C   UNL A   1      32.880  28.206  26.863  1.00  0.00     0.000 A 
BRANCH   9  19
ATOM     19  C   UNL A   1      30.789  25.605  23.312  1.00  0.00     0.077 C 
ATOM     20  N   UNL A   1      30.299  24.579  23.565  1.00  0.00    -0.197 NA
ENDBRANCH   9  19
ENDBRANCH   8   9
BRANCH   8  21
ATOM     21  O   UNL A   1      33.541  27.575  21.806  1.00  0.00    -0.380 OA
ATOM     22  H   UNL A   1      33.208  28.387  22.221  1.00  0.00     0.211 HD
ENDBRANCH   8  21
ENDBRANCH   6   8
ENDBRANCH   5   6
ENDBRANCH   4   5
ENDBRANCH   3   4
ENDBRANCH   2   3
ENDBRANCH   1   2
BRANCH   1  23
ATOM     23  C   UNL A   1      33.607  19.928  24.440  1.00  0.00     0.188 C 
BRANCH  23  24
ATOM     24  O   UNL A   1      34.528  20.331  25.438  1.00  0.00    -0.376 OA
BRANCH  24  25
ATOM     25  C   UNL A   1      35.877  20.544  25.041  1.00  0.00     0.202 C 
BRANCH  25  26
ATOM     26  C   UNL A   1      36.554  21.713  25.755  1.00  0.00     0.261 C 
BRANCH  26  27
ATOM     27  O   UNL A   1      37.851  21.959  25.191  1.00  0.00    -0.460 OA
BRANCH  27  28
ATOM     28  C   UNL A   1      38.904  21.548  25.937  1.00  0.00     0.338 C 
ATOM     29  O   UNL A   1      39.409  20.441  25.980  1.00  0.00    -0.246 OA
BRANCH  28  30
ATOM     30  C   UNL A   1      39.495  22.744  26.561  1.00  0.00     0.060 A 
ATOM     31  C   UNL A   1      40.478  22.617  27.532  1.00  0.00     0.016 A 
ATOM     32  C   UNL A   1      39.042  24.009  26.165  1.00  0.00     0.016 A 
ATOM     33  C   UNL A   1      41.027  23.772  28.080  1.00  0.00     0.010 A 
ATOM     34  C   UNL A   1      39.608  25.164  26.685  1.00  0.00     0.010 A 
ATOM     35  C   UNL A   1      40.619  25.048  27.635  1.00  0.00    -0.014 A 
BRANCH  35  36
ATOM     36  C   UNL A   1      41.374  26.236  28.074  1.00  0.00     0.031 A 
ATOM     37  C   UNL A   1      42.777  26.481  27.628  1.00  0.00     0.074 A 
ATOM     38  C   UNL A   1      40.724  27.114  28.860  1.00  0.00     0.049 A 
ATOM     39  N   UNL A   1      43.483  27.575  27.732  1.00  0.00    -0.248 NA
ATOM     40  C   UNL A   1      43.486  25.359  26.997  1.00  0.00     0.031 C 
ATOM     41  C   UNL A   1      39.383  26.902  29.410  1.00  0.00     0.029 A 
ATOM     42  N   UNL A   1      41.070  28.366  29.289  1.00  0.00    -0.354 N 
ATOM     43  C   UNL A   1      44.706  27.289  27.146  1.00  0.00     0.074 A 
ATOM     44  C   UNL A   1      44.677  25.894  26.759  1.00  0.00     0.031 C 
ATOM     45  C   UNL A   1      38.982  28.023  30.024  1.00  0.00     0.029 A 
ATOM     46  C   UNL A   1      40.050  29.013  29.943  1.00  0.00     0.049 A 
ATOM     47  H   UNL A   1      41.959  28.763  29.143  1.00  0.00     0.167 HD
ATOM     48  C   UNL A   1      45.740  28.135  26.928  1.00  0.00     0.037 A 
ATOM     49  C   UNL A   1      39.978  30.276  30.398  1.00  0.00     0.037 A 
ATOM     50  C   UNL A   1      45.743  29.514  27.344  1.00  0.00     0.049 A 
ATOM     51  C   UNL A   1      41.147  31.187  30.158  1.00  0.00     0.074 A 
ATOM     52  C   UNL A   1      46.718  30.473  27.148  1.00  0.00     0.029 A 
ATOM     53  N   UNL A   1      44.718  30.125  28.058  1.00  0.00    -0.354 N 
ATOM     54  N   UNL A   1      42.261  30.945  29.510  1.00  0.00    -0.248 NA
ATOM     55  C   UNL A   1      41.050  32.545  30.706  1.00  0.00     0.031 C 
ATOM     56  C   UNL A   1      46.316  31.642  27.799  1.00  0.00     0.029 A 
ATOM     57  C   UNL A   1      45.056  31.439  28.342  1.00  0.00     0.049 A 
ATOM     58  H   UNL A   1      43.876  29.689  28.323  1.00  0.00     0.167 HD
ATOM     59  C   UNL A   1      42.995  32.121  29.559  1.00  0.00     0.074 A 
ATOM     60  C   UNL A   1      42.183  33.085  30.277  1.00  0.00     0.031 C 
ATOM     61  C   UNL A   1      44.232  32.377  29.065  1.00  0.00     0.037 A 
BRANCH  48  62
ATOM     62  C   UNL A   1      46.941  27.603  26.199  1.00  0.00     0.064 A 
ATOM     63  C   UNL A   1      47.033  27.660  24.799  1.00  0.00     0.173 A 
ATOM     64  C   UNL A   1      48.040  27.090  26.904  1.00  0.00     0.173 A 
ATOM     65  F   UNL A   1      46.010  28.136  24.074  1.00  0.00    -0.203 F 
ATOM     66  C   UNL A   1      48.169  27.205  24.133  1.00  0.00     0.198 A 
ATOM     67  C   UNL A   1      49.188  26.665  26.238  1.00  0.00     0.198 A 
ATOM     68  F   UNL A   1      48.010  27.016  28.244  1.00  0.00    -0.203 F 
ATOM     69  F   UNL A   1      48.215  27.233  22.794  1.00  0.00    -0.200 F 
ATOM     70  C   UNL A   1      49.248  26.717  24.853  1.00  0.00     0.200 A 
ATOM     71  F   UNL A   1      50.237  26.211  26.936  1.00  0.00    -0.200 F 
ATOM     72  F   UNL A   1      50.348  26.295  24.213  1.00  0.00    -0.200 F 
ENDBRANCH  48  62
BRANCH  49  73
ATOM     73  C   UNL A   1      38.735  30.742  31.065  1.00  0.00     0.064 A 
ATOM     74  C   UNL A   1      38.611  30.727  32.460  1.00  0.00     0.173 A 
ATOM     75  C   UNL A   1      37.668  31.272  30.322  1.00  0.00     0.173 A 
ATOM     76  F   UNL A   1      39.599  30.224  33.216  1.00  0.00    -0.203 F 
ATOM     77  C   UNL A   1      37.465  31.216  33.086  1.00  0.00     0.198 A 
ATOM     78  C   UNL A   1      36.539  31.791  30.949  1.00  0.00     0.198 A 
ATOM     79  F   UNL A   1      37.743  31.322  28.984  1.00  0.00    -0.203 F 
ATOM     80  F   UNL A   1      37.360  31.163  34.421  1.00  0.00    -0.200 F 
ATOM     81  C   UNL A   1      36.435  31.758  32.331  1.00  0.00     0.200 A 
ATOM     82  F   UNL A   1      35.559  32.336  30.216  1.00  0.00    -0.200 F 
ATOM     83  F   UNL A   1      35.345  32.248  32.935  1.00  0.00    -0.200 F 
ENDBRANCH  49  73
BRANCH  61  84
ATOM     84  C   UNL A   1      44.789  33.754  29.285  1.00  0.00     0.064 A 
ATOM     85  C   UNL A   1      45.602  34.046  30.390  1.00  0.00     0.173 A 
ATOM     86  C   UNL A   1      44.575  34.768  28.339  1.00  0.00     0.173 A 
ATOM     87  F   UNL A   1      45.827  33.115  31.329  1.00  0.00    -0.203 F 
ATOM     88  C   UNL A   1      46.165  35.309  30.548  1.00  0.00     0.198 A 
ATOM     89  C   UNL A   1      45.171  36.018  28.481  1.00  0.00     0.198 A 
ATOM     90  F   UNL A   1      43.812  34.537  27.259  1.00  0.00    -0.203 F 
ATOM     91  F   UNL A   1      46.904  35.579  31.634  1.00  0.00    -0.200 F 
ATOM     92  C   UNL A   1      45.960  36.289  29.589  1.00  0.00     0.200 A 
ATOM     93  F   UNL A   1      44.989  36.956  27.542  1.00  0.00    -0.200 F 
ATOM     94  F   UNL A   1      46.522  37.497  29.733  1.00  0.00    -0.200 F 
ENDBRANCH  61  84
ENDBRANCH  35  36
ENDBRANCH  28  30
ENDBRANCH  27  28
ENDBRANCH  26  27
ENDBRANCH  25  26
ENDBRANCH  24  25
ENDBRANCH  23  24
ENDBRANCH   1  23
TORSDOF 20
ENDMDL
MODEL 2
REMARK VINA RESULT:     -10.8      1.140      2.457
REMARK SMILES N#C[C@@]1([C@@H](O)C(=O)OCCOCCOCCOC(=O)c2ccc(-c3c4nc(c(-c5c(F)c(F)c(F)c(F)c5F)c5ccc([nH]5)c(-c5c(F)c(F)c(F)c(F)c5F)c5nc(c(-c6c(F)c(F)c(F)c(F)c6F)c6ccc3[nH]6)C=C5)C=C4)cc2)CCCc2ccccc21
REMARK SMILES IDX 12 1 11 2 10 3 9 4 8 5 6 6 7 7 4 8 3 9 83 10 91 11 84 12
REMARK SMILES IDX 86 13 90 14 85 15 87 16 89 17 88 18 2 19 1 20 5 21 13 23
REMARK SMILES IDX 14 24 15 25 16 26 17 27 18 28 19 29 20 30 21 31 82 32 22 33
REMARK SMILES IDX 81 34 23 35 24 36 25 37 75 38 26 39 80 40 74 41 76 42 27 43
REMARK SMILES IDX 79 44 73 45 72 46 28 48 60 49 40 50 59 51 41 52 44 53 58 54
REMARK SMILES IDX 77 55 42 56 43 57 57 59 78 60 45 61 29 62 30 63 38 64 31 65
REMARK SMILES IDX 32 66 36 67 39 68 33 69 34 70 37 71 35 72 61 73 62 74 70 75
REMARK SMILES IDX 63 76 64 77 68 78 71 79 65 80 66 81 69 82 67 83 46 84 47 85
REMARK SMILES IDX 55 86 48 87 49 88 53 89 56 90 50 91 51 92 54 93 52 94
REMARK H PARENT 5 22 76 47 44 58
REMARK Flexibility Score: inf
ROOT
ATOM      1  C   UNL A   1      33.511  22.384  25.645  1.00  0.00     0.188 C 
ENDROOT
BRANCH   1   2
ATOM      2  O   UNL A   1      33.316  23.784  25.714  1.00  0.00    -0.376 OA
BRANCH   2   3
ATOM      3  C   UNL A   1      34.381  24.653  25.353  1.00  0.00     0.202 C 
BRANCH   3   4
ATOM      4  C   UNL A   1      34.022  26.085  24.938  1.00  0.00     0.261 C 
BRANCH   4   5
ATOM      5  O   UNL A   1      34.144  26.377  23.520  1.00  0.00    -0.461 OA
BRANCH   5   6
ATOM      6  C   UNL A   1      33.010  26.267  22.783  1.00  0.00     0.337 C 
ATOM      7  O   UNL A   1      32.757  25.290  22.077  1.00  0.00    -0.249 OA
BRANCH   6   8
ATOM      8  C   UNL A   1      32.122  27.517  22.715  1.00  0.00     0.248 C 
BRANCH   8   9
ATOM      9  C   UNL A   1      30.966  27.899  23.712  1.00  0.00     0.119 C 
ATOM     10  C   UNL A   1      30.498  26.768  24.669  1.00  0.00     0.031 C 
ATOM     11  C   UNL A   1      29.789  28.631  23.025  1.00  0.00    -0.021 A 
ATOM     12  C   UNL A   1      29.261  26.009  24.223  1.00  0.00     0.007 C 
ATOM     13  C   UNL A   1      28.461  28.192  23.162  1.00  0.00    -0.043 A 
ATOM     14  C   UNL A   1      30.014  29.865  22.363  1.00  0.00     0.006 A 
ATOM     15  C   UNL A   1      28.089  26.919  23.875  1.00  0.00     0.036 C 
ATOM     16  C   UNL A   1      27.408  29.005  22.692  1.00  0.00     0.004 A 
ATOM     17  C   UNL A   1      28.962  30.654  21.892  1.00  0.00     0.000 A 
ATOM     18  C   UNL A   1      27.655  30.228  22.066  1.00  0.00     0.000 A 
BRANCH   9  19
ATOM     19  C   UNL A   1      31.583  28.922  24.637  1.00  0.00     0.077 C 
ATOM     20  N   UNL A   1      32.041  29.698  25.375  1.00  0.00    -0.197 NA
ENDBRANCH   9  19
ENDBRANCH   8   9
BRANCH   8  21
ATOM     21  O   UNL A   1      33.061  28.608  22.579  1.00  0.00    -0.380 OA
ATOM     22  H   UNL A   1      32.680  29.293  22.007  1.00  0.00     0.211 HD
ENDBRANCH   8  21
ENDBRANCH   6   8
ENDBRANCH   5   6
ENDBRANCH   4   5
ENDBRANCH   3   4
ENDBRANCH   2   3
ENDBRANCH   1   2
BRANCH   1  23
ATOM     23  C   UNL A   1      34.502  21.829  24.627  1.00  0.00     0.188 C 
BRANCH  23  24
ATOM     24  O   UNL A   1      34.813  20.447  24.627  1.00  0.00    -0.376 OA
BRANCH  24  25
ATOM     25  C   UNL A   1      36.132  20.069  25.001  1.00  0.00     0.202 C 
BRANCH  25  26
ATOM     26  C   UNL A   1      37.199  21.095  24.626  1.00  0.00     0.261 C 
BRANCH  26  27
ATOM     27  O   UNL A   1      37.701  21.747  25.802  1.00  0.00    -0.460 OA
BRANCH  27  28
ATOM     28  C   UNL A   1      38.993  21.485  26.113  1.00  0.00     0.338 C 
ATOM     29  O   UNL A   1      39.657  20.511  25.812  1.00  0.00    -0.246 OA
BRANCH  28  30
ATOM     30  C   UNL A   1      39.554  22.702  26.725  1.00  0.00     0.060 A 
ATOM     31  C   UNL A   1      40.602  22.615  27.630  1.00  0.00     0.016 A 
ATOM     32  C   UNL A   1      39.007  23.945  26.385  1.00  0.00     0.016 A 
ATOM     33  C   UNL A   1      41.118  23.789  28.168  1.00  0.00     0.010 A 
ATOM     34  C   UNL A   1      39.538  25.122  26.893  1.00  0.00     0.010 A 
ATOM     35  C   UNL A   1      40.612  25.047  27.776  1.00  0.00    -0.014 A 
BRANCH  35  36
ATOM     36  C   UNL A   1      41.324  26.269  28.193  1.00  0.00     0.031 A 
ATOM     37  C   UNL A   1      42.736  26.530  27.784  1.00  0.00     0.074 A 
ATOM     38  C   UNL A   1      40.630  27.161  28.923  1.00  0.00     0.049 A 
ATOM     39  N   UNL A   1      43.414  27.644  27.868  1.00  0.00    -0.248 NA
ATOM     40  C   UNL A   1      43.491  25.402  27.219  1.00  0.00     0.031 C 
ATOM     41  C   UNL A   1      39.276  26.938  29.438  1.00  0.00     0.029 A 
ATOM     42  N   UNL A   1      40.932  28.436  29.314  1.00  0.00    -0.354 N 
ATOM     43  C   UNL A   1      44.662  27.364  27.333  1.00  0.00     0.074 A 
ATOM     44  C   UNL A   1      44.677  25.956  27.000  1.00  0.00     0.031 C 
ATOM     45  C   UNL A   1      38.829  28.071  29.994  1.00  0.00     0.029 A 
ATOM     46  C   UNL A   1      39.877  29.082  29.909  1.00  0.00     0.049 A 
ATOM     47  H   UNL A   1      41.817  28.848  29.182  1.00  0.00     0.167 HD
ATOM     48  C   UNL A   1      45.683  28.226  27.115  1.00  0.00     0.037 A 
ATOM     49  C   UNL A   1      39.762  30.360  30.312  1.00  0.00     0.037 A 
ATOM     50  C   UNL A   1      45.640  29.620  27.478  1.00  0.00     0.049 A 
ATOM     51  C   UNL A   1      40.917  31.288  30.076  1.00  0.00     0.074 A 
ATOM     52  C   UNL A   1      46.600  30.594  27.276  1.00  0.00     0.029 A 
ATOM     53  N   UNL A   1      44.579  30.233  28.134  1.00  0.00    -0.354 N 
ATOM     54  N   UNL A   1      42.058  31.049  29.473  1.00  0.00    -0.248 NA
ATOM     55  C   UNL A   1      40.772  32.664  30.566  1.00  0.00     0.031 C 
ATOM     56  C   UNL A   1      46.150  31.777  27.868  1.00  0.00     0.029 A 
ATOM     57  C   UNL A   1      44.878  31.564  28.378  1.00  0.00     0.049 A 
ATOM     58  H   UNL A   1      43.739  29.788  28.389  1.00  0.00     0.167 HD
ATOM     59  C   UNL A   1      42.763  32.243  29.501  1.00  0.00     0.074 A 
ATOM     60  C   UNL A   1      41.906  33.214  30.154  1.00  0.00     0.031 C 
ATOM     61  C   UNL A   1      44.009  32.510  29.037  1.00  0.00     0.037 A 
BRANCH  48  62
ATOM     62  C   UNL A   1      46.919  27.696  26.447  1.00  0.00     0.064 A 
ATOM     63  C   UNL A   1      47.978  27.151  27.192  1.00  0.00     0.173 A 
ATOM     64  C   UNL A   1      47.025  27.669  25.049  1.00  0.00     0.173 A 
ATOM     65  F   UNL A   1      47.933  27.156  28.533  1.00  0.00    -0.203 F 
ATOM     66  C   UNL A   1      49.103  26.622  26.563  1.00  0.00     0.198 A 
ATOM     67  C   UNL A   1      48.136  27.109  24.422  1.00  0.00     0.198 A 
ATOM     68  F   UNL A   1      46.041  28.170  24.286  1.00  0.00    -0.203 F 
ATOM     69  F   UNL A   1      50.117  26.146  27.298  1.00  0.00    -0.200 F 
ATOM     70  C   UNL A   1      49.176  26.593  25.179  1.00  0.00     0.200 A 
ATOM     71  F   UNL A   1      48.197  27.065  23.084  1.00  0.00    -0.200 F 
ATOM     72  F   UNL A   1      50.251  26.067  24.575  1.00  0.00    -0.200 F 
ENDBRANCH  48  62
BRANCH  49  73
ATOM     73  C   UNL A   1      38.487  30.821  30.920  1.00  0.00     0.064 A 
ATOM     74  C   UNL A   1      38.336  30.909  32.310  1.00  0.00     0.173 A 
ATOM     75  C   UNL A   1      37.413  31.245  30.121  1.00  0.00     0.173 A 
ATOM     76  F   UNL A   1      39.329  30.509  33.119  1.00  0.00    -0.203 F 
ATOM     77  C   UNL A   1      37.158  31.394  32.878  1.00  0.00     0.198 A 
ATOM     78  C   UNL A   1      36.251  31.761  30.687  1.00  0.00     0.198 A 
ATOM     79  F   UNL A   1      37.513  31.195  28.784  1.00  0.00    -0.203 F 
ATOM     80  F   UNL A   1      37.030  31.440  34.210  1.00  0.00    -0.200 F 
ATOM     81  C   UNL A   1      36.122  31.830  32.065  1.00  0.00     0.200 A 
ATOM     82  F   UNL A   1      35.264  32.204  29.897  1.00  0.00    -0.200 F 
ATOM     83  F   UNL A   1      35.000  32.317  32.611  1.00  0.00    -0.200 F 
ENDBRANCH  49  73
BRANCH  61  84
ATOM     84  C   UNL A   1      44.528  33.907  29.221  1.00  0.00     0.064 A 
ATOM     85  C   UNL A   1      44.266  34.913  28.281  1.00  0.00     0.173 A 
ATOM     86  C   UNL A   1      45.223  34.260  30.388  1.00  0.00     0.173 A 
ATOM     87  F   UNL A   1      43.617  34.624  27.143  1.00  0.00    -0.203 F 
ATOM     88  C   UNL A   1      44.698  36.219  28.493  1.00  0.00     0.198 A 
ATOM     89  C   UNL A   1      45.619  35.575  30.615  1.00  0.00     0.198 A 
ATOM     90  F   UNL A   1      45.491  33.336  31.323  1.00  0.00    -0.203 F 
ATOM     91  F   UNL A   1      44.474  37.156  27.561  1.00  0.00    -0.200 F 
ATOM     92  C   UNL A   1      45.361  36.552  29.664  1.00  0.00     0.200 A 
ATOM     93  F   UNL A   1      46.241  35.898  31.756  1.00  0.00    -0.200 F 
ATOM     94  F   UNL A   1      45.756  37.815  29.877  1.00  0.00    -0.200 F 
ENDBRANCH  61  84
ENDBRANCH  35  36
ENDBRANCH  28  30
ENDBRANCH  27  28
ENDBRANCH  26  27
ENDBRANCH  25  26
ENDBRANCH  24  25
ENDBRANCH  23  24
ENDBRANCH   1  23
TORSDOF 20
ENDMDL
MODEL 3
REMARK VINA RESULT:     -10.7      1.800      2.354
REMARK SMILES N#C[C@@]1([C@@H](O)C(=O)OCCOCCOCCOC(=O)c2ccc(-c3c4nc(c(-c5c(F)c(F)c(F)c(F)c5F)c5ccc([nH]5)c(-c5c(F)c(F)c(F)c(F)c5F)c5nc(c(-c6c(F)c(F)c(F)c(F)c6F)c6ccc3[nH]6)C=C5)C=C4)cc2)CCCc2ccccc21
REMARK SMILES IDX 12 1 11 2 10 3 9 4 8 5 6 6 7 7 4 8 3 9 83 10 91 11 84 12
REMARK SMILES IDX 86 13 90 14 85 15 87 16 89 17 88 18 2 19 1 20 5 21 13 23
REMARK SMILES IDX 14 24 15 25 16 26 17 27 18 28 19 29 20 30 21 31 82 32 22 33
REMARK SMILES IDX 81 34 23 35 24 36 25 37 75 38 26 39 80 40 74 41 76 42 27 43
REMARK SMILES IDX 79 44 73 45 72 46 28 48 60 49 40 50 59 51 41 52 44 53 58 54
REMARK SMILES IDX 77 55 42 56 43 57 57 59 78 60 45 61 29 62 30 63 38 64 31 65
REMARK SMILES IDX 32 66 36 67 39 68 33 69 34 70 37 71 35 72 61 73 62 74 70 75
REMARK SMILES IDX 63 76 64 77 68 78 71 79 65 80 66 81 69 82 67 83 46 84 47 85
REMARK SMILES IDX 55 86 48 87 49 88 53 89 56 90 50 91 51 92 54 93 52 94
REMARK H PARENT 5 22 76 47 44 58
REMARK Flexibility Score: inf
ROOT
ATOM      1  C   UNL A   1      33.865  21.751  25.176  1.00  0.00     0.188 C 
ENDROOT
BRANCH   1   2
ATOM      2  O   UNL A   1      34.290  23.034  25.595  1.00  0.00    -0.376 OA
BRANCH   2   3
ATOM      3  C   UNL A   1      34.003  24.162  24.780  1.00  0.00     0.202 C 
BRANCH   3   4
ATOM      4  C   UNL A   1      33.862  23.933  23.270  1.00  0.00     0.261 C 
BRANCH   4   5
ATOM      5  O   UNL A   1      34.048  25.108  22.437  1.00  0.00    -0.461 OA
BRANCH   5   6
ATOM      6  C   UNL A   1      33.105  25.327  21.486  1.00  0.00     0.337 C 
ATOM      7  O   UNL A   1      33.258  25.025  20.302  1.00  0.00    -0.249 OA
BRANCH   6   8
ATOM      8  C   UNL A   1      31.887  26.157  21.917  1.00  0.00     0.248 C 
BRANCH   8   9
ATOM      9  C   UNL A   1      31.913  27.506  22.726  1.00  0.00     0.119 C 
ATOM     10  C   UNL A   1      32.976  28.546  22.273  1.00  0.00     0.031 C 
ATOM     11  C   UNL A   1      31.894  27.295  24.258  1.00  0.00    -0.021 A 
ATOM     12  C   UNL A   1      34.263  28.552  23.078  1.00  0.00     0.007 C 
ATOM     13  C   UNL A   1      32.851  27.886  25.101  1.00  0.00    -0.043 A 
ATOM     14  C   UNL A   1      30.804  26.620  24.864  1.00  0.00     0.006 A 
ATOM     15  C   UNL A   1      34.033  28.660  24.581  1.00  0.00     0.036 C 
ATOM     16  C   UNL A   1      32.672  27.835  26.499  1.00  0.00     0.004 A 
ATOM     17  C   UNL A   1      30.646  26.568  26.251  1.00  0.00     0.000 A 
ATOM     18  C   UNL A   1      31.577  27.186  27.071  1.00  0.00     0.000 A 
BRANCH   9  19
ATOM     19  C   UNL A   1      30.597  28.172  22.401  1.00  0.00     0.077 C 
ATOM     20  N   UNL A   1      29.598  28.713  22.143  1.00  0.00    -0.197 NA
ENDBRANCH   9  19
ENDBRANCH   8   9
BRANCH   8  21
ATOM     21  O   UNL A   1      31.115  26.304  20.704  1.00  0.00    -0.380 OA
ATOM     22  H   UNL A   1      30.211  26.578  20.927  1.00  0.00     0.211 HD
ENDBRANCH   8  21
ENDBRANCH   6   8
ENDBRANCH   5   6
ENDBRANCH   4   5
ENDBRANCH   3   4
ENDBRANCH   2   3
ENDBRANCH   1   2
BRANCH   1  23
ATOM     23  C   UNL A   1      34.913  20.661  24.967  1.00  0.00     0.188 C 
BRANCH  23  24
ATOM     24  O   UNL A   1      36.207  20.813  25.524  1.00  0.00    -0.376 OA
BRANCH  24  25
ATOM     25  C   UNL A   1      37.308  20.864  24.624  1.00  0.00     0.202 C 
BRANCH  25  26
ATOM     26  C   UNL A   1      38.432  19.888  24.968  1.00  0.00     0.261 C 
BRANCH  26  27
ATOM     27  O   UNL A   1      39.171  20.357  26.105  1.00  0.00    -0.460 OA
BRANCH  27  28
ATOM     28  C   UNL A   1      40.493  20.061  26.110  1.00  0.00     0.338 C 
ATOM     29  O   UNL A   1      41.044  19.072  25.662  1.00  0.00    -0.246 OA
BRANCH  28  30
ATOM     30  C   UNL A   1      41.211  21.258  26.579  1.00  0.00     0.060 A 
ATOM     31  C   UNL A   1      41.584  22.250  25.682  1.00  0.00     0.016 A 
ATOM     32  C   UNL A   1      41.519  21.375  27.940  1.00  0.00     0.016 A 
ATOM     33  C   UNL A   1      42.240  23.376  26.168  1.00  0.00     0.010 A 
ATOM     34  C   UNL A   1      42.144  22.510  28.435  1.00  0.00     0.010 A 
ATOM     35  C   UNL A   1      42.491  23.526  27.548  1.00  0.00    -0.014 A 
BRANCH  35  36
ATOM     36  C   UNL A   1      42.985  24.822  28.051  1.00  0.00     0.031 A 
ATOM     37  C   UNL A   1      44.440  25.155  28.058  1.00  0.00     0.074 A 
ATOM     38  C   UNL A   1      42.060  25.708  28.463  1.00  0.00     0.049 A 
ATOM     39  N   UNL A   1      45.006  26.318  28.243  1.00  0.00    -0.248 NA
ATOM     40  C   UNL A   1      45.384  24.049  27.842  1.00  0.00     0.031 C 
ATOM     41  C   UNL A   1      40.627  25.424  28.570  1.00  0.00     0.029 A 
ATOM     42  N   UNL A   1      42.169  27.025  28.815  1.00  0.00    -0.354 N 
ATOM     43  C   UNL A   1      46.369  26.094  28.128  1.00  0.00     0.074 A 
ATOM     44  C   UNL A   1      46.552  24.671  27.937  1.00  0.00     0.031 C 
ATOM     45  C   UNL A   1      39.979  26.557  28.870  1.00  0.00     0.029 A 
ATOM     46  C   UNL A   1      40.954  27.633  29.013  1.00  0.00     0.049 A 
ATOM     47  H   UNL A   1      43.031  27.490  28.916  1.00  0.00     0.167 HD
ATOM     48  C   UNL A   1      47.365  27.010  28.150  1.00  0.00     0.037 A 
ATOM     49  C   UNL A   1      40.660  28.923  29.252  1.00  0.00     0.037 A 
ATOM     50  C   UNL A   1      47.148  28.419  28.362  1.00  0.00     0.049 A 
ATOM     51  C   UNL A   1      41.787  29.914  29.290  1.00  0.00     0.074 A 
ATOM     52  C   UNL A   1      48.076  29.443  28.371  1.00  0.00     0.029 A 
ATOM     53  N   UNL A   1      45.910  28.997  28.619  1.00  0.00    -0.354 N 
ATOM     54  N   UNL A   1      43.066  29.718  29.075  1.00  0.00    -0.248 NA
ATOM     55  C   UNL A   1      41.434  31.305  29.596  1.00  0.00     0.031 C 
ATOM     56  C   UNL A   1      47.411  30.628  28.699  1.00  0.00     0.029 A 
ATOM     57  C   UNL A   1      46.057  30.359  28.826  1.00  0.00     0.049 A 
ATOM     58  H   UNL A   1      45.055  28.510  28.651  1.00  0.00     0.167 HD
ATOM     59  C   UNL A   1      43.672  30.958  29.208  1.00  0.00     0.074 A 
ATOM     60  C   UNL A   1      42.611  31.907  29.492  1.00  0.00     0.031 C 
ATOM     61  C   UNL A   1      44.985  31.282  29.114  1.00  0.00     0.037 A 
BRANCH  48  62
ATOM     62  C   UNL A   1      48.769  26.526  27.926  1.00  0.00     0.064 A 
ATOM     63  C   UNL A   1      49.297  26.380  26.632  1.00  0.00     0.173 A 
ATOM     64  C   UNL A   1      49.622  26.267  29.010  1.00  0.00     0.173 A 
ATOM     65  F   UNL A   1      48.525  26.608  25.559  1.00  0.00    -0.203 F 
ATOM     66  C   UNL A   1      50.614  25.972  26.434  1.00  0.00     0.198 A 
ATOM     67  C   UNL A   1      50.948  25.891  28.809  1.00  0.00     0.198 A 
ATOM     68  F   UNL A   1      49.174  26.396  30.269  1.00  0.00    -0.203 F 
ATOM     69  F   UNL A   1      51.080  25.801  25.190  1.00  0.00    -0.200 F 
ATOM     70  C   UNL A   1      51.440  25.738  27.522  1.00  0.00     0.200 A 
ATOM     71  F   UNL A   1      51.751  25.683  29.861  1.00  0.00    -0.200 F 
ATOM     72  F   UNL A   1      52.713  25.363  27.330  1.00  0.00    -0.200 F 
ENDBRANCH  48  62
BRANCH  49  73
ATOM     73  C   UNL A   1      39.241  29.331  29.413  1.00  0.00     0.064 A 
ATOM     74  C   UNL A   1      38.643  29.395  30.679  1.00  0.00     0.173 A 
ATOM     75  C   UNL A   1      38.470  29.727  28.308  1.00  0.00     0.173 A 
ATOM     76  F   UNL A   1      39.334  29.020  31.766  1.00  0.00    -0.203 F 
ATOM     77  C   UNL A   1      37.328  29.831  30.832  1.00  0.00     0.198 A 
ATOM     78  C   UNL A   1      37.169  30.195  28.466  1.00  0.00     0.198 A 
ATOM     79  F   UNL A   1      39.000  29.699  27.077  1.00  0.00    -0.203 F 
ATOM     80  F   UNL A   1      36.771  29.855  32.050  1.00  0.00    -0.200 F 
ATOM     81  C   UNL A   1      36.596  30.241  29.728  1.00  0.00     0.200 A 
ATOM     82  F   UNL A   1      36.476  30.614  27.399  1.00  0.00    -0.200 F 
ATOM     83  F   UNL A   1      35.340  30.682  29.879  1.00  0.00    -0.200 F 
ENDBRANCH  49  73
BRANCH  61  84
ATOM     84  C   UNL A   1      45.356  32.722  29.323  1.00  0.00     0.064 A 
ATOM     85  C   UNL A   1      45.771  33.196  30.575  1.00  0.00     0.173 A 
ATOM     86  C   UNL A   1      45.372  33.617  28.242  1.00  0.00     0.173 A 
ATOM     87  F   UNL A   1      45.761  32.384  31.643  1.00  0.00    -0.203 F 
ATOM     88  C   UNL A   1      46.174  34.518  30.741  1.00  0.00     0.198 A 
ATOM     89  C   UNL A   1      45.812  34.927  28.403  1.00  0.00     0.198 A 
ATOM     90  F   UNL A   1      44.992  33.211  27.021  1.00  0.00    -0.203 F 
ATOM     91  F   UNL A   1      46.527  34.960  31.957  1.00  0.00    -0.200 F 
ATOM     92  C   UNL A   1      46.207  35.378  29.654  1.00  0.00     0.200 A 
ATOM     93  F   UNL A   1      45.863  35.750  27.348  1.00  0.00    -0.200 F 
ATOM     94  F   UNL A   1      46.616  36.644  29.813  1.00  0.00    -0.200 F 
ENDBRANCH  61  84
ENDBRANCH  35  36
ENDBRANCH  28  30
ENDBRANCH  27  28
ENDBRANCH  26  27
ENDBRANCH  25  26
ENDBRANCH  24  25
ENDBRANCH  23  24
ENDBRANCH   1  23
TORSDOF 20
ENDMDL
