MODEL 1
REMARK VINA RESULT:     -11.9      0.000      0.000
REMARK SMILES O=C(OCCOCCOCCOC(=O)c1ccc2nc(-c3c[nH]nc3-c3ccc(F)cc3F)[nH]c2c1)c1ccc(-c2c3nc(c(-c4c(F)c(F)c(F)c(F)c4F)c4ccc([nH]4)c(-c4c(F)c(F)c(F)c(F)c4F)c4nc(c(-c5c(F)c(F)c(F)c(F)c5F)c5ccc2[nH]5)C=C4)C=C3)cc1
REMARK SMILES IDX 7 1 6 2 5 3 4 4 3 5 2 6 1 7 37 8 38 9 99 10 39 11 98 12
REMARK SMILES IDX 40 13 41 14 42 15 92 16 43 17 97 18 91 19 93 20 44 21 96 22
REMARK SMILES IDX 90 23 89 24 45 26 77 27 57 28 76 29 58 30 61 31 75 32 94 33
REMARK SMILES IDX 59 34 60 35 74 37 95 38 62 39 46 40 47 41 55 42 48 43 49 44
REMARK SMILES IDX 53 45 56 46 50 47 51 48 54 49 52 50 78 51 79 52 87 53 80 54
REMARK SMILES IDX 81 55 85 56 88 57 82 58 83 59 86 60 84 61 63 62 64 63 72 64
REMARK SMILES IDX 65 65 66 66 70 67 73 68 67 69 68 70 71 71 69 72 8 73 9 74
REMARK SMILES IDX 10 75 11 76 12 77 13 78 14 79 15 80 16 81 36 82 17 83 35 84
REMARK SMILES IDX 18 85 34 86 19 87 20 88 21 90 22 91 25 92 23 93 24 94 26 96
REMARK SMILES IDX 27 97 32 98 28 99 31 100 33 101 29 102 30 103
REMARK H PARENT 93 25 61 36 34 89 23 95
REMARK Flexibility Score: inf
ROOT
ATOM      1  C   UNL A   1      44.214  20.532  25.380  1.00  0.00     0.188 C 
ENDROOT
BRANCH   1   2
ATOM      2  O   UNL A   1      44.680  20.910  24.078  1.00  0.00    -0.376 OA
BRANCH   2   3
ATOM      3  C   UNL A   1      44.506  22.304  23.796  1.00  0.00     0.202 C 
BRANCH   3   4
ATOM      4  C   UNL A   1      43.536  23.020  24.748  1.00  0.00     0.261 C 
BRANCH   4   5
ATOM      5  O   UNL A   1      43.515  24.444  24.538  1.00  0.00    -0.460 OA
BRANCH   5   6
ATOM      6  C   UNL A   1      44.161  25.406  25.244  1.00  0.00     0.338 C 
ATOM      7  O   UNL A   1      45.343  25.636  24.992  1.00  0.00    -0.246 OA
BRANCH   6   8
ATOM      8  C   UNL A   1      43.511  26.247  26.296  1.00  0.00     0.060 A 
ATOM      9  C   UNL A   1      43.678  27.622  26.433  1.00  0.00     0.016 A 
ATOM     10  C   UNL A   1      42.623  25.602  27.180  1.00  0.00     0.016 A 
ATOM     11  C   UNL A   1      43.111  28.313  27.494  1.00  0.00     0.010 A 
ATOM     12  C   UNL A   1      41.981  26.307  28.204  1.00  0.00     0.010 A 
ATOM     13  C   UNL A   1      42.265  27.663  28.391  1.00  0.00    -0.014 A 
BRANCH  13  14
ATOM     14  C   UNL A   1      41.793  28.434  29.558  1.00  0.00     0.031 A 
ATOM     15  C   UNL A   1      40.475  29.140  29.476  1.00  0.00     0.074 A 
ATOM     16  C   UNL A   1      42.450  28.326  30.727  1.00  0.00     0.049 A 
ATOM     17  N   UNL A   1      39.811  29.762  30.412  1.00  0.00    -0.248 NA
ATOM     18  C   UNL A   1      39.796  29.120  28.169  1.00  0.00     0.031 C 
ATOM     19  C   UNL A   1      43.682  27.560  30.916  1.00  0.00     0.029 A 
ATOM     20  N   UNL A   1      42.156  28.798  31.978  1.00  0.00    -0.354 N 
ATOM     21  C   UNL A   1      38.644  30.209  29.811  1.00  0.00     0.074 A 
ATOM     22  C   UNL A   1      38.695  29.810  28.423  1.00  0.00     0.031 C 
ATOM     23  C   UNL A   1      44.014  27.573  32.214  1.00  0.00     0.029 A 
ATOM     24  C   UNL A   1      43.052  28.395  32.939  1.00  0.00     0.049 A 
ATOM     25  H   UNL A   1      41.379  29.371  32.170  1.00  0.00     0.167 HD
ATOM     26  C   UNL A   1      37.619  30.885  30.377  1.00  0.00     0.037 A 
ATOM     27  C   UNL A   1      43.092  28.664  34.257  1.00  0.00     0.037 A 
ATOM     28  C   UNL A   1      37.589  31.269  31.761  1.00  0.00     0.049 A 
ATOM     29  C   UNL A   1      41.992  29.504  34.842  1.00  0.00     0.074 A 
ATOM     30  C   UNL A   1      36.632  32.004  32.433  1.00  0.00     0.029 A 
ATOM     31  N   UNL A   1      38.573  30.941  32.686  1.00  0.00    -0.354 N 
ATOM     32  N   UNL A   1      40.911  29.962  34.256  1.00  0.00    -0.248 NA
ATOM     33  C   UNL A   1      42.117  29.877  36.254  1.00  0.00     0.031 C 
ATOM     34  C   UNL A   1      37.060  32.162  33.756  1.00  0.00     0.029 A 
ATOM     35  C   UNL A   1      38.259  31.484  33.920  1.00  0.00     0.049 A 
ATOM     36  H   UNL A   1      39.375  30.403  32.493  1.00  0.00     0.167 HD
ATOM     37  C   UNL A   1      40.223  30.673  35.225  1.00  0.00     0.074 A 
ATOM     38  C   UNL A   1      41.000  30.569  36.446  1.00  0.00     0.031 C 
ATOM     39  C   UNL A   1      39.056  31.353  35.116  1.00  0.00     0.037 A 
BRANCH  26  40
ATOM     40  C   UNL A   1      36.492  31.296  29.479  1.00  0.00     0.064 A 
ATOM     41  C   UNL A   1      36.373  32.630  29.063  1.00  0.00     0.173 A 
ATOM     42  C   UNL A   1      35.546  30.373  29.006  1.00  0.00     0.173 A 
ATOM     43  F   UNL A   1      37.257  33.548  29.480  1.00  0.00    -0.203 F 
ATOM     44  C   UNL A   1      35.351  33.025  28.204  1.00  0.00     0.198 A 
ATOM     45  C   UNL A   1      34.540  30.767  28.128  1.00  0.00     0.198 A 
ATOM     46  F   UNL A   1      35.635  29.079  29.351  1.00  0.00    -0.203 F 
ATOM     47  F   UNL A   1      35.258  34.306  27.822  1.00  0.00    -0.200 F 
ATOM     48  C   UNL A   1      34.441  32.092  27.730  1.00  0.00     0.200 A 
ATOM     49  F   UNL A   1      33.683  29.858  27.642  1.00  0.00    -0.200 F 
ATOM     50  F   UNL A   1      33.478  32.468  26.876  1.00  0.00    -0.200 F 
ENDBRANCH  26  40
BRANCH  27  51
ATOM     51  C   UNL A   1      44.209  28.133  35.080  1.00  0.00     0.064 A 
ATOM     52  C   UNL A   1      44.099  26.897  35.739  1.00  0.00     0.173 A 
ATOM     53  C   UNL A   1      45.381  28.872  35.283  1.00  0.00     0.173 A 
ATOM     54  F   UNL A   1      42.998  26.149  35.579  1.00  0.00    -0.203 F 
ATOM     55  C   UNL A   1      45.099  26.440  36.594  1.00  0.00     0.198 A 
ATOM     56  C   UNL A   1      46.396  28.401  36.117  1.00  0.00     0.198 A 
ATOM     57  F   UNL A   1      45.544  30.052  34.667  1.00  0.00    -0.203 F 
ATOM     58  F   UNL A   1      44.941  25.283  37.250  1.00  0.00    -0.200 F 
ATOM     59  C   UNL A   1      46.248  27.192  36.781  1.00  0.00     0.200 A 
ATOM     60  F   UNL A   1      47.513  29.121  36.283  1.00  0.00    -0.200 F 
ATOM     61  F   UNL A   1      47.211  26.753  37.603  1.00  0.00    -0.200 F 
ENDBRANCH  27  51
BRANCH  39  62
ATOM     62  C   UNL A   1      38.539  32.037  36.344  1.00  0.00     0.064 A 
ATOM     63  C   UNL A   1      38.902  33.363  36.621  1.00  0.00     0.173 A 
ATOM     64  C   UNL A   1      37.781  31.342  37.296  1.00  0.00     0.173 A 
ATOM     65  F   UNL A   1      39.635  34.061  35.741  1.00  0.00    -0.203 F 
ATOM     66  C   UNL A   1      38.547  33.961  37.824  1.00  0.00     0.198 A 
ATOM     67  C   UNL A   1      37.406  31.953  38.488  1.00  0.00     0.198 A 
ATOM     68  F   UNL A   1      37.403  30.076  37.065  1.00  0.00    -0.203 F 
ATOM     69  F   UNL A   1      38.941  35.213  38.090  1.00  0.00    -0.200 F 
ATOM     70  C   UNL A   1      37.801  33.256  38.757  1.00  0.00     0.200 A 
ATOM     71  F   UNL A   1      36.671  31.277  39.382  1.00  0.00    -0.200 F 
ATOM     72  F   UNL A   1      37.463  33.832  39.918  1.00  0.00    -0.200 F 
ENDBRANCH  39  62
ENDBRANCH  13  14
ENDBRANCH   6   8
ENDBRANCH   5   6
ENDBRANCH   4   5
ENDBRANCH   3   4
ENDBRANCH   2   3
ENDBRANCH   1   2
BRANCH   1  73
ATOM     73  C   UNL A   1      43.552  19.152  25.362  1.00  0.00     0.188 C 
BRANCH  73  74
ATOM     74  O   UNL A   1      42.642  18.902  26.431  1.00  0.00    -0.376 OA
BRANCH  74  75
ATOM     75  C   UNL A   1      41.255  19.084  26.158  1.00  0.00     0.202 C 
BRANCH  75  76
ATOM     76  C   UNL A   1      40.632  20.398  26.640  1.00  0.00     0.261 C 
BRANCH  76  77
ATOM     77  O   UNL A   1      39.735  21.020  25.699  1.00  0.00    -0.460 OA
BRANCH  77  78
ATOM     78  C   UNL A   1      39.217  22.195  26.132  1.00  0.00     0.338 C 
ATOM     79  O   UNL A   1      39.752  23.009  26.868  1.00  0.00    -0.246 OA
BRANCH  78  80
ATOM     80  C   UNL A   1      37.809  22.362  25.723  1.00  0.00     0.062 A 
ATOM     81  C   UNL A   1      37.253  21.272  25.040  1.00  0.00     0.018 A 
ATOM     82  C   UNL A   1      37.028  23.458  26.138  1.00  0.00     0.044 A 
ATOM     83  C   UNL A   1      35.879  21.198  24.813  1.00  0.00     0.031 A 
ATOM     84  C   UNL A   1      35.647  23.351  25.898  1.00  0.00     0.067 A 
ATOM     85  C   UNL A   1      35.073  22.232  25.300  1.00  0.00     0.089 A 
ATOM     86  N   UNL A   1      34.567  24.168  26.164  1.00  0.00    -0.338 N 
ATOM     87  N   UNL A   1      33.714  22.304  25.322  1.00  0.00    -0.228 NA
ATOM     88  C   UNL A   1      33.423  23.467  25.859  1.00  0.00     0.142 A 
ATOM     89  H   UNL A   1      34.607  25.088  26.509  1.00  0.00     0.168 HD
BRANCH  88  90
ATOM     90  C   UNL A   1      32.025  23.887  26.114  1.00  0.00     0.063 A 
ATOM     91  C   UNL A   1      31.051  23.193  26.787  1.00  0.00     0.117 A 
ATOM     92  C   UNL A   1      31.419  25.112  25.709  1.00  0.00     0.106 A 
ATOM     93  N   UNL A   1      29.985  24.047  26.849  1.00  0.00    -0.284 N 
ATOM     94  N   UNL A   1      30.153  25.180  26.151  1.00  0.00    -0.175 NA
ATOM     95  H   UNL A   1      29.167  23.848  27.361  1.00  0.00     0.189 HD
BRANCH  92  96
ATOM     96  C   UNL A   1      31.960  26.099  24.785  1.00  0.00     0.039 A 
ATOM     97  C   UNL A   1      31.564  26.056  23.435  1.00  0.00     0.016 A 
ATOM     98  C   UNL A   1      32.872  27.075  25.192  1.00  0.00     0.135 A 
ATOM     99  C   UNL A   1      32.087  26.965  22.516  1.00  0.00     0.040 A 
ATOM    100  C   UNL A   1      33.395  27.987  24.276  1.00  0.00     0.079 A 
ATOM    101  F   UNL A   1      33.280  27.148  26.467  1.00  0.00    -0.206 F 
ATOM    102  C   UNL A   1      33.000  27.920  22.946  1.00  0.00     0.126 A 
ATOM    103  F   UNL A   1      33.505  28.790  22.061  1.00  0.00    -0.207 F 
ENDBRANCH  92  96
ENDBRANCH  88  90
ENDBRANCH  78  80
ENDBRANCH  77  78
ENDBRANCH  76  77
ENDBRANCH  75  76
ENDBRANCH  74  75
ENDBRANCH  73  74
ENDBRANCH   1  73
TORSDOF 19
ENDMDL
MODEL 2
REMARK VINA RESULT:     -11.5      5.862     11.251
REMARK SMILES O=C(OCCOCCOCCOC(=O)c1ccc2nc(-c3c[nH]nc3-c3ccc(F)cc3F)[nH]c2c1)c1ccc(-c2c3nc(c(-c4c(F)c(F)c(F)c(F)c4F)c4ccc([nH]4)c(-c4c(F)c(F)c(F)c(F)c4F)c4nc(c(-c5c(F)c(F)c(F)c(F)c5F)c5ccc2[nH]5)C=C4)C=C3)cc1
REMARK SMILES IDX 7 1 6 2 5 3 4 4 3 5 2 6 1 7 37 8 38 9 99 10 39 11 98 12
REMARK SMILES IDX 40 13 41 14 42 15 92 16 43 17 97 18 91 19 93 20 44 21 96 22
REMARK SMILES IDX 90 23 89 24 45 26 77 27 57 28 76 29 58 30 61 31 75 32 94 33
REMARK SMILES IDX 59 34 60 35 74 37 95 38 62 39 46 40 47 41 55 42 48 43 49 44
REMARK SMILES IDX 53 45 56 46 50 47 51 48 54 49 52 50 78 51 79 52 87 53 80 54
REMARK SMILES IDX 81 55 85 56 88 57 82 58 83 59 86 60 84 61 63 62 64 63 72 64
REMARK SMILES IDX 65 65 66 66 70 67 73 68 67 69 68 70 71 71 69 72 8 73 9 74
REMARK SMILES IDX 10 75 11 76 12 77 13 78 14 79 15 80 16 81 36 82 17 83 35 84
REMARK SMILES IDX 18 85 34 86 19 87 20 88 21 90 22 91 25 92 23 93 24 94 26 96
REMARK SMILES IDX 27 97 32 98 28 99 31 100 33 101 29 102 30 103
REMARK H PARENT 93 25 61 36 34 89 23 95
REMARK Flexibility Score: inf
ROOT
ATOM      1  C   UNL A   1      33.079  36.292  32.037  1.00  0.00     0.188 C 
ENDROOT
BRANCH   1   2
ATOM      2  O   UNL A   1      32.819  34.928  32.396  1.00  0.00    -0.376 OA
BRANCH   2   3
ATOM      3  C   UNL A   1      33.949  34.272  32.985  1.00  0.00     0.202 C 
BRANCH   3   4
ATOM      4  C   UNL A   1      34.731  33.375  32.014  1.00  0.00     0.261 C 
BRANCH   4   5
ATOM      5  O   UNL A   1      35.401  32.294  32.687  1.00  0.00    -0.460 OA
BRANCH   5   6
ATOM      6  C   UNL A   1      36.690  32.238  33.108  1.00  0.00     0.338 C 
ATOM      7  O   UNL A   1      36.982  32.733  34.196  1.00  0.00    -0.246 OA
BRANCH   6   8
ATOM      8  C   UNL A   1      37.788  31.568  32.346  1.00  0.00     0.060 A 
ATOM      9  C   UNL A   1      38.678  30.640  32.880  1.00  0.00     0.016 A 
ATOM     10  C   UNL A   1      37.893  31.864  30.973  1.00  0.00     0.016 A 
ATOM     11  C   UNL A   1      39.727  30.134  32.127  1.00  0.00     0.010 A 
ATOM     12  C   UNL A   1      38.900  31.294  30.184  1.00  0.00     0.010 A 
ATOM     13  C   UNL A   1      39.853  30.461  30.778  1.00  0.00    -0.014 A 
BRANCH  13  14
ATOM     14  C   UNL A   1      41.057  29.978  30.072  1.00  0.00     0.031 A 
ATOM     15  C   UNL A   1      41.022  28.633  29.415  1.00  0.00     0.074 A 
ATOM     16  C   UNL A   1      42.080  30.827  29.864  1.00  0.00     0.049 A 
ATOM     17  N   UNL A   1      41.909  28.070  28.640  1.00  0.00    -0.248 NA
ATOM     18  C   UNL A   1      39.813  27.821  29.636  1.00  0.00     0.031 C 
ATOM     19  C   UNL A   1      42.137  32.196  30.375  1.00  0.00     0.029 A 
ATOM     20  N   UNL A   1      43.227  30.697  29.129  1.00  0.00    -0.354 N 
ATOM     21  C   UNL A   1      41.371  26.841  28.286  1.00  0.00     0.074 A 
ATOM     22  C   UNL A   1      40.091  26.726  28.946  1.00  0.00     0.031 C 
ATOM     23  C   UNL A   1      43.236  32.798  29.900  1.00  0.00     0.029 A 
ATOM     24  C   UNL A   1      43.990  31.840  29.099  1.00  0.00     0.049 A 
ATOM     25  H   UNL A   1      43.482  29.866  28.667  1.00  0.00     0.167 HD
ATOM     26  C   UNL A   1      41.901  25.901  27.472  1.00  0.00     0.037 A 
ATOM     27  C   UNL A   1      45.168  32.084  28.496  1.00  0.00     0.037 A 
ATOM     28  C   UNL A   1      43.177  26.040  26.824  1.00  0.00     0.049 A 
ATOM     29  C   UNL A   1      45.785  30.985  27.680  1.00  0.00     0.074 A 
ATOM     30  C   UNL A   1      43.842  25.131  26.023  1.00  0.00     0.029 A 
ATOM     31  N   UNL A   1      43.980  27.170  26.909  1.00  0.00    -0.354 N 
ATOM     32  N   UNL A   1      45.290  29.806  27.384  1.00  0.00    -0.248 NA
ATOM     33  C   UNL A   1      47.120  31.234  27.126  1.00  0.00     0.031 C 
ATOM     34  C   UNL A   1      45.070  25.694  25.661  1.00  0.00     0.029 A 
ATOM     35  C   UNL A   1      45.149  26.972  26.196  1.00  0.00     0.049 A 
ATOM     36  H   UNL A   1      43.751  27.991  27.402  1.00  0.00     0.167 HD
ATOM     37  C   UNL A   1      46.246  29.174  26.606  1.00  0.00     0.074 A 
ATOM     38  C   UNL A   1      47.346  30.108  26.459  1.00  0.00     0.031 C 
ATOM     39  C   UNL A   1      46.220  27.931  26.066  1.00  0.00     0.037 A 
BRANCH  26  40
ATOM     40  C   UNL A   1      41.126  24.631  27.299  1.00  0.00     0.064 A 
ATOM     41  C   UNL A   1      40.018  24.592  26.439  1.00  0.00     0.173 A 
ATOM     42  C   UNL A   1      41.487  23.446  27.959  1.00  0.00     0.173 A 
ATOM     43  F   UNL A   1      39.638  25.697  25.779  1.00  0.00    -0.203 F 
ATOM     44  C   UNL A   1      39.304  23.414  26.242  1.00  0.00     0.198 A 
ATOM     45  C   UNL A   1      40.785  22.264  27.741  1.00  0.00     0.198 A 
ATOM     46  F   UNL A   1      42.557  23.424  28.768  1.00  0.00    -0.203 F 
ATOM     47  F   UNL A   1      38.249  23.404  25.416  1.00  0.00    -0.200 F 
ATOM     48  C   UNL A   1      39.693  22.249  26.886  1.00  0.00     0.200 A 
ATOM     49  F   UNL A   1      41.183  21.130  28.335  1.00  0.00    -0.200 F 
ATOM     50  F   UNL A   1      39.024  21.108  26.668  1.00  0.00    -0.200 F 
ENDBRANCH  26  40
BRANCH  27  51
ATOM     51  C   UNL A   1      45.814  33.412  28.658  1.00  0.00     0.064 A 
ATOM     52  C   UNL A   1      46.662  33.676  29.747  1.00  0.00     0.173 A 
ATOM     53  C   UNL A   1      45.550  34.465  27.773  1.00  0.00     0.173 A 
ATOM     54  F   UNL A   1      46.946  32.703  30.625  1.00  0.00    -0.203 F 
ATOM     55  C   UNL A   1      47.189  34.947  29.964  1.00  0.00     0.198 A 
ATOM     56  C   UNL A   1      46.102  35.731  27.974  1.00  0.00     0.198 A 
ATOM     57  F   UNL A   1      44.759  34.264  26.709  1.00  0.00    -0.203 F 
ATOM     58  F   UNL A   1      47.950  35.181  31.041  1.00  0.00    -0.200 F 
ATOM     59  C   UNL A   1      46.911  35.973  29.075  1.00  0.00     0.200 A 
ATOM     60  F   UNL A   1      45.845  36.717  27.104  1.00  0.00    -0.200 F 
ATOM     61  F   UNL A   1      47.418  37.196  29.282  1.00  0.00    -0.200 F 
ENDBRANCH  27  51
BRANCH  39  62
ATOM     62  C   UNL A   1      47.408  27.504  25.261  1.00  0.00     0.064 A 
ATOM     63  C   UNL A   1      48.533  26.958  25.895  1.00  0.00     0.173 A 
ATOM     64  C   UNL A   1      47.472  27.741  23.881  1.00  0.00     0.173 A 
ATOM     65  F   UNL A   1      48.518  26.724  27.215  1.00  0.00    -0.203 F 
ATOM     66  C   UNL A   1      49.694  26.691  25.178  1.00  0.00     0.198 A 
ATOM     67  C   UNL A   1      48.627  27.449  23.163  1.00  0.00     0.198 A 
ATOM     68  F   UNL A   1      46.413  28.252  23.234  1.00  0.00    -0.203 F 
ATOM     69  F   UNL A   1      50.774  26.212  25.809  1.00  0.00    -0.200 F 
ATOM     70  C   UNL A   1      49.740  26.937  23.814  1.00  0.00     0.200 A 
ATOM     71  F   UNL A   1      48.665  27.671  21.842  1.00  0.00    -0.200 F 
ATOM     72  F   UNL A   1      50.861  26.684  23.125  1.00  0.00    -0.200 F 
ENDBRANCH  39  62
ENDBRANCH  13  14
ENDBRANCH   6   8
ENDBRANCH   5   6
ENDBRANCH   4   5
ENDBRANCH   3   4
ENDBRANCH   2   3
ENDBRANCH   1   2
BRANCH   1  73
ATOM     73  C   UNL A   1      32.595  36.602  30.618  1.00  0.00     0.188 C 
BRANCH  73  74
ATOM     74  O   UNL A   1      32.715  35.525  29.689  1.00  0.00    -0.376 OA
BRANCH  74  75
ATOM     75  C   UNL A   1      33.974  35.367  29.041  1.00  0.00     0.202 C 
BRANCH  75  76
ATOM     76  C   UNL A   1      34.049  34.296  27.949  1.00  0.00     0.261 C 
BRANCH  76  77
ATOM     77  O   UNL A   1      33.367  33.066  28.263  1.00  0.00    -0.460 OA
BRANCH  77  78
ATOM     78  C   UNL A   1      34.196  32.006  28.425  1.00  0.00     0.338 C 
ATOM     79  O   UNL A   1      35.146  31.926  29.187  1.00  0.00    -0.246 OA
BRANCH  78  80
ATOM     80  C   UNL A   1      33.922  30.936  27.448  1.00  0.00     0.062 A 
ATOM     81  C   UNL A   1      34.960  30.011  27.268  1.00  0.00     0.018 A 
ATOM     82  C   UNL A   1      32.651  30.751  26.870  1.00  0.00     0.044 A 
ATOM     83  C   UNL A   1      34.745  28.826  26.566  1.00  0.00     0.031 A 
ATOM     84  C   UNL A   1      32.466  29.544  26.171  1.00  0.00     0.067 A 
ATOM     85  C   UNL A   1      33.464  28.579  26.063  1.00  0.00     0.089 A 
ATOM     86  N   UNL A   1      31.397  28.984  25.501  1.00  0.00    -0.338 N 
ATOM     87  N   UNL A   1      32.991  27.445  25.477  1.00  0.00    -0.228 NA
ATOM     88  C   UNL A   1      31.741  27.698  25.159  1.00  0.00     0.142 A 
ATOM     89  H   UNL A   1      30.542  29.428  25.303  1.00  0.00     0.168 HD
BRANCH  88  90
ATOM     90  C   UNL A   1      30.861  26.671  24.554  1.00  0.00     0.063 A 
ATOM     91  C   UNL A   1      30.961  25.307  24.670  1.00  0.00     0.117 A 
ATOM     92  C   UNL A   1      29.724  26.907  23.728  1.00  0.00     0.106 A 
ATOM     93  N   UNL A   1      29.859  24.813  24.029  1.00  0.00    -0.284 N 
ATOM     94  N   UNL A   1      29.134  25.747  23.395  1.00  0.00    -0.175 NA
ATOM     95  H   UNL A   1      29.618  23.858  24.033  1.00  0.00     0.189 HD
BRANCH  92  96
ATOM     96  C   UNL A   1      29.316  28.170  23.129  1.00  0.00     0.039 A 
ATOM     97  C   UNL A   1      30.275  28.936  22.439  1.00  0.00     0.016 A 
ATOM     98  C   UNL A   1      28.010  28.654  23.234  1.00  0.00     0.135 A 
ATOM     99  C   UNL A   1      29.927  30.167  21.881  1.00  0.00     0.040 A 
ATOM    100  C   UNL A   1      27.660  29.883  22.676  1.00  0.00     0.079 A 
ATOM    101  F   UNL A   1      27.069  27.960  23.888  1.00  0.00    -0.206 F 
ATOM    102  C   UNL A   1      28.623  30.628  22.009  1.00  0.00     0.126 A 
ATOM    103  F   UNL A   1      28.292  31.813  21.477  1.00  0.00    -0.207 F 
ENDBRANCH  92  96
ENDBRANCH  88  90
ENDBRANCH  78  80
ENDBRANCH  77  78
ENDBRANCH  76  77
ENDBRANCH  75  76
ENDBRANCH  74  75
ENDBRANCH  73  74
ENDBRANCH   1  73
TORSDOF 19
ENDMDL
MODEL 3
REMARK VINA RESULT:     -11.5      1.832      3.538
REMARK SMILES O=C(OCCOCCOCCOC(=O)c1ccc2nc(-c3c[nH]nc3-c3ccc(F)cc3F)[nH]c2c1)c1ccc(-c2c3nc(c(-c4c(F)c(F)c(F)c(F)c4F)c4ccc([nH]4)c(-c4c(F)c(F)c(F)c(F)c4F)c4nc(c(-c5c(F)c(F)c(F)c(F)c5F)c5ccc2[nH]5)C=C4)C=C3)cc1
REMARK SMILES IDX 7 1 6 2 5 3 4 4 3 5 2 6 1 7 37 8 38 9 99 10 39 11 98 12
REMARK SMILES IDX 40 13 41 14 42 15 92 16 43 17 97 18 91 19 93 20 44 21 96 22
REMARK SMILES IDX 90 23 89 24 45 26 77 27 57 28 76 29 58 30 61 31 75 32 94 33
REMARK SMILES IDX 59 34 60 35 74 37 95 38 62 39 46 40 47 41 55 42 48 43 49 44
REMARK SMILES IDX 53 45 56 46 50 47 51 48 54 49 52 50 78 51 79 52 87 53 80 54
REMARK SMILES IDX 81 55 85 56 88 57 82 58 83 59 86 60 84 61 63 62 64 63 72 64
REMARK SMILES IDX 65 65 66 66 70 67 73 68 67 69 68 70 71 71 69 72 8 73 9 74
REMARK SMILES IDX 10 75 11 76 12 77 13 78 14 79 15 80 16 81 36 82 17 83 35 84
REMARK SMILES IDX 18 85 34 86 19 87 20 88 21 90 22 91 25 92 23 93 24 94 26 96
REMARK SMILES IDX 27 97 32 98 28 99 31 100 33 101 29 102 30 103
REMARK H PARENT 93 25 61 36 34 89 23 95
REMARK Flexibility Score: inf
ROOT
ATOM      1  C   UNL A   1      39.177  23.208  26.730  1.00  0.00     0.188 C 
ENDROOT
BRANCH   1   2
ATOM      2  O   UNL A   1      39.931  22.118  26.182  1.00  0.00    -0.376 OA
BRANCH   2   3
ATOM      3  C   UNL A   1      41.181  21.902  26.847  1.00  0.00     0.202 C 
BRANCH   3   4
ATOM      4  C   UNL A   1      42.393  22.499  26.115  1.00  0.00     0.261 C 
BRANCH   4   5
ATOM      5  O   UNL A   1      42.088  23.756  25.485  1.00  0.00    -0.460 OA
BRANCH   5   6
ATOM      6  C   UNL A   1      42.722  24.946  25.635  1.00  0.00     0.338 C 
ATOM      7  O   UNL A   1      43.667  25.213  24.894  1.00  0.00    -0.246 OA
BRANCH   6   8
ATOM      8  C   UNL A   1      42.316  25.988  26.627  1.00  0.00     0.060 A 
ATOM      9  C   UNL A   1      42.764  27.307  26.627  1.00  0.00     0.016 A 
ATOM     10  C   UNL A   1      41.370  25.617  27.602  1.00  0.00     0.016 A 
ATOM     11  C   UNL A   1      42.409  28.187  27.639  1.00  0.00     0.010 A 
ATOM     12  C   UNL A   1      40.943  26.523  28.580  1.00  0.00     0.010 A 
ATOM     13  C   UNL A   1      41.504  27.802  28.627  1.00  0.00    -0.014 A 
BRANCH  13  14
ATOM     14  C   UNL A   1      41.265  28.751  29.733  1.00  0.00     0.031 A 
ATOM     15  C   UNL A   1      40.072  29.654  29.669  1.00  0.00     0.074 A 
ATOM     16  C   UNL A   1      41.999  28.648  30.855  1.00  0.00     0.049 A 
ATOM     17  N   UNL A   1      39.601  30.465  30.577  1.00  0.00    -0.248 NA
ATOM     18  C   UNL A   1      39.285  29.621  28.424  1.00  0.00     0.031 C 
ATOM     19  C   UNL A   1      43.106  27.710  31.039  1.00  0.00     0.029 A 
ATOM     20  N   UNL A   1      41.895  29.281  32.065  1.00  0.00    -0.354 N 
ATOM     21  C   UNL A   1      38.470  31.039  30.016  1.00  0.00     0.074 A 
ATOM     22  C   UNL A   1      38.334  30.505  28.680  1.00  0.00     0.031 C 
ATOM     23  C   UNL A   1      43.550  27.794  32.300  1.00  0.00     0.029 A 
ATOM     24  C   UNL A   1      42.798  28.829  32.998  1.00  0.00     0.049 A 
ATOM     25  H   UNL A   1      41.238  29.991  32.249  1.00  0.00     0.167 HD
ATOM     26  C   UNL A   1      37.618  31.927  30.577  1.00  0.00     0.037 A 
ATOM     27  C   UNL A   1      42.997  29.214  34.272  1.00  0.00     0.037 A 
ATOM     28  C   UNL A   1      37.773  32.442  31.909  1.00  0.00     0.049 A 
ATOM     29  C   UNL A   1      42.100  30.277  34.839  1.00  0.00     0.074 A 
ATOM     30  C   UNL A   1      37.007  33.388  32.564  1.00  0.00     0.029 A 
ATOM     31  N   UNL A   1      38.772  32.047  32.791  1.00  0.00    -0.354 N 
ATOM     32  N   UNL A   1      41.057  30.850  34.286  1.00  0.00    -0.248 NA
ATOM     33  C   UNL A   1      42.407  30.759  36.189  1.00  0.00     0.031 C 
ATOM     34  C   UNL A   1      37.571  33.599  33.827  1.00  0.00     0.029 A 
ATOM     35  C   UNL A   1      38.658  32.751  33.977  1.00  0.00     0.049 A 
ATOM     36  H   UNL A   1      39.458  31.367  32.601  1.00  0.00     0.167 HD
ATOM     37  C   UNL A   1      40.578  31.755  35.219  1.00  0.00     0.074 A 
ATOM     38  C   UNL A   1      41.434  31.642  36.384  1.00  0.00     0.031 C 
ATOM     39  C   UNL A   1      39.528  32.606  35.120  1.00  0.00     0.037 A 
BRANCH  26  40
ATOM     40  C   UNL A   1      36.495  32.430  29.723  1.00  0.00     0.064 A 
ATOM     41  C   UNL A   1      35.429  31.583  29.389  1.00  0.00     0.173 A 
ATOM     42  C   UNL A   1      36.455  33.753  29.254  1.00  0.00     0.173 A 
ATOM     43  F   UNL A   1      35.416  30.313  29.820  1.00  0.00    -0.203 F 
ATOM     44  C   UNL A   1      34.361  32.040  28.622  1.00  0.00     0.198 A 
ATOM     45  C   UNL A   1      35.375  34.214  28.507  1.00  0.00     0.198 A 
ATOM     46  F   UNL A   1      37.437  34.611  29.570  1.00  0.00    -0.203 F 
ATOM     47  F   UNL A   1      33.355  31.211  28.316  1.00  0.00    -0.200 F 
ATOM     48  C   UNL A   1      34.331  33.358  28.189  1.00  0.00     0.200 A 
ATOM     49  F   UNL A   1      35.328  35.496  28.119  1.00  0.00    -0.200 F 
ATOM     50  F   UNL A   1      33.285  33.806  27.479  1.00  0.00    -0.200 F 
ENDBRANCH  26  40
BRANCH  27  51
ATOM     51  C   UNL A   1      44.086  28.587  35.066  1.00  0.00     0.064 A 
ATOM     52  C   UNL A   1      45.403  29.069  34.994  1.00  0.00     0.173 A 
ATOM     53  C   UNL A   1      43.852  27.456  35.859  1.00  0.00     0.173 A 
ATOM     54  F   UNL A   1      45.681  30.148  34.249  1.00  0.00    -0.203 F 
ATOM     55  C   UNL A   1      46.447  28.425  35.653  1.00  0.00     0.198 A 
ATOM     56  C   UNL A   1      44.894  26.828  36.542  1.00  0.00     0.198 A 
ATOM     57  F   UNL A   1      42.610  26.962  35.974  1.00  0.00    -0.203 F 
ATOM     58  F   UNL A   1      47.701  28.877  35.522  1.00  0.00    -0.200 F 
ATOM     59  C   UNL A   1      46.191  27.305  36.429  1.00  0.00     0.200 A 
ATOM     60  F   UNL A   1      44.641  25.756  37.306  1.00  0.00    -0.200 F 
ATOM     61  F   UNL A   1      47.195  26.685  37.064  1.00  0.00    -0.200 F 
ENDBRANCH  27  51
BRANCH  39  62
ATOM     62  C   UNL A   1      39.236  33.481  36.299  1.00  0.00     0.064 A 
ATOM     63  C   UNL A   1      39.792  34.766  36.381  1.00  0.00     0.173 A 
ATOM     64  C   UNL A   1      38.503  33.003  37.394  1.00  0.00     0.173 A 
ATOM     65  F   UNL A   1      40.508  35.258  35.360  1.00  0.00    -0.203 F 
ATOM     66  C   UNL A   1      39.646  35.532  37.532  1.00  0.00     0.198 A 
ATOM     67  C   UNL A   1      38.339  33.783  38.534  1.00  0.00     0.198 A 
ATOM     68  F   UNL A   1      37.946  31.783  37.352  1.00  0.00    -0.203 F 
ATOM     69  F   UNL A   1      40.222  36.739  37.608  1.00  0.00    -0.200 F 
ATOM     70  C   UNL A   1      38.921  35.040  38.607  1.00  0.00     0.200 A 
ATOM     71  F   UNL A   1      37.624  33.314  39.566  1.00  0.00    -0.200 F 
ATOM     72  F   UNL A   1      38.786  35.777  39.717  1.00  0.00    -0.200 F 
ENDBRANCH  39  62
ENDBRANCH  13  14
ENDBRANCH   6   8
ENDBRANCH   5   6
ENDBRANCH   4   5
ENDBRANCH   3   4
ENDBRANCH   2   3
ENDBRANCH   1   2
BRANCH   1  73
ATOM     73  C   UNL A   1      37.824  23.363  26.032  1.00  0.00     0.188 C 
BRANCH  73  74
ATOM     74  O   UNL A   1      37.165  22.138  25.710  1.00  0.00    -0.376 OA
BRANCH  74  75
ATOM     75  C   UNL A   1      35.802  22.223  25.304  1.00  0.00     0.202 C 
BRANCH  75  76
ATOM     76  C   UNL A   1      35.140  20.916  24.860  1.00  0.00     0.261 C 
BRANCH  76  77
ATOM     77  O   UNL A   1      33.839  20.676  25.432  1.00  0.00    -0.460 OA
BRANCH  77  78
ATOM     78  C   UNL A   1      32.839  20.631  24.516  1.00  0.00     0.338 C 
ATOM     79  O   UNL A   1      32.689  19.804  23.632  1.00  0.00    -0.246 OA
BRANCH  78  80
ATOM     80  C   UNL A   1      31.961  21.814  24.598  1.00  0.00     0.062 A 
ATOM     81  C   UNL A   1      31.359  22.025  25.846  1.00  0.00     0.018 A 
ATOM     82  C   UNL A   1      31.872  22.759  23.558  1.00  0.00     0.044 A 
ATOM     83  C   UNL A   1      30.708  23.225  26.130  1.00  0.00     0.031 A 
ATOM     84  C   UNL A   1      31.213  23.959  23.877  1.00  0.00     0.067 A 
ATOM     85  C   UNL A   1      30.689  24.215  25.142  1.00  0.00     0.089 A 
ATOM     86  N   UNL A   1      30.940  25.115  23.173  1.00  0.00    -0.338 N 
ATOM     87  N   UNL A   1      30.243  25.498  25.241  1.00  0.00    -0.228 NA
ATOM     88  C   UNL A   1      30.416  26.032  24.053  1.00  0.00     0.142 A 
ATOM     89  H   UNL A   1      31.094  25.256  22.211  1.00  0.00     0.168 HD
BRANCH  88  90
ATOM     90  C   UNL A   1      30.106  27.455  23.779  1.00  0.00     0.063 A 
ATOM     91  C   UNL A   1      29.145  27.956  22.938  1.00  0.00     0.117 A 
ATOM     92  C   UNL A   1      30.753  28.589  24.349  1.00  0.00     0.106 A 
ATOM     93  N   UNL A   1      29.183  29.311  23.122  1.00  0.00    -0.284 N 
ATOM     94  N   UNL A   1      30.185  29.725  23.912  1.00  0.00    -0.175 NA
ATOM     95  H   UNL A   1      28.534  29.927  22.712  1.00  0.00     0.189 HD
BRANCH  92  96
ATOM     96  C   UNL A   1      31.979  28.602  25.136  1.00  0.00     0.039 A 
ATOM     97  C   UNL A   1      31.905  28.330  26.515  1.00  0.00     0.016 A 
ATOM     98  C   UNL A   1      33.221  28.896  24.569  1.00  0.00     0.135 A 
ATOM     99  C   UNL A   1      33.053  28.366  27.305  1.00  0.00     0.040 A 
ATOM    100  C   UNL A   1      34.372  28.932  25.356  1.00  0.00     0.079 A 
ATOM    101  F   UNL A   1      33.336  29.167  23.262  1.00  0.00    -0.206 F 
ATOM    102  C   UNL A   1      34.275  28.670  26.717  1.00  0.00     0.126 A 
ATOM    103  F   UNL A   1      35.377  28.710  27.479  1.00  0.00    -0.207 F 
ENDBRANCH  92  96
ENDBRANCH  88  90
ENDBRANCH  78  80
ENDBRANCH  77  78
ENDBRANCH  76  77
ENDBRANCH  75  76
ENDBRANCH  74  75
ENDBRANCH  73  74
ENDBRANCH   1  73
TORSDOF 19
ENDMDL
