MODEL 1
REMARK VINA RESULT:     -12.7      0.000      0.000
REMARK SMILES CN1C(=O)C2=NC(N3CCC(C(=O)OCCOCCOCCOC(=O)c4ccc(-c5c6nc(c(-c7c(F)c(F)c(F)c(F)c7F)c7ccc([nH]7)c(-c7c(F)c(F)c(F)c(F)c7F)c7nc(c(-c8c(F)c(F)c(F)c(F)c8F)c8ccc5[nH]8)C=C7)C=C6)cc4)CC3)=[NH+][C@H]2N(C)C1=O
REMARK SMILES IDX 19 1 18 2 17 3 16 4 15 5 14 6 12 7 13 8 11 9 1 10 2 11 3 12
REMARK SMILES IDX 95 13 4 14 5 15 93 16 96 17 6 18 92 19 94 20 7 21 91 22 8 23
REMARK SMILES IDX 9 25 90 26 10 27 89 28 20 29 21 30 22 31 23 32 24 33 25 34
REMARK SMILES IDX 26 35 27 36 88 37 28 38 87 39 29 40 30 41 31 42 81 43 32 44
REMARK SMILES IDX 86 45 80 46 82 47 33 48 85 49 79 50 78 51 34 53 66 54 46 55
REMARK SMILES IDX 65 56 47 57 50 58 64 59 83 60 48 61 49 62 63 64 84 65 51 66
REMARK SMILES IDX 35 67 36 68 44 69 37 70 38 71 42 72 45 73 39 74 40 75 43 76
REMARK SMILES IDX 41 77 67 78 68 79 76 80 69 81 70 82 74 83 77 84 71 85 72 86
REMARK SMILES IDX 75 87 73 88 52 89 53 90 61 91 54 92 55 93 59 94 62 95 56 96
REMARK SMILES IDX 57 97 60 98 58 99
REMARK H PARENT 91 24 82 52 50 63
REMARK Flexibility Score: inf
ROOT
ATOM      1  C   UNL A   1      40.562  21.606  27.331  1.00  0.00     0.188 C 
ENDROOT
BRANCH   1   2
ATOM      2  C   UNL A   1      39.491  21.804  26.256  1.00  0.00     0.188 C 
BRANCH   2   3
ATOM      3  O   UNL A   1      38.814  23.062  26.308  1.00  0.00    -0.376 OA
BRANCH   3   4
ATOM      4  C   UNL A   1      37.464  23.071  25.853  1.00  0.00     0.202 C 
BRANCH   4   5
ATOM      5  C   UNL A   1      36.882  21.707  25.453  1.00  0.00     0.261 C 
BRANCH   5   6
ATOM      6  O   UNL A   1      35.517  21.514  25.874  1.00  0.00    -0.463 OA
BRANCH   6   7
ATOM      7  C   UNL A   1      34.776  20.655  25.133  1.00  0.00     0.309 C 
ATOM      8  O   UNL A   1      35.171  19.564  24.736  1.00  0.00    -0.252 OA
BRANCH   7   9
ATOM      9  C   UNL A   1      33.346  21.119  24.889  1.00  0.00     0.105 C 
ATOM     10  C   UNL A   1      31.748  29.944  26.168  1.00  0.00     0.159 C 
ATOM     11  N   UNL A   1      31.429  28.715  25.477  1.00  0.00    -0.261 N 
ATOM     12  C   UNL A   1      31.479  27.535  26.228  1.00  0.00     0.298 C 
ATOM     13  C   UNL A   1      30.872  28.792  24.187  1.00  0.00     0.329 C 
ATOM     14  O   UNL A   1      31.582  27.453  27.442  1.00  0.00    -0.265 OA
ATOM     15  C   UNL A   1      31.390  26.300  25.397  1.00  0.00     0.242 C 
ATOM     16  N   UNL A   1      30.503  27.547  23.683  1.00  0.00    -0.288 N 
ATOM     17  O   UNL A   1      30.608  29.839  23.609  1.00  0.00    -0.248 OA
ATOM     18  N   UNL A   1      31.269  25.063  25.731  1.00  0.00    -0.065 NA
ATOM     19  C   UNL A   1      31.448  26.509  23.949  1.00  0.00     0.321 C 
ATOM     20  C   UNL A   1      29.080  27.276  23.612  1.00  0.00     0.153 C 
ATOM     21  C   UNL A   1      31.228  24.410  24.515  1.00  0.00     0.389 C 
ATOM     22  N   UNL A   1      31.185  25.170  23.450  1.00  0.00    -0.246 N 
ATOM     23  N   UNL A   1      31.266  23.043  24.438  1.00  0.00    -0.262 N 
ATOM     24  H   UNL A   1      31.012  24.897  22.521  1.00  0.00     0.262 HD
ATOM     25  C   UNL A   1      31.879  22.389  23.281  1.00  0.00     0.201 C 
ATOM     26  C   UNL A   1      31.196  22.208  25.630  1.00  0.00     0.201 C 
ATOM     27  C   UNL A   1      33.316  22.014  23.642  1.00  0.00     0.053 C 
ATOM     28  C   UNL A   1      32.612  21.806  26.052  1.00  0.00     0.053 C 
ENDBRANCH   7   9
ENDBRANCH   6   7
ENDBRANCH   5   6
ENDBRANCH   4   5
ENDBRANCH   3   4
ENDBRANCH   2   3
ENDBRANCH   1   2
BRANCH   1  29
ATOM     29  O   UNL A   1      40.797  20.239  27.634  1.00  0.00    -0.376 OA
BRANCH  29  30
ATOM     30  C   UNL A   1      42.025  19.573  27.350  1.00  0.00     0.202 C 
BRANCH  30  31
ATOM     31  C   UNL A   1      42.522  19.210  25.946  1.00  0.00     0.261 C 
BRANCH  31  32
ATOM     32  O   UNL A   1      43.033  20.271  25.177  1.00  0.00    -0.460 OA
BRANCH  32  33
ATOM     33  C   UNL A   1      44.361  20.457  25.180  1.00  0.00     0.338 C 
ATOM     34  O   UNL A   1      45.242  19.607  25.188  1.00  0.00    -0.246 OA
BRANCH  33  35
ATOM     35  C   UNL A   1      44.550  21.913  25.180  1.00  0.00     0.060 A 
ATOM     36  C   UNL A   1      45.589  22.418  25.952  1.00  0.00     0.016 A 
ATOM     37  C   UNL A   1      43.578  22.752  24.592  1.00  0.00     0.016 A 
ATOM     38  C   UNL A   1      45.474  23.713  26.393  1.00  0.00     0.010 A 
ATOM     39  C   UNL A   1      43.456  24.037  25.038  1.00  0.00     0.010 A 
ATOM     40  C   UNL A   1      44.336  24.445  26.026  1.00  0.00    -0.014 A 
BRANCH  40  41
ATOM     41  C   UNL A   1      44.062  25.652  26.761  1.00  0.00     0.031 A 
ATOM     42  C   UNL A   1      45.053  26.712  26.529  1.00  0.00     0.074 A 
ATOM     43  C   UNL A   1      42.981  25.759  27.552  1.00  0.00     0.049 A 
ATOM     44  N   UNL A   1      45.921  27.164  27.367  1.00  0.00    -0.248 NA
ATOM     45  C   UNL A   1      45.205  27.211  25.155  1.00  0.00     0.031 C 
ATOM     46  C   UNL A   1      41.815  24.872  27.623  1.00  0.00     0.029 A 
ATOM     47  N   UNL A   1      42.660  26.760  28.412  1.00  0.00    -0.354 N 
ATOM     48  C   UNL A   1      46.601  28.160  26.681  1.00  0.00     0.074 A 
ATOM     49  C   UNL A   1      46.258  28.014  25.291  1.00  0.00     0.031 C 
ATOM     50  C   UNL A   1      40.830  25.493  28.312  1.00  0.00     0.029 A 
ATOM     51  C   UNL A   1      41.338  26.752  28.828  1.00  0.00     0.049 A 
ATOM     52  H   UNL A   1      43.311  27.434  28.714  1.00  0.00     0.167 HD
ATOM     53  C   UNL A   1      47.151  29.199  27.359  1.00  0.00     0.037 A 
ATOM     54  C   UNL A   1      40.707  27.764  29.475  1.00  0.00     0.037 A 
ATOM     55  C   UNL A   1      47.372  28.863  28.745  1.00  0.00     0.049 A 
ATOM     56  C   UNL A   1      41.753  28.642  30.059  1.00  0.00     0.074 A 
ATOM     57  C   UNL A   1      48.098  27.885  29.401  1.00  0.00     0.029 A 
ATOM     58  N   UNL A   1      46.507  29.370  29.682  1.00  0.00    -0.354 N 
ATOM     59  N   UNL A   1      42.515  28.306  31.063  1.00  0.00    -0.248 NA
ATOM     60  C   UNL A   1      42.250  29.745  29.248  1.00  0.00     0.031 C 
ATOM     61  C   UNL A   1      47.322  27.545  30.550  1.00  0.00     0.029 A 
ATOM     62  C   UNL A   1      46.191  28.361  30.554  1.00  0.00     0.049 A 
ATOM     63  H   UNL A   1      46.172  30.296  29.721  1.00  0.00     0.167 HD
ATOM     64  C   UNL A   1      43.759  28.837  30.756  1.00  0.00     0.074 A 
ATOM     65  C   UNL A   1      43.508  29.802  29.691  1.00  0.00     0.031 C 
ATOM     66  C   UNL A   1      44.902  28.233  31.194  1.00  0.00     0.037 A 
BRANCH  53  67
ATOM     67  C   UNL A   1      47.076  30.622  26.865  1.00  0.00     0.064 A 
ATOM     68  C   UNL A   1      48.235  31.418  26.924  1.00  0.00     0.173 A 
ATOM     69  C   UNL A   1      45.868  31.321  26.635  1.00  0.00     0.173 A 
ATOM     70  F   UNL A   1      49.433  30.861  27.156  1.00  0.00    -0.203 F 
ATOM     71  C   UNL A   1      48.174  32.811  26.855  1.00  0.00     0.198 A 
ATOM     72  C   UNL A   1      45.820  32.706  26.507  1.00  0.00     0.198 A 
ATOM     73  F   UNL A   1      44.673  30.720  26.642  1.00  0.00    -0.203 F 
ATOM     74  F   UNL A   1      49.284  33.533  27.059  1.00  0.00    -0.200 F 
ATOM     75  C   UNL A   1      46.966  33.455  26.654  1.00  0.00     0.200 A 
ATOM     76  F   UNL A   1      44.636  33.309  26.332  1.00  0.00    -0.200 F 
ATOM     77  F   UNL A   1      46.896  34.791  26.657  1.00  0.00    -0.200 F 
ENDBRANCH  53  67
BRANCH  54  78
ATOM     78  C   UNL A   1      39.295  28.193  29.354  1.00  0.00     0.064 A 
ATOM     79  C   UNL A   1      38.484  28.318  30.494  1.00  0.00     0.173 A 
ATOM     80  C   UNL A   1      38.793  28.759  28.165  1.00  0.00     0.173 A 
ATOM     81  F   UNL A   1      38.904  27.842  31.676  1.00  0.00    -0.203 F 
ATOM     82  C   UNL A   1      37.264  29.000  30.457  1.00  0.00     0.198 A 
ATOM     83  C   UNL A   1      37.570  29.429  28.126  1.00  0.00     0.198 A 
ATOM     84  F   UNL A   1      39.520  28.764  27.040  1.00  0.00    -0.203 F 
ATOM     85  F   UNL A   1      36.554  29.162  31.582  1.00  0.00    -0.200 F 
ATOM     86  C   UNL A   1      36.813  29.564  29.275  1.00  0.00     0.200 A 
ATOM     87  F   UNL A   1      37.162  30.000  26.983  1.00  0.00    -0.200 F 
ATOM     88  F   UNL A   1      35.677  30.274  29.251  1.00  0.00    -0.200 F 
ENDBRANCH  54  78
BRANCH  66  89
ATOM     89  C   UNL A   1      44.763  27.186  32.263  1.00  0.00     0.064 A 
ATOM     90  C   UNL A   1      44.719  27.465  33.641  1.00  0.00     0.173 A 
ATOM     91  C   UNL A   1      44.570  25.855  31.869  1.00  0.00     0.173 A 
ATOM     92  F   UNL A   1      44.783  28.725  34.093  1.00  0.00    -0.203 F 
ATOM     93  C   UNL A   1      44.558  26.446  34.579  1.00  0.00     0.198 A 
ATOM     94  C   UNL A   1      44.368  24.846  32.807  1.00  0.00     0.198 A 
ATOM     95  F   UNL A   1      44.543  25.537  30.565  1.00  0.00    -0.203 F 
ATOM     96  F   UNL A   1      44.552  26.734  35.889  1.00  0.00    -0.200 F 
ATOM     97  C   UNL A   1      44.380  25.139  34.160  1.00  0.00     0.200 A 
ATOM     98  F   UNL A   1      44.145  23.590  32.395  1.00  0.00    -0.200 F 
ATOM     99  F   UNL A   1      44.195  24.163  35.060  1.00  0.00    -0.200 F 
ENDBRANCH  66  89
ENDBRANCH  40  41
ENDBRANCH  33  35
ENDBRANCH  32  33
ENDBRANCH  31  32
ENDBRANCH  30  31
ENDBRANCH  29  30
ENDBRANCH   1  29
TORSDOF 17
ENDMDL
MODEL 2
REMARK VINA RESULT:     -12.2      4.000     10.036
REMARK SMILES CN1C(=O)C2=NC(N3CCC(C(=O)OCCOCCOCCOC(=O)c4ccc(-c5c6nc(c(-c7c(F)c(F)c(F)c(F)c7F)c7ccc([nH]7)c(-c7c(F)c(F)c(F)c(F)c7F)c7nc(c(-c8c(F)c(F)c(F)c(F)c8F)c8ccc5[nH]8)C=C7)C=C6)cc4)CC3)=[NH+][C@H]2N(C)C1=O
REMARK SMILES IDX 19 1 18 2 17 3 16 4 15 5 14 6 12 7 13 8 11 9 1 10 2 11 3 12
REMARK SMILES IDX 95 13 4 14 5 15 93 16 96 17 6 18 92 19 94 20 7 21 91 22 8 23
REMARK SMILES IDX 9 25 90 26 10 27 89 28 20 29 21 30 22 31 23 32 24 33 25 34
REMARK SMILES IDX 26 35 27 36 88 37 28 38 87 39 29 40 30 41 31 42 81 43 32 44
REMARK SMILES IDX 86 45 80 46 82 47 33 48 85 49 79 50 78 51 34 53 66 54 46 55
REMARK SMILES IDX 65 56 47 57 50 58 64 59 83 60 48 61 49 62 63 64 84 65 51 66
REMARK SMILES IDX 35 67 36 68 44 69 37 70 38 71 42 72 45 73 39 74 40 75 43 76
REMARK SMILES IDX 41 77 67 78 68 79 76 80 69 81 70 82 74 83 77 84 71 85 72 86
REMARK SMILES IDX 75 87 73 88 52 89 53 90 61 91 54 92 55 93 59 94 62 95 56 96
REMARK SMILES IDX 57 97 60 98 58 99
REMARK H PARENT 91 24 82 52 50 63
REMARK Flexibility Score: inf
ROOT
ATOM      1  C   UNL A   1      35.053  33.362  28.041  1.00  0.00     0.188 C 
ENDROOT
BRANCH   1   2
ATOM      2  C   UNL A   1      34.154  32.124  28.040  1.00  0.00     0.188 C 
BRANCH   2   3
ATOM      3  O   UNL A   1      34.796  30.917  27.626  1.00  0.00    -0.376 OA
BRANCH   3   4
ATOM      4  C   UNL A   1      33.938  29.847  27.238  1.00  0.00     0.202 C 
BRANCH   4   5
ATOM      5  C   UNL A   1      32.822  30.208  26.248  1.00  0.00     0.261 C 
BRANCH   5   6
ATOM      6  O   UNL A   1      32.570  29.188  25.262  1.00  0.00    -0.463 OA
BRANCH   6   7
ATOM      7  C   UNL A   1      31.388  29.267  24.604  1.00  0.00     0.309 C 
ATOM      8  O   UNL A   1      30.628  30.228  24.657  1.00  0.00    -0.252 OA
BRANCH   7   9
ATOM      9  C   UNL A   1      31.099  28.075  23.699  1.00  0.00     0.105 C 
ATOM     10  C   UNL A   1      36.269  20.749  24.994  1.00  0.00     0.159 C 
ATOM     11  N   UNL A   1      35.000  21.315  24.593  1.00  0.00    -0.261 N 
ATOM     12  C   UNL A   1      35.041  22.518  23.880  1.00  0.00     0.298 C 
ATOM     13  C   UNL A   1      33.840  20.531  24.729  1.00  0.00     0.329 C 
ATOM     14  O   UNL A   1      36.034  23.044  23.403  1.00  0.00    -0.265 OA
ATOM     15  C   UNL A   1      33.705  23.162  23.728  1.00  0.00     0.242 C 
ATOM     16  N   UNL A   1      32.708  21.146  24.199  1.00  0.00    -0.288 N 
ATOM     17  O   UNL A   1      33.828  19.377  25.142  1.00  0.00    -0.248 OA
ATOM     18  N   UNL A   1      33.330  24.181  23.037  1.00  0.00    -0.065 NA
ATOM     19  C   UNL A   1      32.616  22.543  24.487  1.00  0.00     0.321 C 
ATOM     20  C   UNL A   1      32.193  20.592  22.961  1.00  0.00     0.153 C 
ATOM     21  C   UNL A   1      31.977  24.264  23.302  1.00  0.00     0.389 C 
ATOM     22  N   UNL A   1      31.465  23.287  24.008  1.00  0.00    -0.246 N 
ATOM     23  N   UNL A   1      31.231  25.330  22.876  1.00  0.00    -0.262 N 
ATOM     24  H   UNL A   1      30.513  23.100  24.176  1.00  0.00     0.262 HD
ATOM     25  C   UNL A   1      30.074  25.774  23.654  1.00  0.00     0.201 C 
ATOM     26  C   UNL A   1      31.786  26.349  21.995  1.00  0.00     0.201 C 
ATOM     27  C   UNL A   1      30.506  26.940  24.544  1.00  0.00     0.053 C 
ATOM     28  C   UNL A   1      32.251  27.544  22.831  1.00  0.00     0.053 C 
ENDBRANCH   7   9
ENDBRANCH   6   7
ENDBRANCH   5   6
ENDBRANCH   4   5
ENDBRANCH   3   4
ENDBRANCH   2   3
ENDBRANCH   1   2
BRANCH   1  29
ATOM     29  O   UNL A   1      34.366  34.548  27.669  1.00  0.00    -0.376 OA
BRANCH  29  30
ATOM     30  C   UNL A   1      34.062  35.598  28.583  1.00  0.00     0.202 C 
BRANCH  30  31
ATOM     31  C   UNL A   1      32.995  35.522  29.682  1.00  0.00     0.261 C 
BRANCH  31  32
ATOM     32  O   UNL A   1      33.294  34.691  30.778  1.00  0.00    -0.460 OA
BRANCH  32  33
ATOM     33  C   UNL A   1      33.619  35.284  31.936  1.00  0.00     0.338 C 
ATOM     34  O   UNL A   1      33.169  36.320  32.405  1.00  0.00    -0.246 OA
BRANCH  33  35
ATOM     35  C   UNL A   1      34.649  34.426  32.536  1.00  0.00     0.060 A 
ATOM     36  C   UNL A   1      35.823  35.040  32.952  1.00  0.00     0.016 A 
ATOM     37  C   UNL A   1      34.517  33.021  32.482  1.00  0.00     0.016 A 
ATOM     38  C   UNL A   1      36.953  34.264  33.008  1.00  0.00     0.010 A 
ATOM     39  C   UNL A   1      35.643  32.248  32.527  1.00  0.00     0.010 A 
ATOM     40  C   UNL A   1      36.852  32.909  32.664  1.00  0.00    -0.014 A 
BRANCH  40  41
ATOM     41  C   UNL A   1      38.077  32.202  32.396  1.00  0.00     0.031 A 
ATOM     42  C   UNL A   1      38.918  32.021  33.586  1.00  0.00     0.074 A 
ATOM     43  C   UNL A   1      38.368  31.751  31.163  1.00  0.00     0.049 A 
ATOM     44  N   UNL A   1      40.051  32.584  33.832  1.00  0.00    -0.248 NA
ATOM     45  C   UNL A   1      38.354  31.254  34.706  1.00  0.00     0.031 C 
ATOM     46  C   UNL A   1      37.480  31.642  30.001  1.00  0.00     0.029 A 
ATOM     47  N   UNL A   1      39.527  31.202  30.717  1.00  0.00    -0.354 N 
ATOM     48  C   UNL A   1      40.446  32.077  35.062  1.00  0.00     0.074 A 
ATOM     49  C   UNL A   1      39.295  31.428  35.632  1.00  0.00     0.031 C 
ATOM     50  C   UNL A   1      38.071  30.867  29.065  1.00  0.00     0.029 A 
ATOM     51  C   UNL A   1      39.414  30.533  29.509  1.00  0.00     0.049 A 
ATOM     52  H   UNL A   1      40.376  31.273  31.211  1.00  0.00     0.167 HD
ATOM     53  C   UNL A   1      41.766  31.981  35.366  1.00  0.00     0.037 A 
ATOM     54  C   UNL A   1      40.341  29.699  28.976  1.00  0.00     0.037 A 
ATOM     55  C   UNL A   1      42.557  32.878  34.558  1.00  0.00     0.049 A 
ATOM     56  C   UNL A   1      41.637  29.989  29.643  1.00  0.00     0.074 A 
ATOM     57  C   UNL A   1      42.571  34.246  34.361  1.00  0.00     0.029 A 
ATOM     58  N   UNL A   1      43.278  32.348  33.517  1.00  0.00    -0.354 N 
ATOM     59  N   UNL A   1      42.328  31.080  29.459  1.00  0.00    -0.248 NA
ATOM     60  C   UNL A   1      41.963  29.246  30.853  1.00  0.00     0.031 C 
ATOM     61  C   UNL A   1      42.901  34.427  32.984  1.00  0.00     0.029 A 
ATOM     62  C   UNL A   1      43.110  33.165  32.429  1.00  0.00     0.049 A 
ATOM     63  H   UNL A   1      43.821  31.527  33.547  1.00  0.00     0.167 HD
ATOM     64  C   UNL A   1      42.841  31.388  30.711  1.00  0.00     0.074 A 
ATOM     65  C   UNL A   1      42.679  30.171  31.498  1.00  0.00     0.031 C 
ATOM     66  C   UNL A   1      43.079  32.684  31.068  1.00  0.00     0.037 A 
BRANCH  53  67
ATOM     67  C   UNL A   1      42.352  30.784  36.071  1.00  0.00     0.064 A 
ATOM     68  C   UNL A   1      43.288  30.998  37.099  1.00  0.00     0.173 A 
ATOM     69  C   UNL A   1      42.277  29.458  35.582  1.00  0.00     0.173 A 
ATOM     70  F   UNL A   1      43.455  32.221  37.624  1.00  0.00    -0.203 F 
ATOM     71  C   UNL A   1      44.146  29.986  37.534  1.00  0.00     0.198 A 
ATOM     72  C   UNL A   1      43.094  28.439  36.060  1.00  0.00     0.198 A 
ATOM     73  F   UNL A   1      41.503  29.112  34.547  1.00  0.00    -0.203 F 
ATOM     74  F   UNL A   1      45.116  30.274  38.412  1.00  0.00    -0.200 F 
ATOM     75  C   UNL A   1      44.054  28.710  37.010  1.00  0.00     0.200 A 
ATOM     76  F   UNL A   1      43.000  27.214  35.524  1.00  0.00    -0.200 F 
ATOM     77  F   UNL A   1      44.921  27.758  37.375  1.00  0.00    -0.200 F 
ENDBRANCH  53  67
BRANCH  54  78
ATOM     78  C   UNL A   1      40.124  28.473  28.174  1.00  0.00     0.064 A 
ATOM     79  C   UNL A   1      40.789  28.290  26.951  1.00  0.00     0.173 A 
ATOM     80  C   UNL A   1      39.489  27.338  28.716  1.00  0.00     0.173 A 
ATOM     81  F   UNL A   1      41.453  29.308  26.385  1.00  0.00    -0.203 F 
ATOM     82  C   UNL A   1      40.847  27.040  26.326  1.00  0.00     0.198 A 
ATOM     83  C   UNL A   1      39.537  26.094  28.086  1.00  0.00     0.198 A 
ATOM     84  F   UNL A   1      38.894  27.385  29.916  1.00  0.00    -0.203 F 
ATOM     85  F   UNL A   1      41.553  26.890  25.197  1.00  0.00    -0.200 F 
ATOM     86  C   UNL A   1      40.230  25.941  26.900  1.00  0.00     0.200 A 
ATOM     87  F   UNL A   1      38.965  25.032  28.671  1.00  0.00    -0.200 F 
ATOM     88  F   UNL A   1      40.339  24.730  26.338  1.00  0.00    -0.200 F 
ENDBRANCH  54  78
BRANCH  66  89
ATOM     89  C   UNL A   1      43.073  33.712  29.971  1.00  0.00     0.064 A 
ATOM     90  C   UNL A   1      44.185  34.013  29.165  1.00  0.00     0.173 A 
ATOM     91  C   UNL A   1      41.863  34.350  29.665  1.00  0.00     0.173 A 
ATOM     92  F   UNL A   1      45.347  33.366  29.321  1.00  0.00    -0.203 F 
ATOM     93  C   UNL A   1      44.101  34.960  28.145  1.00  0.00     0.198 A 
ATOM     94  C   UNL A   1      41.773  35.264  28.619  1.00  0.00     0.198 A 
ATOM     95  F   UNL A   1      40.754  34.059  30.362  1.00  0.00    -0.203 F 
ATOM     96  F   UNL A   1      45.184  35.253  27.410  1.00  0.00    -0.200 F 
ATOM     97  C   UNL A   1      42.894  35.581  27.871  1.00  0.00     0.200 A 
ATOM     98  F   UNL A   1      40.591  35.825  28.325  1.00  0.00    -0.200 F 
ATOM     99  F   UNL A   1      42.806  36.469  26.871  1.00  0.00    -0.200 F 
ENDBRANCH  66  89
ENDBRANCH  40  41
ENDBRANCH  33  35
ENDBRANCH  32  33
ENDBRANCH  31  32
ENDBRANCH  30  31
ENDBRANCH  29  30
ENDBRANCH   1  29
TORSDOF 17
ENDMDL
MODEL 3
REMARK VINA RESULT:     -11.9      5.626     11.550
REMARK SMILES CN1C(=O)C2=NC(N3CCC(C(=O)OCCOCCOCCOC(=O)c4ccc(-c5c6nc(c(-c7c(F)c(F)c(F)c(F)c7F)c7ccc([nH]7)c(-c7c(F)c(F)c(F)c(F)c7F)c7nc(c(-c8c(F)c(F)c(F)c(F)c8F)c8ccc5[nH]8)C=C7)C=C6)cc4)CC3)=[NH+][C@H]2N(C)C1=O
REMARK SMILES IDX 19 1 18 2 17 3 16 4 15 5 14 6 12 7 13 8 11 9 1 10 2 11 3 12
REMARK SMILES IDX 95 13 4 14 5 15 93 16 96 17 6 18 92 19 94 20 7 21 91 22 8 23
REMARK SMILES IDX 9 25 90 26 10 27 89 28 20 29 21 30 22 31 23 32 24 33 25 34
REMARK SMILES IDX 26 35 27 36 88 37 28 38 87 39 29 40 30 41 31 42 81 43 32 44
REMARK SMILES IDX 86 45 80 46 82 47 33 48 85 49 79 50 78 51 34 53 66 54 46 55
REMARK SMILES IDX 65 56 47 57 50 58 64 59 83 60 48 61 49 62 63 64 84 65 51 66
REMARK SMILES IDX 35 67 36 68 44 69 37 70 38 71 42 72 45 73 39 74 40 75 43 76
REMARK SMILES IDX 41 77 67 78 68 79 76 80 69 81 70 82 74 83 77 84 71 85 72 86
REMARK SMILES IDX 75 87 73 88 52 89 53 90 61 91 54 92 55 93 59 94 62 95 56 96
REMARK SMILES IDX 57 97 60 98 58 99
REMARK H PARENT 91 24 82 52 50 63
REMARK Flexibility Score: inf
ROOT
ATOM      1  C   UNL A   1      33.300  36.892  29.077  1.00  0.00     0.188 C 
ENDROOT
BRANCH   1   2
ATOM      2  C   UNL A   1      32.779  36.030  30.230  1.00  0.00     0.188 C 
BRANCH   2   3
ATOM      3  O   UNL A   1      32.279  36.765  31.348  1.00  0.00    -0.376 OA
BRANCH   3   4
ATOM      4  C   UNL A   1      32.931  36.537  32.595  1.00  0.00     0.202 C 
BRANCH   4   5
ATOM      5  C   UNL A   1      34.139  35.590  32.557  1.00  0.00     0.261 C 
BRANCH   5   6
ATOM      6  O   UNL A   1      33.873  34.290  33.120  1.00  0.00    -0.463 OA
BRANCH   6   7
ATOM      7  C   UNL A   1      34.479  33.239  32.516  1.00  0.00     0.309 C 
ATOM      8  O   UNL A   1      34.180  32.810  31.407  1.00  0.00    -0.252 OA
BRANCH   7   9
ATOM      9  C   UNL A   1      35.650  32.662  33.302  1.00  0.00     0.105 C 
ATOM     10  C   UNL A   1      43.790  36.206  31.497  1.00  0.00     0.159 C 
ATOM     11  N   UNL A   1      42.893  35.580  32.444  1.00  0.00    -0.261 N 
ATOM     12  C   UNL A   1      42.048  34.581  31.949  1.00  0.00     0.298 C 
ATOM     13  C   UNL A   1      43.077  35.835  33.815  1.00  0.00     0.329 C 
ATOM     14  O   UNL A   1      42.115  34.054  30.849  1.00  0.00    -0.265 OA
ATOM     15  C   UNL A   1      40.989  34.170  32.915  1.00  0.00     0.242 C 
ATOM     16  N   UNL A   1      42.227  35.082  34.622  1.00  0.00    -0.288 N 
ATOM     17  O   UNL A   1      43.971  36.535  34.275  1.00  0.00    -0.248 OA
ATOM     18  N   UNL A   1      40.132  33.210  32.874  1.00  0.00    -0.065 NA
ATOM     19  C   UNL A   1      40.890  34.985  34.127  1.00  0.00     0.321 C 
ATOM     20  C   UNL A   1      42.839  34.000  35.370  1.00  0.00     0.153 C 
ATOM     21  C   UNL A   1      39.446  33.347  34.064  1.00  0.00     0.389 C 
ATOM     22  N   UNL A   1      39.905  34.247  34.897  1.00  0.00    -0.246 N 
ATOM     23  N   UNL A   1      38.328  32.603  34.331  1.00  0.00    -0.262 N 
ATOM     24  H   UNL A   1      39.642  34.389  35.834  1.00  0.00     0.262 HD
ATOM     25  C   UNL A   1      37.265  33.152  35.174  1.00  0.00     0.201 C 
ATOM     26  C   UNL A   1      37.896  31.526  33.449  1.00  0.00     0.201 C 
ATOM     27  C   UNL A   1      36.178  33.732  34.268  1.00  0.00     0.053 C 
ATOM     28  C   UNL A   1      36.811  32.049  32.504  1.00  0.00     0.053 C 
ENDBRANCH   7   9
ENDBRANCH   6   7
ENDBRANCH   5   6
ENDBRANCH   4   5
ENDBRANCH   3   4
ENDBRANCH   2   3
ENDBRANCH   1   2
BRANCH   1  29
ATOM     29  O   UNL A   1      34.218  36.203  28.241  1.00  0.00    -0.376 OA
BRANCH  29  30
ATOM     30  C   UNL A   1      34.816  34.958  28.592  1.00  0.00     0.202 C 
BRANCH  30  31
ATOM     31  C   UNL A   1      34.524  33.620  27.903  1.00  0.00     0.261 C 
BRANCH  31  32
ATOM     32  O   UNL A   1      35.628  32.770  27.708  1.00  0.00    -0.460 OA
BRANCH  32  33
ATOM     33  C   UNL A   1      35.432  31.452  27.858  1.00  0.00     0.338 C 
ATOM     34  O   UNL A   1      34.593  30.747  27.312  1.00  0.00    -0.246 OA
BRANCH  33  35
ATOM     35  C   UNL A   1      36.440  31.017  28.833  1.00  0.00     0.060 A 
ATOM     36  C   UNL A   1      37.587  31.792  28.949  1.00  0.00     0.016 A 
ATOM     37  C   UNL A   1      36.325  29.752  29.451  1.00  0.00     0.016 A 
ATOM     38  C   UNL A   1      38.721  31.172  29.411  1.00  0.00     0.010 A 
ATOM     39  C   UNL A   1      37.455  29.130  29.901  1.00  0.00     0.010 A 
ATOM     40  C   UNL A   1      38.650  29.814  29.752  1.00  0.00    -0.014 A 
BRANCH  40  41
ATOM     41  C   UNL A   1      39.893  29.104  29.899  1.00  0.00     0.031 A 
ATOM     42  C   UNL A   1      40.370  29.046  31.286  1.00  0.00     0.074 A 
ATOM     43  C   UNL A   1      40.509  28.546  28.842  1.00  0.00     0.049 A 
ATOM     44  N   UNL A   1      41.397  29.645  31.784  1.00  0.00    -0.248 NA
ATOM     45  C   UNL A   1      39.509  28.377  32.273  1.00  0.00     0.031 C 
ATOM     46  C   UNL A   1      39.976  28.318  27.495  1.00  0.00     0.029 A 
ATOM     47  N   UNL A   1      41.740  27.975  28.786  1.00  0.00    -0.354 N 
ATOM     48  C   UNL A   1      41.429  29.260  33.116  1.00  0.00     0.074 A 
ATOM     49  C   UNL A   1      40.159  28.648  33.403  1.00  0.00     0.031 C 
ATOM     50  C   UNL A   1      40.794  27.468  26.834  1.00  0.00     0.029 A 
ATOM     51  C   UNL A   1      41.958  27.197  27.661  1.00  0.00     0.049 A 
ATOM     52  H   UNL A   1      42.419  28.104  29.487  1.00  0.00     0.167 HD
ATOM     53  C   UNL A   1      42.613  29.211  33.781  1.00  0.00     0.037 A 
ATOM     54  C   UNL A   1      42.987  26.331  27.485  1.00  0.00     0.037 A 
ATOM     55  C   UNL A   1      43.606  30.042  33.144  1.00  0.00     0.049 A 
ATOM     56  C   UNL A   1      44.051  26.700  28.455  1.00  0.00     0.074 A 
ATOM     57  C   UNL A   1      43.690  31.386  32.833  1.00  0.00     0.029 A 
ATOM     58  N   UNL A   1      44.581  29.429  32.397  1.00  0.00    -0.354 N 
ATOM     59  N   UNL A   1      44.778  27.779  28.370  1.00  0.00    -0.248 NA
ATOM     60  C   UNL A   1      44.021  26.077  29.771  1.00  0.00     0.031 C 
ATOM     61  C   UNL A   1      44.390  31.444  31.591  1.00  0.00     0.029 A 
ATOM     62  C   UNL A   1      44.730  30.140  31.234  1.00  0.00     0.049 A 
ATOM     63  H   UNL A   1      45.086  28.623  32.652  1.00  0.00     0.167 HD
ATOM     64  C   UNL A   1      44.928  28.209  29.680  1.00  0.00     0.074 A 
ATOM     65  C   UNL A   1      44.541  27.067  30.501  1.00  0.00     0.031 C 
ATOM     66  C   UNL A   1      45.072  29.535  29.968  1.00  0.00     0.037 A 
BRANCH  53  67
ATOM     67  C   UNL A   1      42.967  28.092  34.728  1.00  0.00     0.064 A 
ATOM     68  C   UNL A   1      43.410  28.419  36.023  1.00  0.00     0.173 A 
ATOM     69  C   UNL A   1      43.189  26.753  34.329  1.00  0.00     0.173 A 
ATOM     70  F   UNL A   1      43.266  29.666  36.496  1.00  0.00    -0.203 F 
ATOM     71  C   UNL A   1      44.105  27.504  36.815  1.00  0.00     0.198 A 
ATOM     72  C   UNL A   1      43.830  25.827  35.146  1.00  0.00     0.198 A 
ATOM     73  F   UNL A   1      42.908  26.310  33.098  1.00  0.00    -0.203 F 
ATOM     74  F   UNL A   1      44.632  27.904  37.980  1.00  0.00    -0.200 F 
ATOM     75  C   UNL A   1      44.321  26.212  36.373  1.00  0.00     0.200 A 
ATOM     76  F   UNL A   1      44.045  24.586  34.689  1.00  0.00    -0.200 F 
ATOM     77  F   UNL A   1      45.047  25.354  37.101  1.00  0.00    -0.200 F 
ENDBRANCH  53  67
BRANCH  54  78
ATOM     78  C   UNL A   1      42.986  25.034  26.772  1.00  0.00     0.064 A 
ATOM     79  C   UNL A   1      43.687  24.880  25.564  1.00  0.00     0.173 A 
ATOM     80  C   UNL A   1      42.542  23.849  27.391  1.00  0.00     0.173 A 
ATOM     81  F   UNL A   1      44.180  25.953  24.928  1.00  0.00    -0.203 F 
ATOM     82  C   UNL A   1      43.960  23.617  25.029  1.00  0.00     0.198 A 
ATOM     83  C   UNL A   1      42.804  22.590  26.850  1.00  0.00     0.198 A 
ATOM     84  F   UNL A   1      41.933  23.879  28.584  1.00  0.00    -0.203 F 
ATOM     85  F   UNL A   1      44.694  23.509  23.913  1.00  0.00    -0.200 F 
ATOM     86  C   UNL A   1      43.527  22.473  25.678  1.00  0.00     0.200 A 
ATOM     87  F   UNL A   1      42.410  21.490  27.508  1.00  0.00    -0.200 F 
ATOM     88  F   UNL A   1      43.844  21.261  25.202  1.00  0.00    -0.200 F 
ENDBRANCH  54  78
BRANCH  66  89
ATOM     89  C   UNL A   1      45.382  30.459  28.823  1.00  0.00     0.064 A 
ATOM     90  C   UNL A   1      44.410  31.022  27.977  1.00  0.00     0.173 A 
ATOM     91  C   UNL A   1      46.711  30.864  28.637  1.00  0.00     0.173 A 
ATOM     92  F   UNL A   1      43.107  30.773  28.161  1.00  0.00    -0.203 F 
ATOM     93  C   UNL A   1      44.766  31.896  26.951  1.00  0.00     0.198 A 
ATOM     94  C   UNL A   1      47.057  31.769  27.637  1.00  0.00     0.198 A 
ATOM     95  F   UNL A   1      47.675  30.405  29.451  1.00  0.00    -0.203 F 
ATOM     96  F   UNL A   1      43.824  32.395  26.137  1.00  0.00    -0.200 F 
ATOM     97  C   UNL A   1      46.088  32.271  26.785  1.00  0.00     0.200 A 
ATOM     98  F   UNL A   1      48.331  32.168  27.512  1.00  0.00    -0.200 F 
ATOM     99  F   UNL A   1      46.427  33.135  25.817  1.00  0.00    -0.200 F 
ENDBRANCH  66  89
ENDBRANCH  40  41
ENDBRANCH  33  35
ENDBRANCH  32  33
ENDBRANCH  31  32
ENDBRANCH  30  31
ENDBRANCH  29  30
ENDBRANCH   1  29
TORSDOF 17
ENDMDL
