MODEL 1
REMARK VINA RESULT:     -11.4      0.000      0.000
REMARK SMILES Cn1c(=O)c(=O)n(C)c2cc(S(=O)(=O)N3CCC[C@H]3C(=O)OCCOCCOCCOC(=O)c3ccc(-c4c5nc(c(-c6c(F)c(F)c(F)c(F)c6F)c6ccc([nH]6)c(-c6c(F)c(F)c(F)c(F)c6F)c6nc(c(-c7c(F)c(F)c(F)c(F)c7F)c7ccc4[nH]7)C=C6)C=C5)cc3)ccc21
REMARK SMILES IDX 26 1 25 2 24 3 23 4 22 5 20 6 21 7 19 8 15 9 16 10 17 11
REMARK SMILES IDX 18 12 12 13 13 14 14 15 11 16 1 17 2 18 3 19 99 20 4 21 5 22
REMARK SMILES IDX 9 23 98 24 6 25 7 26 10 27 97 28 8 29 27 30 28 31 29 32
REMARK SMILES IDX 30 33 31 34 32 35 33 36 34 37 35 38 96 39 36 40 95 41 37 42
REMARK SMILES IDX 38 43 39 44 89 45 40 46 94 47 88 48 90 49 41 50 93 51 87 52
REMARK SMILES IDX 86 53 42 55 74 56 54 57 73 58 55 59 58 60 72 61 91 62 56 63
REMARK SMILES IDX 57 64 71 66 92 67 59 68 43 69 44 70 52 71 45 72 46 73 50 74
REMARK SMILES IDX 53 75 47 76 48 77 51 78 49 79 75 80 76 81 84 82 77 83 78 84
REMARK SMILES IDX 82 85 85 86 79 87 80 88 83 89 81 90 60 91 61 92 69 93 62 94
REMARK SMILES IDX 63 95 67 96 70 97 64 98 65 99 68 100 66 101
REMARK H PARENT 90 54 58 65
REMARK Flexibility Score: inf
ROOT
ATOM      1  C   UNL A   1      35.641  31.926  28.098  1.00  0.00     0.188 C 
ENDROOT
BRANCH   1   2
ATOM      2  O   UNL A   1      34.869  30.849  27.632  1.00  0.00    -0.376 OA
BRANCH   2   3
ATOM      3  C   UNL A   1      33.452  30.916  27.627  1.00  0.00     0.202 C 
BRANCH   3   4
ATOM      4  C   UNL A   1      32.506  29.953  26.876  1.00  0.00     0.261 C 
BRANCH   4   5
ATOM      5  O   UNL A   1      32.272  30.235  25.496  1.00  0.00    -0.462 OA
BRANCH   5   6
ATOM      6  C   UNL A   1      31.616  29.291  24.758  1.00  0.00     0.324 C 
ATOM      7  O   UNL A   1      30.570  29.474  24.147  1.00  0.00    -0.250 OA
BRANCH   6   8
ATOM      8  C   UNL A   1      32.482  28.044  24.637  1.00  0.00     0.183 C 
ATOM      9  N   UNL A   1      31.770  26.864  24.127  1.00  0.00    -0.184 NA
ATOM     10  C   UNL A   1      32.108  26.644  22.721  1.00  0.00     0.103 C 
ATOM     11  C   UNL A   1      33.526  27.168  22.596  1.00  0.00     0.019 C 
ATOM     12  C   UNL A   1      33.610  28.296  23.615  1.00  0.00     0.034 C 
BRANCH   9  13
ATOM     13  S   UNL A   1      31.399  25.609  25.174  1.00  0.00     0.243 S 
ATOM     14  O   UNL A   1      30.390  24.800  24.520  1.00  0.00    -0.207 OA
ATOM     15  O   UNL A   1      31.183  26.180  26.482  1.00  0.00    -0.207 OA
BRANCH  13  16
ATOM     16  C   UNL A   1      32.843  24.561  25.327  1.00  0.00     0.084 A 
ATOM     17  C   UNL A   1      37.570  22.440  25.493  1.00  0.00     0.154 C 
ATOM     18  N   UNL A   1      36.207  21.959  25.345  1.00  0.00    -0.305 N 
ATOM     19  C   UNL A   1      36.086  20.607  25.017  1.00  0.00     0.316 A 
ATOM     20  C   UNL A   1      35.073  22.815  25.389  1.00  0.00     0.068 A 
ATOM     21  O   UNL A   1      37.054  19.861  24.881  1.00  0.00    -0.263 OA
ATOM     22  C   UNL A   1      34.680  20.037  24.815  1.00  0.00     0.316 A 
ATOM     23  C   UNL A   1      33.796  22.321  25.057  1.00  0.00     0.069 A 
ATOM     24  C   UNL A   1      35.186  24.163  25.761  1.00  0.00     0.030 A 
ATOM     25  O   UNL A   1      34.555  18.825  24.664  1.00  0.00    -0.263 OA
ATOM     26  N   UNL A   1      33.614  20.934  24.801  1.00  0.00    -0.305 N 
ATOM     27  C   UNL A   1      32.700  23.209  24.999  1.00  0.00     0.050 A 
ATOM     28  C   UNL A   1      34.079  25.017  25.757  1.00  0.00     0.024 A 
ATOM     29  C   UNL A   1      32.279  20.394  24.588  1.00  0.00     0.154 C 
ENDBRANCH  13  16
ENDBRANCH   9  13
ENDBRANCH   6   8
ENDBRANCH   5   6
ENDBRANCH   4   5
ENDBRANCH   3   4
ENDBRANCH   2   3
ENDBRANCH   1   2
BRANCH   1  30
ATOM     30  C   UNL A   1      34.892  33.015  28.896  1.00  0.00     0.188 C 
BRANCH  30  31
ATOM     31  O   UNL A   1      35.187  34.382  28.704  1.00  0.00    -0.376 OA
BRANCH  31  32
ATOM     32  C   UNL A   1      34.115  35.300  28.555  1.00  0.00     0.202 C 
BRANCH  32  33
ATOM     33  C   UNL A   1      32.954  35.328  29.565  1.00  0.00     0.261 C 
BRANCH  33  34
ATOM     34  O   UNL A   1      33.148  36.151  30.729  1.00  0.00    -0.460 OA
BRANCH  34  35
ATOM     35  C   UNL A   1      32.793  35.595  31.917  1.00  0.00     0.338 C 
ATOM     36  O   UNL A   1      31.670  35.480  32.375  1.00  0.00    -0.246 OA
BRANCH  35  37
ATOM     37  C   UNL A   1      33.971  34.916  32.502  1.00  0.00     0.060 A 
ATOM     38  C   UNL A   1      33.843  33.683  33.137  1.00  0.00     0.016 A 
ATOM     39  C   UNL A   1      35.228  35.533  32.400  1.00  0.00     0.016 A 
ATOM     40  C   UNL A   1      34.982  33.054  33.649  1.00  0.00     0.010 A 
ATOM     41  C   UNL A   1      36.362  34.915  32.931  1.00  0.00     0.010 A 
ATOM     42  C   UNL A   1      36.251  33.657  33.538  1.00  0.00    -0.014 A 
BRANCH  42  43
ATOM     43  C   UNL A   1      37.466  32.882  33.891  1.00  0.00     0.031 A 
ATOM     44  C   UNL A   1      38.057  31.855  32.976  1.00  0.00     0.074 A 
ATOM     45  C   UNL A   1      38.045  33.128  35.081  1.00  0.00     0.049 A 
ATOM     46  N   UNL A   1      39.182  31.195  33.100  1.00  0.00    -0.248 NA
ATOM     47  C   UNL A   1      37.285  31.512  31.776  1.00  0.00     0.031 C 
ATOM     48  C   UNL A   1      37.534  34.074  36.074  1.00  0.00     0.029 A 
ATOM     49  N   UNL A   1      39.188  32.628  35.649  1.00  0.00    -0.354 N 
ATOM     50  C   UNL A   1      39.276  30.385  31.979  1.00  0.00     0.074 A 
ATOM     51  C   UNL A   1      38.058  30.587  31.217  1.00  0.00     0.031 C 
ATOM     52  C   UNL A   1      38.384  34.119  37.110  1.00  0.00     0.029 A 
ATOM     53  C   UNL A   1      39.485  33.191  36.865  1.00  0.00     0.049 A 
ATOM     54  H   UNL A   1      39.743  31.932  35.225  1.00  0.00     0.167 HD
ATOM     55  C   UNL A   1      40.296  29.570  31.611  1.00  0.00     0.037 A 
ATOM     56  C   UNL A   1      40.534  32.998  37.686  1.00  0.00     0.037 A 
ATOM     57  C   UNL A   1      41.492  29.355  32.391  1.00  0.00     0.049 A 
ATOM     58  C   UNL A   1      41.628  32.054  37.280  1.00  0.00     0.074 A 
ATOM     59  C   UNL A   1      42.595  28.576  32.079  1.00  0.00     0.029 A 
ATOM     60  N   UNL A   1      41.737  29.901  33.643  1.00  0.00    -0.354 N 
ATOM     61  N   UNL A   1      41.752  31.360  36.175  1.00  0.00    -0.248 NA
ATOM     62  C   UNL A   1      42.734  31.872  38.231  1.00  0.00     0.031 C 
ATOM     63  C   UNL A   1      43.474  28.602  33.167  1.00  0.00     0.029 A 
ATOM     64  C   UNL A   1      42.954  29.447  34.132  1.00  0.00     0.049 A 
ATOM     65  H   UNL A   1      41.134  30.521  34.115  1.00  0.00     0.167 HD
ATOM     66  C   UNL A   1      42.954  30.675  36.287  1.00  0.00     0.074 A 
ATOM     67  C   UNL A   1      43.532  31.050  37.561  1.00  0.00     0.031 C 
ATOM     68  C   UNL A   1      43.523  29.813  35.408  1.00  0.00     0.037 A 
BRANCH  55  69
ATOM     69  C   UNL A   1      40.175  28.849  30.296  1.00  0.00     0.064 A 
ATOM     70  C   UNL A   1      40.743  29.369  29.123  1.00  0.00     0.173 A 
ATOM     71  C   UNL A   1      39.547  27.596  30.217  1.00  0.00     0.173 A 
ATOM     72  F   UNL A   1      41.354  30.563  29.141  1.00  0.00    -0.203 F 
ATOM     73  C   UNL A   1      40.663  28.676  27.917  1.00  0.00     0.198 A 
ATOM     74  C   UNL A   1      39.497  26.891  29.016  1.00  0.00     0.198 A 
ATOM     75  F   UNL A   1      38.996  27.045  31.310  1.00  0.00    -0.203 F 
ATOM     76  F   UNL A   1      41.175  29.216  26.801  1.00  0.00    -0.200 F 
ATOM     77  C   UNL A   1      40.047  27.436  27.866  1.00  0.00     0.200 A 
ATOM     78  F   UNL A   1      38.917  25.684  28.973  1.00  0.00    -0.200 F 
ATOM     79  F   UNL A   1      39.980  26.766  26.707  1.00  0.00    -0.200 F 
ENDBRANCH  55  69
BRANCH  56  80
ATOM     80  C   UNL A   1      40.613  33.780  38.946  1.00  0.00     0.064 A 
ATOM     81  C   UNL A   1      41.283  35.009  38.986  1.00  0.00     0.173 A 
ATOM     82  C   UNL A   1      39.962  33.349  40.112  1.00  0.00     0.173 A 
ATOM     83  F   UNL A   1      41.931  35.454  37.899  1.00  0.00    -0.203 F 
ATOM     84  C   UNL A   1      41.297  35.783  40.144  1.00  0.00     0.198 A 
ATOM     85  C   UNL A   1      39.954  34.135  41.261  1.00  0.00     0.198 A 
ATOM     86  F   UNL A   1      39.300  32.183  40.120  1.00  0.00    -0.203 F 
ATOM     87  F   UNL A   1      41.959  36.947  40.162  1.00  0.00    -0.200 F 
ATOM     88  C   UNL A   1      40.622  35.350  41.277  1.00  0.00     0.200 A 
ATOM     89  F   UNL A   1      39.283  33.725  42.346  1.00  0.00    -0.200 F 
ATOM     90  F   UNL A   1      40.614  36.107  42.383  1.00  0.00    -0.200 F 
ENDBRANCH  56  80
BRANCH  68  91
ATOM     91  C   UNL A   1      44.847  29.208  35.783  1.00  0.00     0.064 A 
ATOM     92  C   UNL A   1      44.929  27.978  36.454  1.00  0.00     0.173 A 
ATOM     93  C   UNL A   1      46.049  29.829  35.409  1.00  0.00     0.173 A 
ATOM     94  F   UNL A   1      43.812  27.348  36.848  1.00  0.00    -0.203 F 
ATOM     95  C   UNL A   1      46.162  27.402  36.750  1.00  0.00     0.198 A 
ATOM     96  C   UNL A   1      47.280  29.235  35.678  1.00  0.00     0.198 A 
ATOM     97  F   UNL A   1      46.030  31.003  34.761  1.00  0.00    -0.203 F 
ATOM     98  F   UNL A   1      46.216  26.245  37.425  1.00  0.00    -0.200 F 
ATOM     99  C   UNL A   1      47.337  28.025  36.351  1.00  0.00     0.200 A 
ATOM    100  F   UNL A   1      48.412  29.831  35.277  1.00  0.00    -0.200 F 
ATOM    101  F   UNL A   1      48.522  27.460  36.619  1.00  0.00    -0.200 F 
ENDBRANCH  68  91
ENDBRANCH  42  43
ENDBRANCH  35  37
ENDBRANCH  34  35
ENDBRANCH  33  34
ENDBRANCH  32  33
ENDBRANCH  31  32
ENDBRANCH  30  31
ENDBRANCH   1  30
TORSDOF 19
ENDMDL
MODEL 2
REMARK VINA RESULT:     -11.1      0.775      7.126
REMARK SMILES Cn1c(=O)c(=O)n(C)c2cc(S(=O)(=O)N3CCC[C@H]3C(=O)OCCOCCOCCOC(=O)c3ccc(-c4c5nc(c(-c6c(F)c(F)c(F)c(F)c6F)c6ccc([nH]6)c(-c6c(F)c(F)c(F)c(F)c6F)c6nc(c(-c7c(F)c(F)c(F)c(F)c7F)c7ccc4[nH]7)C=C6)C=C5)cc3)ccc21
REMARK SMILES IDX 26 1 25 2 24 3 23 4 22 5 20 6 21 7 19 8 15 9 16 10 17 11
REMARK SMILES IDX 18 12 12 13 13 14 14 15 11 16 1 17 2 18 3 19 99 20 4 21 5 22
REMARK SMILES IDX 9 23 98 24 6 25 7 26 10 27 97 28 8 29 27 30 28 31 29 32
REMARK SMILES IDX 30 33 31 34 32 35 33 36 34 37 35 38 96 39 36 40 95 41 37 42
REMARK SMILES IDX 38 43 39 44 89 45 40 46 94 47 88 48 90 49 41 50 93 51 87 52
REMARK SMILES IDX 86 53 42 55 74 56 54 57 73 58 55 59 58 60 72 61 91 62 56 63
REMARK SMILES IDX 57 64 71 66 92 67 59 68 43 69 44 70 52 71 45 72 46 73 50 74
REMARK SMILES IDX 53 75 47 76 48 77 51 78 49 79 75 80 76 81 84 82 77 83 78 84
REMARK SMILES IDX 82 85 85 86 79 87 80 88 83 89 81 90 60 91 61 92 69 93 62 94
REMARK SMILES IDX 63 95 67 96 70 97 64 98 65 99 68 100 66 101
REMARK H PARENT 90 54 58 65
REMARK Flexibility Score: inf
ROOT
ATOM      1  C   UNL A   1      35.193  31.598  28.292  1.00  0.00     0.188 C 
ENDROOT
BRANCH   1   2
ATOM      2  O   UNL A   1      34.473  30.929  27.288  1.00  0.00    -0.376 OA
BRANCH   2   3
ATOM      3  C   UNL A   1      33.054  30.913  27.297  1.00  0.00     0.202 C 
BRANCH   3   4
ATOM      4  C   UNL A   1      32.159  29.872  26.590  1.00  0.00     0.261 C 
BRANCH   4   5
ATOM      5  O   UNL A   1      32.317  29.750  25.176  1.00  0.00    -0.462 OA
BRANCH   5   6
ATOM      6  C   UNL A   1      31.380  29.027  24.493  1.00  0.00     0.324 C 
ATOM      7  O   UNL A   1      30.387  29.494  23.949  1.00  0.00    -0.250 OA
BRANCH   6   8
ATOM      8  C   UNL A   1      31.861  27.591  24.332  1.00  0.00     0.183 C 
ATOM      9  N   UNL A   1      30.846  26.578  24.652  1.00  0.00    -0.184 NA
ATOM     10  C   UNL A   1      30.291  26.017  23.420  1.00  0.00     0.103 C 
ATOM     11  C   UNL A   1      31.436  26.100  22.429  1.00  0.00     0.019 C 
ATOM     12  C   UNL A   1      32.225  27.332  22.855  1.00  0.00     0.034 C 
BRANCH   9  13
ATOM     13  S   UNL A   1      30.987  25.689  26.066  1.00  0.00     0.243 S 
ATOM     14  O   UNL A   1      29.641  25.376  26.503  1.00  0.00    -0.207 OA
ATOM     15  O   UNL A   1      31.922  26.376  26.924  1.00  0.00    -0.207 OA
BRANCH  13  16
ATOM     16  C   UNL A   1      31.749  24.118  25.666  1.00  0.00     0.084 A 
ATOM     17  C   UNL A   1      33.073  19.149  25.010  1.00  0.00     0.154 C 
ATOM     18  N   UNL A   1      33.763  20.428  25.023  1.00  0.00    -0.305 N 
ATOM     19  C   UNL A   1      35.157  20.351  25.001  1.00  0.00     0.316 A 
ATOM     20  C   UNL A   1      33.092  21.670  25.186  1.00  0.00     0.068 A 
ATOM     21  O   UNL A   1      35.770  19.286  24.953  1.00  0.00    -0.263 OA
ATOM     22  C   UNL A   1      35.952  21.658  25.043  1.00  0.00     0.316 A 
ATOM     23  C   UNL A   1      33.829  22.857  25.373  1.00  0.00     0.069 A 
ATOM     24  C   UNL A   1      31.692  21.756  25.165  1.00  0.00     0.030 A 
ATOM     25  O   UNL A   1      37.169  21.610  24.884  1.00  0.00    -0.263 OA
ATOM     26  N   UNL A   1      35.247  22.837  25.273  1.00  0.00    -0.305 N 
ATOM     27  C   UNL A   1      33.147  24.063  25.644  1.00  0.00     0.050 A 
ATOM     28  C   UNL A   1      31.031  22.970  25.374  1.00  0.00     0.024 A 
ATOM     29  C   UNL A   1      36.005  24.078  25.334  1.00  0.00     0.154 C 
ENDBRANCH  13  16
ENDBRANCH   9  13
ENDBRANCH   6   8
ENDBRANCH   5   6
ENDBRANCH   4   5
ENDBRANCH   3   4
ENDBRANCH   2   3
ENDBRANCH   1   2
BRANCH   1  30
ATOM     30  C   UNL A   1      34.550  32.880  28.862  1.00  0.00     0.188 C 
BRANCH  30  31
ATOM     31  O   UNL A   1      34.900  34.150  28.355  1.00  0.00    -0.376 OA
BRANCH  31  32
ATOM     32  C   UNL A   1      34.053  35.256  28.632  1.00  0.00     0.202 C 
BRANCH  32  33
ATOM     33  C   UNL A   1      32.903  35.134  29.648  1.00  0.00     0.261 C 
BRANCH  33  34
ATOM     34  O   UNL A   1      33.007  35.959  30.822  1.00  0.00    -0.460 OA
BRANCH  34  35
ATOM     35  C   UNL A   1      32.761  35.340  32.007  1.00  0.00     0.338 C 
ATOM     36  O   UNL A   1      31.676  35.100  32.506  1.00  0.00    -0.246 OA
BRANCH  35  37
ATOM     37  C   UNL A   1      34.025  34.772  32.526  1.00  0.00     0.060 A 
ATOM     38  C   UNL A   1      34.034  33.563  33.218  1.00  0.00     0.016 A 
ATOM     39  C   UNL A   1      35.223  35.469  32.302  1.00  0.00     0.016 A 
ATOM     40  C   UNL A   1      35.250  33.039  33.666  1.00  0.00     0.010 A 
ATOM     41  C   UNL A   1      36.435  34.955  32.768  1.00  0.00     0.010 A 
ATOM     42  C   UNL A   1      36.460  33.722  33.432  1.00  0.00    -0.014 A 
BRANCH  42  43
ATOM     43  C   UNL A   1      37.751  33.048  33.720  1.00  0.00     0.031 A 
ATOM     44  C   UNL A   1      38.549  33.334  34.955  1.00  0.00     0.074 A 
ATOM     45  C   UNL A   1      38.203  32.149  32.827  1.00  0.00     0.049 A 
ATOM     46  N   UNL A   1      39.626  32.732  35.394  1.00  0.00    -0.248 NA
ATOM     47  C   UNL A   1      38.090  34.444  35.799  1.00  0.00     0.031 C 
ATOM     48  C   UNL A   1      37.536  31.821  31.566  1.00  0.00     0.029 A 
ATOM     49  N   UNL A   1      39.308  31.337  32.844  1.00  0.00    -0.354 N 
ATOM     50  C   UNL A   1      39.956  33.361  36.584  1.00  0.00     0.074 A 
ATOM     51  C   UNL A   1      39.002  34.438  36.764  1.00  0.00     0.031 C 
ATOM     52  C   UNL A   1      38.219  30.845  30.953  1.00  0.00     0.029 A 
ATOM     53  C   UNL A   1      39.383  30.495  31.763  1.00  0.00     0.049 A 
ATOM     54  H   UNL A   1      39.982  31.355  33.563  1.00  0.00     0.167 HD
ATOM     55  C   UNL A   1      40.949  33.048  37.455  1.00  0.00     0.037 A 
ATOM     56  C   UNL A   1      40.278  29.534  31.462  1.00  0.00     0.037 A 
ATOM     57  C   UNL A   1      41.911  31.991  37.252  1.00  0.00     0.049 A 
ATOM     58  C   UNL A   1      41.397  29.239  32.418  1.00  0.00     0.074 A 
ATOM     59  C   UNL A   1      42.928  31.577  38.098  1.00  0.00     0.029 A 
ATOM     60  N   UNL A   1      41.990  31.191  36.121  1.00  0.00    -0.354 N 
ATOM     61  N   UNL A   1      41.649  29.779  33.585  1.00  0.00    -0.248 NA
ATOM     62  C   UNL A   1      42.351  28.195  32.020  1.00  0.00     0.031 C 
ATOM     63  C   UNL A   1      43.658  30.574  37.452  1.00  0.00     0.029 A 
ATOM     64  C   UNL A   1      43.061  30.314  36.231  1.00  0.00     0.049 A 
ATOM     65  H   UNL A   1      41.376  31.239  35.353  1.00  0.00     0.167 HD
ATOM     66  C   UNL A   1      42.776  29.130  34.070  1.00  0.00     0.074 A 
ATOM     67  C   UNL A   1      43.149  28.143  33.078  1.00  0.00     0.031 C 
ATOM     68  C   UNL A   1      43.438  29.339  35.235  1.00  0.00     0.037 A 
BRANCH  55  69
ATOM     69  C   UNL A   1      41.047  33.855  38.722  1.00  0.00     0.064 A 
ATOM     70  C   UNL A   1      40.304  33.515  39.863  1.00  0.00     0.173 A 
ATOM     71  C   UNL A   1      41.940  34.933  38.821  1.00  0.00     0.173 A 
ATOM     72  F   UNL A   1      39.434  32.494  39.822  1.00  0.00    -0.203 F 
ATOM     73  C   UNL A   1      40.430  34.240  41.045  1.00  0.00     0.198 A 
ATOM     74  C   UNL A   1      42.087  35.636  40.015  1.00  0.00     0.198 A 
ATOM     75  F   UNL A   1      42.684  35.295  37.765  1.00  0.00    -0.203 F 
ATOM     76  F   UNL A   1      39.675  33.923  42.107  1.00  0.00    -0.200 F 
ATOM     77  C   UNL A   1      41.326  35.295  41.123  1.00  0.00     0.200 A 
ATOM     78  F   UNL A   1      42.967  36.644  40.093  1.00  0.00    -0.200 F 
ATOM     79  F   UNL A   1      41.454  35.985  42.264  1.00  0.00    -0.200 F 
ENDBRANCH  55  69
BRANCH  56  80
ATOM     80  C   UNL A   1      40.092  28.745  30.218  1.00  0.00     0.064 A 
ATOM     81  C   UNL A   1      40.646  29.176  29.006  1.00  0.00     0.173 A 
ATOM     82  C   UNL A   1      39.419  27.514  30.231  1.00  0.00     0.173 A 
ATOM     83  F   UNL A   1      41.285  30.354  28.944  1.00  0.00    -0.203 F 
ATOM     84  C   UNL A   1      40.539  28.404  27.852  1.00  0.00     0.198 A 
ATOM     85  C   UNL A   1      39.336  26.729  29.083  1.00  0.00     0.198 A 
ATOM     86  F   UNL A   1      38.880  27.055  31.369  1.00  0.00    -0.203 F 
ATOM     87  F   UNL A   1      41.063  28.847  26.701  1.00  0.00    -0.200 F 
ATOM     88  C   UNL A   1      39.894  27.176  27.894  1.00  0.00     0.200 A 
ATOM     89  F   UNL A   1      38.733  25.534  29.133  1.00  0.00    -0.200 F 
ATOM     90  F   UNL A   1      39.814  26.421  26.790  1.00  0.00    -0.200 F 
ENDBRANCH  56  80
BRANCH  68  91
ATOM     91  C   UNL A   1      44.642  28.482  35.515  1.00  0.00     0.064 A 
ATOM     92  C   UNL A   1      45.935  28.892  35.158  1.00  0.00     0.173 A 
ATOM     93  C   UNL A   1      44.510  27.269  36.209  1.00  0.00     0.173 A 
ATOM     94  F   UNL A   1      46.118  30.036  34.480  1.00  0.00    -0.203 F 
ATOM     95  C   UNL A   1      47.047  28.114  35.470  1.00  0.00     0.198 A 
ATOM     96  C   UNL A   1      45.627  26.509  36.549  1.00  0.00     0.198 A 
ATOM     97  F   UNL A   1      43.299  26.830  36.581  1.00  0.00    -0.203 F 
ATOM     98  F   UNL A   1      48.269  28.509  35.084  1.00  0.00    -0.200 F 
ATOM     99  C   UNL A   1      46.894  26.929  36.175  1.00  0.00     0.200 A 
ATOM    100  F   UNL A   1      45.478  25.372  37.244  1.00  0.00    -0.200 F 
ATOM    101  F   UNL A   1      47.967  26.191  36.491  1.00  0.00    -0.200 F 
ENDBRANCH  68  91
ENDBRANCH  42  43
ENDBRANCH  35  37
ENDBRANCH  34  35
ENDBRANCH  33  34
ENDBRANCH  32  33
ENDBRANCH  31  32
ENDBRANCH  30  31
ENDBRANCH   1  30
TORSDOF 19
ENDMDL
MODEL 3
REMARK VINA RESULT:     -11.1      6.368     12.089
REMARK SMILES Cn1c(=O)c(=O)n(C)c2cc(S(=O)(=O)N3CCC[C@H]3C(=O)OCCOCCOCCOC(=O)c3ccc(-c4c5nc(c(-c6c(F)c(F)c(F)c(F)c6F)c6ccc([nH]6)c(-c6c(F)c(F)c(F)c(F)c6F)c6nc(c(-c7c(F)c(F)c(F)c(F)c7F)c7ccc4[nH]7)C=C6)C=C5)cc3)ccc21
REMARK SMILES IDX 26 1 25 2 24 3 23 4 22 5 20 6 21 7 19 8 15 9 16 10 17 11
REMARK SMILES IDX 18 12 12 13 13 14 14 15 11 16 1 17 2 18 3 19 99 20 4 21 5 22
REMARK SMILES IDX 9 23 98 24 6 25 7 26 10 27 97 28 8 29 27 30 28 31 29 32
REMARK SMILES IDX 30 33 31 34 32 35 33 36 34 37 35 38 96 39 36 40 95 41 37 42
REMARK SMILES IDX 38 43 39 44 89 45 40 46 94 47 88 48 90 49 41 50 93 51 87 52
REMARK SMILES IDX 86 53 42 55 74 56 54 57 73 58 55 59 58 60 72 61 91 62 56 63
REMARK SMILES IDX 57 64 71 66 92 67 59 68 43 69 44 70 52 71 45 72 46 73 50 74
REMARK SMILES IDX 53 75 47 76 48 77 51 78 49 79 75 80 76 81 84 82 77 83 78 84
REMARK SMILES IDX 82 85 85 86 79 87 80 88 83 89 81 90 60 91 61 92 69 93 62 94
REMARK SMILES IDX 63 95 67 96 70 97 64 98 65 99 68 100 66 101
REMARK H PARENT 90 54 58 65
REMARK Flexibility Score: inf
ROOT
ATOM      1  C   UNL A   1      39.999  20.835  26.454  1.00  0.00     0.188 C 
ENDROOT
BRANCH   1   2
ATOM      2  O   UNL A   1      39.596  22.145  26.148  1.00  0.00    -0.376 OA
BRANCH   2   3
ATOM      3  C   UNL A   1      38.263  22.422  25.746  1.00  0.00     0.202 C 
BRANCH   3   4
ATOM      4  C   UNL A   1      37.425  21.580  24.760  1.00  0.00     0.261 C 
BRANCH   4   5
ATOM      5  O   UNL A   1      36.556  20.602  25.335  1.00  0.00    -0.462 OA
BRANCH   5   6
ATOM      6  C   UNL A   1      35.232  20.658  25.005  1.00  0.00     0.324 C 
ATOM      7  O   UNL A   1      34.549  19.702  24.659  1.00  0.00    -0.250 OA
BRANCH   6   8
ATOM      8  C   UNL A   1      34.682  22.041  25.332  1.00  0.00     0.183 C 
ATOM      9  N   UNL A   1      33.384  22.335  24.709  1.00  0.00    -0.184 NA
ATOM     10  C   UNL A   1      32.314  22.208  25.699  1.00  0.00     0.103 C 
ATOM     11  C   UNL A   1      32.976  22.590  27.009  1.00  0.00     0.019 C 
ATOM     12  C   UNL A   1      34.425  22.149  26.849  1.00  0.00     0.034 C 
BRANCH   9  13
ATOM     13  S   UNL A   1      33.309  23.415  23.430  1.00  0.00     0.243 S 
ATOM     14  O   UNL A   1      32.032  23.206  22.777  1.00  0.00    -0.207 OA
ATOM     15  O   UNL A   1      34.554  23.323  22.706  1.00  0.00    -0.207 OA
BRANCH  13  16
ATOM     16  C   UNL A   1      33.250  25.074  24.101  1.00  0.00     0.084 A 
ATOM     17  C   UNL A   1      33.551  29.414  26.921  1.00  0.00     0.154 C 
ATOM     18  N   UNL A   1      32.763  28.945  25.793  1.00  0.00    -0.305 N 
ATOM     19  C   UNL A   1      31.703  29.776  25.423  1.00  0.00     0.316 A 
ATOM     20  C   UNL A   1      32.954  27.673  25.189  1.00  0.00     0.068 A 
ATOM     21  O   UNL A   1      31.456  30.840  25.987  1.00  0.00    -0.263 OA
ATOM     22  C   UNL A   1      30.810  29.331  24.262  1.00  0.00     0.316 A 
ATOM     23  C   UNL A   1      32.042  27.202  24.222  1.00  0.00     0.069 A 
ATOM     24  C   UNL A   1      34.042  26.856  25.527  1.00  0.00     0.030 A 
ATOM     25  O   UNL A   1      29.966  30.115  23.839  1.00  0.00    -0.263 OA
ATOM     26  N   UNL A   1      31.000  28.048  23.754  1.00  0.00    -0.305 N 
ATOM     27  C   UNL A   1      32.184  25.893  23.713  1.00  0.00     0.050 A 
ATOM     28  C   UNL A   1      34.203  25.584  24.969  1.00  0.00     0.024 A 
ATOM     29  C   UNL A   1      30.137  27.618  22.664  1.00  0.00     0.154 C 
ENDBRANCH  13  16
ENDBRANCH   9  13
ENDBRANCH   6   8
ENDBRANCH   5   6
ENDBRANCH   4   5
ENDBRANCH   3   4
ENDBRANCH   2   3
ENDBRANCH   1   2
BRANCH   1  30
ATOM     30  C   UNL A   1      41.513  20.611  26.659  1.00  0.00     0.188 C 
BRANCH  30  31
ATOM     31  O   UNL A   1      41.983  19.560  27.475  1.00  0.00    -0.376 OA
BRANCH  31  32
ATOM     32  C   UNL A   1      42.704  18.495  26.874  1.00  0.00     0.202 C 
BRANCH  32  33
ATOM     33  C   UNL A   1      43.195  18.597  25.418  1.00  0.00     0.261 C 
BRANCH  33  34
ATOM     34  O   UNL A   1      44.546  19.055  25.237  1.00  0.00    -0.460 OA
BRANCH  34  35
ATOM     35  C   UNL A   1      44.765  19.854  24.159  1.00  0.00     0.338 C 
ATOM     36  O   UNL A   1      44.511  19.610  22.993  1.00  0.00    -0.246 OA
BRANCH  35  37
ATOM     37  C   UNL A   1      45.157  21.201  24.630  1.00  0.00     0.060 A 
ATOM     38  C   UNL A   1      45.102  22.300  23.775  1.00  0.00     0.016 A 
ATOM     39  C   UNL A   1      45.581  21.358  25.959  1.00  0.00     0.016 A 
ATOM     40  C   UNL A   1      45.448  23.564  24.262  1.00  0.00     0.010 A 
ATOM     41  C   UNL A   1      45.947  22.617  26.438  1.00  0.00     0.010 A 
ATOM     42  C   UNL A   1      45.859  23.735  25.599  1.00  0.00    -0.014 A 
BRANCH  42  43
ATOM     43  C   UNL A   1      46.012  25.105  26.151  1.00  0.00     0.031 A 
ATOM     44  C   UNL A   1      47.322  25.828  26.156  1.00  0.00     0.074 A 
ATOM     45  C   UNL A   1      44.917  25.702  26.659  1.00  0.00     0.049 A 
ATOM     46  N   UNL A   1      47.573  27.069  26.491  1.00  0.00    -0.248 NA
ATOM     47  C   UNL A   1      48.505  25.061  25.748  1.00  0.00     0.031 C 
ATOM     48  C   UNL A   1      43.596  25.079  26.749  1.00  0.00     0.029 A 
ATOM     49  N   UNL A   1      44.733  26.959  27.174  1.00  0.00    -0.354 N 
ATOM     50  C   UNL A   1      48.935  27.248  26.299  1.00  0.00     0.074 A 
ATOM     51  C   UNL A   1      49.468  25.966  25.883  1.00  0.00     0.031 C 
ATOM     52  C   UNL A   1      42.727  25.970  27.245  1.00  0.00     0.029 A 
ATOM     53  C   UNL A   1      43.432  27.218  27.528  1.00  0.00     0.049 A 
ATOM     54  H   UNL A   1      45.462  27.613  27.279  1.00  0.00     0.167 HD
ATOM     55  C   UNL A   1      49.663  28.386  26.435  1.00  0.00     0.037 A 
ATOM     56  C   UNL A   1      42.863  28.339  28.011  1.00  0.00     0.037 A 
ATOM     57  C   UNL A   1      49.126  29.651  26.877  1.00  0.00     0.049 A 
ATOM     58  C   UNL A   1      43.699  29.572  28.199  1.00  0.00     0.074 A 
ATOM     59  C   UNL A   1      49.780  30.865  27.009  1.00  0.00     0.029 A 
ATOM     60  N   UNL A   1      47.814  29.865  27.278  1.00  0.00    -0.354 N 
ATOM     61  N   UNL A   1      44.968  29.757  27.930  1.00  0.00    -0.248 NA
ATOM     62  C   UNL A   1      43.022  30.753  28.750  1.00  0.00     0.031 C 
ATOM     63  C   UNL A   1      48.883  31.794  27.547  1.00  0.00     0.029 A 
ATOM     64  C   UNL A   1      47.651  31.180  27.692  1.00  0.00     0.049 A 
ATOM     65  H   UNL A   1      47.104  29.183  27.270  1.00  0.00     0.167 HD
ATOM     66  C   UNL A   1      45.239  31.078  28.259  1.00  0.00     0.074 A 
ATOM     67  C   UNL A   1      43.996  31.654  28.731  1.00  0.00     0.031 C 
ATOM     68  C   UNL A   1      46.414  31.749  28.174  1.00  0.00     0.037 A 
BRANCH  55  69
ATOM     69  C   UNL A   1      51.126  28.323  26.093  1.00  0.00     0.064 A 
ATOM     70  C   UNL A   1      52.100  28.124  27.084  1.00  0.00     0.173 A 
ATOM     71  C   UNL A   1      51.557  28.392  24.759  1.00  0.00     0.173 A 
ATOM     72  F   UNL A   1      51.743  28.052  28.375  1.00  0.00    -0.203 F 
ATOM     73  C   UNL A   1      53.450  28.025  26.756  1.00  0.00     0.198 A 
ATOM     74  C   UNL A   1      52.905  28.260  24.431  1.00  0.00     0.198 A 
ATOM     75  F   UNL A   1      50.669  28.570  23.769  1.00  0.00    -0.203 F 
ATOM     76  F   UNL A   1      54.364  27.880  27.725  1.00  0.00    -0.200 F 
ATOM     77  C   UNL A   1      53.851  28.086  25.430  1.00  0.00     0.200 A 
ATOM     78  F   UNL A   1      53.288  28.302  23.148  1.00  0.00    -0.200 F 
ATOM     79  F   UNL A   1      55.149  27.980  25.115  1.00  0.00    -0.200 F 
ENDBRANCH  55  69
BRANCH  56  80
ATOM     80  C   UNL A   1      41.403  28.343  28.281  1.00  0.00     0.064 A 
ATOM     81  C   UNL A   1      40.900  27.885  29.506  1.00  0.00     0.173 A 
ATOM     82  C   UNL A   1      40.492  28.868  27.352  1.00  0.00     0.173 A 
ATOM     83  F   UNL A   1      41.732  27.362  30.417  1.00  0.00    -0.203 F 
ATOM     84  C   UNL A   1      39.539  27.955  29.794  1.00  0.00     0.198 A 
ATOM     85  C   UNL A   1      39.135  28.963  27.653  1.00  0.00     0.198 A 
ATOM     86  F   UNL A   1      40.928  29.327  26.170  1.00  0.00    -0.203 F 
ATOM     87  F   UNL A   1      39.080  27.495  30.966  1.00  0.00    -0.200 F 
ATOM     88  C   UNL A   1      38.660  28.505  28.872  1.00  0.00     0.200 A 
ATOM     89  F   UNL A   1      38.293  29.515  26.769  1.00  0.00    -0.200 F 
ATOM     90  F   UNL A   1      37.355  28.597  29.161  1.00  0.00    -0.200 F 
ENDBRANCH  56  80
BRANCH  68  91
ATOM     91  C   UNL A   1      46.426  33.191  28.599  1.00  0.00     0.064 A 
ATOM     92  C   UNL A   1      46.134  34.225  27.697  1.00  0.00     0.173 A 
ATOM     93  C   UNL A   1      46.666  33.540  29.938  1.00  0.00     0.173 A 
ATOM     94  F   UNL A   1      45.912  33.950  26.403  1.00  0.00    -0.203 F 
ATOM     95  C   UNL A   1      46.097  35.553  28.115  1.00  0.00     0.198 A 
ATOM     96  C   UNL A   1      46.596  34.866  30.359  1.00  0.00     0.198 A 
ATOM     97  F   UNL A   1      46.945  32.592  30.845  1.00  0.00    -0.203 F 
ATOM     98  F   UNL A   1      45.852  36.527  27.227  1.00  0.00    -0.200 F 
ATOM     99  C   UNL A   1      46.315  35.872  29.448  1.00  0.00     0.200 A 
ATOM    100  F   UNL A   1      46.792  35.169  31.650  1.00  0.00    -0.200 F 
ATOM    101  F   UNL A   1      46.260  37.148  29.852  1.00  0.00    -0.200 F 
ENDBRANCH  68  91
ENDBRANCH  42  43
ENDBRANCH  35  37
ENDBRANCH  34  35
ENDBRANCH  33  34
ENDBRANCH  32  33
ENDBRANCH  31  32
ENDBRANCH  30  31
ENDBRANCH   1  30
TORSDOF 19
ENDMDL
