MODEL 1
REMARK VINA RESULT:     -10.5      0.000      0.000
REMARK SMILES Cc1csc(C[C@@H](Cc2ccc(Br)cc2)C(=O)OCCOCCOCCOC(=O)c2ccc(-c3c4nc(c(-c5c(F)c(F)c(F)c(F)c5F)c5ccc([nH]5)c(-c5c(F)c(F)c(F)c(F)c5F)c5nc(c(-c6c(F)c(F)c(F)c(F)c6F)c6ccc3[nH]6)C=C5)C=C4)cc2)n1
REMARK SMILES IDX 22 1 21 2 20 3 19 4 18 5 16 6 17 7 7 8 6 9 5 10 1 11 2 12
REMARK SMILES IDX 3 13 93 14 4 15 8 16 9 17 10 18 15 19 11 20 14 21 12 22
REMARK SMILES IDX 13 23 23 24 24 25 25 26 26 27 27 28 28 29 29 30 30 31 31 32
REMARK SMILES IDX 92 33 32 34 91 35 33 36 34 37 35 38 85 39 36 40 90 41 84 42
REMARK SMILES IDX 86 43 37 44 89 45 83 46 82 47 38 49 70 50 50 51 69 52 51 53
REMARK SMILES IDX 54 54 68 55 87 56 52 57 53 58 67 60 88 61 55 62 39 63 40 64
REMARK SMILES IDX 48 65 41 66 42 67 46 68 49 69 43 70 44 71 47 72 45 73 71 74
REMARK SMILES IDX 72 75 80 76 73 77 74 78 78 79 81 80 75 81 76 82 79 83 77 84
REMARK SMILES IDX 56 85 57 86 65 87 58 88 59 89 63 90 66 91 60 92 61 93 64 94
REMARK SMILES IDX 62 95
REMARK H PARENT 86 48 54 59
REMARK Flexibility Score: inf
ROOT
ATOM      1  C   UNL A   1      35.383  20.458  24.972  1.00  0.00     0.188 C 
ENDROOT
BRANCH   1   2
ATOM      2  O   UNL A   1      34.292  20.765  25.831  1.00  0.00    -0.376 OA
BRANCH   2   3
ATOM      3  C   UNL A   1      32.984  20.811  25.280  1.00  0.00     0.202 C 
BRANCH   3   4
ATOM      4  C   UNL A   1      32.110  22.020  25.631  1.00  0.00     0.261 C 
BRANCH   4   5
ATOM      5  O   UNL A   1      32.534  23.310  25.130  1.00  0.00    -0.463 OA
BRANCH   5   6
ATOM      6  C   UNL A   1      31.693  23.930  24.258  1.00  0.00     0.309 C 
ATOM      7  O   UNL A   1      31.314  23.432  23.201  1.00  0.00    -0.252 OA
BRANCH   6   8
ATOM      8  C   UNL A   1      31.342  25.371  24.627  1.00  0.00     0.110 C 
BRANCH   8   9
ATOM      9  C   UNL A   1      29.891  25.788  24.329  1.00  0.00     0.083 C 
BRANCH   9  10
ATOM     10  C   UNL A   1      29.774  27.085  23.565  1.00  0.00     0.094 A 
ATOM     11  C   UNL A   1      27.755  29.869  22.494  1.00  0.00     0.067 C 
ATOM     12  C   UNL A   1      28.892  28.936  22.701  1.00  0.00     0.048 A 
ATOM     13  C   UNL A   1      30.186  29.078  22.243  1.00  0.00     0.090 A 
ATOM     14  N   UNL A   1      28.669  27.788  23.439  1.00  0.00    -0.247 NA
ATOM     15  S   UNL A   1      31.140  27.746  22.749  1.00  0.00    -0.127 S 
ENDBRANCH   9  10
ENDBRANCH   8   9
BRANCH   8  16
ATOM     16  C   UNL A   1      31.858  25.627  26.059  1.00  0.00     0.051 C 
BRANCH  16  17
ATOM     17  C   UNL A   1      32.297  27.050  26.305  1.00  0.00    -0.047 A 
ATOM     18  C   UNL A   1      31.407  27.992  26.837  1.00  0.00     0.005 A 
ATOM     19  C   UNL A   1      33.630  27.419  26.087  1.00  0.00     0.005 A 
ATOM     20  C   UNL A   1      31.862  29.254  27.221  1.00  0.00     0.016 A 
ATOM     21  C   UNL A   1      34.089  28.677  26.475  1.00  0.00     0.016 A 
ATOM     22  C   UNL A   1      33.205  29.582  27.057  1.00  0.00     0.017 A 
ATOM     23  Br  UNL A   1      33.841  31.260  27.649  1.00  0.00    -0.051 Br
ENDBRANCH  16  17
ENDBRANCH   8  16
ENDBRANCH   6   8
ENDBRANCH   5   6
ENDBRANCH   4   5
ENDBRANCH   3   4
ENDBRANCH   2   3
ENDBRANCH   1   2
BRANCH   1  24
ATOM     24  C   UNL A   1      36.699  21.232  25.138  1.00  0.00     0.188 C 
BRANCH  24  25
ATOM     25  O   UNL A   1      37.842  20.429  24.929  1.00  0.00    -0.376 OA
BRANCH  25  26
ATOM     26  C   UNL A   1      39.015  20.810  25.623  1.00  0.00     0.202 C 
BRANCH  26  27
ATOM     27  C   UNL A   1      39.841  19.583  26.023  1.00  0.00     0.261 C 
BRANCH  27  28
ATOM     28  O   UNL A   1      41.012  19.352  25.214  1.00  0.00    -0.460 OA
BRANCH  28  29
ATOM     29  C   UNL A   1      42.202  19.250  25.850  1.00  0.00     0.338 C 
ATOM     30  O   UNL A   1      42.952  18.288  25.851  1.00  0.00    -0.246 OA
BRANCH  29  31
ATOM     31  C   UNL A   1      42.571  20.610  26.320  1.00  0.00     0.060 A 
ATOM     32  C   UNL A   1      42.853  21.608  25.372  1.00  0.00     0.016 A 
ATOM     33  C   UNL A   1      42.561  20.924  27.680  1.00  0.00     0.016 A 
ATOM     34  C   UNL A   1      43.118  22.919  25.783  1.00  0.00     0.010 A 
ATOM     35  C   UNL A   1      42.855  22.228  28.090  1.00  0.00     0.010 A 
ATOM     36  C   UNL A   1      43.148  23.230  27.148  1.00  0.00    -0.014 A 
BRANCH  36  37
ATOM     37  C   UNL A   1      43.655  24.543  27.626  1.00  0.00     0.031 A 
ATOM     38  C   UNL A   1      42.652  25.593  28.014  1.00  0.00     0.074 A 
ATOM     39  C   UNL A   1      44.968  24.827  27.680  1.00  0.00     0.049 A 
ATOM     40  N   UNL A   1      42.833  26.855  28.309  1.00  0.00    -0.248 NA
ATOM     41  C   UNL A   1      41.250  25.153  28.072  1.00  0.00     0.031 C 
ATOM     42  C   UNL A   1      46.052  23.890  27.399  1.00  0.00     0.029 A 
ATOM     43  N   UNL A   1      45.610  26.007  27.975  1.00  0.00    -0.354 N 
ATOM     44  C   UNL A   1      41.568  27.362  28.576  1.00  0.00     0.074 A 
ATOM     45  C   UNL A   1      40.628  26.279  28.382  1.00  0.00     0.031 C 
ATOM     46  C   UNL A   1      47.227  24.536  27.517  1.00  0.00     0.029 A 
ATOM     47  C   UNL A   1      46.975  25.942  27.834  1.00  0.00     0.049 A 
ATOM     48  H   UNL A   1      45.135  26.821  28.260  1.00  0.00     0.167 HD
ATOM     49  C   UNL A   1      41.220  28.616  28.952  1.00  0.00     0.037 A 
ATOM     50  C   UNL A   1      47.906  26.915  27.914  1.00  0.00     0.037 A 
ATOM     51  C   UNL A   1      42.150  29.699  29.127  1.00  0.00     0.049 A 
ATOM     52  C   UNL A   1      47.482  28.337  28.199  1.00  0.00     0.074 A 
ATOM     53  C   UNL A   1      41.893  31.004  29.510  1.00  0.00     0.029 A 
ATOM     54  N   UNL A   1      43.517  29.609  28.914  1.00  0.00    -0.354 N 
ATOM     55  N   UNL A   1      46.289  28.811  28.462  1.00  0.00    -0.248 NA
ATOM     56  C   UNL A   1      48.540  29.362  28.185  1.00  0.00     0.031 C 
ATOM     57  C   UNL A   1      43.095  31.718  29.469  1.00  0.00     0.029 A 
ATOM     58  C   UNL A   1      44.112  30.843  29.120  1.00  0.00     0.049 A 
ATOM     59  H   UNL A   1      43.995  28.787  28.654  1.00  0.00     0.167 HD
ATOM     60  C   UNL A   1      46.455  30.176  28.675  1.00  0.00     0.074 A 
ATOM     61  C   UNL A   1      47.867  30.455  28.518  1.00  0.00     0.031 C 
ATOM     62  C   UNL A   1      45.521  31.113  28.973  1.00  0.00     0.037 A 
BRANCH  49  63
ATOM     63  C   UNL A   1      39.758  28.887  29.158  1.00  0.00     0.064 A 
ATOM     64  C   UNL A   1      38.934  29.325  28.109  1.00  0.00     0.173 A 
ATOM     65  C   UNL A   1      39.172  28.703  30.419  1.00  0.00     0.173 A 
ATOM     66  F   UNL A   1      39.449  29.531  26.887  1.00  0.00    -0.203 F 
ATOM     67  C   UNL A   1      37.587  29.605  28.326  1.00  0.00     0.198 A 
ATOM     68  C   UNL A   1      37.818  28.951  30.624  1.00  0.00     0.198 A 
ATOM     69  F   UNL A   1      39.914  28.282  31.455  1.00  0.00    -0.203 F 
ATOM     70  F   UNL A   1      36.835  30.082  27.324  1.00  0.00    -0.200 F 
ATOM     71  C   UNL A   1      37.030  29.413  29.580  1.00  0.00     0.200 A 
ATOM     72  F   UNL A   1      37.278  28.751  31.834  1.00  0.00    -0.200 F 
ATOM     73  F   UNL A   1      35.734  29.682  29.787  1.00  0.00    -0.200 F 
ENDBRANCH  49  63
BRANCH  50  74
ATOM     74  C   UNL A   1      49.344  26.594  27.699  1.00  0.00     0.064 A 
ATOM     75  C   UNL A   1      49.864  26.465  26.403  1.00  0.00     0.173 A 
ATOM     76  C   UNL A   1      50.215  26.373  28.775  1.00  0.00     0.173 A 
ATOM     77  F   UNL A   1      49.061  26.628  25.341  1.00  0.00    -0.203 F 
ATOM     78  C   UNL A   1      51.198  26.118  26.193  1.00  0.00     0.198 A 
ATOM     79  C   UNL A   1      51.556  26.054  28.564  1.00  0.00     0.198 A 
ATOM     80  F   UNL A   1      49.765  26.466  30.035  1.00  0.00    -0.203 F 
ATOM     81  F   UNL A   1      51.656  25.953  24.944  1.00  0.00    -0.200 F 
ATOM     82  C   UNL A   1      52.044  25.921  27.272  1.00  0.00     0.200 A 
ATOM     83  F   UNL A   1      52.371  25.867  29.610  1.00  0.00    -0.200 F 
ATOM     84  F   UNL A   1      53.327  25.587  27.069  1.00  0.00    -0.200 F 
ENDBRANCH  50  74
BRANCH  62  85
ATOM     85  C   UNL A   1      45.985  32.526  29.189  1.00  0.00     0.064 A 
ATOM     86  C   UNL A   1      46.051  33.450  28.137  1.00  0.00     0.173 A 
ATOM     87  C   UNL A   1      46.302  32.979  30.480  1.00  0.00     0.173 A 
ATOM     88  F   UNL A   1      45.771  33.067  26.883  1.00  0.00    -0.203 F 
ATOM     89  C   UNL A   1      46.430  34.772  28.367  1.00  0.00     0.198 A 
ATOM     90  C   UNL A   1      46.650  34.307  30.711  1.00  0.00     0.198 A 
ATOM     91  F   UNL A   1      46.249  32.138  31.524  1.00  0.00    -0.203 F 
ATOM     92  F   UNL A   1      46.520  35.629  27.341  1.00  0.00    -0.200 F 
ATOM     93  C   UNL A   1      46.719  35.201  29.654  1.00  0.00     0.200 A 
ATOM     94  F   UNL A   1      46.913  34.723  31.958  1.00  0.00    -0.200 F 
ATOM     95  F   UNL A   1      47.066  36.477  29.874  1.00  0.00    -0.200 F 
ENDBRANCH  62  85
ENDBRANCH  36  37
ENDBRANCH  29  31
ENDBRANCH  28  29
ENDBRANCH  27  28
ENDBRANCH  26  27
ENDBRANCH  25  26
ENDBRANCH  24  25
ENDBRANCH   1  24
TORSDOF 21
ENDMDL
MODEL 2
REMARK VINA RESULT:     -10.3      0.861      2.108
REMARK SMILES Cc1csc(C[C@@H](Cc2ccc(Br)cc2)C(=O)OCCOCCOCCOC(=O)c2ccc(-c3c4nc(c(-c5c(F)c(F)c(F)c(F)c5F)c5ccc([nH]5)c(-c5c(F)c(F)c(F)c(F)c5F)c5nc(c(-c6c(F)c(F)c(F)c(F)c6F)c6ccc3[nH]6)C=C5)C=C4)cc2)n1
REMARK SMILES IDX 22 1 21 2 20 3 19 4 18 5 16 6 17 7 7 8 6 9 5 10 1 11 2 12
REMARK SMILES IDX 3 13 93 14 4 15 8 16 9 17 10 18 15 19 11 20 14 21 12 22
REMARK SMILES IDX 13 23 23 24 24 25 25 26 26 27 27 28 28 29 29 30 30 31 31 32
REMARK SMILES IDX 92 33 32 34 91 35 33 36 34 37 35 38 85 39 36 40 90 41 84 42
REMARK SMILES IDX 86 43 37 44 89 45 83 46 82 47 38 49 70 50 50 51 69 52 51 53
REMARK SMILES IDX 54 54 68 55 87 56 52 57 53 58 67 60 88 61 55 62 39 63 40 64
REMARK SMILES IDX 48 65 41 66 42 67 46 68 49 69 43 70 44 71 47 72 45 73 71 74
REMARK SMILES IDX 72 75 80 76 73 77 74 78 78 79 81 80 75 81 76 82 79 83 77 84
REMARK SMILES IDX 56 85 57 86 65 87 58 88 59 89 63 90 66 91 60 92 61 93 64 94
REMARK SMILES IDX 62 95
REMARK H PARENT 86 48 54 59
REMARK Flexibility Score: inf
ROOT
ATOM      1  C   UNL A   1      34.809  20.324  24.985  1.00  0.00     0.188 C 
ENDROOT
BRANCH   1   2
ATOM      2  O   UNL A   1      33.687  20.644  25.796  1.00  0.00    -0.376 OA
BRANCH   2   3
ATOM      3  C   UNL A   1      32.415  20.780  25.177  1.00  0.00     0.202 C 
BRANCH   3   4
ATOM      4  C   UNL A   1      31.734  22.150  25.253  1.00  0.00     0.261 C 
BRANCH   4   5
ATOM      5  O   UNL A   1      32.591  23.317  25.235  1.00  0.00    -0.463 OA
BRANCH   5   6
ATOM      6  C   UNL A   1      32.406  24.193  24.209  1.00  0.00     0.309 C 
ATOM      7  O   UNL A   1      32.711  23.955  23.045  1.00  0.00    -0.252 OA
BRANCH   6   8
ATOM      8  C   UNL A   1      31.897  25.570  24.633  1.00  0.00     0.110 C 
BRANCH   8   9
ATOM      9  C   UNL A   1      30.399  25.819  24.383  1.00  0.00     0.083 C 
BRANCH   9  10
ATOM     10  C   UNL A   1      30.112  27.081  23.606  1.00  0.00     0.094 A 
ATOM     11  C   UNL A   1      27.765  29.618  22.589  1.00  0.00     0.067 C 
ATOM     12  C   UNL A   1      29.002  28.813  22.757  1.00  0.00     0.048 A 
ATOM     13  C   UNL A   1      30.253  29.081  22.238  1.00  0.00     0.090 A 
ATOM     14  N   UNL A   1      28.935  27.662  23.522  1.00  0.00    -0.247 NA
ATOM     15  S   UNL A   1      31.363  27.866  22.719  1.00  0.00    -0.127 S 
ENDBRANCH   9  10
ENDBRANCH   8   9
BRANCH   8  16
ATOM     16  C   UNL A   1      32.418  25.845  26.059  1.00  0.00     0.051 C 
BRANCH  16  17
ATOM     17  C   UNL A   1      32.741  27.296  26.322  1.00  0.00    -0.047 A 
ATOM     18  C   UNL A   1      31.791  28.148  26.899  1.00  0.00     0.005 A 
ATOM     19  C   UNL A   1      34.031  27.783  26.074  1.00  0.00     0.005 A 
ATOM     20  C   UNL A   1      32.147  29.437  27.296  1.00  0.00     0.016 A 
ATOM     21  C   UNL A   1      34.392  29.068  26.476  1.00  0.00     0.016 A 
ATOM     22  C   UNL A   1      33.451  29.883  27.101  1.00  0.00     0.017 A 
ATOM     23  Br  UNL A   1      33.958  31.597  27.711  1.00  0.00    -0.051 Br
ENDBRANCH  16  17
ENDBRANCH   8  16
ENDBRANCH   6   8
ENDBRANCH   5   6
ENDBRANCH   4   5
ENDBRANCH   3   4
ENDBRANCH   2   3
ENDBRANCH   1   2
BRANCH   1  24
ATOM     24  C   UNL A   1      36.060  21.212  25.063  1.00  0.00     0.188 C 
BRANCH  24  25
ATOM     25  O   UNL A   1      37.255  20.507  24.801  1.00  0.00    -0.376 OA
BRANCH  25  26
ATOM     26  C   UNL A   1      38.397  20.907  25.535  1.00  0.00     0.202 C 
BRANCH  26  27
ATOM     27  C   UNL A   1      39.159  19.693  26.073  1.00  0.00     0.261 C 
BRANCH  27  28
ATOM     28  O   UNL A   1      40.349  19.349  25.334  1.00  0.00    -0.460 OA
BRANCH  28  29
ATOM     29  C   UNL A   1      41.501  19.215  26.031  1.00  0.00     0.338 C 
ATOM     30  O   UNL A   1      42.171  18.202  26.149  1.00  0.00    -0.246 OA
BRANCH  29  31
ATOM     31  C   UNL A   1      41.959  20.580  26.398  1.00  0.00     0.060 A 
ATOM     32  C   UNL A   1      42.081  21.553  25.392  1.00  0.00     0.016 A 
ATOM     33  C   UNL A   1      42.188  20.923  27.730  1.00  0.00     0.016 A 
ATOM     34  C   UNL A   1      42.425  22.869  25.720  1.00  0.00     0.010 A 
ATOM     35  C   UNL A   1      42.561  22.231  28.054  1.00  0.00     0.010 A 
ATOM     36  C   UNL A   1      42.695  23.209  27.052  1.00  0.00    -0.014 A 
BRANCH  36  37
ATOM     37  C   UNL A   1      43.290  24.525  27.404  1.00  0.00     0.031 A 
ATOM     38  C   UNL A   1      42.387  25.580  27.980  1.00  0.00     0.074 A 
ATOM     39  C   UNL A   1      44.586  24.807  27.184  1.00  0.00     0.049 A 
ATOM     40  N   UNL A   1      42.625  26.844  28.221  1.00  0.00    -0.248 NA
ATOM     41  C   UNL A   1      41.027  25.143  28.329  1.00  0.00     0.031 C 
ATOM     42  C   UNL A   1      45.588  23.867  26.693  1.00  0.00     0.029 A 
ATOM     43  N   UNL A   1      45.274  25.989  27.330  1.00  0.00    -0.354 N 
ATOM     44  C   UNL A   1      41.442  27.356  28.738  1.00  0.00     0.074 A 
ATOM     45  C   UNL A   1      40.483  26.273  28.751  1.00  0.00     0.031 C 
ATOM     46  C   UNL A   1      46.762  24.512  26.561  1.00  0.00     0.029 A 
ATOM     47  C   UNL A   1      46.581  25.921  26.911  1.00  0.00     0.049 A 
ATOM     48  H   UNL A   1      44.868  26.806  27.700  1.00  0.00     0.167 HD
ATOM     49  C   UNL A   1      41.179  28.613  29.167  1.00  0.00     0.037 A 
ATOM     50  C   UNL A   1      47.508  26.893  26.790  1.00  0.00     0.037 A 
ATOM     51  C   UNL A   1      42.125  29.696  29.137  1.00  0.00     0.049 A 
ATOM     52  C   UNL A   1      47.151  28.318  27.144  1.00  0.00     0.074 A 
ATOM     53  C   UNL A   1      41.951  31.005  29.554  1.00  0.00     0.029 A 
ATOM     54  N   UNL A   1      43.419  29.602  28.648  1.00  0.00    -0.354 N 
ATOM     55  N   UNL A   1      46.038  28.796  27.643  1.00  0.00    -0.248 NA
ATOM     56  C   UNL A   1      48.183  29.341  26.903  1.00  0.00     0.031 C 
ATOM     57  C   UNL A   1      43.119  31.716  29.261  1.00  0.00     0.029 A 
ATOM     58  C   UNL A   1      44.043  30.837  28.717  1.00  0.00     0.049 A 
ATOM     59  H   UNL A   1      43.833  28.777  28.303  1.00  0.00     0.167 HD
ATOM     60  C   UNL A   1      46.244  30.163  27.804  1.00  0.00     0.074 A 
ATOM     61  C   UNL A   1      47.593  30.437  27.358  1.00  0.00     0.031 C 
ATOM     62  C   UNL A   1      45.391  31.103  28.280  1.00  0.00     0.037 A 
BRANCH  49  63
ATOM     63  C   UNL A   1      39.790  28.889  29.667  1.00  0.00     0.064 A 
ATOM     64  C   UNL A   1      39.406  28.586  30.982  1.00  0.00     0.173 A 
ATOM     65  C   UNL A   1      38.833  29.466  28.820  1.00  0.00     0.173 A 
ATOM     66  F   UNL A   1      40.280  28.020  31.828  1.00  0.00    -0.203 F 
ATOM     67  C   UNL A   1      38.104  28.817  31.418  1.00  0.00     0.198 A 
ATOM     68  C   UNL A   1      37.542  29.727  29.269  1.00  0.00     0.198 A 
ATOM     69  F   UNL A   1      39.149  29.779  27.554  1.00  0.00    -0.203 F 
ATOM     70  F   UNL A   1      37.742  28.462  32.659  1.00  0.00    -0.200 F 
ATOM     71  C   UNL A   1      37.175  29.391  30.564  1.00  0.00     0.200 A 
ATOM     72  F   UNL A   1      36.649  30.295  28.446  1.00  0.00    -0.200 F 
ATOM     73  F   UNL A   1      35.922  29.612  30.985  1.00  0.00    -0.200 F 
ENDBRANCH  49  63
BRANCH  50  74
ATOM     74  C   UNL A   1      48.871  26.567  26.286  1.00  0.00     0.064 A 
ATOM     75  C   UNL A   1      49.847  26.043  27.145  1.00  0.00     0.173 A 
ATOM     76  C   UNL A   1      49.236  26.806  24.953  1.00  0.00     0.173 A 
ATOM     77  F   UNL A   1      49.558  25.833  28.438  1.00  0.00    -0.203 F 
ATOM     78  C   UNL A   1      51.139  25.778  26.692  1.00  0.00     0.198 A 
ATOM     79  C   UNL A   1      50.521  26.516  24.495  1.00  0.00     0.198 A 
ATOM     80  F   UNL A   1      48.347  27.324  24.094  1.00  0.00    -0.203 F 
ATOM     81  F   UNL A   1      52.066  25.324  27.547  1.00  0.00    -0.200 F 
ATOM     82  C   UNL A   1      51.472  26.008  25.367  1.00  0.00     0.200 A 
ATOM     83  F   UNL A   1      50.838  26.735  23.212  1.00  0.00    -0.200 F 
ATOM     84  F   UNL A   1      52.715  25.754  24.932  1.00  0.00    -0.200 F 
ENDBRANCH  50  74
BRANCH  62  85
ATOM     85  C   UNL A   1      45.890  32.517  28.384  1.00  0.00     0.064 A 
ATOM     86  C   UNL A   1      46.598  32.970  29.506  1.00  0.00     0.173 A 
ATOM     87  C   UNL A   1      45.716  33.411  27.315  1.00  0.00     0.173 A 
ATOM     88  F   UNL A   1      46.780  32.161  30.560  1.00  0.00    -0.203 F 
ATOM     89  C   UNL A   1      47.101  34.269  29.561  1.00  0.00     0.198 A 
ATOM     90  C   UNL A   1      46.247  34.698  27.359  1.00  0.00     0.198 A 
ATOM     91  F   UNL A   1      45.052  33.028  26.214  1.00  0.00    -0.203 F 
ATOM     92  F   UNL A   1      47.744  34.691  30.658  1.00  0.00    -0.200 F 
ATOM     93  C   UNL A   1      46.935  35.127  28.484  1.00  0.00     0.200 A 
ATOM     94  F   UNL A   1      46.099  35.520  26.311  1.00  0.00    -0.200 F 
ATOM     95  F   UNL A   1      47.435  36.370  28.532  1.00  0.00    -0.200 F 
ENDBRANCH  62  85
ENDBRANCH  36  37
ENDBRANCH  29  31
ENDBRANCH  28  29
ENDBRANCH  27  28
ENDBRANCH  26  27
ENDBRANCH  25  26
ENDBRANCH  24  25
ENDBRANCH   1  24
TORSDOF 21
ENDMDL
MODEL 3
REMARK VINA RESULT:     -10.2      6.276     10.652
REMARK SMILES Cc1csc(C[C@@H](Cc2ccc(Br)cc2)C(=O)OCCOCCOCCOC(=O)c2ccc(-c3c4nc(c(-c5c(F)c(F)c(F)c(F)c5F)c5ccc([nH]5)c(-c5c(F)c(F)c(F)c(F)c5F)c5nc(c(-c6c(F)c(F)c(F)c(F)c6F)c6ccc3[nH]6)C=C5)C=C4)cc2)n1
REMARK SMILES IDX 22 1 21 2 20 3 19 4 18 5 16 6 17 7 7 8 6 9 5 10 1 11 2 12
REMARK SMILES IDX 3 13 93 14 4 15 8 16 9 17 10 18 15 19 11 20 14 21 12 22
REMARK SMILES IDX 13 23 23 24 24 25 25 26 26 27 27 28 28 29 29 30 30 31 31 32
REMARK SMILES IDX 92 33 32 34 91 35 33 36 34 37 35 38 85 39 36 40 90 41 84 42
REMARK SMILES IDX 86 43 37 44 89 45 83 46 82 47 38 49 70 50 50 51 69 52 51 53
REMARK SMILES IDX 54 54 68 55 87 56 52 57 53 58 67 60 88 61 55 62 39 63 40 64
REMARK SMILES IDX 48 65 41 66 42 67 46 68 49 69 43 70 44 71 47 72 45 73 71 74
REMARK SMILES IDX 72 75 80 76 73 77 74 78 78 79 81 80 75 81 76 82 79 83 77 84
REMARK SMILES IDX 56 85 57 86 65 87 58 88 59 89 63 90 66 91 60 92 61 93 64 94
REMARK SMILES IDX 62 95
REMARK H PARENT 86 48 54 59
REMARK Flexibility Score: inf
ROOT
ATOM      1  C   UNL A   1      34.532  32.317  28.113  1.00  0.00     0.188 C 
ENDROOT
BRANCH   1   2
ATOM      2  O   UNL A   1      33.440  31.565  27.601  1.00  0.00    -0.376 OA
BRANCH   2   3
ATOM      3  C   UNL A   1      33.665  30.219  27.207  1.00  0.00     0.202 C 
BRANCH   3   4
ATOM      4  C   UNL A   1      32.737  29.628  26.140  1.00  0.00     0.261 C 
BRANCH   4   5
ATOM      5  O   UNL A   1      32.736  28.189  25.987  1.00  0.00    -0.463 OA
BRANCH   5   6
ATOM      6  C   UNL A   1      31.655  27.524  26.480  1.00  0.00     0.309 C 
ATOM      7  O   UNL A   1      31.170  27.735  27.588  1.00  0.00    -0.252 OA
BRANCH   6   8
ATOM      8  C   UNL A   1      31.150  26.386  25.595  1.00  0.00     0.110 C 
BRANCH   8   9
ATOM      9  C   UNL A   1      31.364  26.589  24.084  1.00  0.00     0.083 C 
BRANCH   9  10
ATOM     10  C   UNL A   1      30.541  27.710  23.496  1.00  0.00     0.094 A 
ATOM     11  C   UNL A   1      27.316  29.219  22.951  1.00  0.00     0.067 C 
ATOM     12  C   UNL A   1      28.776  28.948  22.944  1.00  0.00     0.048 A 
ATOM     13  C   UNL A   1      29.771  29.733  22.398  1.00  0.00     0.090 A 
ATOM     14  N   UNL A   1      29.230  27.791  23.553  1.00  0.00    -0.247 NA
ATOM     15  S   UNL A   1      31.302  29.006  22.654  1.00  0.00    -0.127 S 
ENDBRANCH   9  10
ENDBRANCH   8   9
BRANCH   8  16
ATOM     16  C   UNL A   1      31.661  25.061  26.197  1.00  0.00     0.051 C 
BRANCH  16  17
ATOM     17  C   UNL A   1      32.902  24.524  25.524  1.00  0.00    -0.047 A 
ATOM     18  C   UNL A   1      34.174  24.963  25.912  1.00  0.00     0.005 A 
ATOM     19  C   UNL A   1      32.795  23.509  24.565  1.00  0.00     0.005 A 
ATOM     20  C   UNL A   1      35.318  24.342  25.411  1.00  0.00     0.016 A 
ATOM     21  C   UNL A   1      33.936  22.882  24.067  1.00  0.00     0.016 A 
ATOM     22  C   UNL A   1      35.193  23.291  24.507  1.00  0.00     0.017 A 
ATOM     23  Br  UNL A   1      36.737  22.395  23.888  1.00  0.00    -0.051 Br
ENDBRANCH  16  17
ENDBRANCH   8  16
ENDBRANCH   6   8
ENDBRANCH   5   6
ENDBRANCH   4   5
ENDBRANCH   3   4
ENDBRANCH   2   3
ENDBRANCH   1   2
BRANCH   1  24
ATOM     24  C   UNL A   1      34.507  33.847  27.980  1.00  0.00     0.188 C 
BRANCH  24  25
ATOM     25  O   UNL A   1      33.566  34.460  28.836  1.00  0.00    -0.376 OA
BRANCH  25  26
ATOM     26  C   UNL A   1      33.718  35.852  29.045  1.00  0.00     0.202 C 
BRANCH  26  27
ATOM     27  C   UNL A   1      32.520  36.428  29.806  1.00  0.00     0.261 C 
BRANCH  27  28
ATOM     28  O   UNL A   1      32.126  35.677  30.972  1.00  0.00    -0.460 OA
BRANCH  28  29
ATOM     29  C   UNL A   1      32.668  36.035  32.159  1.00  0.00     0.338 C 
ATOM     30  O   UNL A   1      32.177  36.775  32.995  1.00  0.00    -0.246 OA
BRANCH  29  31
ATOM     31  C   UNL A   1      33.840  35.152  32.395  1.00  0.00     0.060 A 
ATOM     32  C   UNL A   1      33.628  33.782  32.622  1.00  0.00     0.016 A 
ATOM     33  C   UNL A   1      35.139  35.653  32.314  1.00  0.00     0.016 A 
ATOM     34  C   UNL A   1      34.716  32.913  32.760  1.00  0.00     0.010 A 
ATOM     35  C   UNL A   1      36.226  34.788  32.482  1.00  0.00     0.010 A 
ATOM     36  C   UNL A   1      36.023  33.416  32.718  1.00  0.00    -0.014 A 
BRANCH  36  37
ATOM     37  C   UNL A   1      37.185  32.570  33.096  1.00  0.00     0.031 A 
ATOM     38  C   UNL A   1      37.872  32.851  34.403  1.00  0.00     0.074 A 
ATOM     39  C   UNL A   1      37.658  31.602  32.291  1.00  0.00     0.049 A 
ATOM     40  N   UNL A   1      38.989  32.366  34.882  1.00  0.00    -0.248 NA
ATOM     41  C   UNL A   1      37.203  33.817  35.287  1.00  0.00     0.031 C 
ATOM     42  C   UNL A   1      37.057  31.177  31.031  1.00  0.00     0.029 A 
ATOM     43  N   UNL A   1      38.778  30.812  32.416  1.00  0.00    -0.354 N 
ATOM     44  C   UNL A   1      39.162  32.976  36.118  1.00  0.00     0.074 A 
ATOM     45  C   UNL A   1      38.050  33.885  36.301  1.00  0.00     0.031 C 
ATOM     46  C   UNL A   1      37.825  30.214  30.487  1.00  0.00     0.029 A 
ATOM     47  C   UNL A   1      38.995  29.991  31.336  1.00  0.00     0.049 A 
ATOM     48  H   UNL A   1      39.366  30.835  33.204  1.00  0.00     0.167 HD
ATOM     49  C   UNL A   1      40.155  32.794  37.021  1.00  0.00     0.037 A 
ATOM     50  C   UNL A   1      40.038  29.183  31.053  1.00  0.00     0.037 A 
ATOM     51  C   UNL A   1      41.271  31.906  36.833  1.00  0.00     0.049 A 
ATOM     52  C   UNL A   1      41.203  29.099  32.011  1.00  0.00     0.074 A 
ATOM     53  C   UNL A   1      42.324  31.651  37.694  1.00  0.00     0.029 A 
ATOM     54  N   UNL A   1      41.487  31.138  35.700  1.00  0.00    -0.354 N 
ATOM     55  N   UNL A   1      41.359  29.667  33.181  1.00  0.00    -0.248 NA
ATOM     56  C   UNL A   1      42.345  28.268  31.596  1.00  0.00     0.031 C 
ATOM     57  C   UNL A   1      43.210  30.777  37.056  1.00  0.00     0.029 A 
ATOM     58  C   UNL A   1      42.677  30.438  35.821  1.00  0.00     0.049 A 
ATOM     59  H   UNL A   1      40.883  31.096  34.922  1.00  0.00     0.167 HD
ATOM     60  C   UNL A   1      42.595  29.240  33.655  1.00  0.00     0.074 A 
ATOM     61  C   UNL A   1      43.146  28.358  32.649  1.00  0.00     0.031 C 
ATOM     62  C   UNL A   1      43.216  29.552  34.820  1.00  0.00     0.037 A 
BRANCH  49  63
ATOM     63  C   UNL A   1      40.093  33.611  38.279  1.00  0.00     0.064 A 
ATOM     64  C   UNL A   1      40.858  34.777  38.440  1.00  0.00     0.173 A 
ATOM     65  C   UNL A   1      39.255  33.225  39.336  1.00  0.00     0.173 A 
ATOM     66  F   UNL A   1      41.686  35.181  37.465  1.00  0.00    -0.203 F 
ATOM     67  C   UNL A   1      40.814  35.504  39.627  1.00  0.00     0.198 A 
ATOM     68  C   UNL A   1      39.188  33.973  40.508  1.00  0.00     0.198 A 
ATOM     69  F   UNL A   1      38.499  32.121  39.233  1.00  0.00    -0.203 F 
ATOM     70  F   UNL A   1      41.600  36.578  39.782  1.00  0.00    -0.200 F 
ATOM     71  C   UNL A   1      39.976  35.104  40.657  1.00  0.00     0.200 A 
ATOM     72  F   UNL A   1      38.367  33.594  41.497  1.00  0.00    -0.200 F 
ATOM     73  F   UNL A   1      39.935  35.804  41.799  1.00  0.00    -0.200 F 
ENDBRANCH  49  63
BRANCH  50  74
ATOM     74  C   UNL A   1      40.051  28.396  29.789  1.00  0.00     0.064 A 
ATOM     75  C   UNL A   1      39.451  27.130  29.726  1.00  0.00     0.173 A 
ATOM     76  C   UNL A   1      40.692  28.872  28.636  1.00  0.00     0.173 A 
ATOM     77  F   UNL A   1      38.860  26.615  30.814  1.00  0.00    -0.203 F 
ATOM     78  C   UNL A   1      39.500  26.367  28.561  1.00  0.00     0.198 A 
ATOM     79  C   UNL A   1      40.716  28.119  27.462  1.00  0.00     0.198 A 
ATOM     80  F   UNL A   1      41.297  30.068  28.647  1.00  0.00    -0.203 F 
ATOM     81  F   UNL A   1      38.961  25.140  28.543  1.00  0.00    -0.200 F 
ATOM     82  C   UNL A   1      40.125  26.865  27.428  1.00  0.00     0.200 A 
ATOM     83  F   UNL A   1      41.318  28.605  26.369  1.00  0.00    -0.200 F 
ATOM     84  F   UNL A   1      40.172  26.130  26.307  1.00  0.00    -0.200 F 
ENDBRANCH  50  74
BRANCH  62  85
ATOM     85  C   UNL A   1      44.547  28.913  35.101  1.00  0.00     0.064 A 
ATOM     86  C   UNL A   1      44.648  27.655  35.712  1.00  0.00     0.173 A 
ATOM     87  C   UNL A   1      45.735  29.538  34.689  1.00  0.00     0.173 A 
ATOM     88  F   UNL A   1      43.545  27.021  36.136  1.00  0.00    -0.203 F 
ATOM     89  C   UNL A   1      45.889  27.053  35.913  1.00  0.00     0.198 A 
ATOM     90  C   UNL A   1      46.971  28.920  34.864  1.00  0.00     0.198 A 
ATOM     91  F   UNL A   1      45.696  30.739  34.093  1.00  0.00    -0.203 F 
ATOM     92  F   UNL A   1      45.964  25.866  36.531  1.00  0.00    -0.200 F 
ATOM     93  C   UNL A   1      47.047  27.681  35.480  1.00  0.00     0.200 A 
ATOM     94  F   UNL A   1      48.088  29.521  34.429  1.00  0.00    -0.200 F 
ATOM     95  F   UNL A   1      48.238  27.092  35.659  1.00  0.00    -0.200 F 
ENDBRANCH  62  85
ENDBRANCH  36  37
ENDBRANCH  29  31
ENDBRANCH  28  29
ENDBRANCH  27  28
ENDBRANCH  26  27
ENDBRANCH  25  26
ENDBRANCH  24  25
ENDBRANCH   1  24
TORSDOF 21
ENDMDL
