MODEL 1
REMARK VINA RESULT:     -12.0      0.000      0.000
REMARK SMILES COC(=O)c1ccc2c(c1)=N[C@H](c1cn(CCC(=O)OCCOCCOCCOC(=O)c3ccc(-c4c5nc(c(-c6c(F)c(F)c(F)c(F)c6F)c6ccc([nH]6)c(-c6c(F)c(F)c(F)c(F)c6F)c6nc(c(-c7c(F)c(F)c(F)c(F)c7F)c7ccc4[nH]7)C=C6)C=C5)cc3)c3ccccc13)N=2
REMARK SMILES IDX 23 1 22 2 21 3 20 4 18 5 19 6 17 7 16 8 15 9 13 10 14 11
REMARK SMILES IDX 100 12 95 13 99 14 96 15 98 16 97 17 12 18 5 19 6 20 10 21
REMARK SMILES IDX 7 22 9 23 8 24 11 25 101 26 3 27 4 28 2 29 1 30 24 31 25 32
REMARK SMILES IDX 26 33 27 34 28 35 29 36 30 37 31 38 32 39 33 40 94 41 34 42
REMARK SMILES IDX 93 43 35 44 36 45 37 46 87 47 38 48 92 49 86 50 88 51 39 52
REMARK SMILES IDX 91 53 85 54 84 55 40 57 72 58 52 59 71 60 53 61 56 62 70 63
REMARK SMILES IDX 89 64 54 65 55 66 69 68 90 69 57 70 41 71 42 72 50 73 43 74
REMARK SMILES IDX 44 75 48 76 51 77 45 78 46 79 49 80 47 81 73 82 74 83 82 84
REMARK SMILES IDX 75 85 76 86 80 87 83 88 77 89 78 90 81 91 79 92 58 93 59 94
REMARK SMILES IDX 67 95 60 96 61 97 65 98 68 99 62 100 63 101 66 102 64 103
REMARK H PARENT 88 56 56 67
REMARK Flexibility Score: inf
ROOT
ATOM      1  O   UNL A   1      35.125  23.926  24.114  1.00  0.00    -0.376 OA
ENDROOT
BRANCH   1   2
ATOM      2  C   UNL A   1      34.328  23.051  23.310  1.00  0.00     0.202 C 
BRANCH   2   3
ATOM      3  C   UNL A   1      33.376  23.746  22.331  1.00  0.00     0.261 C 
BRANCH   3   4
ATOM      4  O   UNL A   1      33.849  25.103  22.117  1.00  0.00    -0.463 OA
BRANCH   4   5
ATOM      5  C   UNL A   1      33.144  25.822  21.226  1.00  0.00     0.307 C 
ATOM      6  O   UNL A   1      32.983  25.478  20.054  1.00  0.00    -0.252 OA
BRANCH   5   7
ATOM      7  C   UNL A   1      32.302  26.943  21.791  1.00  0.00     0.144 C 
BRANCH   7   8
ATOM      8  C   UNL A   1      31.053  26.972  22.642  1.00  0.00     0.134 C 
BRANCH   8   9
ATOM      9  N   UNL A   1      31.221  26.305  23.894  1.00  0.00    -0.346 N 
ATOM     10  C   UNL A   1      30.589  25.456  25.793  1.00  0.00     0.024 A 
ATOM     11  C   UNL A   1      30.418  25.333  24.417  1.00  0.00     0.094 A 
ATOM     12  C   UNL A   1      31.194  26.738  25.981  1.00  0.00     0.007 A 
ATOM     13  C   UNL A   1      32.031  26.785  24.882  1.00  0.00     0.048 A 
ATOM     14  C   UNL A   1      31.453  27.608  27.045  1.00  0.00     0.011 A 
ATOM     15  C   UNL A   1      33.320  27.295  24.922  1.00  0.00     0.027 A 
ATOM     16  C   UNL A   1      32.700  28.239  27.075  1.00  0.00     0.001 A 
ATOM     17  C   UNL A   1      33.657  27.980  26.088  1.00  0.00     0.002 A 
BRANCH  10  18
ATOM     18  C   UNL A   1      30.562  24.333  26.793  1.00  0.00     0.255 C 
ATOM     19  C   UNL A   1      32.869  20.611  25.621  1.00  0.00     0.062 A 
ATOM     20  C   UNL A   1      33.855  21.260  26.480  1.00  0.00     0.018 A 
ATOM     21  C   UNL A   1      31.680  21.177  25.344  1.00  0.00     0.046 A 
ATOM     22  C   UNL A   1      33.657  22.449  27.069  1.00  0.00     0.031 A 
ATOM     23  C   UNL A   1      31.353  22.448  26.008  1.00  0.00     0.087 A 
ATOM     24  C   UNL A   1      32.357  23.099  26.874  1.00  0.00     0.086 A 
ATOM     25  N   UNL A   1      30.235  23.087  26.019  1.00  0.00    -0.252 NA
ATOM     26  N   UNL A   1      31.903  24.168  27.428  1.00  0.00    -0.252 NA
BRANCH  19  27
ATOM     27  C   UNL A   1      33.129  19.269  25.005  1.00  0.00     0.337 C 
ATOM     28  O   UNL A   1      33.809  19.084  24.017  1.00  0.00    -0.246 OA
BRANCH  27  29
ATOM     29  O   UNL A   1      32.447  18.313  25.696  1.00  0.00    -0.465 OA
ATOM     30  C   UNL A   1      32.939  16.982  25.521  1.00  0.00     0.282 C 
ENDBRANCH  27  29
ENDBRANCH  19  27
ENDBRANCH  10  18
ENDBRANCH   8   9
ENDBRANCH   7   8
ENDBRANCH   5   7
ENDBRANCH   4   5
ENDBRANCH   3   4
ENDBRANCH   2   3
ENDBRANCH   1   2
BRANCH   1  31
ATOM     31  C   UNL A   1      36.496  23.603  24.167  1.00  0.00     0.188 C 
BRANCH  31  32
ATOM     32  C   UNL A   1      36.844  22.125  24.115  1.00  0.00     0.188 C 
BRANCH  32  33
ATOM     33  O   UNL A   1      37.800  21.488  24.933  1.00  0.00    -0.376 OA
BRANCH  33  34
ATOM     34  C   UNL A   1      38.102  22.155  26.160  1.00  0.00     0.202 C 
BRANCH  34  35
ATOM     35  C   UNL A   1      39.547  22.065  26.741  1.00  0.00     0.261 C 
BRANCH  35  36
ATOM     36  O   UNL A   1      40.609  22.268  25.782  1.00  0.00    -0.460 OA
BRANCH  36  37
ATOM     37  C   UNL A   1      41.742  22.868  26.256  1.00  0.00     0.338 C 
ATOM     38  O   UNL A   1      42.877  22.532  26.000  1.00  0.00    -0.246 OA
BRANCH  37  39
ATOM     39  C   UNL A   1      41.398  24.199  26.873  1.00  0.00     0.060 A 
ATOM     40  C   UNL A   1      40.699  25.209  26.199  1.00  0.00     0.016 A 
ATOM     41  C   UNL A   1      42.043  24.518  28.079  1.00  0.00     0.016 A 
ATOM     42  C   UNL A   1      40.785  26.537  26.653  1.00  0.00     0.010 A 
ATOM     43  C   UNL A   1      42.097  25.842  28.549  1.00  0.00     0.010 A 
ATOM     44  C   UNL A   1      41.511  26.878  27.818  1.00  0.00    -0.014 A 
BRANCH  44  45
ATOM     45  C   UNL A   1      41.342  28.240  28.394  1.00  0.00     0.031 A 
ATOM     46  C   UNL A   1      42.415  29.144  27.936  1.00  0.00     0.074 A 
ATOM     47  C   UNL A   1      40.363  28.800  29.149  1.00  0.00     0.049 A 
ATOM     48  N   UNL A   1      43.324  29.665  28.690  1.00  0.00    -0.248 NA
ATOM     49  C   UNL A   1      42.602  29.373  26.498  1.00  0.00     0.031 C 
ATOM     50  C   UNL A   1      39.180  28.160  29.674  1.00  0.00     0.029 A 
ATOM     51  N   UNL A   1      40.169  30.091  29.594  1.00  0.00    -0.354 N 
ATOM     52  C   UNL A   1      44.066  30.478  27.852  1.00  0.00     0.074 A 
ATOM     53  C   UNL A   1      43.694  30.140  26.502  1.00  0.00     0.031 C 
ATOM     54  C   UNL A   1      38.216  29.044  30.004  1.00  0.00     0.029 A 
ATOM     55  C   UNL A   1      38.858  30.344  30.017  1.00  0.00     0.049 A 
ATOM     56  H   UNL A   1      40.882  30.769  29.612  1.00  0.00     0.167 HD
ATOM     57  C   UNL A   1      44.704  31.565  28.356  1.00  0.00     0.037 A 
ATOM     58  C   UNL A   1      38.313  31.435  30.609  1.00  0.00     0.037 A 
ATOM     59  C   UNL A   1      44.790  31.532  29.790  1.00  0.00     0.049 A 
ATOM     60  C   UNL A   1      39.400  32.198  31.239  1.00  0.00     0.074 A 
ATOM     61  C   UNL A   1      45.628  30.988  30.738  1.00  0.00     0.029 A 
ATOM     62  N   UNL A   1      43.629  31.871  30.427  1.00  0.00    -0.354 N 
ATOM     63  N   UNL A   1      40.043  31.791  32.296  1.00  0.00    -0.248 NA
ATOM     64  C   UNL A   1      40.025  33.275  30.484  1.00  0.00     0.031 C 
ATOM     65  C   UNL A   1      44.896  30.954  31.964  1.00  0.00     0.029 A 
ATOM     66  C   UNL A   1      43.639  31.505  31.746  1.00  0.00     0.049 A 
ATOM     67  H   UNL A   1      42.874  32.326  29.988  1.00  0.00     0.167 HD
ATOM     68  C   UNL A   1      41.326  32.251  32.093  1.00  0.00     0.074 A 
ATOM     69  C   UNL A   1      41.224  33.280  31.067  1.00  0.00     0.031 C 
ATOM     70  C   UNL A   1      42.404  31.522  32.492  1.00  0.00     0.037 A 
BRANCH  57  71
ATOM     71  C   UNL A   1      44.818  32.856  27.600  1.00  0.00     0.064 A 
ATOM     72  C   UNL A   1      45.941  33.103  26.794  1.00  0.00     0.173 A 
ATOM     73  C   UNL A   1      43.990  33.969  27.869  1.00  0.00     0.173 A 
ATOM     74  F   UNL A   1      46.822  32.125  26.538  1.00  0.00    -0.203 F 
ATOM     75  C   UNL A   1      46.213  34.378  26.292  1.00  0.00     0.198 A 
ATOM     76  C   UNL A   1      44.234  35.225  27.324  1.00  0.00     0.198 A 
ATOM     77  F   UNL A   1      42.988  33.899  28.756  1.00  0.00    -0.203 F 
ATOM     78  F   UNL A   1      47.337  34.595  25.597  1.00  0.00    -0.200 F 
ATOM     79  C   UNL A   1      45.355  35.435  26.549  1.00  0.00     0.200 A 
ATOM     80  F   UNL A   1      43.410  36.242  27.616  1.00  0.00    -0.200 F 
ATOM     81  F   UNL A   1      45.630  36.664  26.092  1.00  0.00    -0.200 F 
ENDBRANCH  57  71
BRANCH  58  82
ATOM     82  C   UNL A   1      36.935  31.961  30.452  1.00  0.00     0.064 A 
ATOM     83  C   UNL A   1      36.000  31.889  31.498  1.00  0.00     0.173 A 
ATOM     84  C   UNL A   1      36.612  32.818  29.382  1.00  0.00     0.173 A 
ATOM     85  F   UNL A   1      36.229  31.096  32.556  1.00  0.00    -0.203 F 
ATOM     86  C   UNL A   1      34.854  32.691  31.514  1.00  0.00     0.198 A 
ATOM     87  C   UNL A   1      35.469  33.618  29.398  1.00  0.00     0.198 A 
ATOM     88  F   UNL A   1      37.452  32.972  28.347  1.00  0.00    -0.203 F 
ATOM     89  F   UNL A   1      34.029  32.660  32.569  1.00  0.00    -0.200 F 
ATOM     90  C   UNL A   1      34.604  33.574  30.476  1.00  0.00     0.200 A 
ATOM     91  F   UNL A   1      35.251  34.486  28.399  1.00  0.00    -0.200 F 
ATOM     92  F   UNL A   1      33.559  34.412  30.535  1.00  0.00    -0.200 F 
ENDBRANCH  58  82
BRANCH  70  93
ATOM     93  C   UNL A   1      42.240  30.603  33.658  1.00  0.00     0.064 A 
ATOM     94  C   UNL A   1      42.366  30.982  35.002  1.00  0.00     0.173 A 
ATOM     95  C   UNL A   1      41.873  29.278  33.385  1.00  0.00     0.173 A 
ATOM     96  F   UNL A   1      42.657  32.249  35.335  1.00  0.00    -0.203 F 
ATOM     97  C   UNL A   1      42.152  30.058  36.027  1.00  0.00     0.198 A 
ATOM     98  C   UNL A   1      41.631  28.368  34.408  1.00  0.00     0.198 A 
ATOM     99  F   UNL A   1      41.715  28.872  32.115  1.00  0.00    -0.203 F 
ATOM    100  F   UNL A   1      42.286  30.428  37.309  1.00  0.00    -0.200 F 
ATOM    101  C   UNL A   1      41.777  28.756  35.729  1.00  0.00     0.200 A 
ATOM    102  F   UNL A   1      41.237  27.122  34.111  1.00  0.00    -0.200 F 
ATOM    103  F   UNL A   1      41.537  27.878  36.713  1.00  0.00    -0.200 F 
ENDBRANCH  70  93
ENDBRANCH  44  45
ENDBRANCH  37  39
ENDBRANCH  36  37
ENDBRANCH  35  36
ENDBRANCH  34  35
ENDBRANCH  33  34
ENDBRANCH  32  33
ENDBRANCH  31  32
ENDBRANCH   1  31
TORSDOF 22
ENDMDL
MODEL 2
REMARK VINA RESULT:     -11.6      2.575      5.010
REMARK SMILES COC(=O)c1ccc2c(c1)=N[C@H](c1cn(CCC(=O)OCCOCCOCCOC(=O)c3ccc(-c4c5nc(c(-c6c(F)c(F)c(F)c(F)c6F)c6ccc([nH]6)c(-c6c(F)c(F)c(F)c(F)c6F)c6nc(c(-c7c(F)c(F)c(F)c(F)c7F)c7ccc4[nH]7)C=C6)C=C5)cc3)c3ccccc13)N=2
REMARK SMILES IDX 23 1 22 2 21 3 20 4 18 5 19 6 17 7 16 8 15 9 13 10 14 11
REMARK SMILES IDX 100 12 95 13 99 14 96 15 98 16 97 17 12 18 5 19 6 20 10 21
REMARK SMILES IDX 7 22 9 23 8 24 11 25 101 26 3 27 4 28 2 29 1 30 24 31 25 32
REMARK SMILES IDX 26 33 27 34 28 35 29 36 30 37 31 38 32 39 33 40 94 41 34 42
REMARK SMILES IDX 93 43 35 44 36 45 37 46 87 47 38 48 92 49 86 50 88 51 39 52
REMARK SMILES IDX 91 53 85 54 84 55 40 57 72 58 52 59 71 60 53 61 56 62 70 63
REMARK SMILES IDX 89 64 54 65 55 66 69 68 90 69 57 70 41 71 42 72 50 73 43 74
REMARK SMILES IDX 44 75 48 76 51 77 45 78 46 79 49 80 47 81 73 82 74 83 82 84
REMARK SMILES IDX 75 85 76 86 80 87 83 88 77 89 78 90 81 91 79 92 58 93 59 94
REMARK SMILES IDX 67 95 60 96 61 97 65 98 68 99 62 100 63 101 66 102 64 103
REMARK H PARENT 88 56 56 67
REMARK Flexibility Score: inf
ROOT
ATOM      1  O   UNL A   1      33.467  24.212  22.932  1.00  0.00    -0.376 OA
ENDROOT
BRANCH   1   2
ATOM      2  C   UNL A   1      33.404  22.911  22.341  1.00  0.00     0.202 C 
BRANCH   2   3
ATOM      3  C   UNL A   1      32.203  22.058  22.762  1.00  0.00     0.261 C 
BRANCH   3   4
ATOM      4  O   UNL A   1      31.478  22.768  23.802  1.00  0.00    -0.463 OA
BRANCH   4   5
ATOM      5  C   UNL A   1      31.657  22.298  25.048  1.00  0.00     0.307 C 
ATOM      6  O   UNL A   1      31.927  21.122  25.297  1.00  0.00    -0.252 OA
BRANCH   5   7
ATOM      7  C   UNL A   1      31.800  23.337  26.138  1.00  0.00     0.144 C 
BRANCH   7   8
ATOM      8  C   UNL A   1      31.108  24.653  26.411  1.00  0.00     0.134 C 
BRANCH   8   9
ATOM      9  N   UNL A   1      31.807  25.771  25.860  1.00  0.00    -0.346 N 
ATOM     10  C   UNL A   1      32.699  27.753  25.863  1.00  0.00     0.024 A 
ATOM     11  C   UNL A   1      32.786  26.503  26.468  1.00  0.00     0.094 A 
ATOM     12  C   UNL A   1      31.427  27.764  25.209  1.00  0.00     0.007 A 
ATOM     13  C   UNL A   1      31.359  26.456  24.769  1.00  0.00     0.048 A 
ATOM     14  C   UNL A   1      30.586  28.707  24.609  1.00  0.00     0.011 A 
ATOM     15  C   UNL A   1      30.860  26.090  23.528  1.00  0.00     0.027 A 
ATOM     16  C   UNL A   1      29.966  28.348  23.408  1.00  0.00     0.001 A 
ATOM     17  C   UNL A   1      30.208  27.101  22.823  1.00  0.00     0.002 A 
BRANCH  10  18
ATOM     18  C   UNL A   1      33.847  28.684  25.584  1.00  0.00     0.255 C 
ATOM     19  C   UNL A   1      34.492  31.968  28.641  1.00  0.00     0.062 A 
ATOM     20  C   UNL A   1      35.482  30.998  29.099  1.00  0.00     0.018 A 
ATOM     21  C   UNL A   1      33.674  31.718  27.603  1.00  0.00     0.046 A 
ATOM     22  C   UNL A   1      35.668  29.801  28.523  1.00  0.00     0.031 A 
ATOM     23  C   UNL A   1      33.861  30.458  26.868  1.00  0.00     0.087 A 
ATOM     24  C   UNL A   1      34.864  29.481  27.339  1.00  0.00     0.086 A 
ATOM     25  N   UNL A   1      33.312  30.077  25.768  1.00  0.00    -0.252 NA
ATOM     26  N   UNL A   1      34.952  28.459  26.561  1.00  0.00    -0.252 NA
BRANCH  19  27
ATOM     27  C   UNL A   1      34.339  33.304  29.305  1.00  0.00     0.337 C 
ATOM     28  O   UNL A   1      33.984  33.467  30.454  1.00  0.00    -0.246 OA
BRANCH  27  29
ATOM     29  O   UNL A   1      34.611  34.291  28.406  1.00  0.00    -0.465 OA
ATOM     30  C   UNL A   1      34.011  35.554  28.703  1.00  0.00     0.282 C 
ENDBRANCH  27  29
ENDBRANCH  19  27
ENDBRANCH  10  18
ENDBRANCH   8   9
ENDBRANCH   7   8
ENDBRANCH   5   7
ENDBRANCH   4   5
ENDBRANCH   3   4
ENDBRANCH   2   3
ENDBRANCH   1   2
BRANCH   1  31
ATOM     31  C   UNL A   1      34.614  24.456  23.714  1.00  0.00     0.188 C 
BRANCH  31  32
ATOM     32  C   UNL A   1      35.430  23.239  24.112  1.00  0.00     0.188 C 
BRANCH  32  33
ATOM     33  O   UNL A   1      35.280  22.521  25.317  1.00  0.00    -0.376 OA
BRANCH  33  34
ATOM     34  C   UNL A   1      35.903  21.236  25.350  1.00  0.00     0.202 C 
BRANCH  34  35
ATOM     35  C   UNL A   1      37.430  21.120  25.056  1.00  0.00     0.261 C 
BRANCH  35  36
ATOM     36  O   UNL A   1      38.217  22.273  25.428  1.00  0.00    -0.460 OA
BRANCH  36  37
ATOM     37  C   UNL A   1      39.240  22.046  26.305  1.00  0.00     0.338 C 
ATOM     38  O   UNL A   1      39.812  20.990  26.463  1.00  0.00    -0.246 OA
BRANCH  37  39
ATOM     39  C   UNL A   1      39.783  23.358  26.810  1.00  0.00     0.060 A 
ATOM     40  C   UNL A   1      40.981  23.477  27.527  1.00  0.00     0.016 A 
ATOM     41  C   UNL A   1      38.905  24.454  26.780  1.00  0.00     0.016 A 
ATOM     42  C   UNL A   1      41.208  24.618  28.319  1.00  0.00     0.010 A 
ATOM     43  C   UNL A   1      39.153  25.607  27.546  1.00  0.00     0.010 A 
ATOM     44  C   UNL A   1      40.283  25.686  28.364  1.00  0.00    -0.014 A 
BRANCH  44  45
ATOM     45  C   UNL A   1      40.699  26.966  28.997  1.00  0.00     0.031 A 
ATOM     46  C   UNL A   1      41.938  27.483  28.384  1.00  0.00     0.074 A 
ATOM     47  C   UNL A   1      40.111  27.761  29.927  1.00  0.00     0.049 A 
ATOM     48  N   UNL A   1      43.078  27.591  28.981  1.00  0.00    -0.248 NA
ATOM     49  C   UNL A   1      41.970  27.759  26.943  1.00  0.00     0.031 C 
ATOM     50  C   UNL A   1      38.874  27.524  30.634  1.00  0.00     0.029 A 
ATOM     51  N   UNL A   1      40.458  28.996  30.436  1.00  0.00    -0.354 N 
ATOM     52  C   UNL A   1      43.921  28.168  28.048  1.00  0.00     0.074 A 
ATOM     53  C   UNL A   1      43.249  28.098  26.775  1.00  0.00     0.031 C 
ATOM     54  C   UNL A   1      38.349  28.654  31.152  1.00  0.00     0.029 A 
ATOM     55  C   UNL A   1      39.404  29.647  31.089  1.00  0.00     0.049 A 
ATOM     56  H   UNL A   1      41.359  29.382  30.347  1.00  0.00     0.167 HD
ATOM     57  C   UNL A   1      44.972  28.920  28.463  1.00  0.00     0.037 A 
ATOM     58  C   UNL A   1      39.379  30.802  31.798  1.00  0.00     0.037 A 
ATOM     59  C   UNL A   1      45.261  28.733  29.858  1.00  0.00     0.049 A 
ATOM     60  C   UNL A   1      40.749  31.086  32.248  1.00  0.00     0.074 A 
ATOM     61  C   UNL A   1      45.988  27.854  30.629  1.00  0.00     0.029 A 
ATOM     62  N   UNL A   1      44.408  29.395  30.698  1.00  0.00    -0.354 N 
ATOM     63  N   UNL A   1      41.362  30.391  33.164  1.00  0.00    -0.248 NA
ATOM     64  C   UNL A   1      41.591  31.943  31.425  1.00  0.00     0.031 C 
ATOM     65  C   UNL A   1      45.489  27.966  31.962  1.00  0.00     0.029 A 
ATOM     66  C   UNL A   1      44.492  28.934  31.984  1.00  0.00     0.049 A 
ATOM     67  H   UNL A   1      43.806  30.118  30.410  1.00  0.00     0.167 HD
ATOM     68  C   UNL A   1      42.677  30.397  32.752  1.00  0.00     0.074 A 
ATOM     69  C   UNL A   1      42.789  31.484  31.789  1.00  0.00     0.031 C 
ATOM     70  C   UNL A   1      43.474  29.309  32.935  1.00  0.00     0.037 A 
BRANCH  57  71
ATOM     71  C   UNL A   1      45.417  30.154  27.735  1.00  0.00     0.064 A 
ATOM     72  C   UNL A   1      46.764  30.306  27.366  1.00  0.00     0.173 A 
ATOM     73  C   UNL A   1      44.613  31.312  27.641  1.00  0.00     0.173 A 
ATOM     74  F   UNL A   1      47.621  29.282  27.485  1.00  0.00    -0.203 F 
ATOM     75  C   UNL A   1      47.268  31.535  26.932  1.00  0.00     0.198 A 
ATOM     76  C   UNL A   1      45.104  32.520  27.158  1.00  0.00     0.198 A 
ATOM     77  F   UNL A   1      43.362  31.337  28.119  1.00  0.00    -0.203 F 
ATOM     78  F   UNL A   1      48.575  31.665  26.669  1.00  0.00    -0.200 F 
ATOM     79  C   UNL A   1      46.436  32.638  26.819  1.00  0.00     0.200 A 
ATOM     80  F   UNL A   1      44.291  33.584  27.091  1.00  0.00    -0.200 F 
ATOM     81  F   UNL A   1      46.924  33.823  26.431  1.00  0.00    -0.200 F 
ENDBRANCH  57  71
BRANCH  58  82
ATOM     82  C   UNL A   1      38.271  31.783  31.899  1.00  0.00     0.064 A 
ATOM     83  C   UNL A   1      37.581  31.985  33.106  1.00  0.00     0.173 A 
ATOM     84  C   UNL A   1      38.078  32.754  30.897  1.00  0.00     0.173 A 
ATOM     85  F   UNL A   1      37.708  31.108  34.113  1.00  0.00    -0.203 F 
ATOM     86  C   UNL A   1      36.814  33.134  33.328  1.00  0.00     0.198 A 
ATOM     87  C   UNL A   1      37.313  33.900  31.120  1.00  0.00     0.198 A 
ATOM     88  F   UNL A   1      38.711  32.660  29.718  1.00  0.00    -0.203 F 
ATOM     89  F   UNL A   1      36.242  33.336  34.523  1.00  0.00    -0.200 F 
ATOM     90  C   UNL A   1      36.704  34.102  32.344  1.00  0.00     0.200 A 
ATOM     91  F   UNL A   1      37.233  34.840  30.167  1.00  0.00    -0.200 F 
ATOM     92  F   UNL A   1      36.050  35.247  32.589  1.00  0.00    -0.200 F 
ENDBRANCH  58  82
BRANCH  70  93
ATOM     93  C   UNL A   1      43.177  28.404  34.086  1.00  0.00     0.064 A 
ATOM     94  C   UNL A   1      42.193  27.405  34.086  1.00  0.00     0.173 A 
ATOM     95  C   UNL A   1      43.984  28.526  35.225  1.00  0.00     0.173 A 
ATOM     96  F   UNL A   1      41.425  27.195  33.006  1.00  0.00    -0.203 F 
ATOM     97  C   UNL A   1      42.016  26.578  35.198  1.00  0.00     0.198 A 
ATOM     98  C   UNL A   1      43.826  27.682  36.319  1.00  0.00     0.198 A 
ATOM     99  F   UNL A   1      44.956  29.452  35.264  1.00  0.00    -0.203 F 
ATOM    100  F   UNL A   1      41.065  25.633  35.193  1.00  0.00    -0.200 F 
ATOM    101  C   UNL A   1      42.838  26.713  36.308  1.00  0.00     0.200 A 
ATOM    102  F   UNL A   1      44.646  27.798  37.372  1.00  0.00    -0.200 F 
ATOM    103  F   UNL A   1      42.692  25.897  37.362  1.00  0.00    -0.200 F 
ENDBRANCH  70  93
ENDBRANCH  44  45
ENDBRANCH  37  39
ENDBRANCH  36  37
ENDBRANCH  35  36
ENDBRANCH  34  35
ENDBRANCH  33  34
ENDBRANCH  32  33
ENDBRANCH  31  32
ENDBRANCH   1  31
TORSDOF 22
ENDMDL
MODEL 3
REMARK VINA RESULT:     -11.3      1.653      4.151
REMARK SMILES COC(=O)c1ccc2c(c1)=N[C@H](c1cn(CCC(=O)OCCOCCOCCOC(=O)c3ccc(-c4c5nc(c(-c6c(F)c(F)c(F)c(F)c6F)c6ccc([nH]6)c(-c6c(F)c(F)c(F)c(F)c6F)c6nc(c(-c7c(F)c(F)c(F)c(F)c7F)c7ccc4[nH]7)C=C6)C=C5)cc3)c3ccccc13)N=2
REMARK SMILES IDX 23 1 22 2 21 3 20 4 18 5 19 6 17 7 16 8 15 9 13 10 14 11
REMARK SMILES IDX 100 12 95 13 99 14 96 15 98 16 97 17 12 18 5 19 6 20 10 21
REMARK SMILES IDX 7 22 9 23 8 24 11 25 101 26 3 27 4 28 2 29 1 30 24 31 25 32
REMARK SMILES IDX 26 33 27 34 28 35 29 36 30 37 31 38 32 39 33 40 94 41 34 42
REMARK SMILES IDX 93 43 35 44 36 45 37 46 87 47 38 48 92 49 86 50 88 51 39 52
REMARK SMILES IDX 91 53 85 54 84 55 40 57 72 58 52 59 71 60 53 61 56 62 70 63
REMARK SMILES IDX 89 64 54 65 55 66 69 68 90 69 57 70 41 71 42 72 50 73 43 74
REMARK SMILES IDX 44 75 48 76 51 77 45 78 46 79 49 80 47 81 73 82 74 83 82 84
REMARK SMILES IDX 75 85 76 86 80 87 83 88 77 89 78 90 81 91 79 92 58 93 59 94
REMARK SMILES IDX 67 95 60 96 61 97 65 98 68 99 62 100 63 101 66 102 64 103
REMARK H PARENT 88 56 56 67
REMARK Flexibility Score: inf
ROOT
ATOM      1  O   UNL A   1      39.131  21.786  26.485  1.00  0.00    -0.376 OA
ENDROOT
BRANCH   1   2
ATOM      2  C   UNL A   1      38.143  22.529  25.765  1.00  0.00     0.202 C 
BRANCH   2   3
ATOM      3  C   UNL A   1      36.811  21.805  25.543  1.00  0.00     0.261 C 
BRANCH   3   4
ATOM      4  O   UNL A   1      35.734  22.689  25.954  1.00  0.00    -0.463 OA
BRANCH   4   5
ATOM      5  C   UNL A   1      34.679  22.082  26.522  1.00  0.00     0.307 C 
ATOM      6  O   UNL A   1      34.290  22.328  27.665  1.00  0.00    -0.252 OA
BRANCH   5   7
ATOM      7  C   UNL A   1      33.795  21.276  25.597  1.00  0.00     0.144 C 
BRANCH   7   8
ATOM      8  C   UNL A   1      32.804  21.656  24.520  1.00  0.00     0.134 C 
BRANCH   8   9
ATOM      9  N   UNL A   1      32.263  22.966  24.704  1.00  0.00    -0.346 N 
ATOM     10  C   UNL A   1      30.714  24.490  24.723  1.00  0.00     0.024 A 
ATOM     11  C   UNL A   1      31.085  23.286  25.314  1.00  0.00     0.094 A 
ATOM     12  C   UNL A   1      31.518  24.592  23.545  1.00  0.00     0.007 A 
ATOM     13  C   UNL A   1      32.704  24.050  24.003  1.00  0.00     0.048 A 
ATOM     14  C   UNL A   1      31.554  25.376  22.388  1.00  0.00     0.011 A 
ATOM     15  C   UNL A   1      33.954  24.556  23.675  1.00  0.00     0.027 A 
ATOM     16  C   UNL A   1      32.804  25.822  21.948  1.00  0.00     0.001 A 
ATOM     17  C   UNL A   1      33.966  25.513  22.662  1.00  0.00     0.002 A 
BRANCH  10  18
ATOM     18  C   UNL A   1      29.980  25.618  25.395  1.00  0.00     0.255 C 
ATOM     19  C   UNL A   1      32.502  29.223  26.482  1.00  0.00     0.062 A 
ATOM     20  C   UNL A   1      31.924  29.689  25.226  1.00  0.00     0.018 A 
ATOM     21  C   UNL A   1      32.258  27.993  26.969  1.00  0.00     0.046 A 
ATOM     22  C   UNL A   1      31.100  28.948  24.469  1.00  0.00     0.031 A 
ATOM     23  C   UNL A   1      31.308  27.142  26.238  1.00  0.00     0.087 A 
ATOM     24  C   UNL A   1      30.728  27.619  24.966  1.00  0.00     0.086 A 
ATOM     25  N   UNL A   1      30.808  26.008  26.588  1.00  0.00    -0.252 NA
ATOM     26  N   UNL A   1      29.872  26.791  24.479  1.00  0.00    -0.252 NA
BRANCH  19  27
ATOM     27  C   UNL A   1      33.399  30.101  27.305  1.00  0.00     0.337 C 
ATOM     28  O   UNL A   1      33.291  31.306  27.393  1.00  0.00    -0.246 OA
BRANCH  27  29
ATOM     29  O   UNL A   1      34.367  29.340  27.887  1.00  0.00    -0.465 OA
ATOM     30  C   UNL A   1      35.672  29.496  27.323  1.00  0.00     0.282 C 
ENDBRANCH  27  29
ENDBRANCH  19  27
ENDBRANCH  10  18
ENDBRANCH   8   9
ENDBRANCH   7   8
ENDBRANCH   5   7
ENDBRANCH   4   5
ENDBRANCH   3   4
ENDBRANCH   2   3
ENDBRANCH   1   2
BRANCH   1  31
ATOM     31  C   UNL A   1      40.050  22.567  27.214  1.00  0.00     0.188 C 
BRANCH  31  32
ATOM     32  C   UNL A   1      41.160  21.813  27.927  1.00  0.00     0.188 C 
BRANCH  32  33
ATOM     33  O   UNL A   1      41.840  20.690  27.411  1.00  0.00    -0.376 OA
BRANCH  33  34
ATOM     34  C   UNL A   1      42.398  20.855  26.106  1.00  0.00     0.202 C 
BRANCH  34  35
ATOM     35  C   UNL A   1      43.761  21.597  25.947  1.00  0.00     0.261 C 
BRANCH  35  36
ATOM     36  O   UNL A   1      43.775  22.964  26.414  1.00  0.00    -0.460 OA
BRANCH  36  37
ATOM     37  C   UNL A   1      43.230  23.893  25.574  1.00  0.00     0.338 C 
ATOM     38  O   UNL A   1      42.958  23.715  24.407  1.00  0.00    -0.246 OA
BRANCH  37  39
ATOM     39  C   UNL A   1      42.708  25.062  26.369  1.00  0.00     0.060 A 
ATOM     40  C   UNL A   1      41.725  25.943  25.899  1.00  0.00     0.016 A 
ATOM     41  C   UNL A   1      43.438  25.418  27.515  1.00  0.00     0.016 A 
ATOM     42  C   UNL A   1      41.596  27.217  26.482  1.00  0.00     0.010 A 
ATOM     43  C   UNL A   1      43.281  26.679  28.116  1.00  0.00     0.010 A 
ATOM     44  C   UNL A   1      42.394  27.615  27.580  1.00  0.00    -0.014 A 
BRANCH  44  45
ATOM     45  C   UNL A   1      42.029  28.855  28.317  1.00  0.00     0.031 A 
ATOM     46  C   UNL A   1      43.045  29.907  28.117  1.00  0.00     0.074 A 
ATOM     47  C   UNL A   1      40.926  29.209  29.023  1.00  0.00     0.049 A 
ATOM     48  N   UNL A   1      43.813  30.386  29.037  1.00  0.00    -0.248 NA
ATOM     49  C   UNL A   1      43.353  30.365  26.757  1.00  0.00     0.031 C 
ATOM     50  C   UNL A   1      39.767  28.397  29.313  1.00  0.00     0.029 A 
ATOM     51  N   UNL A   1      40.556  30.397  29.620  1.00  0.00    -0.354 N 
ATOM     52  C   UNL A   1      44.550  31.376  28.413  1.00  0.00     0.074 A 
ATOM     53  C   UNL A   1      44.356  31.213  26.995  1.00  0.00     0.031 C 
ATOM     54  C   UNL A   1      38.689  29.135  29.649  1.00  0.00     0.029 A 
ATOM     55  C   UNL A   1      39.190  30.470  29.919  1.00  0.00     0.049 A 
ATOM     56  H   UNL A   1      41.190  31.123  29.815  1.00  0.00     0.167 HD
ATOM     57  C   UNL A   1      45.019  32.426  29.134  1.00  0.00     0.037 A 
ATOM     58  C   UNL A   1      38.478  31.408  30.590  1.00  0.00     0.037 A 
ATOM     59  C   UNL A   1      44.961  32.185  30.549  1.00  0.00     0.049 A 
ATOM     60  C   UNL A   1      39.411  32.159  31.442  1.00  0.00     0.074 A 
ATOM     61  C   UNL A   1      45.749  31.580  31.504  1.00  0.00     0.029 A 
ATOM     62  N   UNL A   1      43.712  32.324  31.089  1.00  0.00    -0.354 N 
ATOM     63  N   UNL A   1      39.981  31.655  32.500  1.00  0.00    -0.248 NA
ATOM     64  C   UNL A   1      39.997  33.387  30.923  1.00  0.00     0.031 C 
ATOM     65  C   UNL A   1      44.902  31.298  32.619  1.00  0.00     0.029 A 
ATOM     66  C   UNL A   1      43.625  31.766  32.336  1.00  0.00     0.049 A 
ATOM     67  H   UNL A   1      42.964  32.772  30.633  1.00  0.00     0.167 HD
ATOM     68  C   UNL A   1      41.225  32.249  32.513  1.00  0.00     0.074 A 
ATOM     69  C   UNL A   1      41.123  33.408  31.636  1.00  0.00     0.031 C 
ATOM     70  C   UNL A   1      42.325  31.564  32.928  1.00  0.00     0.037 A 
BRANCH  57  71
ATOM     71  C   UNL A   1      45.077  33.820  28.585  1.00  0.00     0.064 A 
ATOM     72  C   UNL A   1      43.890  34.534  28.350  1.00  0.00     0.173 A 
ATOM     73  C   UNL A   1      46.251  34.365  28.018  1.00  0.00     0.173 A 
ATOM     74  F   UNL A   1      42.714  34.060  28.789  1.00  0.00    -0.203 F 
ATOM     75  C   UNL A   1      43.883  35.713  27.601  1.00  0.00     0.198 A 
ATOM     76  C   UNL A   1      46.249  35.568  27.318  1.00  0.00     0.198 A 
ATOM     77  F   UNL A   1      47.411  33.696  28.029  1.00  0.00    -0.203 F 
ATOM     78  F   UNL A   1      42.721  36.322  27.326  1.00  0.00    -0.200 F 
ATOM     79  C   UNL A   1      45.063  36.234  27.094  1.00  0.00     0.200 A 
ATOM     80  F   UNL A   1      47.397  36.035  26.806  1.00  0.00    -0.200 F 
ATOM     81  F   UNL A   1      45.053  37.349  26.352  1.00  0.00    -0.200 F 
ENDBRANCH  57  71
BRANCH  58  82
ATOM     82  C   UNL A   1      37.077  31.831  30.349  1.00  0.00     0.064 A 
ATOM     83  C   UNL A   1      36.126  31.838  31.383  1.00  0.00     0.173 A 
ATOM     84  C   UNL A   1      36.730  32.527  29.175  1.00  0.00     0.173 A 
ATOM     85  F   UNL A   1      36.376  31.199  32.536  1.00  0.00    -0.203 F 
ATOM     86  C   UNL A   1      34.938  32.569  31.282  1.00  0.00     0.198 A 
ATOM     87  C   UNL A   1      35.544  33.256  29.074  1.00  0.00     0.198 A 
ATOM     88  F   UNL A   1      37.580  32.596  28.140  1.00  0.00    -0.203 F 
ATOM     89  F   UNL A   1      34.095  32.625  32.322  1.00  0.00    -0.200 F 
ATOM     90  C   UNL A   1      34.662  33.299  30.137  1.00  0.00     0.200 A 
ATOM     91  F   UNL A   1      35.299  33.977  27.970  1.00  0.00    -0.200 F 
ATOM     92  F   UNL A   1      33.571  34.077  30.075  1.00  0.00    -0.200 F 
ENDBRANCH  58  82
BRANCH  70  93
ATOM     93  C   UNL A   1      42.137  30.469  33.927  1.00  0.00     0.064 A 
ATOM     94  C   UNL A   1      41.754  29.156  33.616  1.00  0.00     0.173 A 
ATOM     95  C   UNL A   1      42.425  30.765  35.267  1.00  0.00     0.173 A 
ATOM     96  F   UNL A   1      41.521  28.791  32.346  1.00  0.00    -0.203 F 
ATOM     97  C   UNL A   1      41.645  28.189  34.617  1.00  0.00     0.198 A 
ATOM     98  C   UNL A   1      42.344  29.792  36.257  1.00  0.00     0.198 A 
ATOM     99  F   UNL A   1      42.819  32.001  35.613  1.00  0.00    -0.203 F 
ATOM    100  F   UNL A   1      41.267  26.939  34.310  1.00  0.00    -0.200 F 
ATOM    101  C   UNL A   1      41.948  28.505  35.933  1.00  0.00     0.200 A 
ATOM    102  F   UNL A   1      42.671  30.099  37.520  1.00  0.00    -0.200 F 
ATOM    103  F   UNL A   1      41.877  27.568  36.889  1.00  0.00    -0.200 F 
ENDBRANCH  70  93
ENDBRANCH  44  45
ENDBRANCH  37  39
ENDBRANCH  36  37
ENDBRANCH  35  36
ENDBRANCH  34  35
ENDBRANCH  33  34
ENDBRANCH  32  33
ENDBRANCH  31  32
ENDBRANCH   1  31
TORSDOF 22
ENDMDL
