MODEL 1
REMARK VINA RESULT:     -12.0      0.000      0.000
REMARK SMILES C[C@H]1[C@H](C)CC[C@@]2(C(=O)OCCOCCOCCOC(=O)c3ccc(-c4c5nc(c(-c6c(F)c(F)c(F)c(F)c6F)c6ccc([nH]6)c(-c6c(F)c(F)c(F)c(F)c6F)c6nc(c(-c7c(F)c(F)c(F)c(F)c7F)c7ccc4[nH]7)C=C6)C=C5)cc3)CC[C@@]3(C)C(=CC[C@@H]4[C@@]5(C)CC[C@H](O)C(C)(C)[C@@H]5CC[C@]43C)[C@H]12
REMARK SMILES IDX 15 1 14 2 13 3 12 4 11 5 10 6 8 7 9 8 7 9 1 10 2 11 3 12
REMARK SMILES IDX 107 13 4 14 5 15 89 16 6 17 85 18 87 19 90 20 86 21 88 22
REMARK SMILES IDX 105 23 91 24 92 25 104 26 106 27 93 28 103 29 94 30 95 31
REMARK SMILES IDX 102 32 96 33 99 34 97 35 100 36 101 37 98 38 16 40 17 41
REMARK SMILES IDX 18 42 19 43 20 44 21 45 22 46 23 47 84 48 24 49 83 50 25 51
REMARK SMILES IDX 26 52 27 53 77 54 28 55 82 56 76 57 78 58 29 59 81 60 75 61
REMARK SMILES IDX 74 62 30 64 62 65 42 66 61 67 43 68 46 69 60 70 79 71 44 72
REMARK SMILES IDX 45 73 59 75 80 76 47 77 31 78 32 79 40 80 33 81 34 82 38 83
REMARK SMILES IDX 41 84 35 85 36 86 39 87 37 88 63 89 64 90 72 91 65 92 66 93
REMARK SMILES IDX 70 94 73 95 67 96 68 97 71 98 69 99 48 100 49 101 57 102
REMARK SMILES IDX 50 103 51 104 55 105 58 106 52 107 53 108 56 109 54 110
REMARK H PARENT 98 39 78 63 46 74
REMARK Flexibility Score: inf
ROOT
ATOM      1  C   UNL A   1      34.393  32.318  27.732  1.00  0.00     0.188 C 
ENDROOT
BRANCH   1   2
ATOM      2  C   UNL A   1      34.579  30.776  27.610  1.00  0.00     0.188 C 
BRANCH   2   3
ATOM      3  O   UNL A   1      33.887  30.195  26.529  1.00  0.00    -0.376 OA
BRANCH   3   4
ATOM      4  C   UNL A   1      34.406  28.953  26.122  1.00  0.00     0.202 C 
BRANCH   4   5
ATOM      5  C   UNL A   1      34.288  28.579  24.648  1.00  0.00     0.261 C 
BRANCH   5   6
ATOM      6  O   UNL A   1      33.112  27.842  24.091  1.00  0.00    -0.463 OA
BRANCH   6   7
ATOM      7  C   UNL A   1      31.842  27.854  23.605  1.00  0.00     0.312 C 
ATOM      8  O   UNL A   1      31.447  27.455  22.517  1.00  0.00    -0.252 OA
BRANCH   7   9
ATOM      9  C   UNL A   1      30.837  28.344  24.689  1.00  0.00     0.075 C 
ATOM     10  C   UNL A   1      27.309  27.828  22.925  1.00  0.00     0.008 C 
ATOM     11  C   UNL A   1      28.739  28.308  23.173  1.00  0.00    -0.003 C 
ATOM     12  C   UNL A   1      28.875  29.870  23.016  1.00  0.00    -0.011 C 
ATOM     13  C   UNL A   1      29.450  27.663  24.477  1.00  0.00     0.036 C 
ATOM     14  C   UNL A   1      28.559  30.365  21.588  1.00  0.00     0.008 C 
ATOM     15  C   UNL A   1      30.275  30.410  23.321  1.00  0.00     0.005 C 
ATOM     16  C   UNL A   1      29.811  26.107  24.599  1.00  0.00    -0.063 C 
ATOM     17  C   UNL A   1      30.810  29.881  24.623  1.00  0.00     0.020 C 
ATOM     18  C   UNL A   1      31.338  28.034  26.119  1.00  0.00     0.020 C 
ATOM     19  C   UNL A   1      30.510  25.586  25.929  1.00  0.00    -0.006 C 
ATOM     20  C   UNL A   1      29.811  25.311  23.509  1.00  0.00    -0.027 C 
ATOM     21  C   UNL A   1      31.627  26.569  26.374  1.00  0.00     0.013 C 
ATOM     22  C   UNL A   1      29.426  25.581  27.034  1.00  0.00     0.017 C 
ATOM     23  C   UNL A   1      31.178  24.073  25.765  1.00  0.00    -0.020 C 
ATOM     24  C   UNL A   1      30.757  24.143  23.331  1.00  0.00     0.032 C 
ATOM     25  C   UNL A   1      31.902  24.091  24.375  1.00  0.00     0.006 C 
ATOM     26  C   UNL A   1      32.187  23.674  26.876  1.00  0.00     0.008 C 
ATOM     27  C   UNL A   1      30.063  22.985  25.826  1.00  0.00     0.012 C 
ATOM     28  C   UNL A   1      33.101  23.060  24.060  1.00  0.00    -0.025 C 
ATOM     29  C   UNL A   1      33.005  22.404  26.543  1.00  0.00     0.005 C 
ATOM     30  C   UNL A   1      32.541  21.860  23.273  1.00  0.00     0.012 C 
ATOM     31  C   UNL A   1      34.164  23.763  23.142  1.00  0.00     0.010 C 
ATOM     32  C   UNL A   1      33.923  22.679  25.347  1.00  0.00     0.003 C 
ATOM     33  C   UNL A   1      35.438  22.952  22.869  1.00  0.00     0.033 C 
ATOM     34  C   UNL A   1      35.146  21.685  25.116  1.00  0.00    -0.006 C 
ATOM     35  C   UNL A   1      36.113  22.406  24.130  1.00  0.00     0.120 C 
ATOM     36  C   UNL A   1      34.780  20.271  24.619  1.00  0.00     0.014 C 
ATOM     37  C   UNL A   1      35.934  21.435  26.427  1.00  0.00     0.014 C 
BRANCH  35  38
ATOM     38  O   UNL A   1      37.223  21.591  23.755  1.00  0.00    -0.393 OA
ATOM     39  H   UNL A   1      38.049  22.038  23.997  1.00  0.00     0.210 HD
ENDBRANCH  35  38
ENDBRANCH   7   9
ENDBRANCH   6   7
ENDBRANCH   5   6
ENDBRANCH   4   5
ENDBRANCH   3   4
ENDBRANCH   2   3
ENDBRANCH   1   2
BRANCH   1  40
ATOM     40  O   UNL A   1      33.704  32.855  28.850  1.00  0.00    -0.376 OA
BRANCH  40  41
ATOM     41  C   UNL A   1      34.163  34.079  29.383  1.00  0.00     0.202 C 
BRANCH  41  42
ATOM     42  C   UNL A   1      34.381  34.137  30.903  1.00  0.00     0.261 C 
BRANCH  42  43
ATOM     43  O   UNL A   1      34.415  32.874  31.616  1.00  0.00    -0.460 OA
BRANCH  43  44
ATOM     44  C   UNL A   1      35.475  32.642  32.444  1.00  0.00     0.338 C 
ATOM     45  O   UNL A   1      35.604  33.070  33.574  1.00  0.00    -0.246 OA
BRANCH  44  46
ATOM     46  C   UNL A   1      36.432  31.646  31.852  1.00  0.00     0.060 A 
ATOM     47  C   UNL A   1      37.306  30.925  32.687  1.00  0.00     0.016 A 
ATOM     48  C   UNL A   1      36.537  31.475  30.475  1.00  0.00     0.016 A 
ATOM     49  C   UNL A   1      38.328  30.107  32.155  1.00  0.00     0.010 A 
ATOM     50  C   UNL A   1      37.566  30.671  29.946  1.00  0.00     0.010 A 
ATOM     51  C   UNL A   1      38.513  30.017  30.772  1.00  0.00    -0.014 A 
BRANCH  51  52
ATOM     52  C   UNL A   1      39.793  29.508  30.160  1.00  0.00     0.031 A 
ATOM     53  C   UNL A   1      40.888  30.523  29.901  1.00  0.00     0.074 A 
ATOM     54  C   UNL A   1      40.044  28.226  29.816  1.00  0.00     0.049 A 
ATOM     55  N   UNL A   1      42.012  30.404  29.236  1.00  0.00    -0.248 NA
ATOM     56  C   UNL A   1      40.676  31.861  30.478  1.00  0.00     0.031 C 
ATOM     57  C   UNL A   1      39.183  27.081  30.078  1.00  0.00     0.029 A 
ATOM     58  N   UNL A   1      41.110  27.677  29.121  1.00  0.00    -0.354 N 
ATOM     59  C   UNL A   1      42.618  31.653  29.295  1.00  0.00     0.074 A 
ATOM     60  C   UNL A   1      41.718  32.529  30.011  1.00  0.00     0.031 C 
ATOM     61  C   UNL A   1      39.705  25.986  29.488  1.00  0.00     0.029 A 
ATOM     62  C   UNL A   1      40.943  26.348  28.796  1.00  0.00     0.049 A 
ATOM     63  H   UNL A   1      41.914  28.191  28.880  1.00  0.00     0.167 HD
ATOM     64  C   UNL A   1      43.829  32.042  28.831  1.00  0.00     0.037 A 
ATOM     65  C   UNL A   1      41.680  25.525  28.016  1.00  0.00     0.037 A 
ATOM     66  C   UNL A   1      44.773  31.185  28.166  1.00  0.00     0.049 A 
ATOM     67  C   UNL A   1      42.975  26.013  27.400  1.00  0.00     0.074 A 
ATOM     68  C   UNL A   1      46.050  31.492  27.729  1.00  0.00     0.029 A 
ATOM     69  N   UNL A   1      44.546  29.860  27.839  1.00  0.00    -0.354 N 
ATOM     70  N   UNL A   1      43.561  27.178  27.511  1.00  0.00    -0.248 NA
ATOM     71  C   UNL A   1      43.730  25.052  26.574  1.00  0.00     0.031 C 
ATOM     72  C   UNL A   1      46.576  30.369  27.085  1.00  0.00     0.029 A 
ATOM     73  C   UNL A   1      45.650  29.344  27.178  1.00  0.00     0.049 A 
ATOM     74  H   UNL A   1      43.724  29.359  28.044  1.00  0.00     0.167 HD
ATOM     75  C   UNL A   1      44.774  27.066  26.839  1.00  0.00     0.074 A 
ATOM     76  C   UNL A   1      44.842  25.723  26.312  1.00  0.00     0.031 C 
ATOM     77  C   UNL A   1      45.750  27.995  26.690  1.00  0.00     0.037 A 
BRANCH  64  78
ATOM     78  C   UNL A   1      44.217  33.476  29.028  1.00  0.00     0.064 A 
ATOM     79  C   UNL A   1      44.893  33.905  30.181  1.00  0.00     0.173 A 
ATOM     80  C   UNL A   1      43.958  34.422  28.026  1.00  0.00     0.173 A 
ATOM     81  F   UNL A   1      45.154  33.040  31.173  1.00  0.00    -0.203 F 
ATOM     82  C   UNL A   1      45.273  35.235  30.332  1.00  0.00     0.198 A 
ATOM     83  C   UNL A   1      44.369  35.744  28.166  1.00  0.00     0.198 A 
ATOM     84  F   UNL A   1      43.322  34.060  26.901  1.00  0.00    -0.203 F 
ATOM     85  F   UNL A   1      45.877  35.632  31.461  1.00  0.00    -0.200 F 
ATOM     86  C   UNL A   1      45.020  36.150  29.321  1.00  0.00     0.200 A 
ATOM     87  F   UNL A   1      44.140  36.623  27.182  1.00  0.00    -0.200 F 
ATOM     88  F   UNL A   1      45.402  37.427  29.462  1.00  0.00    -0.200 F 
ENDBRANCH  64  78
BRANCH  65  89
ATOM     89  C   UNL A   1      41.238  24.126  27.734  1.00  0.00     0.064 A 
ATOM     90  C   UNL A   1      41.910  23.024  28.286  1.00  0.00     0.173 A 
ATOM     91  C   UNL A   1      40.222  23.860  26.804  1.00  0.00     0.173 A 
ATOM     92  F   UNL A   1      42.925  23.221  29.140  1.00  0.00    -0.203 F 
ATOM     93  C   UNL A   1      41.606  21.719  27.895  1.00  0.00     0.198 A 
ATOM     94  C   UNL A   1      39.894  22.553  26.440  1.00  0.00     0.198 A 
ATOM     95  F   UNL A   1      39.573  24.871  26.214  1.00  0.00    -0.203 F 
ATOM     96  F   UNL A   1      42.323  20.694  28.375  1.00  0.00    -0.200 F 
ATOM     97  C   UNL A   1      40.597  21.485  26.974  1.00  0.00     0.200 A 
ATOM     98  F   UNL A   1      38.920  22.332  25.546  1.00  0.00    -0.200 F 
ATOM     99  F   UNL A   1      40.320  20.233  26.583  1.00  0.00    -0.200 F 
ENDBRANCH  65  89
BRANCH  77 100
ATOM    100  C   UNL A   1      47.029  27.584  26.015  1.00  0.00     0.064 A 
ATOM    101  C   UNL A   1      48.119  27.061  26.726  1.00  0.00     0.173 A 
ATOM    102  C   UNL A   1      47.142  27.664  24.616  1.00  0.00     0.173 A 
ATOM    103  F   UNL A   1      48.070  26.971  28.064  1.00  0.00    -0.203 F 
ATOM    104  C   UNL A   1      49.279  26.658  26.068  1.00  0.00     0.198 A 
ATOM    105  C   UNL A   1      48.290  27.228  23.959  1.00  0.00     0.198 A 
ATOM    106  F   UNL A   1      46.129  28.148  23.882  1.00  0.00    -0.203 F 
ATOM    107  F   UNL A   1      50.324  26.206  26.775  1.00  0.00    -0.200 F 
ATOM    108  C   UNL A   1      49.360  26.733  24.685  1.00  0.00     0.200 A 
ATOM    109  F   UNL A   1      48.358  27.286  22.621  1.00  0.00    -0.200 F 
ATOM    110  F   UNL A   1      50.473  26.333  24.055  1.00  0.00    -0.200 F 
ENDBRANCH  77 100
ENDBRANCH  51  52
ENDBRANCH  44  46
ENDBRANCH  43  44
ENDBRANCH  42  43
ENDBRANCH  41  42
ENDBRANCH  40  41
ENDBRANCH   1  40
TORSDOF 18
ENDMDL
MODEL 2
REMARK VINA RESULT:     -12.0      4.580      6.617
REMARK SMILES C[C@H]1[C@H](C)CC[C@@]2(C(=O)OCCOCCOCCOC(=O)c3ccc(-c4c5nc(c(-c6c(F)c(F)c(F)c(F)c6F)c6ccc([nH]6)c(-c6c(F)c(F)c(F)c(F)c6F)c6nc(c(-c7c(F)c(F)c(F)c(F)c7F)c7ccc4[nH]7)C=C6)C=C5)cc3)CC[C@@]3(C)C(=CC[C@@H]4[C@@]5(C)CC[C@H](O)C(C)(C)[C@@H]5CC[C@]43C)[C@H]12
REMARK SMILES IDX 15 1 14 2 13 3 12 4 11 5 10 6 8 7 9 8 7 9 1 10 2 11 3 12
REMARK SMILES IDX 107 13 4 14 5 15 89 16 6 17 85 18 87 19 90 20 86 21 88 22
REMARK SMILES IDX 105 23 91 24 92 25 104 26 106 27 93 28 103 29 94 30 95 31
REMARK SMILES IDX 102 32 96 33 99 34 97 35 100 36 101 37 98 38 16 40 17 41
REMARK SMILES IDX 18 42 19 43 20 44 21 45 22 46 23 47 84 48 24 49 83 50 25 51
REMARK SMILES IDX 26 52 27 53 77 54 28 55 82 56 76 57 78 58 29 59 81 60 75 61
REMARK SMILES IDX 74 62 30 64 62 65 42 66 61 67 43 68 46 69 60 70 79 71 44 72
REMARK SMILES IDX 45 73 59 75 80 76 47 77 31 78 32 79 40 80 33 81 34 82 38 83
REMARK SMILES IDX 41 84 35 85 36 86 39 87 37 88 63 89 64 90 72 91 65 92 66 93
REMARK SMILES IDX 70 94 73 95 67 96 68 97 71 98 69 99 48 100 49 101 57 102
REMARK SMILES IDX 50 103 51 104 55 105 58 106 52 107 53 108 56 109 54 110
REMARK H PARENT 98 39 78 63 46 74
REMARK Flexibility Score: inf
ROOT
ATOM      1  C   UNL A   1      35.129  32.708  27.994  1.00  0.00     0.188 C 
ENDROOT
BRANCH   1   2
ATOM      2  C   UNL A   1      34.956  31.160  28.035  1.00  0.00     0.188 C 
BRANCH   2   3
ATOM      3  O   UNL A   1      34.208  30.634  26.962  1.00  0.00    -0.376 OA
BRANCH   3   4
ATOM      4  C   UNL A   1      34.330  29.241  26.814  1.00  0.00     0.202 C 
BRANCH   4   5
ATOM      5  C   UNL A   1      34.517  28.687  25.406  1.00  0.00     0.261 C 
BRANCH   5   6
ATOM      6  O   UNL A   1      33.421  28.004  24.651  1.00  0.00    -0.463 OA
BRANCH   6   7
ATOM      7  C   UNL A   1      32.225  28.064  24.006  1.00  0.00     0.312 C 
ATOM      8  O   UNL A   1      31.984  27.786  22.838  1.00  0.00    -0.252 OA
BRANCH   7   9
ATOM      9  C   UNL A   1      31.078  28.424  24.996  1.00  0.00     0.075 C 
ATOM     10  C   UNL A   1      27.817  28.036  22.751  1.00  0.00     0.008 C 
ATOM     11  C   UNL A   1      29.190  28.511  23.228  1.00  0.00    -0.003 C 
ATOM     12  C   UNL A   1      29.300  30.082  23.246  1.00  0.00    -0.011 C 
ATOM     13  C   UNL A   1      29.749  27.746  24.540  1.00  0.00     0.036 C 
ATOM     14  C   UNL A   1      29.152  30.717  21.846  1.00  0.00     0.008 C 
ATOM     15  C   UNL A   1      30.634  30.610  23.781  1.00  0.00     0.005 C 
ATOM     16  C   UNL A   1      30.136  26.191  24.552  1.00  0.00    -0.063 C 
ATOM     17  C   UNL A   1      31.015  29.959  25.081  1.00  0.00     0.020 C 
ATOM     18  C   UNL A   1      31.404  27.976  26.441  1.00  0.00     0.020 C 
ATOM     19  C   UNL A   1      30.676  25.548  25.902  1.00  0.00    -0.006 C 
ATOM     20  C   UNL A   1      30.296  25.512  23.397  1.00  0.00    -0.027 C 
ATOM     21  C   UNL A   1      31.700  26.497  26.582  1.00  0.00     0.013 C 
ATOM     22  C   UNL A   1      29.463  25.412  26.852  1.00  0.00     0.017 C 
ATOM     23  C   UNL A   1      31.403  24.070  25.675  1.00  0.00    -0.020 C 
ATOM     24  C   UNL A   1      31.290  24.384  23.225  1.00  0.00     0.032 C 
ATOM     25  C   UNL A   1      32.296  24.242  24.398  1.00  0.00     0.006 C 
ATOM     26  C   UNL A   1      32.275  23.575  26.860  1.00  0.00     0.008 C 
ATOM     27  C   UNL A   1      30.321  22.965  25.482  1.00  0.00     0.012 C 
ATOM     28  C   UNL A   1      33.554  23.268  24.137  1.00  0.00    -0.025 C 
ATOM     29  C   UNL A   1      33.165  22.359  26.509  1.00  0.00     0.005 C 
ATOM     30  C   UNL A   1      33.132  22.146  23.169  1.00  0.00     0.012 C 
ATOM     31  C   UNL A   1      34.703  24.079  23.439  1.00  0.00     0.010 C 
ATOM     32  C   UNL A   1      34.217  22.770  25.475  1.00  0.00     0.003 C 
ATOM     33  C   UNL A   1      36.025  23.320  23.251  1.00  0.00     0.033 C 
ATOM     34  C   UNL A   1      35.488  21.824  25.304  1.00  0.00    -0.006 C 
ATOM     35  C   UNL A   1      36.550  22.657  24.528  1.00  0.00     0.120 C 
ATOM     36  C   UNL A   1      35.228  20.463  24.626  1.00  0.00     0.014 C 
ATOM     37  C   UNL A   1      36.111  21.453  26.674  1.00  0.00     0.014 C 
BRANCH  35  38
ATOM     38  O   UNL A   1      37.722  21.903  24.218  1.00  0.00    -0.393 OA
ATOM     39  H   UNL A   1      37.611  21.473  23.356  1.00  0.00     0.210 HD
ENDBRANCH  35  38
ENDBRANCH   7   9
ENDBRANCH   6   7
ENDBRANCH   5   6
ENDBRANCH   4   5
ENDBRANCH   3   4
ENDBRANCH   2   3
ENDBRANCH   1   2
BRANCH   1  40
ATOM     40  O   UNL A   1      34.046  33.545  28.369  1.00  0.00    -0.376 OA
BRANCH  40  41
ATOM     41  C   UNL A   1      34.309  34.918  28.559  1.00  0.00     0.202 C 
BRANCH  41  42
ATOM     42  C   UNL A   1      33.187  35.762  29.186  1.00  0.00     0.261 C 
BRANCH  42  43
ATOM     43  O   UNL A   1      32.442  35.164  30.278  1.00  0.00    -0.460 OA
BRANCH  43  44
ATOM     44  C   UNL A   1      32.603  35.700  31.522  1.00  0.00     0.338 C 
ATOM     45  O   UNL A   1      31.877  36.525  32.043  1.00  0.00    -0.246 OA
BRANCH  44  46
ATOM     46  C   UNL A   1      33.721  35.033  32.273  1.00  0.00     0.060 A 
ATOM     47  C   UNL A   1      34.994  35.630  32.320  1.00  0.00     0.016 A 
ATOM     48  C   UNL A   1      33.551  33.783  32.860  1.00  0.00     0.016 A 
ATOM     49  C   UNL A   1      36.106  34.955  32.871  1.00  0.00     0.010 A 
ATOM     50  C   UNL A   1      34.664  33.105  33.396  1.00  0.00     0.010 A 
ATOM     51  C   UNL A   1      35.969  33.653  33.362  1.00  0.00    -0.014 A 
BRANCH  51  52
ATOM     52  C   UNL A   1      37.152  32.745  33.583  1.00  0.00     0.031 A 
ATOM     53  C   UNL A   1      37.999  32.997  34.814  1.00  0.00     0.074 A 
ATOM     54  C   UNL A   1      37.524  31.728  32.774  1.00  0.00     0.049 A 
ATOM     55  N   UNL A   1      39.158  32.492  35.161  1.00  0.00    -0.248 NA
ATOM     56  C   UNL A   1      37.453  33.960  35.785  1.00  0.00     0.031 C 
ATOM     57  C   UNL A   1      36.796  31.245  31.610  1.00  0.00     0.029 A 
ATOM     58  N   UNL A   1      38.660  30.935  32.797  1.00  0.00    -0.354 N 
ATOM     59  C   UNL A   1      39.485  33.096  36.370  1.00  0.00     0.074 A 
ATOM     60  C   UNL A   1      38.433  34.042  36.670  1.00  0.00     0.031 C 
ATOM     61  C   UNL A   1      37.528  30.301  30.985  1.00  0.00     0.029 A 
ATOM     62  C   UNL A   1      38.791  30.110  31.701  1.00  0.00     0.049 A 
ATOM     63  H   UNL A   1      39.316  30.959  33.530  1.00  0.00     0.167 HD
ATOM     64  C   UNL A   1      40.541  32.868  37.184  1.00  0.00     0.037 A 
ATOM     65  C   UNL A   1      39.810  29.316  31.303  1.00  0.00     0.037 A 
ATOM     66  C   UNL A   1      41.574  31.897  36.947  1.00  0.00     0.049 A 
ATOM     67  C   UNL A   1      41.045  29.166  32.168  1.00  0.00     0.074 A 
ATOM     68  C   UNL A   1      42.640  31.561  37.763  1.00  0.00     0.029 A 
ATOM     69  N   UNL A   1      41.674  31.109  35.813  1.00  0.00    -0.354 N 
ATOM     70  N   UNL A   1      41.313  29.700  33.333  1.00  0.00    -0.248 NA
ATOM     71  C   UNL A   1      42.107  28.270  31.674  1.00  0.00     0.031 C 
ATOM     72  C   UNL A   1      43.420  30.611  37.100  1.00  0.00     0.029 A 
ATOM     73  C   UNL A   1      42.803  30.308  35.898  1.00  0.00     0.049 A 
ATOM     74  H   UNL A   1      41.039  31.116  35.061  1.00  0.00     0.167 HD
ATOM     75  C   UNL A   1      42.526  29.152  33.739  1.00  0.00     0.074 A 
ATOM     76  C   UNL A   1      42.952  28.251  32.694  1.00  0.00     0.031 C 
ATOM     77  C   UNL A   1      43.213  29.371  34.886  1.00  0.00     0.037 A 
BRANCH  64  78
ATOM     78  C   UNL A   1      40.642  33.692  38.433  1.00  0.00     0.064 A 
ATOM     79  C   UNL A   1      39.922  33.363  39.592  1.00  0.00     0.173 A 
ATOM     80  C   UNL A   1      41.511  34.790  38.487  1.00  0.00     0.173 A 
ATOM     81  F   UNL A   1      39.068  32.328  39.588  1.00  0.00    -0.203 F 
ATOM     82  C   UNL A   1      40.052  34.122  40.752  1.00  0.00     0.198 A 
ATOM     83  C   UNL A   1      41.664  35.526  39.657  1.00  0.00     0.198 A 
ATOM     84  F   UNL A   1      42.228  35.140  37.407  1.00  0.00    -0.203 F 
ATOM     85  F   UNL A   1      39.321  33.818  41.834  1.00  0.00    -0.200 F 
ATOM     86  C   UNL A   1      40.930  35.195  40.786  1.00  0.00     0.200 A 
ATOM     87  F   UNL A   1      42.525  36.552  39.695  1.00  0.00    -0.200 F 
ATOM     88  F   UNL A   1      41.066  35.914  41.909  1.00  0.00    -0.200 F 
ENDBRANCH  64  78
BRANCH  65  89
ATOM     89  C   UNL A   1      39.754  28.576  30.006  1.00  0.00     0.064 A 
ATOM     90  C   UNL A   1      39.234  27.274  29.931  1.00  0.00     0.173 A 
ATOM     91  C   UNL A   1      40.339  29.102  28.845  1.00  0.00     0.173 A 
ATOM     92  F   UNL A   1      38.711  26.701  31.025  1.00  0.00    -0.203 F 
ATOM     93  C   UNL A   1      39.332  26.521  28.761  1.00  0.00     0.198 A 
ATOM     94  C   UNL A   1      40.405  28.361  27.664  1.00  0.00     0.198 A 
ATOM     95  F   UNL A   1      40.888  30.323  28.866  1.00  0.00    -0.203 F 
ATOM     96  F   UNL A   1      38.903  25.251  28.746  1.00  0.00    -0.200 F 
ATOM     97  C   UNL A   1      39.915  27.066  27.627  1.00  0.00     0.200 A 
ATOM     98  F   UNL A   1      40.973  28.892  26.572  1.00  0.00    -0.200 F 
ATOM     99  F   UNL A   1      40.027  26.335  26.510  1.00  0.00    -0.200 F 
ENDBRANCH  65  89
BRANCH  77 100
ATOM    100  C   UNL A   1      44.452  28.559  35.142  1.00  0.00     0.064 A 
ATOM    101  C   UNL A   1      45.731  29.009  34.785  1.00  0.00     0.173 A 
ATOM    102  C   UNL A   1      44.359  27.326  35.811  1.00  0.00     0.173 A 
ATOM    103  F   UNL A   1      45.879  30.173  34.135  1.00  0.00    -0.203 F 
ATOM    104  C   UNL A   1      46.865  28.248  35.064  1.00  0.00     0.198 A 
ATOM    105  C   UNL A   1      45.496  26.584  36.119  1.00  0.00     0.198 A 
ATOM    106  F   UNL A   1      43.163  26.848  36.184  1.00  0.00    -0.203 F 
ATOM    107  F   UNL A   1      48.072  28.679  34.671  1.00  0.00    -0.200 F 
ATOM    108  C   UNL A   1      46.748  27.042  35.739  1.00  0.00     0.200 A 
ATOM    109  F   UNL A   1      45.380  25.428  36.787  1.00  0.00    -0.200 F 
ATOM    110  F   UNL A   1      47.841  26.318  36.018  1.00  0.00    -0.200 F 
ENDBRANCH  77 100
ENDBRANCH  51  52
ENDBRANCH  44  46
ENDBRANCH  43  44
ENDBRANCH  42  43
ENDBRANCH  41  42
ENDBRANCH  40  41
ENDBRANCH   1  40
TORSDOF 18
ENDMDL
MODEL 3
REMARK VINA RESULT:     -11.5      5.156     11.350
REMARK SMILES C[C@H]1[C@H](C)CC[C@@]2(C(=O)OCCOCCOCCOC(=O)c3ccc(-c4c5nc(c(-c6c(F)c(F)c(F)c(F)c6F)c6ccc([nH]6)c(-c6c(F)c(F)c(F)c(F)c6F)c6nc(c(-c7c(F)c(F)c(F)c(F)c7F)c7ccc4[nH]7)C=C6)C=C5)cc3)CC[C@@]3(C)C(=CC[C@@H]4[C@@]5(C)CC[C@H](O)C(C)(C)[C@@H]5CC[C@]43C)[C@H]12
REMARK SMILES IDX 15 1 14 2 13 3 12 4 11 5 10 6 8 7 9 8 7 9 1 10 2 11 3 12
REMARK SMILES IDX 107 13 4 14 5 15 89 16 6 17 85 18 87 19 90 20 86 21 88 22
REMARK SMILES IDX 105 23 91 24 92 25 104 26 106 27 93 28 103 29 94 30 95 31
REMARK SMILES IDX 102 32 96 33 99 34 97 35 100 36 101 37 98 38 16 40 17 41
REMARK SMILES IDX 18 42 19 43 20 44 21 45 22 46 23 47 84 48 24 49 83 50 25 51
REMARK SMILES IDX 26 52 27 53 77 54 28 55 82 56 76 57 78 58 29 59 81 60 75 61
REMARK SMILES IDX 74 62 30 64 62 65 42 66 61 67 43 68 46 69 60 70 79 71 44 72
REMARK SMILES IDX 45 73 59 75 80 76 47 77 31 78 32 79 40 80 33 81 34 82 38 83
REMARK SMILES IDX 41 84 35 85 36 86 39 87 37 88 63 89 64 90 72 91 65 92 66 93
REMARK SMILES IDX 70 94 73 95 67 96 68 97 71 98 69 99 48 100 49 101 57 102
REMARK SMILES IDX 50 103 51 104 55 105 58 106 52 107 53 108 56 109 54 110
REMARK H PARENT 98 39 78 63 46 74
REMARK Flexibility Score: inf
ROOT
ATOM      1  C   UNL A   1      36.770  29.623  27.539  1.00  0.00     0.188 C 
ENDROOT
BRANCH   1   2
ATOM      2  C   UNL A   1      37.915  29.422  28.576  1.00  0.00     0.188 C 
BRANCH   2   3
ATOM      3  O   UNL A   1      37.473  29.031  29.856  1.00  0.00    -0.376 OA
BRANCH   3   4
ATOM      4  C   UNL A   1      38.232  27.994  30.428  1.00  0.00     0.202 C 
BRANCH   4   5
ATOM      5  C   UNL A   1      39.337  27.368  29.583  1.00  0.00     0.261 C 
BRANCH   5   6
ATOM      6  O   UNL A   1      40.785  27.678  29.785  1.00  0.00    -0.463 OA
BRANCH   6   7
ATOM      7  C   UNL A   1      41.758  28.377  30.430  1.00  0.00     0.312 C 
ATOM      8  O   UNL A   1      42.528  27.976  31.293  1.00  0.00    -0.252 OA
BRANCH   7   9
ATOM      9  C   UNL A   1      41.898  29.809  29.835  1.00  0.00     0.075 C 
ATOM     10  C   UNL A   1      44.857  31.375  31.985  1.00  0.00     0.008 C 
ATOM     11  C   UNL A   1      43.525  30.710  31.636  1.00  0.00    -0.003 C 
ATOM     12  C   UNL A   1      42.304  31.433  32.319  1.00  0.00    -0.011 C 
ATOM     13  C   UNL A   1      43.345  30.344  30.069  1.00  0.00     0.036 C 
ATOM     14  C   UNL A   1      42.354  31.379  33.862  1.00  0.00     0.008 C 
ATOM     15  C   UNL A   1      40.940  30.846  31.948  1.00  0.00     0.005 C 
ATOM     16  C   UNL A   1      44.241  29.250  29.315  1.00  0.00    -0.063 C 
ATOM     17  C   UNL A   1      40.790  30.673  30.461  1.00  0.00     0.020 C 
ATOM     18  C   UNL A   1      41.590  29.836  28.319  1.00  0.00     0.020 C 
ATOM     19  C   UNL A   1      43.972  28.974  27.772  1.00  0.00    -0.006 C 
ATOM     20  C   UNL A   1      44.988  28.369  30.014  1.00  0.00    -0.027 C 
ATOM     21  C   UNL A   1      42.446  28.898  27.494  1.00  0.00     0.013 C 
ATOM     22  C   UNL A   1      44.527  30.191  26.995  1.00  0.00     0.017 C 
ATOM     23  C   UNL A   1      44.675  27.569  27.229  1.00  0.00    -0.020 C 
ATOM     24  C   UNL A   1      45.255  26.953  29.551  1.00  0.00     0.032 C 
ATOM     25  C   UNL A   1      44.388  26.507  28.346  1.00  0.00     0.006 C 
ATOM     26  C   UNL A   1      44.145  27.051  25.864  1.00  0.00     0.008 C 
ATOM     27  C   UNL A   1      46.204  27.784  27.011  1.00  0.00     0.012 C 
ATOM     28  C   UNL A   1      44.408  24.931  28.005  1.00  0.00    -0.025 C 
ATOM     29  C   UNL A   1      44.594  25.608  25.533  1.00  0.00     0.005 C 
ATOM     30  C   UNL A   1      45.778  24.346  28.397  1.00  0.00     0.012 C 
ATOM     31  C   UNL A   1      43.323  24.198  28.872  1.00  0.00     0.010 C 
ATOM     32  C   UNL A   1      43.961  24.629  26.526  1.00  0.00     0.003 C 
ATOM     33  C   UNL A   1      43.124  22.708  28.557  1.00  0.00     0.033 C 
ATOM     34  C   UNL A   1      43.926  23.089  26.117  1.00  0.00    -0.006 C 
ATOM     35  C   UNL A   1      42.901  22.408  27.072  1.00  0.00     0.120 C 
ATOM     36  C   UNL A   1      45.284  22.358  26.128  1.00  0.00     0.014 C 
ATOM     37  C   UNL A   1      43.402  22.895  24.672  1.00  0.00     0.014 C 
BRANCH  35  38
ATOM     38  O   UNL A   1      42.828  20.995  26.884  1.00  0.00    -0.393 OA
ATOM     39  H   UNL A   1      41.946  20.758  26.558  1.00  0.00     0.210 HD
ENDBRANCH  35  38
ENDBRANCH   7   9
ENDBRANCH   6   7
ENDBRANCH   5   6
ENDBRANCH   4   5
ENDBRANCH   3   4
ENDBRANCH   2   3
ENDBRANCH   1   2
BRANCH   1  40
ATOM     40  O   UNL A   1      35.447  29.231  27.869  1.00  0.00    -0.376 OA
BRANCH  40  41
ATOM     41  C   UNL A   1      34.467  29.295  26.856  1.00  0.00     0.202 C 
BRANCH  41  42
ATOM     42  C   UNL A   1      33.620  30.576  26.787  1.00  0.00     0.261 C 
BRANCH  42  43
ATOM     43  O   UNL A   1      33.275  31.210  28.045  1.00  0.00    -0.460 OA
BRANCH  43  44
ATOM     44  C   UNL A   1      33.525  32.546  28.171  1.00  0.00     0.338 C 
ATOM     45  O   UNL A   1      33.022  33.431  27.508  1.00  0.00    -0.246 OA
BRANCH  44  46
ATOM     46  C   UNL A   1      34.403  32.835  29.356  1.00  0.00     0.060 A 
ATOM     47  C   UNL A   1      34.474  34.139  29.880  1.00  0.00     0.016 A 
ATOM     48  C   UNL A   1      35.223  31.853  29.905  1.00  0.00     0.016 A 
ATOM     49  C   UNL A   1      35.410  34.482  30.882  1.00  0.00     0.010 A 
ATOM     50  C   UNL A   1      36.165  32.200  30.893  1.00  0.00     0.010 A 
ATOM     51  C   UNL A   1      36.314  33.529  31.360  1.00  0.00    -0.014 A 
BRANCH  51  52
ATOM     52  C   UNL A   1      37.568  33.908  32.105  1.00  0.00     0.031 A 
ATOM     53  C   UNL A   1      38.810  34.178  31.280  1.00  0.00     0.074 A 
ATOM     54  C   UNL A   1      37.681  34.021  33.447  1.00  0.00     0.049 A 
ATOM     55  N   UNL A   1      40.054  34.352  31.655  1.00  0.00    -0.248 NA
ATOM     56  C   UNL A   1      38.610  34.261  29.823  1.00  0.00     0.031 C 
ATOM     57  C   UNL A   1      36.597  33.916  34.413  1.00  0.00     0.029 A 
ATOM     58  N   UNL A   1      38.802  34.214  34.239  1.00  0.00    -0.354 N 
ATOM     59  C   UNL A   1      40.779  34.536  30.483  1.00  0.00     0.074 A 
ATOM     60  C   UNL A   1      39.849  34.399  29.384  1.00  0.00     0.031 C 
ATOM     61  C   UNL A   1      37.105  33.965  35.662  1.00  0.00     0.029 A 
ATOM     62  C   UNL A   1      38.560  34.100  35.591  1.00  0.00     0.049 A 
ATOM     63  H   UNL A   1      39.691  34.415  33.868  1.00  0.00     0.167 HD
ATOM     64  C   UNL A   1      42.090  34.828  30.323  1.00  0.00     0.037 A 
ATOM     65  C   UNL A   1      39.406  34.080  36.645  1.00  0.00     0.037 A 
ATOM     66  C   UNL A   1      43.030  35.027  31.392  1.00  0.00     0.049 A 
ATOM     67  C   UNL A   1      40.893  34.285  36.437  1.00  0.00     0.074 A 
ATOM     68  C   UNL A   1      44.362  35.395  31.307  1.00  0.00     0.029 A 
ATOM     69  N   UNL A   1      42.742  34.875  32.738  1.00  0.00    -0.354 N 
ATOM     70  N   UNL A   1      41.553  34.513  35.330  1.00  0.00    -0.248 NA
ATOM     71  C   UNL A   1      41.749  34.265  37.639  1.00  0.00     0.031 C 
ATOM     72  C   UNL A   1      44.898  35.409  32.597  1.00  0.00     0.029 A 
ATOM     73  C   UNL A   1      43.882  35.112  33.490  1.00  0.00     0.049 A 
ATOM     74  H   UNL A   1      41.861  34.634  33.104  1.00  0.00     0.167 HD
ATOM     75  C   UNL A   1      42.874  34.734  35.708  1.00  0.00     0.074 A 
ATOM     76  C   UNL A   1      42.930  34.604  37.145  1.00  0.00     0.031 C 
ATOM     77  C   UNL A   1      43.940  35.034  34.925  1.00  0.00     0.037 A 
BRANCH  64  78
ATOM     78  C   UNL A   1      42.604  34.956  28.920  1.00  0.00     0.064 A 
ATOM     79  C   UNL A   1      42.387  36.115  28.159  1.00  0.00     0.173 A 
ATOM     80  C   UNL A   1      43.368  33.927  28.351  1.00  0.00     0.173 A 
ATOM     81  F   UNL A   1      41.652  37.122  28.655  1.00  0.00    -0.203 F 
ATOM     82  C   UNL A   1      42.898  36.227  26.869  1.00  0.00     0.198 A 
ATOM     83  C   UNL A   1      43.906  34.057  27.075  1.00  0.00     0.198 A 
ATOM     84  F   UNL A   1      43.611  32.802  29.042  1.00  0.00    -0.203 F 
ATOM     85  F   UNL A   1      42.641  37.325  26.143  1.00  0.00    -0.200 F 
ATOM     86  C   UNL A   1      43.665  35.204  26.333  1.00  0.00     0.200 A 
ATOM     87  F   UNL A   1      44.661  33.075  26.564  1.00  0.00    -0.200 F 
ATOM     88  F   UNL A   1      44.170  35.321  25.097  1.00  0.00    -0.200 F 
ENDBRANCH  64  78
BRANCH  65  89
ATOM     89  C   UNL A   1      38.905  33.847  38.034  1.00  0.00     0.064 A 
ATOM     90  C   UNL A   1      38.378  32.605  38.420  1.00  0.00     0.173 A 
ATOM     91  C   UNL A   1      38.821  34.897  38.960  1.00  0.00     0.173 A 
ATOM     92  F   UNL A   1      38.383  31.579  37.556  1.00  0.00    -0.203 F 
ATOM     93  C   UNL A   1      37.759  32.433  39.659  1.00  0.00     0.198 A 
ATOM     94  C   UNL A   1      38.234  34.716  40.213  1.00  0.00     0.198 A 
ATOM     95  F   UNL A   1      39.270  36.115  38.634  1.00  0.00    -0.203 F 
ATOM     96  F   UNL A   1      37.189  31.259  39.965  1.00  0.00    -0.200 F 
ATOM     97  C   UNL A   1      37.690  33.488  40.556  1.00  0.00     0.200 A 
ATOM     98  F   UNL A   1      38.166  35.741  41.075  1.00  0.00    -0.200 F 
ATOM     99  F   UNL A   1      37.078  33.329  41.737  1.00  0.00    -0.200 F 
ENDBRANCH  65  89
BRANCH  77 100
ATOM    100  C   UNL A   1      45.250  35.345  35.594  1.00  0.00     0.064 A 
ATOM    101  C   UNL A   1      46.233  34.369  35.811  1.00  0.00     0.173 A 
ATOM    102  C   UNL A   1      45.548  36.666  35.974  1.00  0.00     0.173 A 
ATOM    103  F   UNL A   1      45.999  33.091  35.477  1.00  0.00    -0.203 F 
ATOM    104  C   UNL A   1      47.451  34.695  36.404  1.00  0.00     0.198 A 
ATOM    105  C   UNL A   1      46.780  36.994  36.535  1.00  0.00     0.198 A 
ATOM    106  F   UNL A   1      44.650  37.643  35.784  1.00  0.00    -0.203 F 
ATOM    107  F   UNL A   1      48.355  33.735  36.643  1.00  0.00    -0.200 F 
ATOM    108  C   UNL A   1      47.727  36.008  36.756  1.00  0.00     0.200 A 
ATOM    109  F   UNL A   1      47.050  38.266  36.858  1.00  0.00    -0.200 F 
ATOM    110  F   UNL A   1      48.905  36.320  37.314  1.00  0.00    -0.200 F 
ENDBRANCH  77 100
ENDBRANCH  51  52
ENDBRANCH  44  46
ENDBRANCH  43  44
ENDBRANCH  42  43
ENDBRANCH  41  42
ENDBRANCH  40  41
ENDBRANCH   1  40
TORSDOF 18
ENDMDL
