MODEL 1
REMARK VINA RESULT:     -11.0      0.000      0.000
REMARK SMILES O=C(OCCOCCOCCOC(=O)c1cc(Br)ccc1NC(=O)c1ccc(Br)s1)c1ccc(-c2c3nc(c(-c4c(F)c(F)c(F)c(F)c4F)c4ccc([nH]4)c(-c4c(F)c(F)c(F)c(F)c4F)c4nc(c(-c5c(F)c(F)c(F)c(F)c5F)c5ccc2[nH]5)C=C4)C=C3)cc1
REMARK SMILES IDX 7 1 6 2 5 3 4 4 3 5 2 6 1 7 31 8 32 9 93 10 33 11 92 12
REMARK SMILES IDX 34 13 35 14 36 15 86 16 37 17 91 18 85 19 87 20 38 21 90 22
REMARK SMILES IDX 84 23 83 24 39 26 71 27 51 28 70 29 52 30 55 31 69 32 88 33
REMARK SMILES IDX 53 34 54 35 68 37 89 38 56 39 40 40 41 41 49 42 42 43 43 44
REMARK SMILES IDX 47 45 50 46 44 47 45 48 48 49 46 50 72 51 73 52 81 53 74 54
REMARK SMILES IDX 75 55 79 56 82 57 76 58 77 59 80 60 78 61 57 62 58 63 66 64
REMARK SMILES IDX 59 65 60 66 64 67 67 68 61 69 62 70 65 71 63 72 8 73 9 74
REMARK SMILES IDX 10 75 11 76 12 77 13 78 14 79 15 80 16 81 21 82 17 83 20 84
REMARK SMILES IDX 18 85 19 86 22 87 23 88 24 90 25 91 26 92 30 93 27 94 28 95
REMARK SMILES IDX 29 96
REMARK H PARENT 87 25 55 36 22 89
REMARK Flexibility Score: inf
ROOT
ATOM      1  C   UNL A   1      33.380  20.719  24.737  1.00  0.00     0.188 C 
ENDROOT
BRANCH   1   2
ATOM      2  O   UNL A   1      34.631  21.363  24.457  1.00  0.00    -0.376 OA
BRANCH   2   3
ATOM      3  C   UNL A   1      35.755  20.661  24.996  1.00  0.00     0.202 C 
BRANCH   3   4
ATOM      4  C   UNL A   1      36.840  21.580  25.572  1.00  0.00     0.261 C 
BRANCH   4   5
ATOM      5  O   UNL A   1      38.161  21.076  25.322  1.00  0.00    -0.460 OA
BRANCH   5   6
ATOM      6  C   UNL A   1      39.285  21.243  26.064  1.00  0.00     0.338 C 
ATOM      7  O   UNL A   1      40.054  20.291  26.178  1.00  0.00    -0.246 OA
BRANCH   6   8
ATOM      8  C   UNL A   1      39.688  22.545  26.692  1.00  0.00     0.060 A 
ATOM      9  C   UNL A   1      39.157  23.793  26.372  1.00  0.00     0.016 A 
ATOM     10  C   UNL A   1      40.674  22.499  27.696  1.00  0.00     0.016 A 
ATOM     11  C   UNL A   1      39.701  24.964  26.890  1.00  0.00     0.010 A 
ATOM     12  C   UNL A   1      41.177  23.670  28.281  1.00  0.00     0.010 A 
ATOM     13  C   UNL A   1      40.731  24.916  27.831  1.00  0.00    -0.014 A 
BRANCH  13  14
ATOM     14  C   UNL A   1      41.373  26.192  28.226  1.00  0.00     0.031 A 
ATOM     15  C   UNL A   1      42.784  26.472  27.789  1.00  0.00     0.074 A 
ATOM     16  C   UNL A   1      40.637  27.155  28.814  1.00  0.00     0.049 A 
ATOM     17  N   UNL A   1      43.490  27.565  27.924  1.00  0.00    -0.248 NA
ATOM     18  C   UNL A   1      43.485  25.388  27.083  1.00  0.00     0.031 C 
ATOM     19  C   UNL A   1      39.234  27.018  29.206  1.00  0.00     0.029 A 
ATOM     20  N   UNL A   1      40.947  28.451  29.135  1.00  0.00    -0.354 N 
ATOM     21  C   UNL A   1      44.711  27.302  27.317  1.00  0.00     0.074 A 
ATOM     22  C   UNL A   1      44.663  25.939  26.837  1.00  0.00     0.031 C 
ATOM     23  C   UNL A   1      38.795  28.194  29.681  1.00  0.00     0.029 A 
ATOM     24  C   UNL A   1      39.891  29.152  29.662  1.00  0.00     0.049 A 
ATOM     25  H   UNL A   1      41.841  28.841  28.999  1.00  0.00     0.167 HD
ATOM     26  C   UNL A   1      45.772  28.128  27.162  1.00  0.00     0.037 A 
ATOM     27  C   UNL A   1      39.820  30.427  30.086  1.00  0.00     0.037 A 
ATOM     28  C   UNL A   1      45.822  29.478  27.655  1.00  0.00     0.049 A 
ATOM     29  C   UNL A   1      41.034  31.301  29.961  1.00  0.00     0.074 A 
ATOM     30  C   UNL A   1      46.877  30.370  27.636  1.00  0.00     0.029 A 
ATOM     31  N   UNL A   1      44.754  30.130  28.257  1.00  0.00    -0.354 N 
ATOM     32  N   UNL A   1      42.204  31.018  29.442  1.00  0.00    -0.248 NA
ATOM     33  C   UNL A   1      40.919  32.669  30.482  1.00  0.00     0.031 C 
ATOM     34  C   UNL A   1      46.456  31.557  28.251  1.00  0.00     0.029 A 
ATOM     35  C   UNL A   1      45.129  31.413  28.619  1.00  0.00     0.049 A 
ATOM     36  H   UNL A   1      43.864  29.738  28.403  1.00  0.00     0.167 HD
ATOM     37  C   UNL A   1      42.967  32.166  29.583  1.00  0.00     0.074 A 
ATOM     38  C   UNL A   1      42.115  33.163  30.199  1.00  0.00     0.031 C 
ATOM     39  C   UNL A   1      44.263  32.375  29.248  1.00  0.00     0.037 A 
BRANCH  26  40
ATOM     40  C   UNL A   1      46.973  27.570  26.459  1.00  0.00     0.064 A 
ATOM     41  C   UNL A   1      48.014  26.952  27.168  1.00  0.00     0.173 A 
ATOM     42  C   UNL A   1      47.088  27.662  25.066  1.00  0.00     0.173 A 
ATOM     43  F   UNL A   1      47.959  26.861  28.505  1.00  0.00    -0.203 F 
ATOM     44  C   UNL A   1      49.139  26.466  26.506  1.00  0.00     0.198 A 
ATOM     45  C   UNL A   1      48.205  27.158  24.405  1.00  0.00     0.198 A 
ATOM     46  F   UNL A   1      46.122  28.249  24.345  1.00  0.00    -0.203 F 
ATOM     47  F   UNL A   1      50.143  25.919  27.207  1.00  0.00    -0.200 F 
ATOM     48  C   UNL A   1      49.232  26.565  25.127  1.00  0.00     0.200 A 
ATOM     49  F   UNL A   1      48.294  27.253  23.071  1.00  0.00    -0.200 F 
ATOM     50  F   UNL A   1      50.317  26.102  24.491  1.00  0.00    -0.200 F 
ENDBRANCH  26  40
BRANCH  27  51
ATOM     51  C   UNL A   1      38.576  30.948  30.707  1.00  0.00     0.064 A 
ATOM     52  C   UNL A   1      38.371  30.895  32.092  1.00  0.00     0.173 A 
ATOM     53  C   UNL A   1      37.542  31.458  29.910  1.00  0.00     0.173 A 
ATOM     54  F   UNL A   1      39.321  30.385  32.889  1.00  0.00    -0.203 F 
ATOM     55  C   UNL A   1      37.169  31.319  32.655  1.00  0.00     0.198 A 
ATOM     56  C   UNL A   1      36.344  31.888  30.476  1.00  0.00     0.198 A 
ATOM     57  F   UNL A   1      37.697  31.538  28.580  1.00  0.00    -0.203 F 
ATOM     58  F   UNL A   1      36.981  31.221  33.978  1.00  0.00    -0.200 F 
ATOM     59  C   UNL A   1      36.157  31.816  31.847  1.00  0.00     0.200 A 
ATOM     60  F   UNL A   1      35.372  32.374  29.690  1.00  0.00    -0.200 F 
ATOM     61  F   UNL A   1      35.000  32.219  32.390  1.00  0.00    -0.200 F 
ENDBRANCH  27  51
BRANCH  39  62
ATOM     62  C   UNL A   1      44.827  33.725  29.563  1.00  0.00     0.064 A 
ATOM     63  C   UNL A   1      44.710  34.788  28.655  1.00  0.00     0.173 A 
ATOM     64  C   UNL A   1      45.476  33.961  30.782  1.00  0.00     0.173 A 
ATOM     65  F   UNL A   1      44.114  34.600  27.468  1.00  0.00    -0.203 F 
ATOM     66  C   UNL A   1      45.247  36.037  28.949  1.00  0.00     0.198 A 
ATOM     67  C   UNL A   1      45.992  35.218  31.082  1.00  0.00     0.198 A 
ATOM     68  F   UNL A   1      45.612  32.973  31.679  1.00  0.00    -0.203 F 
ATOM     69  F   UNL A   1      45.167  37.027  28.049  1.00  0.00    -0.200 F 
ATOM     70  C   UNL A   1      45.883  36.252  30.163  1.00  0.00     0.200 A 
ATOM     71  F   UNL A   1      46.604  35.427  32.255  1.00  0.00    -0.200 F 
ATOM     72  F   UNL A   1      46.403  37.455  30.443  1.00  0.00    -0.200 F 
ENDBRANCH  39  62
ENDBRANCH  13  14
ENDBRANCH   6   8
ENDBRANCH   5   6
ENDBRANCH   4   5
ENDBRANCH   3   4
ENDBRANCH   2   3
ENDBRANCH   1   2
BRANCH   1  73
ATOM     73  C   UNL A   1      32.625  21.463  25.840  1.00  0.00     0.188 C 
BRANCH  73  74
ATOM     74  O   UNL A   1      31.385  22.035  25.427  1.00  0.00    -0.376 OA
BRANCH  74  75
ATOM     75  C   UNL A   1      30.785  22.979  26.311  1.00  0.00     0.202 C 
BRANCH  75  76
ATOM     76  C   UNL A   1      30.881  24.446  25.880  1.00  0.00     0.261 C 
BRANCH  76  77
ATOM     77  O   UNL A   1      32.139  25.086  26.176  1.00  0.00    -0.460 OA
BRANCH  77  78
ATOM     78  C   UNL A   1      32.899  25.388  25.095  1.00  0.00     0.340 C 
ATOM     79  O   UNL A   1      33.424  24.621  24.310  1.00  0.00    -0.246 OA
BRANCH  78  80
ATOM     80  C   UNL A   1      33.150  26.836  25.063  1.00  0.00     0.084 A 
ATOM     81  C   UNL A   1      33.681  27.366  26.248  1.00  0.00     0.033 A 
ATOM     82  C   UNL A   1      33.060  27.613  23.893  1.00  0.00     0.056 A 
ATOM     83  C   UNL A   1      34.105  28.686  26.278  1.00  0.00     0.018 A 
ATOM     84  C   UNL A   1      33.394  28.970  23.989  1.00  0.00     0.028 A 
ATOM     85  Br  UNL A   1      34.942  29.352  27.829  1.00  0.00    -0.051 Br
ATOM     86  C   UNL A   1      33.937  29.501  25.164  1.00  0.00     0.018 A 
BRANCH  82  87
ATOM     87  N   UNL A   1      32.625  27.032  22.685  1.00  0.00    -0.320 N 
ATOM     88  C   UNL A   1      31.375  26.907  22.107  1.00  0.00     0.265 C 
ATOM     89  H   UNL A   1      33.352  26.641  22.149  1.00  0.00     0.170 HD
ATOM     90  O   UNL A   1      31.290  26.149  21.140  1.00  0.00    -0.268 OA
BRANCH  88  91
ATOM     91  C   UNL A   1      30.264  27.714  22.572  1.00  0.00     0.093 A 
ATOM     92  C   UNL A   1      29.188  27.356  23.368  1.00  0.00     0.027 A 
ATOM     93  S   UNL A   1      30.212  29.380  22.165  1.00  0.00    -0.123 S 
ATOM     94  C   UNL A   1      28.279  28.439  23.570  1.00  0.00     0.028 A 
ATOM     95  C   UNL A   1      28.728  29.580  22.955  1.00  0.00     0.071 A 
ATOM     96  Br  UNL A   1      27.794  31.205  22.986  1.00  0.00    -0.039 Br
ENDBRANCH  88  91
ENDBRANCH  82  87
ENDBRANCH  78  80
ENDBRANCH  77  78
ENDBRANCH  76  77
ENDBRANCH  75  76
ENDBRANCH  74  75
ENDBRANCH  73  74
ENDBRANCH   1  73
TORSDOF 19
ENDMDL
MODEL 2
REMARK VINA RESULT:     -10.8      0.705      2.095
REMARK SMILES O=C(OCCOCCOCCOC(=O)c1cc(Br)ccc1NC(=O)c1ccc(Br)s1)c1ccc(-c2c3nc(c(-c4c(F)c(F)c(F)c(F)c4F)c4ccc([nH]4)c(-c4c(F)c(F)c(F)c(F)c4F)c4nc(c(-c5c(F)c(F)c(F)c(F)c5F)c5ccc2[nH]5)C=C4)C=C3)cc1
REMARK SMILES IDX 7 1 6 2 5 3 4 4 3 5 2 6 1 7 31 8 32 9 93 10 33 11 92 12
REMARK SMILES IDX 34 13 35 14 36 15 86 16 37 17 91 18 85 19 87 20 38 21 90 22
REMARK SMILES IDX 84 23 83 24 39 26 71 27 51 28 70 29 52 30 55 31 69 32 88 33
REMARK SMILES IDX 53 34 54 35 68 37 89 38 56 39 40 40 41 41 49 42 42 43 43 44
REMARK SMILES IDX 47 45 50 46 44 47 45 48 48 49 46 50 72 51 73 52 81 53 74 54
REMARK SMILES IDX 75 55 79 56 82 57 76 58 77 59 80 60 78 61 57 62 58 63 66 64
REMARK SMILES IDX 59 65 60 66 64 67 67 68 61 69 62 70 65 71 63 72 8 73 9 74
REMARK SMILES IDX 10 75 11 76 12 77 13 78 14 79 15 80 16 81 21 82 17 83 20 84
REMARK SMILES IDX 18 85 19 86 22 87 23 88 24 90 25 91 26 92 30 93 27 94 28 95
REMARK SMILES IDX 29 96
REMARK H PARENT 87 25 55 36 22 89
REMARK Flexibility Score: inf
ROOT
ATOM      1  C   UNL A   1      35.045  20.884  25.090  1.00  0.00     0.188 C 
ENDROOT
BRANCH   1   2
ATOM      2  O   UNL A   1      35.599  21.919  24.265  1.00  0.00    -0.376 OA
BRANCH   2   3
ATOM      3  C   UNL A   1      37.029  21.927  24.262  1.00  0.00     0.202 C 
BRANCH   3   4
ATOM      4  C   UNL A   1      37.656  20.600  24.708  1.00  0.00     0.261 C 
BRANCH   4   5
ATOM      5  O   UNL A   1      38.305  20.714  25.985  1.00  0.00    -0.460 OA
BRANCH   5   6
ATOM      6  C   UNL A   1      39.579  21.095  26.255  1.00  0.00     0.338 C 
ATOM      7  O   UNL A   1      40.493  20.341  25.928  1.00  0.00    -0.246 OA
BRANCH   6   8
ATOM      8  C   UNL A   1      39.947  22.418  26.860  1.00  0.00     0.060 A 
ATOM      9  C   UNL A   1      39.369  23.643  26.533  1.00  0.00     0.016 A 
ATOM     10  C   UNL A   1      40.951  22.419  27.847  1.00  0.00     0.016 A 
ATOM     11  C   UNL A   1      39.881  24.839  27.027  1.00  0.00     0.010 A 
ATOM     12  C   UNL A   1      41.423  23.614  28.409  1.00  0.00     0.010 A 
ATOM     13  C   UNL A   1      40.927  24.839  27.951  1.00  0.00    -0.014 A 
BRANCH  13  14
ATOM     14  C   UNL A   1      41.531  26.141  28.319  1.00  0.00     0.031 A 
ATOM     15  C   UNL A   1      42.909  26.478  27.823  1.00  0.00     0.074 A 
ATOM     16  C   UNL A   1      40.781  27.073  28.936  1.00  0.00     0.049 A 
ATOM     17  N   UNL A   1      43.575  27.600  27.929  1.00  0.00    -0.248 NA
ATOM     18  C   UNL A   1      43.625  25.423  27.089  1.00  0.00     0.031 C 
ATOM     19  C   UNL A   1      39.402  26.879  29.387  1.00  0.00     0.029 A 
ATOM     20  N   UNL A   1      41.050  28.382  29.244  1.00  0.00    -0.354 N 
ATOM     21  C   UNL A   1      44.779  27.387  27.271  1.00  0.00     0.074 A 
ATOM     22  C   UNL A   1      44.769  26.022  26.794  1.00  0.00     0.031 C 
ATOM     23  C   UNL A   1      38.935  28.037  29.879  1.00  0.00     0.029 A 
ATOM     24  C   UNL A   1      39.989  29.039  29.815  1.00  0.00     0.049 A 
ATOM     25  H   UNL A   1      41.920  28.808  29.071  1.00  0.00     0.167 HD
ATOM     26  C   UNL A   1      45.797  28.256  27.073  1.00  0.00     0.037 A 
ATOM     27  C   UNL A   1      39.882  30.311  30.241  1.00  0.00     0.037 A 
ATOM     28  C   UNL A   1      45.812  29.607  27.563  1.00  0.00     0.049 A 
ATOM     29  C   UNL A   1      41.052  31.234  30.066  1.00  0.00     0.074 A 
ATOM     30  C   UNL A   1      46.828  30.543  27.500  1.00  0.00     0.029 A 
ATOM     31  N   UNL A   1      44.744  30.216  28.208  1.00  0.00    -0.354 N 
ATOM     32  N   UNL A   1      42.210  31.000  29.498  1.00  0.00    -0.248 NA
ATOM     33  C   UNL A   1      40.902  32.597  30.591  1.00  0.00     0.031 C 
ATOM     34  C   UNL A   1      46.383  31.712  28.132  1.00  0.00     0.029 A 
ATOM     35  C   UNL A   1      45.080  31.514  28.554  1.00  0.00     0.049 A 
ATOM     36  H   UNL A   1      43.878  29.788  28.392  1.00  0.00     0.167 HD
ATOM     37  C   UNL A   1      42.930  32.178  29.608  1.00  0.00     0.074 A 
ATOM     38  C   UNL A   1      42.064  33.140  30.259  1.00  0.00     0.031 C 
ATOM     39  C   UNL A   1      44.202  32.440  29.219  1.00  0.00     0.037 A 
BRANCH  26  40
ATOM     40  C   UNL A   1      46.991  27.747  26.320  1.00  0.00     0.064 A 
ATOM     41  C   UNL A   1      47.044  27.786  24.919  1.00  0.00     0.173 A 
ATOM     42  C   UNL A   1      48.086  27.207  27.006  1.00  0.00     0.173 A 
ATOM     43  F   UNL A   1      46.008  28.272  24.218  1.00  0.00    -0.203 F 
ATOM     44  C   UNL A   1      48.144  27.281  24.231  1.00  0.00     0.198 A 
ATOM     45  C   UNL A   1      49.194  26.721  26.316  1.00  0.00     0.198 A 
ATOM     46  F   UNL A   1      48.081  27.143  28.346  1.00  0.00    -0.203 F 
ATOM     47  F   UNL A   1      48.155  27.287  22.890  1.00  0.00    -0.200 F 
ATOM     48  C   UNL A   1      49.219  26.754  24.930  1.00  0.00     0.200 A 
ATOM     49  F   UNL A   1      50.234  26.213  26.992  1.00  0.00    -0.200 F 
ATOM     50  F   UNL A   1      50.275  26.263  24.267  1.00  0.00    -0.200 F 
ENDBRANCH  26  40
BRANCH  27  51
ATOM     51  C   UNL A   1      38.644  30.780  30.913  1.00  0.00     0.064 A 
ATOM     52  C   UNL A   1      37.583  31.338  30.188  1.00  0.00     0.173 A 
ATOM     53  C   UNL A   1      38.529  30.729  32.309  1.00  0.00     0.173 A 
ATOM     54  F   UNL A   1      37.664  31.436  28.853  1.00  0.00    -0.203 F 
ATOM     55  C   UNL A   1      36.458  31.843  30.837  1.00  0.00     0.198 A 
ATOM     56  C   UNL A   1      37.400  31.228  32.955  1.00  0.00     0.198 A 
ATOM     57  F   UNL A   1      39.514  30.195  33.045  1.00  0.00    -0.203 F 
ATOM     58  F   UNL A   1      35.474  32.408  30.124  1.00  0.00    -0.200 F 
ATOM     59  C   UNL A   1      36.367  31.786  32.220  1.00  0.00     0.200 A 
ATOM     60  F   UNL A   1      37.314  31.164  34.292  1.00  0.00    -0.200 F 
ATOM     61  F   UNL A   1      35.286  32.276  32.843  1.00  0.00    -0.200 F 
ENDBRANCH  27  51
BRANCH  39  62
ATOM     62  C   UNL A   1      44.721  33.814  29.510  1.00  0.00     0.064 A 
ATOM     63  C   UNL A   1      45.391  34.095  30.709  1.00  0.00     0.173 A 
ATOM     64  C   UNL A   1      44.558  34.850  28.581  1.00  0.00     0.173 A 
ATOM     65  F   UNL A   1      45.551  33.137  31.635  1.00  0.00    -0.203 F 
ATOM     66  C   UNL A   1      45.860  35.376  30.979  1.00  0.00     0.198 A 
ATOM     67  C   UNL A   1      45.048  36.125  28.845  1.00  0.00     0.198 A 
ATOM     68  F   UNL A   1      43.921  34.626  27.422  1.00  0.00    -0.203 F 
ATOM     69  F   UNL A   1      46.456  35.637  32.151  1.00  0.00    -0.200 F 
ATOM     70  C   UNL A   1      45.692  36.388  30.045  1.00  0.00     0.200 A 
ATOM     71  F   UNL A   1      44.890  37.102  27.942  1.00  0.00    -0.200 F 
ATOM     72  F   UNL A   1      46.142  37.623  30.308  1.00  0.00    -0.200 F 
ENDBRANCH  39  62
ENDBRANCH  13  14
ENDBRANCH   6   8
ENDBRANCH   5   6
ENDBRANCH   4   5
ENDBRANCH   3   4
ENDBRANCH   2   3
ENDBRANCH   1   2
BRANCH   1  73
ATOM     73  C   UNL A   1      33.636  20.516  24.622  1.00  0.00     0.188 C 
BRANCH  73  74
ATOM     74  O   UNL A   1      32.585  21.118  25.377  1.00  0.00    -0.376 OA
BRANCH  74  75
ATOM     75  C   UNL A   1      32.961  22.116  26.324  1.00  0.00     0.202 C 
BRANCH  75  76
ATOM     76  C   UNL A   1      32.050  23.345  26.389  1.00  0.00     0.261 C 
BRANCH  76  77
ATOM     77  O   UNL A   1      32.738  24.610  26.465  1.00  0.00    -0.460 OA
BRANCH  77  78
ATOM     78  C   UNL A   1      31.935  25.702  26.500  1.00  0.00     0.340 C 
ATOM     79  O   UNL A   1      30.770  25.763  26.844  1.00  0.00    -0.246 OA
BRANCH  78  80
ATOM     80  C   UNL A   1      32.639  26.845  25.903  1.00  0.00     0.084 A 
ATOM     81  C   UNL A   1      33.148  27.769  26.826  1.00  0.00     0.033 A 
ATOM     82  C   UNL A   1      32.961  26.928  24.535  1.00  0.00     0.056 A 
ATOM     83  C   UNL A   1      33.964  28.800  26.385  1.00  0.00     0.018 A 
ATOM     84  C   UNL A   1      33.697  28.042  24.109  1.00  0.00     0.028 A 
ATOM     85  Br  UNL A   1      34.754  29.956  27.645  1.00  0.00    -0.051 Br
ATOM     86  C   UNL A   1      34.218  28.960  25.028  1.00  0.00     0.018 A 
BRANCH  82  87
ATOM     87  N   UNL A   1      32.529  25.929  23.640  1.00  0.00    -0.320 N 
ATOM     88  C   UNL A   1      31.286  25.612  23.125  1.00  0.00     0.265 C 
ATOM     89  H   UNL A   1      33.253  25.344  23.319  1.00  0.00     0.170 HD
ATOM     90  O   UNL A   1      31.195  24.537  22.531  1.00  0.00    -0.268 OA
BRANCH  88  91
ATOM     91  C   UNL A   1      30.190  26.558  23.208  1.00  0.00     0.093 A 
ATOM     92  C   UNL A   1      28.989  26.457  23.892  1.00  0.00     0.027 A 
ATOM     93  S   UNL A   1      30.331  28.072  22.413  1.00  0.00    -0.123 S 
ATOM     94  C   UNL A   1      28.152  27.596  23.688  1.00  0.00     0.028 A 
ATOM     95  C   UNL A   1      28.773  28.528  22.895  1.00  0.00     0.071 A 
ATOM     96  Br  UNL A   1      27.979  30.150  22.395  1.00  0.00    -0.039 Br
ENDBRANCH  88  91
ENDBRANCH  82  87
ENDBRANCH  78  80
ENDBRANCH  77  78
ENDBRANCH  76  77
ENDBRANCH  75  76
ENDBRANCH  74  75
ENDBRANCH  73  74
ENDBRANCH   1  73
TORSDOF 19
ENDMDL
MODEL 3
REMARK VINA RESULT:     -10.6      1.117      7.427
REMARK SMILES O=C(OCCOCCOCCOC(=O)c1cc(Br)ccc1NC(=O)c1ccc(Br)s1)c1ccc(-c2c3nc(c(-c4c(F)c(F)c(F)c(F)c4F)c4ccc([nH]4)c(-c4c(F)c(F)c(F)c(F)c4F)c4nc(c(-c5c(F)c(F)c(F)c(F)c5F)c5ccc2[nH]5)C=C4)C=C3)cc1
REMARK SMILES IDX 7 1 6 2 5 3 4 4 3 5 2 6 1 7 31 8 32 9 93 10 33 11 92 12
REMARK SMILES IDX 34 13 35 14 36 15 86 16 37 17 91 18 85 19 87 20 38 21 90 22
REMARK SMILES IDX 84 23 83 24 39 26 71 27 51 28 70 29 52 30 55 31 69 32 88 33
REMARK SMILES IDX 53 34 54 35 68 37 89 38 56 39 40 40 41 41 49 42 42 43 43 44
REMARK SMILES IDX 47 45 50 46 44 47 45 48 48 49 46 50 72 51 73 52 81 53 74 54
REMARK SMILES IDX 75 55 79 56 82 57 76 58 77 59 80 60 78 61 57 62 58 63 66 64
REMARK SMILES IDX 59 65 60 66 64 67 67 68 61 69 62 70 65 71 63 72 8 73 9 74
REMARK SMILES IDX 10 75 11 76 12 77 13 78 14 79 15 80 16 81 21 82 17 83 20 84
REMARK SMILES IDX 18 85 19 86 22 87 23 88 24 90 25 91 26 92 30 93 27 94 28 95
REMARK SMILES IDX 29 96
REMARK H PARENT 87 25 55 36 22 89
REMARK Flexibility Score: inf
ROOT
ATOM      1  C   UNL A   1      34.040  20.266  25.126  1.00  0.00     0.188 C 
ENDROOT
BRANCH   1   2
ATOM      2  O   UNL A   1      35.209  20.923  24.616  1.00  0.00    -0.376 OA
BRANCH   2   3
ATOM      3  C   UNL A   1      36.427  20.285  25.010  1.00  0.00     0.202 C 
BRANCH   3   4
ATOM      4  C   UNL A   1      37.555  21.265  25.354  1.00  0.00     0.261 C 
BRANCH   4   5
ATOM      5  O   UNL A   1      38.786  20.587  25.651  1.00  0.00    -0.460 OA
BRANCH   5   6
ATOM      6  C   UNL A   1      39.747  20.930  26.546  1.00  0.00     0.338 C 
ATOM      7  O   UNL A   1      40.399  20.032  27.072  1.00  0.00    -0.246 OA
BRANCH   6   8
ATOM      8  C   UNL A   1      40.116  22.347  26.875  1.00  0.00     0.060 A 
ATOM      9  C   UNL A   1      39.536  23.483  26.316  1.00  0.00     0.016 A 
ATOM     10  C   UNL A   1      41.123  22.543  27.840  1.00  0.00     0.016 A 
ATOM     11  C   UNL A   1      40.049  24.753  26.562  1.00  0.00     0.010 A 
ATOM     12  C   UNL A   1      41.597  23.825  28.152  1.00  0.00     0.010 A 
ATOM     13  C   UNL A   1      41.099  24.935  27.464  1.00  0.00    -0.014 A 
BRANCH  13  14
ATOM     14  C   UNL A   1      41.703  26.285  27.565  1.00  0.00     0.031 A 
ATOM     15  C   UNL A   1      40.995  27.350  28.353  1.00  0.00     0.074 A 
ATOM     16  C   UNL A   1      42.953  26.491  27.106  1.00  0.00     0.049 A 
ATOM     17  N   UNL A   1      41.399  28.555  28.665  1.00  0.00    -0.248 NA
ATOM     18  C   UNL A   1      39.666  27.007  28.883  1.00  0.00     0.031 C 
ATOM     19  C   UNL A   1      43.763  25.499  26.400  1.00  0.00     0.029 A 
ATOM     20  N   UNL A   1      43.777  27.581  27.212  1.00  0.00    -0.354 N 
ATOM     21  C   UNL A   1      40.380  29.108  29.430  1.00  0.00     0.074 A 
ATOM     22  C   UNL A   1      39.326  28.122  29.513  1.00  0.00     0.031 C 
ATOM     23  C   UNL A   1      44.981  26.014  26.167  1.00  0.00     0.029 A 
ATOM     24  C   UNL A   1      45.024  27.379  26.672  1.00  0.00     0.049 A 
ATOM     25  H   UNL A   1      43.503  28.427  27.634  1.00  0.00     0.167 HD
ATOM     26  C   UNL A   1      40.335  30.325  30.020  1.00  0.00     0.037 A 
ATOM     27  C   UNL A   1      46.081  28.207  26.593  1.00  0.00     0.037 A 
ATOM     28  C   UNL A   1      41.377  31.310  29.921  1.00  0.00     0.049 A 
ATOM     29  C   UNL A   1      45.977  29.575  27.200  1.00  0.00     0.074 A 
ATOM     30  C   UNL A   1      41.395  32.607  30.400  1.00  0.00     0.029 A 
ATOM     31  N   UNL A   1      42.598  31.095  29.297  1.00  0.00    -0.354 N 
ATOM     32  N   UNL A   1      44.982  30.108  27.866  1.00  0.00    -0.248 NA
ATOM     33  C   UNL A   1      47.141  30.457  27.044  1.00  0.00     0.031 C 
ATOM     34  C   UNL A   1      42.620  33.187  30.042  1.00  0.00     0.029 A 
ATOM     35  C   UNL A   1      43.375  32.238  29.373  1.00  0.00     0.049 A 
ATOM     36  H   UNL A   1      42.871  30.254  28.865  1.00  0.00     0.167 HD
ATOM     37  C   UNL A   1      45.393  31.389  28.199  1.00  0.00     0.074 A 
ATOM     38  C   UNL A   1      46.743  31.539  27.697  1.00  0.00     0.031 C 
ATOM     39  C   UNL A   1      44.709  32.363  28.848  1.00  0.00     0.037 A 
BRANCH  26  40
ATOM     40  C   UNL A   1      39.094  30.661  30.793  1.00  0.00     0.064 A 
ATOM     41  C   UNL A   1      37.982  31.250  30.173  1.00  0.00     0.173 A 
ATOM     42  C   UNL A   1      39.021  30.399  32.167  1.00  0.00     0.173 A 
ATOM     43  F   UNL A   1      38.015  31.540  28.864  1.00  0.00    -0.203 F 
ATOM     44  C   UNL A   1      36.848  31.585  30.909  1.00  0.00     0.198 A 
ATOM     45  C   UNL A   1      37.878  30.718  32.897  1.00  0.00     0.198 A 
ATOM     46  F   UNL A   1      40.060  29.842  32.807  1.00  0.00    -0.203 F 
ATOM     47  F   UNL A   1      35.814  32.189  30.305  1.00  0.00    -0.200 F 
ATOM     48  C   UNL A   1      36.796  31.316  32.268  1.00  0.00     0.200 A 
ATOM     49  F   UNL A   1      37.827  30.456  34.210  1.00  0.00    -0.200 F 
ATOM     50  F   UNL A   1      35.706  31.644  32.976  1.00  0.00    -0.200 F 
ENDBRANCH  26  40
BRANCH  27  51
ATOM     51  C   UNL A   1      47.313  27.791  25.878  1.00  0.00     0.064 A 
ATOM     52  C   UNL A   1      47.388  27.802  24.479  1.00  0.00     0.173 A 
ATOM     53  C   UNL A   1      48.424  27.316  26.590  1.00  0.00     0.173 A 
ATOM     54  F   UNL A   1      46.338  28.219  23.757  1.00  0.00    -0.203 F 
ATOM     55  C   UNL A   1      48.524  27.340  23.818  1.00  0.00     0.198 A 
ATOM     56  C   UNL A   1      49.561  26.861  25.927  1.00  0.00     0.198 A 
ATOM     57  F   UNL A   1      48.403  27.296  27.931  1.00  0.00    -0.203 F 
ATOM     58  F   UNL A   1      48.557  27.323  22.478  1.00  0.00    -0.200 F 
ATOM     59  C   UNL A   1      49.611  26.871  24.542  1.00  0.00     0.200 A 
ATOM     60  F   UNL A   1      50.611  26.415  26.632  1.00  0.00    -0.200 F 
ATOM     61  F   UNL A   1      50.700  26.421  23.905  1.00  0.00    -0.200 F 
ENDBRANCH  27  51
BRANCH  39  62
ATOM     62  C   UNL A   1      45.415  33.670  29.027  1.00  0.00     0.064 A 
ATOM     63  C   UNL A   1      46.191  33.923  30.167  1.00  0.00     0.173 A 
ATOM     64  C   UNL A   1      45.324  34.670  28.049  1.00  0.00     0.173 A 
ATOM     65  F   UNL A   1      46.287  33.002  31.138  1.00  0.00    -0.203 F 
ATOM     66  C   UNL A   1      46.833  35.145  30.334  1.00  0.00     0.198 A 
ATOM     67  C   UNL A   1      45.988  35.883  28.209  1.00  0.00     0.198 A 
ATOM     68  F   UNL A   1      44.592  34.471  26.943  1.00  0.00    -0.203 F 
ATOM     69  F   UNL A   1      47.532  35.387  31.452  1.00  0.00    -0.200 F 
ATOM     70  C   UNL A   1      46.735  36.122  29.353  1.00  0.00     0.200 A 
ATOM     71  F   UNL A   1      45.896  36.824  27.260  1.00  0.00    -0.200 F 
ATOM     72  F   UNL A   1      47.353  37.300  29.516  1.00  0.00    -0.200 F 
ENDBRANCH  39  62
ENDBRANCH  13  14
ENDBRANCH   6   8
ENDBRANCH   5   6
ENDBRANCH   4   5
ENDBRANCH   3   4
ENDBRANCH   2   3
ENDBRANCH   1   2
BRANCH   1  73
ATOM     73  C   UNL A   1      33.271  21.189  26.073  1.00  0.00     0.188 C 
BRANCH  73  74
ATOM     74  O   UNL A   1      32.949  22.465  25.523  1.00  0.00    -0.376 OA
BRANCH  74  75
ATOM     75  C   UNL A   1      33.650  23.590  26.048  1.00  0.00     0.202 C 
BRANCH  75  76
ATOM     76  C   UNL A   1      34.202  24.573  25.012  1.00  0.00     0.261 C 
BRANCH  76  77
ATOM     77  O   UNL A   1      33.204  25.246  24.218  1.00  0.00    -0.460 OA
BRANCH  77  78
ATOM     78  C   UNL A   1      33.411  26.573  24.036  1.00  0.00     0.340 C 
ATOM     79  O   UNL A   1      34.010  27.120  23.129  1.00  0.00    -0.246 OA
BRANCH  78  80
ATOM     80  C   UNL A   1      32.921  27.309  25.209  1.00  0.00     0.084 A 
ATOM     81  C   UNL A   1      33.854  28.185  25.784  1.00  0.00     0.033 A 
ATOM     82  C   UNL A   1      31.576  27.304  25.621  1.00  0.00     0.056 A 
ATOM     83  C   UNL A   1      33.451  29.047  26.794  1.00  0.00     0.018 A 
ATOM     84  C   UNL A   1      31.230  28.107  26.716  1.00  0.00     0.028 A 
ATOM     85  Br  UNL A   1      34.673  30.313  27.467  1.00  0.00    -0.051 Br
ATOM     86  C   UNL A   1      32.153  28.992  27.285  1.00  0.00     0.018 A 
BRANCH  82  87
ATOM     87  N   UNL A   1      30.632  26.495  24.958  1.00  0.00    -0.320 N 
ATOM     88  C   UNL A   1      29.673  26.773  24.001  1.00  0.00     0.265 C 
ATOM     89  H   UNL A   1      30.661  25.548  25.227  1.00  0.00     0.170 HD
ATOM     90  O   UNL A   1      28.847  25.888  23.777  1.00  0.00    -0.268 OA
BRANCH  88  91
ATOM     91  C   UNL A   1      29.721  28.011  23.248  1.00  0.00     0.093 A 
ATOM     92  C   UNL A   1      30.795  28.616  22.613  1.00  0.00     0.027 A 
ATOM     93  S   UNL A   1      28.275  28.904  23.014  1.00  0.00    -0.123 S 
ATOM     94  C   UNL A   1      30.437  29.859  22.008  1.00  0.00     0.028 A 
ATOM     95  C   UNL A   1      29.101  30.120  22.172  1.00  0.00     0.071 A 
ATOM     96  Br  UNL A   1      28.265  31.667  21.527  1.00  0.00    -0.039 Br
ENDBRANCH  88  91
ENDBRANCH  82  87
ENDBRANCH  78  80
ENDBRANCH  77  78
ENDBRANCH  76  77
ENDBRANCH  75  76
ENDBRANCH  74  75
ENDBRANCH  73  74
ENDBRANCH   1  73
TORSDOF 19
ENDMDL
