MODEL 1
REMARK VINA RESULT:     -10.7      0.000      0.000
REMARK SMILES COc1ccc(/C=N/Nc2cccc(C(=O)OCCOCCOCCOC(=O)c3ccc(-c4c5nc(c(-c6c(F)c(F)c(F)c(F)c6F)c6ccc([nH]6)c(-c6c(F)c(F)c(F)c(F)c6F)c6nc(c(-c7c(F)c(F)c(F)c(F)c7F)c7ccc4[nH]7)C=C6)C=C5)cc3)c2)cc1O
REMARK SMILES IDX 21 1 20 2 19 3 18 4 17 5 15 6 16 7 14 8 10 9 11 10 92 11
REMARK SMILES IDX 12 12 13 13 9 14 8 16 7 17 6 18 3 19 4 20 94 21 5 22 93 23
REMARK SMILES IDX 2 24 1 25 95 26 22 28 23 29 24 30 25 31 26 32 27 33 28 34
REMARK SMILES IDX 29 35 30 36 91 37 31 38 90 39 32 40 33 41 34 42 84 43 35 44
REMARK SMILES IDX 89 45 83 46 85 47 36 48 88 49 82 50 81 51 37 53 69 54 49 55
REMARK SMILES IDX 68 56 50 57 53 58 67 59 86 60 51 61 52 62 66 64 87 65 54 66
REMARK SMILES IDX 38 67 39 68 47 69 40 70 41 71 45 72 48 73 42 74 43 75 46 76
REMARK SMILES IDX 44 77 70 78 71 79 79 80 72 81 73 82 77 83 80 84 74 85 75 86
REMARK SMILES IDX 78 87 76 88 55 89 56 90 64 91 57 92 58 93 62 94 65 95 59 96
REMARK SMILES IDX 60 97 63 98 61 99
REMARK H PARENT 9 15 95 27 85 52 53 63
REMARK Flexibility Score: inf
ROOT
ATOM      1  C   UNL A   1      37.084  23.806  25.774  1.00  0.00     0.188 C 
ENDROOT
BRANCH   1   2
ATOM      2  O   UNL A   1      36.046  22.908  26.153  1.00  0.00    -0.376 OA
BRANCH   2   3
ATOM      3  C   UNL A   1      35.344  22.171  25.159  1.00  0.00     0.202 C 
BRANCH   3   4
ATOM      4  C   UNL A   1      35.033  20.688  25.407  1.00  0.00     0.261 C 
BRANCH   4   5
ATOM      5  O   UNL A   1      34.169  20.089  24.430  1.00  0.00    -0.460 OA
BRANCH   5   6
ATOM      6  C   UNL A   1      32.865  19.975  24.780  1.00  0.00     0.338 C 
ATOM      7  O   UNL A   1      32.347  19.058  25.406  1.00  0.00    -0.246 OA
BRANCH   6   8
ATOM      8  C   UNL A   1      32.146  21.229  24.461  1.00  0.00     0.062 A 
ATOM      9  C   UNL A   1      30.766  23.121  25.121  1.00  0.00     0.057 A 
ATOM     10  C   UNL A   1      30.824  23.589  23.800  1.00  0.00     0.028 A 
ATOM     11  C   UNL A   1      31.396  21.905  25.426  1.00  0.00     0.043 A 
ATOM     12  C   UNL A   1      31.534  22.892  22.819  1.00  0.00     0.003 A 
ATOM     13  C   UNL A   1      32.218  21.727  23.156  1.00  0.00     0.016 A 
BRANCH   9  14
ATOM     14  N   UNL A   1      30.222  23.960  26.116  1.00  0.00    -0.278 N 
ATOM     15  H   UNL A   1      29.710  23.541  26.845  1.00  0.00     0.190 HD
BRANCH  14  16
ATOM     16  N   UNL A   1      30.363  25.315  26.130  1.00  0.00    -0.183 NA
ATOM     17  C   UNL A   1      31.586  25.749  26.186  1.00  0.00     0.141 C 
BRANCH  17  18
ATOM     18  C   UNL A   1      31.912  27.174  26.298  1.00  0.00    -0.002 A 
ATOM     19  C   UNL A   1      32.543  29.898  26.428  1.00  0.00     0.160 A 
ATOM     20  C   UNL A   1      32.058  29.216  27.555  1.00  0.00     0.051 A 
ATOM     21  C   UNL A   1      32.738  29.179  25.245  1.00  0.00     0.158 A 
ATOM     22  C   UNL A   1      31.759  27.853  27.502  1.00  0.00     0.014 A 
ATOM     23  C   UNL A   1      32.392  27.831  25.164  1.00  0.00     0.060 A 
BRANCH  19  24
ATOM     24  O   UNL A   1      32.798  31.219  26.662  1.00  0.00    -0.493 OA
ATOM     25  C   UNL A   1      33.712  31.570  27.691  1.00  0.00     0.278 C 
ENDBRANCH  19  24
BRANCH  21  26
ATOM     26  O   UNL A   1      33.321  29.698  24.125  1.00  0.00    -0.504 OA
ATOM     27  H   UNL A   1      34.109  29.319  23.790  1.00  0.00     0.293 HD
ENDBRANCH  21  26
ENDBRANCH  17  18
ENDBRANCH  14  16
ENDBRANCH   9  14
ENDBRANCH   6   8
ENDBRANCH   5   6
ENDBRANCH   4   5
ENDBRANCH   3   4
ENDBRANCH   2   3
ENDBRANCH   1   2
BRANCH   1  28
ATOM     28  C   UNL A   1      38.398  23.867  26.584  1.00  0.00     0.188 C 
BRANCH  28  29
ATOM     29  O   UNL A   1      39.074  22.630  26.651  1.00  0.00    -0.376 OA
BRANCH  29  30
ATOM     30  C   UNL A   1      38.947  21.751  25.548  1.00  0.00     0.202 C 
BRANCH  30  31
ATOM     31  C   UNL A   1      39.160  20.240  25.746  1.00  0.00     0.261 C 
BRANCH  31  32
ATOM     32  O   UNL A   1      40.116  19.837  26.741  1.00  0.00    -0.460 OA
BRANCH  32  33
ATOM     33  C   UNL A   1      41.370  19.571  26.327  1.00  0.00     0.338 C 
ATOM     34  O   UNL A   1      41.764  18.551  25.769  1.00  0.00    -0.246 OA
BRANCH  33  35
ATOM     35  C   UNL A   1      42.193  20.788  26.493  1.00  0.00     0.060 A 
ATOM     36  C   UNL A   1      42.369  21.311  27.781  1.00  0.00     0.016 A 
ATOM     37  C   UNL A   1      42.759  21.432  25.389  1.00  0.00     0.016 A 
ATOM     38  C   UNL A   1      43.061  22.510  27.961  1.00  0.00     0.010 A 
ATOM     39  C   UNL A   1      43.443  22.642  25.570  1.00  0.00     0.010 A 
ATOM     40  C   UNL A   1      43.557  23.209  26.853  1.00  0.00    -0.014 A 
BRANCH  40  41
ATOM     41  C   UNL A   1      43.998  24.619  27.023  1.00  0.00     0.031 A 
ATOM     42  C   UNL A   1      42.998  25.627  27.528  1.00  0.00     0.074 A 
ATOM     43  C   UNL A   1      45.268  24.995  26.794  1.00  0.00     0.049 A 
ATOM     44  N   UNL A   1      43.152  26.901  27.787  1.00  0.00    -0.248 NA
ATOM     45  C   UNL A   1      41.637  25.126  27.777  1.00  0.00     0.031 C 
ATOM     46  C   UNL A   1      46.339  24.117  26.330  1.00  0.00     0.029 A 
ATOM     47  N   UNL A   1      45.869  26.224  26.923  1.00  0.00    -0.354 N 
ATOM     48  C   UNL A   1      41.913  27.351  28.225  1.00  0.00     0.074 A 
ATOM     49  C   UNL A   1      41.007  26.225  28.162  1.00  0.00     0.031 C 
ATOM     50  C   UNL A   1      47.469  24.837  26.210  1.00  0.00     0.029 A 
ATOM     51  C   UNL A   1      47.195  26.228  26.566  1.00  0.00     0.049 A 
ATOM     52  H   UNL A   1      45.394  27.025  27.240  1.00  0.00     0.167 HD
ATOM     53  C   UNL A   1      41.562  28.586  28.659  1.00  0.00     0.037 A 
ATOM     54  C   UNL A   1      48.081  27.244  26.526  1.00  0.00     0.037 A 
ATOM     55  C   UNL A   1      42.458  29.710  28.719  1.00  0.00     0.049 A 
ATOM     56  C   UNL A   1      47.651  28.624  26.957  1.00  0.00     0.074 A 
ATOM     57  C   UNL A   1      42.200  30.999  29.155  1.00  0.00     0.029 A 
ATOM     58  N   UNL A   1      43.786  29.682  28.322  1.00  0.00    -0.354 N 
ATOM     59  N   UNL A   1      46.487  29.032  27.406  1.00  0.00    -0.248 NA
ATOM     60  C   UNL A   1      48.666  29.685  26.887  1.00  0.00     0.031 C 
ATOM     61  C   UNL A   1      43.356  31.763  28.971  1.00  0.00     0.029 A 
ATOM     62  C   UNL A   1      44.355  30.936  28.481  1.00  0.00     0.049 A 
ATOM     63  H   UNL A   1      44.257  28.888  27.978  1.00  0.00     0.167 HD
ATOM     64  C   UNL A   1      46.641  30.381  27.701  1.00  0.00     0.074 A 
ATOM     65  C   UNL A   1      48.016  30.719  27.400  1.00  0.00     0.031 C 
ATOM     66  C   UNL A   1      45.726  31.262  28.181  1.00  0.00     0.037 A 
BRANCH  53  67
ATOM     67  C   UNL A   1      40.133  28.789  29.077  1.00  0.00     0.064 A 
ATOM     68  C   UNL A   1      39.723  28.629  30.409  1.00  0.00     0.173 A 
ATOM     69  C   UNL A   1      39.165  29.165  28.134  1.00  0.00     0.173 A 
ATOM     70  F   UNL A   1      40.607  28.255  31.347  1.00  0.00    -0.203 F 
ATOM     71  C   UNL A   1      38.392  28.812  30.777  1.00  0.00     0.198 A 
ATOM     72  C   UNL A   1      37.841  29.378  28.511  1.00  0.00     0.198 A 
ATOM     73  F   UNL A   1      39.502  29.333  26.846  1.00  0.00    -0.203 F 
ATOM     74  F   UNL A   1      38.015  28.603  32.045  1.00  0.00    -0.200 F 
ATOM     75  C   UNL A   1      37.454  29.192  29.830  1.00  0.00     0.200 A 
ATOM     76  F   UNL A   1      36.938  29.758  27.596  1.00  0.00    -0.200 F 
ATOM     77  F   UNL A   1      36.174  29.372  30.185  1.00  0.00    -0.200 F 
ENDBRANCH  53  67
BRANCH  54  78
ATOM     78  C   UNL A   1      49.474  27.001  26.060  1.00  0.00     0.064 A 
ATOM     79  C   UNL A   1      50.495  26.678  26.964  1.00  0.00     0.173 A 
ATOM     80  C   UNL A   1      49.818  27.124  24.706  1.00  0.00     0.173 A 
ATOM     81  F   UNL A   1      50.223  26.579  28.275  1.00  0.00    -0.203 F 
ATOM     82  C   UNL A   1      51.810  26.510  26.536  1.00  0.00     0.198 A 
ATOM     83  C   UNL A   1      51.127  26.925  24.275  1.00  0.00     0.198 A 
ATOM     84  F   UNL A   1      48.879  27.437  23.801  1.00  0.00    -0.203 F 
ATOM     85  F   UNL A   1      52.776  26.258  27.429  1.00  0.00    -0.200 F 
ATOM     86  C   UNL A   1      52.124  26.627  25.190  1.00  0.00     0.200 A 
ATOM     87  F   UNL A   1      51.423  27.031  22.972  1.00  0.00    -0.200 F 
ATOM     88  F   UNL A   1      53.389  26.467  24.779  1.00  0.00    -0.200 F 
ENDBRANCH  54  78
BRANCH  66  89
ATOM     89  C   UNL A   1      46.196  32.664  28.452  1.00  0.00     0.064 A 
ATOM     90  C   UNL A   1      46.726  33.043  29.695  1.00  0.00     0.173 A 
ATOM     91  C   UNL A   1      46.127  33.641  27.446  1.00  0.00     0.173 A 
ATOM     92  F   UNL A   1      46.806  32.153  30.695  1.00  0.00    -0.203 F 
ATOM     93  C   UNL A   1      47.125  34.357  29.934  1.00  0.00     0.198 A 
ATOM     94  C   UNL A   1      46.561  34.944  27.677  1.00  0.00     0.198 A 
ATOM     95  F   UNL A   1      45.641  33.332  26.234  1.00  0.00    -0.203 F 
ATOM     96  F   UNL A   1      47.564  34.710  31.150  1.00  0.00    -0.200 F 
ATOM     97  C   UNL A   1      47.047  35.304  28.924  1.00  0.00     0.200 A 
ATOM     98  F   UNL A   1      46.501  35.854  26.695  1.00  0.00    -0.200 F 
ATOM     99  F   UNL A   1      47.431  36.567  29.157  1.00  0.00    -0.200 F 
ENDBRANCH  66  89
ENDBRANCH  40  41
ENDBRANCH  33  35
ENDBRANCH  32  33
ENDBRANCH  31  32
ENDBRANCH  30  31
ENDBRANCH  29  30
ENDBRANCH  28  29
ENDBRANCH   1  28
TORSDOF 22
ENDMDL
MODEL 2
REMARK VINA RESULT:     -10.4      1.697      8.437
REMARK SMILES COc1ccc(/C=N/Nc2cccc(C(=O)OCCOCCOCCOC(=O)c3ccc(-c4c5nc(c(-c6c(F)c(F)c(F)c(F)c6F)c6ccc([nH]6)c(-c6c(F)c(F)c(F)c(F)c6F)c6nc(c(-c7c(F)c(F)c(F)c(F)c7F)c7ccc4[nH]7)C=C6)C=C5)cc3)c2)cc1O
REMARK SMILES IDX 21 1 20 2 19 3 18 4 17 5 15 6 16 7 14 8 10 9 11 10 92 11
REMARK SMILES IDX 12 12 13 13 9 14 8 16 7 17 6 18 3 19 4 20 94 21 5 22 93 23
REMARK SMILES IDX 2 24 1 25 95 26 22 28 23 29 24 30 25 31 26 32 27 33 28 34
REMARK SMILES IDX 29 35 30 36 91 37 31 38 90 39 32 40 33 41 34 42 84 43 35 44
REMARK SMILES IDX 89 45 83 46 85 47 36 48 88 49 82 50 81 51 37 53 69 54 49 55
REMARK SMILES IDX 68 56 50 57 53 58 67 59 86 60 51 61 52 62 66 64 87 65 54 66
REMARK SMILES IDX 38 67 39 68 47 69 40 70 41 71 45 72 48 73 42 74 43 75 46 76
REMARK SMILES IDX 44 77 70 78 71 79 79 80 72 81 73 82 77 83 80 84 74 85 75 86
REMARK SMILES IDX 78 87 76 88 55 89 56 90 64 91 57 92 58 93 62 94 65 95 59 96
REMARK SMILES IDX 60 97 63 98 61 99
REMARK H PARENT 9 15 95 27 85 52 53 63
REMARK Flexibility Score: inf
ROOT
ATOM      1  C   UNL A   1      34.561  24.010  25.723  1.00  0.00     0.188 C 
ENDROOT
BRANCH   1   2
ATOM      2  O   UNL A   1      34.661  25.354  25.265  1.00  0.00    -0.376 OA
BRANCH   2   3
ATOM      3  C   UNL A   1      33.913  26.381  25.904  1.00  0.00     0.202 C 
BRANCH   3   4
ATOM      4  C   UNL A   1      33.888  27.786  25.283  1.00  0.00     0.261 C 
BRANCH   4   5
ATOM      5  O   UNL A   1      33.662  27.807  23.866  1.00  0.00    -0.460 OA
BRANCH   5   6
ATOM      6  C   UNL A   1      32.370  27.902  23.472  1.00  0.00     0.338 C 
ATOM      7  O   UNL A   1      31.800  28.900  23.047  1.00  0.00    -0.246 OA
BRANCH   6   8
ATOM      8  C   UNL A   1      31.751  26.558  23.444  1.00  0.00     0.062 A 
ATOM      9  C   UNL A   1      31.722  24.241  22.704  1.00  0.00     0.057 A 
ATOM     10  C   UNL A   1      30.544  24.048  23.441  1.00  0.00     0.028 A 
ATOM     11  C   UNL A   1      32.290  25.523  22.677  1.00  0.00     0.043 A 
ATOM     12  C   UNL A   1      29.973  25.093  24.173  1.00  0.00     0.003 A 
ATOM     13  C   UNL A   1      30.593  26.340  24.197  1.00  0.00     0.016 A 
BRANCH   9  14
ATOM     14  N   UNL A   1      32.374  23.114  22.159  1.00  0.00    -0.278 N 
ATOM     15  H   UNL A   1      32.527  23.094  21.187  1.00  0.00     0.190 HD
BRANCH  14  16
ATOM     16  N   UNL A   1      32.806  22.053  22.897  1.00  0.00    -0.183 NA
ATOM     17  C   UNL A   1      32.217  20.923  22.648  1.00  0.00     0.141 C 
BRANCH  17  18
ATOM     18  C   UNL A   1      32.497  19.703  23.413  1.00  0.00    -0.002 A 
ATOM     19  C   UNL A   1      33.012  17.416  24.942  1.00  0.00     0.160 A 
ATOM     20  C   UNL A   1      32.978  17.354  23.540  1.00  0.00     0.051 A 
ATOM     21  C   UNL A   1      32.818  18.656  25.559  1.00  0.00     0.158 A 
ATOM     22  C   UNL A   1      32.740  18.494  22.770  1.00  0.00     0.014 A 
ATOM     23  C   UNL A   1      32.526  19.791  24.805  1.00  0.00     0.060 A 
BRANCH  19  24
ATOM     24  O   UNL A   1      33.274  16.213  25.533  1.00  0.00    -0.493 OA
ATOM     25  C   UNL A   1      32.246  15.234  25.580  1.00  0.00     0.278 C 
ENDBRANCH  19  24
BRANCH  21  26
ATOM     26  O   UNL A   1      32.954  18.868  26.902  1.00  0.00    -0.504 OA
ATOM     27  H   UNL A   1      33.415  19.623  27.211  1.00  0.00     0.293 HD
ENDBRANCH  21  26
ENDBRANCH  17  18
ENDBRANCH  14  16
ENDBRANCH   9  14
ENDBRANCH   6   8
ENDBRANCH   5   6
ENDBRANCH   4   5
ENDBRANCH   3   4
ENDBRANCH   2   3
ENDBRANCH   1   2
BRANCH   1  28
ATOM     28  C   UNL A   1      35.824  23.243  26.175  1.00  0.00     0.188 C 
BRANCH  28  29
ATOM     29  O   UNL A   1      36.604  22.764  25.100  1.00  0.00    -0.376 OA
BRANCH  29  30
ATOM     30  C   UNL A   1      37.267  21.525  25.271  1.00  0.00     0.202 C 
BRANCH  30  31
ATOM     31  C   UNL A   1      38.725  21.500  25.764  1.00  0.00     0.261 C 
BRANCH  31  32
ATOM     32  O   UNL A   1      39.207  20.268  26.326  1.00  0.00    -0.460 OA
BRANCH  32  33
ATOM     33  C   UNL A   1      40.527  20.018  26.235  1.00  0.00     0.338 C 
ATOM     34  O   UNL A   1      41.059  19.002  25.798  1.00  0.00    -0.246 OA
BRANCH  33  35
ATOM     35  C   UNL A   1      41.269  21.246  26.592  1.00  0.00     0.060 A 
ATOM     36  C   UNL A   1      41.284  21.659  27.931  1.00  0.00     0.016 A 
ATOM     37  C   UNL A   1      41.916  22.007  25.615  1.00  0.00     0.016 A 
ATOM     38  C   UNL A   1      41.895  22.862  28.286  1.00  0.00     0.010 A 
ATOM     39  C   UNL A   1      42.518  23.222  25.970  1.00  0.00     0.010 A 
ATOM     40  C   UNL A   1      42.471  23.677  27.301  1.00  0.00    -0.014 A 
BRANCH  40  41
ATOM     41  C   UNL A   1      42.823  25.081  27.637  1.00  0.00     0.031 A 
ATOM     42  C   UNL A   1      44.222  25.560  27.341  1.00  0.00     0.074 A 
ATOM     43  C   UNL A   1      41.917  25.937  28.139  1.00  0.00     0.049 A 
ATOM     44  N   UNL A   1      44.755  26.743  27.514  1.00  0.00    -0.248 NA
ATOM     45  C   UNL A   1      45.143  24.565  26.770  1.00  0.00     0.031 C 
ATOM     46  C   UNL A   1      40.527  25.612  28.446  1.00  0.00     0.029 A 
ATOM     47  N   UNL A   1      42.038  27.263  28.480  1.00  0.00    -0.354 N 
ATOM     48  C   UNL A   1      46.069  26.633  27.075  1.00  0.00     0.074 A 
ATOM     49  C   UNL A   1      46.265  25.260  26.664  1.00  0.00     0.031 C 
ATOM     50  C   UNL A   1      39.921  26.710  28.933  1.00  0.00     0.029 A 
ATOM     51  C   UNL A   1      40.886  27.807  28.993  1.00  0.00     0.049 A 
ATOM     52  H   UNL A   1      42.871  27.774  28.367  1.00  0.00     0.167 HD
ATOM     53  C   UNL A   1      47.024  27.592  27.003  1.00  0.00     0.037 A 
ATOM     54  C   UNL A   1      40.646  29.047  29.465  1.00  0.00     0.037 A 
ATOM     55  C   UNL A   1      46.834  28.958  27.415  1.00  0.00     0.049 A 
ATOM     56  C   UNL A   1      41.743  30.082  29.430  1.00  0.00     0.074 A 
ATOM     57  C   UNL A   1      47.737  30.007  27.371  1.00  0.00     0.029 A 
ATOM     58  N   UNL A   1      45.663  29.463  27.958  1.00  0.00    -0.354 N 
ATOM     59  N   UNL A   1      42.970  29.979  28.979  1.00  0.00    -0.248 NA
ATOM     60  C   UNL A   1      41.413  31.412  29.961  1.00  0.00     0.031 C 
ATOM     61  C   UNL A   1      47.129  31.133  27.935  1.00  0.00     0.029 A 
ATOM     62  C   UNL A   1      45.826  30.804  28.273  1.00  0.00     0.049 A 
ATOM     63  H   UNL A   1      44.836  28.947  28.098  1.00  0.00     0.167 HD
ATOM     64  C   UNL A   1      43.545  31.235  29.140  1.00  0.00     0.074 A 
ATOM     65  C   UNL A   1      42.525  32.088  29.712  1.00  0.00     0.031 C 
ATOM     66  C   UNL A   1      44.803  31.645  28.839  1.00  0.00     0.037 A 
BRANCH  53  67
ATOM     67  C   UNL A   1      48.372  27.184  26.482  1.00  0.00     0.064 A 
ATOM     68  C   UNL A   1      49.394  26.745  27.339  1.00  0.00     0.173 A 
ATOM     69  C   UNL A   1      48.640  27.215  25.105  1.00  0.00     0.173 A 
ATOM     70  F   UNL A   1      49.195  26.712  28.665  1.00  0.00    -0.203 F 
ATOM     71  C   UNL A   1      50.641  26.381  26.839  1.00  0.00     0.198 A 
ATOM     72  C   UNL A   1      49.878  26.819  24.606  1.00  0.00     0.198 A 
ATOM     73  F   UNL A   1      47.698  27.623  24.241  1.00  0.00    -0.203 F 
ATOM     74  F   UNL A   1      51.618  26.016  27.680  1.00  0.00    -0.200 F 
ATOM     75  C   UNL A   1      50.880  26.411  25.473  1.00  0.00     0.200 A 
ATOM     76  F   UNL A   1      50.103  26.837  23.285  1.00  0.00    -0.200 F 
ATOM     77  F   UNL A   1      52.080  26.056  24.992  1.00  0.00    -0.200 F 
ENDBRANCH  53  67
BRANCH  54  78
ATOM     78  C   UNL A   1      39.305  29.389  30.014  1.00  0.00     0.064 A 
ATOM     79  C   UNL A   1      38.296  29.909  29.192  1.00  0.00     0.173 A 
ATOM     80  C   UNL A   1      39.020  29.238  31.379  1.00  0.00     0.173 A 
ATOM     81  F   UNL A   1      38.530  30.101  27.884  1.00  0.00    -0.203 F 
ATOM     82  C   UNL A   1      37.062  30.286  29.717  1.00  0.00     0.198 A 
ATOM     83  C   UNL A   1      37.775  29.586  31.897  1.00  0.00     0.198 A 
ATOM     84  F   UNL A   1      39.953  28.751  32.209  1.00  0.00    -0.203 F 
ATOM     85  F   UNL A   1      36.135  30.833  28.918  1.00  0.00    -0.200 F 
ATOM     86  C   UNL A   1      36.800  30.118  31.069  1.00  0.00     0.200 A 
ATOM     87  F   UNL A   1      37.524  29.414  33.202  1.00  0.00    -0.200 F 
ATOM     88  F   UNL A   1      35.613  30.482  31.573  1.00  0.00    -0.200 F 
ENDBRANCH  54  78
BRANCH  66  89
ATOM     89  C   UNL A   1      45.132  33.092  29.083  1.00  0.00     0.064 A 
ATOM     90  C   UNL A   1      44.883  34.083  28.120  1.00  0.00     0.173 A 
ATOM     91  C   UNL A   1      45.693  33.496  30.305  1.00  0.00     0.173 A 
ATOM     92  F   UNL A   1      44.358  33.753  26.931  1.00  0.00    -0.203 F 
ATOM     93  C   UNL A   1      45.227  35.413  28.355  1.00  0.00     0.198 A 
ATOM     94  C   UNL A   1      46.001  34.831  30.549  1.00  0.00     0.198 A 
ATOM     95  F   UNL A   1      45.941  32.593  31.267  1.00  0.00    -0.203 F 
ATOM     96  F   UNL A   1      45.043  36.329  27.394  1.00  0.00    -0.200 F 
ATOM     97  C   UNL A   1      45.780  35.787  29.569  1.00  0.00     0.200 A 
ATOM     98  F   UNL A   1      46.520  35.193  31.731  1.00  0.00    -0.200 F 
ATOM     99  F   UNL A   1      46.111  37.066  29.792  1.00  0.00    -0.200 F 
ENDBRANCH  66  89
ENDBRANCH  40  41
ENDBRANCH  33  35
ENDBRANCH  32  33
ENDBRANCH  31  32
ENDBRANCH  30  31
ENDBRANCH  29  30
ENDBRANCH  28  29
ENDBRANCH   1  28
TORSDOF 22
ENDMDL
MODEL 3
REMARK VINA RESULT:      -9.9      5.659     10.914
REMARK SMILES COc1ccc(/C=N/Nc2cccc(C(=O)OCCOCCOCCOC(=O)c3ccc(-c4c5nc(c(-c6c(F)c(F)c(F)c(F)c6F)c6ccc([nH]6)c(-c6c(F)c(F)c(F)c(F)c6F)c6nc(c(-c7c(F)c(F)c(F)c(F)c7F)c7ccc4[nH]7)C=C6)C=C5)cc3)c2)cc1O
REMARK SMILES IDX 21 1 20 2 19 3 18 4 17 5 15 6 16 7 14 8 10 9 11 10 92 11
REMARK SMILES IDX 12 12 13 13 9 14 8 16 7 17 6 18 3 19 4 20 94 21 5 22 93 23
REMARK SMILES IDX 2 24 1 25 95 26 22 28 23 29 24 30 25 31 26 32 27 33 28 34
REMARK SMILES IDX 29 35 30 36 91 37 31 38 90 39 32 40 33 41 34 42 84 43 35 44
REMARK SMILES IDX 89 45 83 46 85 47 36 48 88 49 82 50 81 51 37 53 69 54 49 55
REMARK SMILES IDX 68 56 50 57 53 58 67 59 86 60 51 61 52 62 66 64 87 65 54 66
REMARK SMILES IDX 38 67 39 68 47 69 40 70 41 71 45 72 48 73 42 74 43 75 46 76
REMARK SMILES IDX 44 77 70 78 71 79 79 80 72 81 73 82 77 83 80 84 74 85 75 86
REMARK SMILES IDX 78 87 76 88 55 89 56 90 64 91 57 92 58 93 62 94 65 95 59 96
REMARK SMILES IDX 60 97 63 98 61 99
REMARK H PARENT 9 15 95 27 85 52 53 63
REMARK Flexibility Score: inf
ROOT
ATOM      1  C   UNL A   1      34.296  35.275  30.399  1.00  0.00     0.188 C 
ENDROOT
BRANCH   1   2
ATOM      2  O   UNL A   1      33.868  34.601  31.578  1.00  0.00    -0.376 OA
BRANCH   2   3
ATOM      3  C   UNL A   1      33.548  35.345  32.747  1.00  0.00     0.202 C 
BRANCH   3   4
ATOM      4  C   UNL A   1      34.662  35.682  33.749  1.00  0.00     0.261 C 
BRANCH   4   5
ATOM      5  O   UNL A   1      35.844  34.879  33.617  1.00  0.00    -0.460 OA
BRANCH   5   6
ATOM      6  C   UNL A   1      36.188  34.146  34.703  1.00  0.00     0.338 C 
ATOM      7  O   UNL A   1      35.478  33.872  35.663  1.00  0.00    -0.246 OA
BRANCH   6   8
ATOM      8  C   UNL A   1      37.522  33.540  34.499  1.00  0.00     0.062 A 
ATOM      9  C   UNL A   1      38.960  31.596  34.222  1.00  0.00     0.057 A 
ATOM     10  C   UNL A   1      40.059  32.460  34.102  1.00  0.00     0.028 A 
ATOM     11  C   UNL A   1      37.697  32.154  34.471  1.00  0.00     0.043 A 
ATOM     12  C   UNL A   1      39.898  33.846  34.177  1.00  0.00     0.003 A 
ATOM     13  C   UNL A   1      38.626  34.386  34.347  1.00  0.00     0.016 A 
BRANCH   9  14
ATOM     14  N   UNL A   1      39.136  30.227  33.928  1.00  0.00    -0.278 N 
ATOM     15  H   UNL A   1      38.483  29.794  33.332  1.00  0.00     0.190 HD
BRANCH  14  16
ATOM     16  N   UNL A   1      40.155  29.468  34.420  1.00  0.00    -0.183 NA
ATOM     17  C   UNL A   1      40.709  28.658  33.570  1.00  0.00     0.141 C 
BRANCH  17  18
ATOM     18  C   UNL A   1      41.757  27.708  33.955  1.00  0.00    -0.002 A 
ATOM     19  C   UNL A   1      43.702  25.851  34.734  1.00  0.00     0.160 A 
ATOM     20  C   UNL A   1      43.982  26.822  33.761  1.00  0.00     0.051 A 
ATOM     21  C   UNL A   1      42.439  25.851  35.333  1.00  0.00     0.158 A 
ATOM     22  C   UNL A   1      43.023  27.764  33.381  1.00  0.00     0.014 A 
ATOM     23  C   UNL A   1      41.455  26.751  34.924  1.00  0.00     0.060 A 
BRANCH  19  24
ATOM     24  O   UNL A   1      44.757  25.024  34.995  1.00  0.00    -0.493 OA
ATOM     25  C   UNL A   1      45.206  24.142  33.976  1.00  0.00     0.278 C 
ENDBRANCH  19  24
BRANCH  21  26
ATOM     26  O   UNL A   1      42.090  25.043  36.377  1.00  0.00    -0.504 OA
ATOM     27  H   UNL A   1      41.246  24.636  36.392  1.00  0.00     0.293 HD
ENDBRANCH  21  26
ENDBRANCH  17  18
ENDBRANCH  14  16
ENDBRANCH   9  14
ENDBRANCH   6   8
ENDBRANCH   5   6
ENDBRANCH   4   5
ENDBRANCH   3   4
ENDBRANCH   2   3
ENDBRANCH   1   2
BRANCH   1  28
ATOM     28  C   UNL A   1      33.362  35.372  29.172  1.00  0.00     0.188 C 
BRANCH  28  29
ATOM     29  O   UNL A   1      32.601  34.204  28.953  1.00  0.00    -0.376 OA
BRANCH  29  30
ATOM     30  C   UNL A   1      32.972  33.371  27.870  1.00  0.00     0.202 C 
BRANCH  30  31
ATOM     31  C   UNL A   1      34.412  32.834  27.778  1.00  0.00     0.261 C 
BRANCH  31  32
ATOM     32  O   UNL A   1      34.666  31.536  28.342  1.00  0.00    -0.460 OA
BRANCH  32  33
ATOM     33  C   UNL A   1      35.248  31.489  29.556  1.00  0.00     0.338 C 
ATOM     34  O   UNL A   1      34.779  31.890  30.616  1.00  0.00    -0.246 OA
BRANCH  33  35
ATOM     35  C   UNL A   1      36.501  30.712  29.452  1.00  0.00     0.060 A 
ATOM     36  C   UNL A   1      36.903  29.933  30.545  1.00  0.00     0.016 A 
ATOM     37  C   UNL A   1      37.296  30.775  28.303  1.00  0.00     0.016 A 
ATOM     38  C   UNL A   1      38.126  29.262  30.515  1.00  0.00     0.010 A 
ATOM     39  C   UNL A   1      38.530  30.111  28.279  1.00  0.00     0.010 A 
ATOM     40  C   UNL A   1      38.971  29.388  29.403  1.00  0.00    -0.014 A 
BRANCH  40  41
ATOM     41  C   UNL A   1      40.385  28.944  29.513  1.00  0.00     0.031 A 
ATOM     42  C   UNL A   1      41.357  29.824  30.257  1.00  0.00     0.074 A 
ATOM     43  C   UNL A   1      40.797  27.764  29.020  1.00  0.00     0.049 A 
ATOM     44  N   UNL A   1      42.628  29.638  30.512  1.00  0.00    -0.248 NA
ATOM     45  C   UNL A   1      40.819  31.088  30.785  1.00  0.00     0.031 C 
ATOM     46  C   UNL A   1      39.955  26.807  28.306  1.00  0.00     0.029 A 
ATOM     47  N   UNL A   1      42.035  27.169  29.049  1.00  0.00    -0.354 N 
ATOM     48  C   UNL A   1      43.038  30.757  31.227  1.00  0.00     0.074 A 
ATOM     49  C   UNL A   1      41.893  31.635  31.332  1.00  0.00     0.031 C 
ATOM     50  C   UNL A   1      40.703  25.744  27.960  1.00  0.00     0.029 A 
ATOM     51  C   UNL A   1      42.079  25.956  28.408  1.00  0.00     0.049 A 
ATOM     52  H   UNL A   1      42.817  27.576  29.487  1.00  0.00     0.167 HD
ATOM     53  C   UNL A   1      44.253  31.024  31.764  1.00  0.00     0.037 A 
ATOM     54  C   UNL A   1      43.115  25.118  28.203  1.00  0.00     0.037 A 
ATOM     55  C   UNL A   1      45.396  30.155  31.658  1.00  0.00     0.049 A 
ATOM     56  C   UNL A   1      44.474  25.465  28.759  1.00  0.00     0.074 A 
ATOM     57  C   UNL A   1      46.667  30.332  32.177  1.00  0.00     0.029 A 
ATOM     58  N   UNL A   1      45.409  28.948  30.976  1.00  0.00    -0.354 N 
ATOM     59  N   UNL A   1      44.843  26.507  29.466  1.00  0.00    -0.248 NA
ATOM     60  C   UNL A   1      45.559  24.508  28.498  1.00  0.00     0.031 C 
ATOM     61  C   UNL A   1      47.462  29.258  31.765  1.00  0.00     0.029 A 
ATOM     62  C   UNL A   1      46.671  28.379  31.042  1.00  0.00     0.049 A 
ATOM     63  H   UNL A   1      44.635  28.552  30.513  1.00  0.00     0.167 HD
ATOM     64  C   UNL A   1      46.188  26.314  29.760  1.00  0.00     0.074 A 
ATOM     65  C   UNL A   1      46.565  25.047  29.172  1.00  0.00     0.031 C 
ATOM     66  C   UNL A   1      47.035  27.114  30.456  1.00  0.00     0.037 A 
BRANCH  53  67
ATOM     67  C   UNL A   1      44.413  32.327  32.493  1.00  0.00     0.064 A 
ATOM     68  C   UNL A   1      44.940  33.466  31.865  1.00  0.00     0.173 A 
ATOM     69  C   UNL A   1      44.017  32.443  33.834  1.00  0.00     0.173 A 
ATOM     70  F   UNL A   1      45.349  33.404  30.589  1.00  0.00    -0.203 F 
ATOM     71  C   UNL A   1      45.090  34.664  32.560  1.00  0.00     0.198 A 
ATOM     72  C   UNL A   1      44.139  33.651  34.517  1.00  0.00     0.198 A 
ATOM     73  F   UNL A   1      43.504  31.386  34.482  1.00  0.00    -0.203 F 
ATOM     74  F   UNL A   1      45.645  35.722  31.955  1.00  0.00    -0.200 F 
ATOM     75  C   UNL A   1      44.683  34.757  33.882  1.00  0.00     0.200 A 
ATOM     76  F   UNL A   1      43.733  33.743  35.791  1.00  0.00    -0.200 F 
ATOM     77  F   UNL A   1      44.824  35.911  34.549  1.00  0.00    -0.200 F 
ENDBRANCH  53  67
BRANCH  54  78
ATOM     78  C   UNL A   1      42.916  23.860  27.434  1.00  0.00     0.064 A 
ATOM     79  C   UNL A   1      42.489  22.683  28.065  1.00  0.00     0.173 A 
ATOM     80  C   UNL A   1      43.185  23.799  26.058  1.00  0.00     0.173 A 
ATOM     81  F   UNL A   1      42.248  22.681  29.386  1.00  0.00    -0.203 F 
ATOM     82  C   UNL A   1      42.361  21.491  27.357  1.00  0.00     0.198 A 
ATOM     83  C   UNL A   1      43.026  22.614  25.345  1.00  0.00     0.198 A 
ATOM     84  F   UNL A   1      43.602  24.895  25.408  1.00  0.00    -0.203 F 
ATOM     85  F   UNL A   1      42.005  20.368  27.997  1.00  0.00    -0.200 F 
ATOM     86  C   UNL A   1      42.623  21.458  25.995  1.00  0.00     0.200 A 
ATOM     87  F   UNL A   1      43.273  22.590  24.028  1.00  0.00    -0.200 F 
ATOM     88  F   UNL A   1      42.501  20.311  25.314  1.00  0.00    -0.200 F 
ENDBRANCH  54  78
BRANCH  66  89
ATOM     89  C   UNL A   1      48.441  26.620  30.657  1.00  0.00     0.064 A 
ATOM     90  C   UNL A   1      48.797  25.819  31.754  1.00  0.00     0.173 A 
ATOM     91  C   UNL A   1      49.445  26.941  29.730  1.00  0.00     0.173 A 
ATOM     92  F   UNL A   1      47.880  25.491  32.676  1.00  0.00    -0.203 F 
ATOM     93  C   UNL A   1      50.113  25.399  31.938  1.00  0.00     0.198 A 
ATOM     94  C   UNL A   1      50.751  26.489  29.898  1.00  0.00     0.198 A 
ATOM     95  F   UNL A   1      49.159  27.693  28.656  1.00  0.00    -0.203 F 
ATOM     96  F   UNL A   1      50.442  24.694  33.029  1.00  0.00    -0.200 F 
ATOM     97  C   UNL A   1      51.087  25.730  31.008  1.00  0.00     0.200 A 
ATOM     98  F   UNL A   1      51.688  26.795  28.989  1.00  0.00    -0.200 F 
ATOM     99  F   UNL A   1      52.352  25.326  31.188  1.00  0.00    -0.200 F 
ENDBRANCH  66  89
ENDBRANCH  40  41
ENDBRANCH  33  35
ENDBRANCH  32  33
ENDBRANCH  31  32
ENDBRANCH  30  31
ENDBRANCH  29  30
ENDBRANCH  28  29
ENDBRANCH   1  28
TORSDOF 22
ENDMDL
