MODEL 1
REMARK VINA RESULT:     -11.4      0.000      0.000
REMARK SMILES O=C(OCCOCCOCCOC(=O)[C@H]1CC=CC[C@H]1c1nc2ccccc2s1)c1ccc(-c2c3nc(c(-c4c(F)c(F)c(F)c(F)c4F)c4ccc([nH]4)c(-c4c(F)c(F)c(F)c(F)c4F)c4nc(c(-c5c(F)c(F)c(F)c(F)c5F)c5ccc2[nH]5)C=C4)C=C3)cc1
REMARK SMILES IDX 7 1 6 2 5 3 4 4 3 5 2 6 1 7 30 8 31 9 92 10 32 11 91 12
REMARK SMILES IDX 33 13 34 14 35 15 85 16 36 17 90 18 84 19 86 20 37 21 89 22
REMARK SMILES IDX 83 23 82 24 38 26 70 27 50 28 69 29 51 30 54 31 68 32 87 33
REMARK SMILES IDX 52 34 53 35 67 37 88 38 55 39 39 40 40 41 48 42 41 43 42 44
REMARK SMILES IDX 46 45 49 46 43 47 44 48 47 49 45 50 71 51 72 52 80 53 73 54
REMARK SMILES IDX 74 55 78 56 81 57 75 58 76 59 79 60 77 61 56 62 57 63 65 64
REMARK SMILES IDX 58 65 59 66 63 67 66 68 60 69 61 70 64 71 62 72 8 73 9 74
REMARK SMILES IDX 10 75 11 76 12 77 13 78 14 79 15 80 16 81 20 82 17 83 19 84
REMARK SMILES IDX 18 85 21 86 22 87 29 88 23 89 28 90 24 91 27 92 25 93 26 94
REMARK H PARENT 86 25 54 36
REMARK Flexibility Score: inf
ROOT
ATOM      1  C   UNL A   1      33.169  28.868  24.062  1.00  0.00     0.188 C 
ENDROOT
BRANCH   1   2
ATOM      2  O   UNL A   1      32.951  29.721  25.191  1.00  0.00    -0.376 OA
BRANCH   2   3
ATOM      3  C   UNL A   1      31.587  30.098  25.359  1.00  0.00     0.202 C 
BRANCH   3   4
ATOM      4  C   UNL A   1      31.382  31.395  26.161  1.00  0.00     0.261 C 
BRANCH   4   5
ATOM      5  O   UNL A   1      32.186  31.515  27.350  1.00  0.00    -0.460 OA
BRANCH   5   6
ATOM      6  C   UNL A   1      33.305  32.232  27.605  1.00  0.00     0.338 C 
ATOM      7  O   UNL A   1      33.257  33.446  27.395  1.00  0.00    -0.246 OA
BRANCH   6   8
ATOM      8  C   UNL A   1      34.613  31.680  28.101  1.00  0.00     0.060 A 
ATOM      9  C   UNL A   1      34.898  30.341  28.362  1.00  0.00     0.016 A 
ATOM     10  C   UNL A   1      35.662  32.610  28.289  1.00  0.00     0.016 A 
ATOM     11  C   UNL A   1      36.174  29.935  28.769  1.00  0.00     0.010 A 
ATOM     12  C   UNL A   1      36.943  32.215  28.706  1.00  0.00     0.010 A 
ATOM     13  C   UNL A   1      37.204  30.867  28.948  1.00  0.00    -0.014 A 
BRANCH  13  14
ATOM     14  C   UNL A   1      38.438  30.405  29.627  1.00  0.00     0.031 A 
ATOM     15  C   UNL A   1      38.565  30.742  31.073  1.00  0.00     0.074 A 
ATOM     16  C   UNL A   1      39.339  29.607  29.026  1.00  0.00     0.049 A 
ATOM     17  N   UNL A   1      39.498  30.405  31.919  1.00  0.00    -0.248 NA
ATOM     18  C   UNL A   1      37.520  31.617  31.632  1.00  0.00     0.031 C 
ATOM     19  C   UNL A   1      39.347  29.290  27.610  1.00  0.00     0.029 A 
ATOM     20  N   UNL A   1      40.385  28.870  29.521  1.00  0.00    -0.354 N 
ATOM     21  C   UNL A   1      39.184  31.068  33.091  1.00  0.00     0.074 A 
ATOM     22  C   UNL A   1      37.966  31.811  32.861  1.00  0.00     0.031 C 
ATOM     23  C   UNL A   1      40.199  28.282  27.374  1.00  0.00     0.029 A 
ATOM     24  C   UNL A   1      40.937  28.006  28.597  1.00  0.00     0.049 A 
ATOM     25  H   UNL A   1      40.710  28.950  30.447  1.00  0.00     0.167 HD
ATOM     26  C   UNL A   1      39.886  31.081  34.244  1.00  0.00     0.037 A 
ATOM     27  C   UNL A   1      41.960  27.136  28.719  1.00  0.00     0.037 A 
ATOM     28  C   UNL A   1      41.113  30.359  34.425  1.00  0.00     0.049 A 
ATOM     29  C   UNL A   1      42.715  27.157  30.021  1.00  0.00     0.074 A 
ATOM     30  C   UNL A   1      41.952  30.337  35.522  1.00  0.00     0.029 A 
ATOM     31  N   UNL A   1      41.683  29.530  33.463  1.00  0.00    -0.354 N 
ATOM     32  N   UNL A   1      42.445  27.824  31.119  1.00  0.00    -0.248 NA
ATOM     33  C   UNL A   1      43.956  26.375  30.083  1.00  0.00     0.031 C 
ATOM     34  C   UNL A   1      43.050  29.530  35.209  1.00  0.00     0.029 A 
ATOM     35  C   UNL A   1      42.868  28.998  33.940  1.00  0.00     0.049 A 
ATOM     36  H   UNL A   1      41.300  29.349  32.575  1.00  0.00     0.167 HD
ATOM     37  C   UNL A   1      43.489  27.565  31.992  1.00  0.00     0.074 A 
ATOM     38  C   UNL A   1      44.374  26.637  31.314  1.00  0.00     0.031 C 
ATOM     39  C   UNL A   1      43.714  28.072  33.229  1.00  0.00     0.037 A 
BRANCH  26  40
ATOM     40  C   UNL A   1      39.377  31.988  35.322  1.00  0.00     0.064 A 
ATOM     41  C   UNL A   1      39.780  33.329  35.417  1.00  0.00     0.173 A 
ATOM     42  C   UNL A   1      38.544  31.478  36.328  1.00  0.00     0.173 A 
ATOM     43  F   UNL A   1      40.613  33.850  34.503  1.00  0.00    -0.203 F 
ATOM     44  C   UNL A   1      39.402  34.112  36.504  1.00  0.00     0.198 A 
ATOM     45  C   UNL A   1      38.140  32.275  37.395  1.00  0.00     0.198 A 
ATOM     46  F   UNL A   1      38.147  30.196  36.294  1.00  0.00    -0.203 F 
ATOM     47  F   UNL A   1      39.867  35.363  36.618  1.00  0.00    -0.200 F 
ATOM     48  C   UNL A   1      38.581  33.586  37.489  1.00  0.00     0.200 A 
ATOM     49  F   UNL A   1      37.349  31.763  38.347  1.00  0.00    -0.200 F 
ATOM     50  F   UNL A   1      38.229  34.336  38.542  1.00  0.00    -0.200 F 
ENDBRANCH  26  40
BRANCH  27  51
ATOM     51  C   UNL A   1      42.395  26.268  27.581  1.00  0.00     0.064 A 
ATOM     52  C   UNL A   1      41.816  25.008  27.360  1.00  0.00     0.173 A 
ATOM     53  C   UNL A   1      43.421  26.658  26.704  1.00  0.00     0.173 A 
ATOM     54  F   UNL A   1      40.859  24.555  28.185  1.00  0.00    -0.203 F 
ATOM     55  C   UNL A   1      42.247  24.179  26.322  1.00  0.00     0.198 A 
ATOM     56  C   UNL A   1      43.818  25.851  25.639  1.00  0.00     0.198 A 
ATOM     57  F   UNL A   1      44.040  27.835  26.873  1.00  0.00    -0.203 F 
ATOM     58  F   UNL A   1      41.717  22.956  26.176  1.00  0.00    -0.200 F 
ATOM     59  C   UNL A   1      43.240  24.607  25.454  1.00  0.00     0.200 A 
ATOM     60  F   UNL A   1      44.768  26.280  24.796  1.00  0.00    -0.200 F 
ATOM     61  F   UNL A   1      43.649  23.816  24.452  1.00  0.00    -0.200 F 
ENDBRANCH  27  51
BRANCH  39  62
ATOM     62  C   UNL A   1      44.951  27.601  33.932  1.00  0.00     0.064 A 
ATOM     63  C   UNL A   1      46.143  28.338  33.899  1.00  0.00     0.173 A 
ATOM     64  C   UNL A   1      44.919  26.423  34.692  1.00  0.00     0.173 A 
ATOM     65  F   UNL A   1      46.224  29.462  33.170  1.00  0.00    -0.203 F 
ATOM     66  C   UNL A   1      47.268  27.900  34.589  1.00  0.00     0.198 A 
ATOM     67  C   UNL A   1      46.036  26.006  35.406  1.00  0.00     0.198 A 
ATOM     68  F   UNL A   1      43.798  25.689  34.754  1.00  0.00    -0.203 F 
ATOM     69  F   UNL A   1      48.412  28.594  34.511  1.00  0.00    -0.200 F 
ATOM     70  C   UNL A   1      47.211  26.741  35.350  1.00  0.00     0.200 A 
ATOM     71  F   UNL A   1      45.974  24.895  36.151  1.00  0.00    -0.200 F 
ATOM     72  F   UNL A   1      48.292  26.327  36.024  1.00  0.00    -0.200 F 
ENDBRANCH  39  62
ENDBRANCH  13  14
ENDBRANCH   6   8
ENDBRANCH   5   6
ENDBRANCH   4   5
ENDBRANCH   3   4
ENDBRANCH   2   3
ENDBRANCH   1   2
BRANCH   1  73
ATOM     73  C   UNL A   1      31.890  28.325  23.429  1.00  0.00     0.188 C 
BRANCH  73  74
ATOM     74  O   UNL A   1      32.030  26.955  23.062  1.00  0.00    -0.376 OA
BRANCH  74  75
ATOM     75  C   UNL A   1      32.996  26.727  22.032  1.00  0.00     0.202 C 
BRANCH  75  76
ATOM     76  C   UNL A   1      33.248  25.249  21.721  1.00  0.00     0.261 C 
BRANCH  76  77
ATOM     77  O   UNL A   1      33.226  24.387  22.868  1.00  0.00    -0.463 OA
BRANCH  77  78
ATOM     78  C   UNL A   1      34.366  23.794  23.279  1.00  0.00     0.310 C 
ATOM     79  O   UNL A   1      35.179  23.261  22.530  1.00  0.00    -0.252 OA
BRANCH  78  80
ATOM     80  C   UNL A   1      34.545  23.868  24.791  1.00  0.00     0.113 C 
ATOM     81  C   UNL A   1      34.496  25.327  25.300  1.00  0.00     0.043 C 
ATOM     82  C   UNL A   1      33.606  22.931  25.579  1.00  0.00     0.067 C 
ATOM     83  C   UNL A   1      33.266  25.715  26.067  1.00  0.00    -0.030 C 
ATOM     84  C   UNL A   1      32.188  23.521  25.646  1.00  0.00     0.038 C 
ATOM     85  C   UNL A   1      32.215  24.905  26.215  1.00  0.00    -0.031 C 
BRANCH  82  86
ATOM     86  C   UNL A   1      33.583  21.506  25.078  1.00  0.00     0.098 A 
ATOM     87  N   UNL A   1      34.630  20.711  25.074  1.00  0.00    -0.241 NA
ATOM     88  S   UNL A   1      32.144  20.825  24.428  1.00  0.00    -0.118 S 
ATOM     89  C   UNL A   1      34.275  19.452  24.634  1.00  0.00     0.082 A 
ATOM     90  C   UNL A   1      32.937  19.306  24.267  1.00  0.00     0.055 A 
ATOM     91  C   UNL A   1      35.131  18.337  24.550  1.00  0.00     0.030 A 
ATOM     92  C   UNL A   1      32.416  18.073  23.846  1.00  0.00     0.021 A 
ATOM     93  C   UNL A   1      34.622  17.104  24.137  1.00  0.00     0.002 A 
ATOM     94  C   UNL A   1      33.278  16.974  23.797  1.00  0.00     0.002 A 
ENDBRANCH  82  86
ENDBRANCH  78  80
ENDBRANCH  77  78
ENDBRANCH  76  77
ENDBRANCH  75  76
ENDBRANCH  74  75
ENDBRANCH  73  74
ENDBRANCH   1  73
TORSDOF 18
ENDMDL
MODEL 2
REMARK VINA RESULT:     -11.4      1.587      2.928
REMARK SMILES O=C(OCCOCCOCCOC(=O)[C@H]1CC=CC[C@H]1c1nc2ccccc2s1)c1ccc(-c2c3nc(c(-c4c(F)c(F)c(F)c(F)c4F)c4ccc([nH]4)c(-c4c(F)c(F)c(F)c(F)c4F)c4nc(c(-c5c(F)c(F)c(F)c(F)c5F)c5ccc2[nH]5)C=C4)C=C3)cc1
REMARK SMILES IDX 7 1 6 2 5 3 4 4 3 5 2 6 1 7 30 8 31 9 92 10 32 11 91 12
REMARK SMILES IDX 33 13 34 14 35 15 85 16 36 17 90 18 84 19 86 20 37 21 89 22
REMARK SMILES IDX 83 23 82 24 38 26 70 27 50 28 69 29 51 30 54 31 68 32 87 33
REMARK SMILES IDX 52 34 53 35 67 37 88 38 55 39 39 40 40 41 48 42 41 43 42 44
REMARK SMILES IDX 46 45 49 46 43 47 44 48 47 49 45 50 71 51 72 52 80 53 73 54
REMARK SMILES IDX 74 55 78 56 81 57 75 58 76 59 79 60 77 61 56 62 57 63 65 64
REMARK SMILES IDX 58 65 59 66 63 67 66 68 60 69 61 70 64 71 62 72 8 73 9 74
REMARK SMILES IDX 10 75 11 76 12 77 13 78 14 79 15 80 16 81 20 82 17 83 19 84
REMARK SMILES IDX 18 85 21 86 22 87 29 88 23 89 28 90 24 91 27 92 25 93 26 94
REMARK H PARENT 86 25 54 36
REMARK Flexibility Score: inf
ROOT
ATOM      1  C   UNL A   1      32.930  27.217  25.016  1.00  0.00     0.188 C 
ENDROOT
BRANCH   1   2
ATOM      2  O   UNL A   1      32.645  28.429  24.309  1.00  0.00    -0.376 OA
BRANCH   2   3
ATOM      3  C   UNL A   1      31.496  29.114  24.801  1.00  0.00     0.202 C 
BRANCH   3   4
ATOM      4  C   UNL A   1      31.779  30.057  25.984  1.00  0.00     0.261 C 
BRANCH   4   5
ATOM      5  O   UNL A   1      33.157  30.441  26.146  1.00  0.00    -0.460 OA
BRANCH   5   6
ATOM      6  C   UNL A   1      33.797  31.070  27.159  1.00  0.00     0.338 C 
ATOM      7  O   UNL A   1      33.262  32.078  27.626  1.00  0.00    -0.246 OA
BRANCH   6   8
ATOM      8  C   UNL A   1      35.118  30.666  27.754  1.00  0.00     0.060 A 
ATOM      9  C   UNL A   1      35.539  29.365  28.024  1.00  0.00     0.016 A 
ATOM     10  C   UNL A   1      36.031  31.709  28.037  1.00  0.00     0.016 A 
ATOM     11  C   UNL A   1      36.817  29.103  28.529  1.00  0.00     0.010 A 
ATOM     12  C   UNL A   1      37.312  31.459  28.553  1.00  0.00     0.010 A 
ATOM     13  C   UNL A   1      37.712  30.146  28.801  1.00  0.00    -0.014 A 
BRANCH  13  14
ATOM     14  C   UNL A   1      38.933  29.819  29.573  1.00  0.00     0.031 A 
ATOM     15  C   UNL A   1      38.961  30.270  30.994  1.00  0.00     0.074 A 
ATOM     16  C   UNL A   1      39.914  29.040  29.080  1.00  0.00     0.049 A 
ATOM     17  N   UNL A   1      39.866  30.059  31.907  1.00  0.00    -0.248 NA
ATOM     18  C   UNL A   1      37.835  31.113  31.431  1.00  0.00     0.031 C 
ATOM     19  C   UNL A   1      40.018  28.621  27.696  1.00  0.00     0.029 A 
ATOM     20  N   UNL A   1      40.976  28.413  29.682  1.00  0.00    -0.354 N 
ATOM     21  C   UNL A   1      39.448  30.785  33.008  1.00  0.00     0.074 A 
ATOM     22  C   UNL A   1      38.200  31.426  32.662  1.00  0.00     0.031 C 
ATOM     23  C   UNL A   1      40.943  27.656  27.580  1.00  0.00     0.029 A 
ATOM     24  C   UNL A   1      41.630  27.522  28.856  1.00  0.00     0.049 A 
ATOM     25  H   UNL A   1      41.245  28.583  30.614  1.00  0.00     0.167 HD
ATOM     26  C   UNL A   1      40.085  30.930  34.190  1.00  0.00     0.037 A 
ATOM     27  C   UNL A   1      42.697  26.733  29.095  1.00  0.00     0.037 A 
ATOM     28  C   UNL A   1      41.344  30.306  34.485  1.00  0.00     0.049 A 
ATOM     29  C   UNL A   1      43.379  26.901  30.427  1.00  0.00     0.074 A 
ATOM     30  C   UNL A   1      42.122  30.422  35.621  1.00  0.00     0.029 A 
ATOM     31  N   UNL A   1      42.016  29.448  33.620  1.00  0.00    -0.354 N 
ATOM     32  N   UNL A   1      43.008  27.627  31.455  1.00  0.00    -0.248 NA
ATOM     33  C   UNL A   1      44.660  26.210  30.610  1.00  0.00     0.031 C 
ATOM     34  C   UNL A   1      43.284  29.669  35.426  1.00  0.00     0.029 A 
ATOM     35  C   UNL A   1      43.204  29.033  34.195  1.00  0.00     0.049 A 
ATOM     36  H   UNL A   1      41.693  29.177  32.731  1.00  0.00     0.167 HD
ATOM     37  C   UNL A   1      44.017  27.504  32.395  1.00  0.00     0.074 A 
ATOM     38  C   UNL A   1      44.994  26.590  31.836  1.00  0.00     0.031 C 
ATOM     39  C   UNL A   1      44.144  28.115  33.599  1.00  0.00     0.037 A 
BRANCH  26  40
ATOM     40  C   UNL A   1      39.463  31.878  35.167  1.00  0.00     0.064 A 
ATOM     41  C   UNL A   1      39.749  33.252  35.156  1.00  0.00     0.173 A 
ATOM     42  C   UNL A   1      38.639  31.386  36.190  1.00  0.00     0.173 A 
ATOM     43  F   UNL A   1      40.570  33.763  34.224  1.00  0.00    -0.203 F 
ATOM     44  C   UNL A   1      39.268  34.090  36.158  1.00  0.00     0.198 A 
ATOM     45  C   UNL A   1      38.131  32.233  37.170  1.00  0.00     0.198 A 
ATOM     46  F   UNL A   1      38.352  30.077  36.257  1.00  0.00    -0.203 F 
ATOM     47  F   UNL A   1      39.623  35.382  36.175  1.00  0.00    -0.200 F 
ATOM     48  C   UNL A   1      38.457  33.581  37.161  1.00  0.00     0.200 A 
ATOM     49  F   UNL A   1      37.350  31.739  38.140  1.00  0.00    -0.200 F 
ATOM     50  F   UNL A   1      38.006  34.385  38.133  1.00  0.00    -0.200 F 
ENDBRANCH  26  40
BRANCH  27  51
ATOM     51  C   UNL A   1      43.247  25.814  28.050  1.00  0.00     0.064 A 
ATOM     52  C   UNL A   1      44.031  26.299  26.991  1.00  0.00     0.173 A 
ATOM     53  C   UNL A   1      42.980  24.436  28.062  1.00  0.00     0.173 A 
ATOM     54  F   UNL A   1      44.291  27.612  26.894  1.00  0.00    -0.203 F 
ATOM     55  C   UNL A   1      44.513  25.450  25.992  1.00  0.00     0.198 A 
ATOM     56  C   UNL A   1      43.501  23.581  27.092  1.00  0.00     0.198 A 
ATOM     57  F   UNL A   1      42.212  23.907  29.027  1.00  0.00    -0.203 F 
ATOM     58  F   UNL A   1      45.207  25.953  24.961  1.00  0.00    -0.200 F 
ATOM     59  C   UNL A   1      44.259  24.088  26.051  1.00  0.00     0.200 A 
ATOM     60  F   UNL A   1      43.262  22.264  27.166  1.00  0.00    -0.200 F 
ATOM     61  F   UNL A   1      44.728  23.270  25.099  1.00  0.00    -0.200 F 
ENDBRANCH  27  51
BRANCH  39  62
ATOM     62  C   UNL A   1      45.368  27.781  34.396  1.00  0.00     0.064 A 
ATOM     63  C   UNL A   1      46.544  28.538  34.293  1.00  0.00     0.173 A 
ATOM     64  C   UNL A   1      45.338  26.721  35.314  1.00  0.00     0.173 A 
ATOM     65  F   UNL A   1      46.622  29.549  33.415  1.00  0.00    -0.203 F 
ATOM     66  C   UNL A   1      47.656  28.231  35.069  1.00  0.00     0.198 A 
ATOM     67  C   UNL A   1      46.441  26.439  36.112  1.00  0.00     0.198 A 
ATOM     68  F   UNL A   1      44.232  25.974  35.448  1.00  0.00    -0.203 F 
ATOM     69  F   UNL A   1      48.786  28.938  34.926  1.00  0.00    -0.200 F 
ATOM     70  C   UNL A   1      47.601  27.189  35.985  1.00  0.00     0.200 A 
ATOM     71  F   UNL A   1      46.381  25.443  37.005  1.00  0.00    -0.200 F 
ATOM     72  F   UNL A   1      48.669  26.904  36.741  1.00  0.00    -0.200 F 
ENDBRANCH  39  62
ENDBRANCH  13  14
ENDBRANCH   6   8
ENDBRANCH   5   6
ENDBRANCH   4   5
ENDBRANCH   3   4
ENDBRANCH   2   3
ENDBRANCH   1   2
BRANCH   1  73
ATOM     73  C   UNL A   1      31.758  26.240  25.085  1.00  0.00     0.188 C 
BRANCH  73  74
ATOM     74  O   UNL A   1      32.176  24.956  25.541  1.00  0.00    -0.376 OA
BRANCH  74  75
ATOM     75  C   UNL A   1      31.243  24.323  26.421  1.00  0.00     0.202 C 
BRANCH  75  76
ATOM     76  C   UNL A   1      31.718  22.978  26.979  1.00  0.00     0.261 C 
BRANCH  76  77
ATOM     77  O   UNL A   1      32.055  22.004  25.979  1.00  0.00    -0.463 OA
BRANCH  77  78
ATOM     78  C   UNL A   1      33.266  21.412  26.006  1.00  0.00     0.310 C 
ATOM     79  O   UNL A   1      33.952  21.281  27.016  1.00  0.00    -0.252 OA
BRANCH  78  80
ATOM     80  C   UNL A   1      33.693  20.904  24.634  1.00  0.00     0.113 C 
ATOM     81  C   UNL A   1      32.475  20.508  23.768  1.00  0.00     0.043 C 
ATOM     82  C   UNL A   1      34.668  21.843  23.894  1.00  0.00     0.067 C 
ATOM     83  C   UNL A   1      32.155  21.425  22.623  1.00  0.00    -0.030 C 
ATOM     84  C   UNL A   1      33.914  23.041  23.296  1.00  0.00     0.038 C 
ATOM     85  C   UNL A   1      32.797  22.578  22.414  1.00  0.00    -0.031 C 
BRANCH  82  86
ATOM     86  C   UNL A   1      35.846  22.298  24.725  1.00  0.00     0.098 A 
ATOM     87  N   UNL A   1      36.886  21.542  25.002  1.00  0.00    -0.241 NA
ATOM     88  S   UNL A   1      35.884  23.874  25.410  1.00  0.00    -0.118 S 
ATOM     89  C   UNL A   1      37.828  22.262  25.707  1.00  0.00     0.082 A 
ATOM     90  C   UNL A   1      37.475  23.580  25.996  1.00  0.00     0.055 A 
ATOM     91  C   UNL A   1      39.085  21.785  26.126  1.00  0.00     0.030 A 
ATOM     92  C   UNL A   1      38.349  24.452  26.664  1.00  0.00     0.021 A 
ATOM     93  C   UNL A   1      39.965  22.645  26.787  1.00  0.00     0.002 A 
ATOM     94  C   UNL A   1      39.603  23.964  27.045  1.00  0.00     0.002 A 
ENDBRANCH  82  86
ENDBRANCH  78  80
ENDBRANCH  77  78
ENDBRANCH  76  77
ENDBRANCH  75  76
ENDBRANCH  74  75
ENDBRANCH  73  74
ENDBRANCH   1  73
TORSDOF 18
ENDMDL
MODEL 3
REMARK VINA RESULT:     -11.4      4.075      9.688
REMARK SMILES O=C(OCCOCCOCCOC(=O)[C@H]1CC=CC[C@H]1c1nc2ccccc2s1)c1ccc(-c2c3nc(c(-c4c(F)c(F)c(F)c(F)c4F)c4ccc([nH]4)c(-c4c(F)c(F)c(F)c(F)c4F)c4nc(c(-c5c(F)c(F)c(F)c(F)c5F)c5ccc2[nH]5)C=C4)C=C3)cc1
REMARK SMILES IDX 7 1 6 2 5 3 4 4 3 5 2 6 1 7 30 8 31 9 92 10 32 11 91 12
REMARK SMILES IDX 33 13 34 14 35 15 85 16 36 17 90 18 84 19 86 20 37 21 89 22
REMARK SMILES IDX 83 23 82 24 38 26 70 27 50 28 69 29 51 30 54 31 68 32 87 33
REMARK SMILES IDX 52 34 53 35 67 37 88 38 55 39 39 40 40 41 48 42 41 43 42 44
REMARK SMILES IDX 46 45 49 46 43 47 44 48 47 49 45 50 71 51 72 52 80 53 73 54
REMARK SMILES IDX 74 55 78 56 81 57 75 58 76 59 79 60 77 61 56 62 57 63 65 64
REMARK SMILES IDX 58 65 59 66 63 67 66 68 60 69 61 70 64 71 62 72 8 73 9 74
REMARK SMILES IDX 10 75 11 76 12 77 13 78 14 79 15 80 16 81 20 82 17 83 19 84
REMARK SMILES IDX 18 85 21 86 22 87 29 88 23 89 28 90 24 91 27 92 25 93 26 94
REMARK H PARENT 86 25 54 36
REMARK Flexibility Score: inf
ROOT
ATOM      1  C   UNL A   1      33.806  21.550  26.173  1.00  0.00     0.188 C 
ENDROOT
BRANCH   1   2
ATOM      2  O   UNL A   1      35.214  21.482  25.925  1.00  0.00    -0.376 OA
BRANCH   2   3
ATOM      3  C   UNL A   1      35.580  20.440  25.023  1.00  0.00     0.202 C 
BRANCH   3   4
ATOM      4  C   UNL A   1      37.090  20.152  24.967  1.00  0.00     0.261 C 
BRANCH   4   5
ATOM      5  O   UNL A   1      37.941  21.295  25.170  1.00  0.00    -0.460 OA
BRANCH   5   6
ATOM      6  C   UNL A   1      39.010  21.484  25.978  1.00  0.00     0.338 C 
ATOM      7  O   UNL A   1      39.672  20.488  26.280  1.00  0.00    -0.246 OA
BRANCH   6   8
ATOM      8  C   UNL A   1      39.452  22.796  26.564  1.00  0.00     0.060 A 
ATOM      9  C   UNL A   1      38.880  24.044  26.322  1.00  0.00     0.016 A 
ATOM     10  C   UNL A   1      40.536  22.751  27.472  1.00  0.00     0.016 A 
ATOM     11  C   UNL A   1      39.343  25.195  26.970  1.00  0.00     0.010 A 
ATOM     12  C   UNL A   1      41.015  23.900  28.120  1.00  0.00     0.010 A 
ATOM     13  C   UNL A   1      40.415  25.134  27.869  1.00  0.00    -0.014 A 
BRANCH  13  14
ATOM     14  C   UNL A   1      41.015  26.415  28.309  1.00  0.00     0.031 A 
ATOM     15  C   UNL A   1      42.391  26.707  27.815  1.00  0.00     0.074 A 
ATOM     16  C   UNL A   1      40.323  27.339  29.000  1.00  0.00     0.049 A 
ATOM     17  N   UNL A   1      43.118  27.775  27.986  1.00  0.00    -0.248 NA
ATOM     18  C   UNL A   1      43.055  25.629  27.063  1.00  0.00     0.031 C 
ATOM     19  C   UNL A   1      39.017  27.120  29.592  1.00  0.00     0.029 A 
ATOM     20  N   UNL A   1      40.581  28.657  29.281  1.00  0.00    -0.354 N 
ATOM     21  C   UNL A   1      44.342  27.478  27.412  1.00  0.00     0.074 A 
ATOM     22  C   UNL A   1      44.258  26.142  26.869  1.00  0.00     0.031 C 
ATOM     23  C   UNL A   1      38.492  28.291  29.982  1.00  0.00     0.029 A 
ATOM     24  C   UNL A   1      39.508  29.322  29.838  1.00  0.00     0.049 A 
ATOM     25  H   UNL A   1      41.448  29.087  29.101  1.00  0.00     0.167 HD
ATOM     26  C   UNL A   1      45.449  28.250  27.387  1.00  0.00     0.037 A 
ATOM     27  C   UNL A   1      39.387  30.605  30.235  1.00  0.00     0.037 A 
ATOM     28  C   UNL A   1      45.506  29.561  27.970  1.00  0.00     0.049 A 
ATOM     29  C   UNL A   1      40.632  31.451  30.179  1.00  0.00     0.074 A 
ATOM     30  C   UNL A   1      46.583  30.420  28.064  1.00  0.00     0.029 A 
ATOM     31  N   UNL A   1      44.426  30.198  28.573  1.00  0.00    -0.354 N 
ATOM     32  N   UNL A   1      41.808  31.153  29.677  1.00  0.00    -0.248 NA
ATOM     33  C   UNL A   1      40.566  32.775  30.809  1.00  0.00     0.031 C 
ATOM     34  C   UNL A   1      46.167  31.559  28.762  1.00  0.00     0.029 A 
ATOM     35  C   UNL A   1      44.815  31.438  29.049  1.00  0.00     0.049 A 
ATOM     36  H   UNL A   1      43.520  29.822  28.650  1.00  0.00     0.167 HD
ATOM     37  C   UNL A   1      42.627  32.235  29.952  1.00  0.00     0.074 A 
ATOM     38  C   UNL A   1      41.800  33.221  30.619  1.00  0.00     0.031 C 
ATOM     39  C   UNL A   1      43.951  32.390  29.704  1.00  0.00     0.037 A 
BRANCH  26  40
ATOM     40  C   UNL A   1      46.679  27.628  26.803  1.00  0.00     0.064 A 
ATOM     41  C   UNL A   1      47.041  27.815  25.460  1.00  0.00     0.173 A 
ATOM     42  C   UNL A   1      47.455  26.754  27.578  1.00  0.00     0.173 A 
ATOM     43  F   UNL A   1      46.302  28.606  24.665  1.00  0.00    -0.203 F 
ATOM     44  C   UNL A   1      48.110  27.117  24.905  1.00  0.00     0.198 A 
ATOM     45  C   UNL A   1      48.544  26.085  27.029  1.00  0.00     0.198 A 
ATOM     46  F   UNL A   1      47.139  26.526  28.862  1.00  0.00    -0.203 F 
ATOM     47  F   UNL A   1      48.385  27.246  23.600  1.00  0.00    -0.200 F 
ATOM     48  C   UNL A   1      48.862  26.256  25.689  1.00  0.00     0.200 A 
ATOM     49  F   UNL A   1      49.268  25.252  27.788  1.00  0.00    -0.200 F 
ATOM     50  F   UNL A   1      49.881  25.574  25.151  1.00  0.00    -0.200 F 
ENDBRANCH  26  40
BRANCH  27  51
ATOM     51  C   UNL A   1      38.111  31.136  30.807  1.00  0.00     0.064 A 
ATOM     52  C   UNL A   1      37.914  31.224  32.194  1.00  0.00     0.173 A 
ATOM     53  C   UNL A   1      37.045  31.540  29.987  1.00  0.00     0.173 A 
ATOM     54  F   UNL A   1      38.876  30.817  33.036  1.00  0.00    -0.203 F 
ATOM     55  C   UNL A   1      36.709  31.683  32.732  1.00  0.00     0.198 A 
ATOM     56  C   UNL A   1      35.860  32.043  30.523  1.00  0.00     0.198 A 
ATOM     57  F   UNL A   1      37.151  31.455  28.653  1.00  0.00    -0.203 F 
ATOM     58  F   UNL A   1      36.529  31.696  34.060  1.00  0.00    -0.200 F 
ATOM     59  C   UNL A   1      35.687  32.105  31.895  1.00  0.00     0.200 A 
ATOM     60  F   UNL A   1      34.884  32.462  29.706  1.00  0.00    -0.200 F 
ATOM     61  F   UNL A   1      34.533  32.554  32.409  1.00  0.00    -0.200 F 
ENDBRANCH  27  51
BRANCH  39  62
ATOM     62  C   UNL A   1      44.567  33.687  30.131  1.00  0.00     0.064 A 
ATOM     63  C   UNL A   1      44.490  34.838  29.334  1.00  0.00     0.173 A 
ATOM     64  C   UNL A   1      45.195  33.785  31.382  1.00  0.00     0.173 A 
ATOM     65  F   UNL A   1      43.916  34.784  28.123  1.00  0.00    -0.203 F 
ATOM     66  C   UNL A   1      45.039  36.039  29.768  1.00  0.00     0.198 A 
ATOM     67  C   UNL A   1      45.712  34.996  31.825  1.00  0.00     0.198 A 
ATOM     68  F   UNL A   1      45.287  32.710  32.178  1.00  0.00    -0.203 F 
ATOM     69  F   UNL A   1      44.994  37.119  28.975  1.00  0.00    -0.200 F 
ATOM     70  C   UNL A   1      45.640  36.121  31.017  1.00  0.00     0.200 A 
ATOM     71  F   UNL A   1      46.279  35.076  33.036  1.00  0.00    -0.200 F 
ATOM     72  F   UNL A   1      46.156  37.283  31.438  1.00  0.00    -0.200 F 
ENDBRANCH  39  62
ENDBRANCH  13  14
ENDBRANCH   6   8
ENDBRANCH   5   6
ENDBRANCH   4   5
ENDBRANCH   3   4
ENDBRANCH   2   3
ENDBRANCH   1   2
BRANCH   1  73
ATOM     73  C   UNL A   1      32.945  21.541  24.911  1.00  0.00     0.188 C 
BRANCH  73  74
ATOM     74  O   UNL A   1      31.556  21.509  25.228  1.00  0.00    -0.376 OA
BRANCH  74  75
ATOM     75  C   UNL A   1      31.202  22.301  26.365  1.00  0.00     0.202 C 
BRANCH  75  76
ATOM     76  C   UNL A   1      30.977  23.783  26.053  1.00  0.00     0.261 C 
BRANCH  76  77
ATOM     77  O   UNL A   1      32.005  24.657  26.543  1.00  0.00    -0.463 OA
BRANCH  77  78
ATOM     78  C   UNL A   1      31.908  25.986  26.333  1.00  0.00     0.310 C 
ATOM     79  O   UNL A   1      30.997  26.690  26.758  1.00  0.00    -0.252 OA
BRANCH  78  80
ATOM     80  C   UNL A   1      33.071  26.529  25.512  1.00  0.00     0.113 C 
ATOM     81  C   UNL A   1      34.331  25.643  25.651  1.00  0.00     0.043 C 
ATOM     82  C   UNL A   1      32.714  26.828  24.041  1.00  0.00     0.067 C 
ATOM     83  C   UNL A   1      34.695  24.824  24.447  1.00  0.00    -0.030 C 
ATOM     84  C   UNL A   1      32.652  25.526  23.226  1.00  0.00     0.038 C 
ATOM     85  C   UNL A   1      33.932  24.760  23.352  1.00  0.00    -0.031 C 
BRANCH  82  86
ATOM     86  C   UNL A   1      31.456  27.646  23.859  1.00  0.00     0.098 A 
ATOM     87  N   UNL A   1      31.360  28.923  24.160  1.00  0.00    -0.241 NA
ATOM     88  S   UNL A   1      30.015  26.926  23.259  1.00  0.00    -0.118 S 
ATOM     89  C   UNL A   1      30.117  29.407  23.807  1.00  0.00     0.082 A 
ATOM     90  C   UNL A   1      29.247  28.465  23.258  1.00  0.00     0.055 A 
ATOM     91  C   UNL A   1      29.685  30.741  23.938  1.00  0.00     0.030 A 
ATOM     92  C   UNL A   1      27.966  28.817  22.805  1.00  0.00     0.021 A 
ATOM     93  C   UNL A   1      28.414  31.103  23.486  1.00  0.00     0.002 A 
ATOM     94  C   UNL A   1      27.569  30.153  22.920  1.00  0.00     0.002 A 
ENDBRANCH  82  86
ENDBRANCH  78  80
ENDBRANCH  77  78
ENDBRANCH  76  77
ENDBRANCH  75  76
ENDBRANCH  74  75
ENDBRANCH  73  74
ENDBRANCH   1  73
TORSDOF 18
ENDMDL
