MODEL 1
REMARK VINA RESULT:     -10.9      0.000      0.000
REMARK SMILES O=C(OCCOCCOCCOC(=O)[C@@]1(Cl)C=CC=C(c2ccccc2)[C@H]1Cl)c1ccc(-c2c3nc(c(-c4c(F)c(F)c(F)c(F)c4F)c4ccc([nH]4)c(-c4c(F)c(F)c(F)c(F)c4F)c4nc(c(-c5c(F)c(F)c(F)c(F)c5F)c5ccc2[nH]5)C=C4)C=C3)cc1
REMARK SMILES IDX 7 1 6 2 5 3 4 4 3 5 2 6 1 7 29 8 30 9 91 10 31 11 90 12
REMARK SMILES IDX 32 13 33 14 34 15 84 16 35 17 89 18 83 19 85 20 36 21 88 22
REMARK SMILES IDX 82 23 81 24 37 26 69 27 49 28 68 29 50 30 53 31 67 32 86 33
REMARK SMILES IDX 51 34 52 35 66 37 87 38 54 39 38 40 39 41 47 42 40 43 41 44
REMARK SMILES IDX 45 45 48 46 42 47 43 48 46 49 44 50 70 51 71 52 79 53 72 54
REMARK SMILES IDX 73 55 77 56 80 57 74 58 75 59 78 60 76 61 55 62 56 63 64 64
REMARK SMILES IDX 57 65 58 66 62 67 65 68 59 69 60 70 63 71 61 72 8 73 9 74
REMARK SMILES IDX 10 75 11 76 12 77 13 78 14 79 15 80 16 81 17 82 27 83 18 84
REMARK SMILES IDX 20 85 28 86 19 87 21 88 22 89 26 90 23 91 25 92 24 93
REMARK H PARENT 85 25 53 36
REMARK Flexibility Score: inf
ROOT
ATOM      1  C   UNL A   1      38.133  22.757  25.958  1.00  0.00     0.188 C 
ENDROOT
BRANCH   1   2
ATOM      2  O   UNL A   1      39.127  21.734  26.087  1.00  0.00    -0.376 OA
BRANCH   2   3
ATOM      3  C   UNL A   1      38.829  20.546  25.344  1.00  0.00     0.202 C 
BRANCH   3   4
ATOM      4  C   UNL A   1      39.374  19.222  25.911  1.00  0.00     0.261 C 
BRANCH   4   5
ATOM      5  O   UNL A   1      40.727  18.905  25.537  1.00  0.00    -0.460 OA
BRANCH   5   6
ATOM      6  C   UNL A   1      41.901  19.262  26.108  1.00  0.00     0.338 C 
ATOM      7  O   UNL A   1      42.680  18.372  26.446  1.00  0.00    -0.246 OA
BRANCH   6   8
ATOM      8  C   UNL A   1      42.309  20.673  26.375  1.00  0.00     0.060 A 
ATOM      9  C   UNL A   1      42.518  21.642  25.396  1.00  0.00     0.016 A 
ATOM     10  C   UNL A   1      42.393  21.071  27.721  1.00  0.00     0.016 A 
ATOM     11  C   UNL A   1      42.853  22.948  25.725  1.00  0.00     0.010 A 
ATOM     12  C   UNL A   1      42.711  22.388  28.068  1.00  0.00     0.010 A 
ATOM     13  C   UNL A   1      42.962  23.322  27.062  1.00  0.00    -0.014 A 
BRANCH  13  14
ATOM     14  C   UNL A   1      43.427  24.688  27.348  1.00  0.00     0.031 A 
ATOM     15  C   UNL A   1      42.445  25.663  27.905  1.00  0.00     0.074 A 
ATOM     16  C   UNL A   1      44.731  24.977  27.211  1.00  0.00     0.049 A 
ATOM     17  N   UNL A   1      42.628  26.908  28.246  1.00  0.00    -0.248 NA
ATOM     18  C   UNL A   1      41.066  25.179  28.093  1.00  0.00     0.031 C 
ATOM     19  C   UNL A   1      45.732  24.050  26.688  1.00  0.00     0.029 A 
ATOM     20  N   UNL A   1      45.448  26.102  27.524  1.00  0.00    -0.354 N 
ATOM     21  C   UNL A   1      41.375  27.382  28.601  1.00  0.00     0.074 A 
ATOM     22  C   UNL A   1      40.449  26.277  28.503  1.00  0.00     0.031 C 
ATOM     23  C   UNL A   1      46.942  24.624  26.769  1.00  0.00     0.029 A 
ATOM     24  C   UNL A   1      46.803  25.963  27.322  1.00  0.00     0.049 A 
ATOM     25  H   UNL A   1      45.035  26.928  27.861  1.00  0.00     0.167 HD
ATOM     26  C   UNL A   1      41.041  28.651  28.916  1.00  0.00     0.037 A 
ATOM     27  C   UNL A   1      47.802  26.835  27.560  1.00  0.00     0.037 A 
ATOM     28  C   UNL A   1      42.005  29.715  29.006  1.00  0.00     0.049 A 
ATOM     29  C   UNL A   1      47.403  28.221  28.010  1.00  0.00     0.074 A 
ATOM     30  C   UNL A   1      41.794  31.052  29.282  1.00  0.00     0.029 A 
ATOM     31  N   UNL A   1      43.371  29.552  28.811  1.00  0.00    -0.354 N 
ATOM     32  N   UNL A   1      46.211  28.676  28.318  1.00  0.00    -0.248 NA
ATOM     33  C   UNL A   1      48.467  29.229  28.079  1.00  0.00     0.031 C 
ATOM     34  C   UNL A   1      43.026  31.707  29.198  1.00  0.00     0.029 A 
ATOM     35  C   UNL A   1      44.014  30.770  28.930  1.00  0.00     0.049 A 
ATOM     36  H   UNL A   1      43.816  28.695  28.617  1.00  0.00     0.167 HD
ATOM     37  C   UNL A   1      46.371  30.031  28.561  1.00  0.00     0.074 A 
ATOM     38  C   UNL A   1      47.792  30.304  28.457  1.00  0.00     0.031 C 
ATOM     39  C   UNL A   1      45.433  30.982  28.797  1.00  0.00     0.037 A 
BRANCH  26  40
ATOM     40  C   UNL A   1      39.584  28.972  29.053  1.00  0.00     0.064 A 
ATOM     41  C   UNL A   1      38.906  28.909  30.277  1.00  0.00     0.173 A 
ATOM     42  C   UNL A   1      38.853  29.349  27.914  1.00  0.00     0.173 A 
ATOM     43  F   UNL A   1      39.550  28.519  31.387  1.00  0.00    -0.203 F 
ATOM     44  C   UNL A   1      37.545  29.202  30.354  1.00  0.00     0.198 A 
ATOM     45  C   UNL A   1      37.502  29.666  28.000  1.00  0.00     0.198 A 
ATOM     46  F   UNL A   1      39.453  29.408  26.715  1.00  0.00    -0.203 F 
ATOM     47  F   UNL A   1      36.905  29.093  31.527  1.00  0.00    -0.200 F 
ATOM     48  C   UNL A   1      36.847  29.589  29.219  1.00  0.00     0.200 A 
ATOM     49  F   UNL A   1      36.832  30.041  26.901  1.00  0.00    -0.200 F 
ATOM     50  F   UNL A   1      35.541  29.875  29.298  1.00  0.00    -0.200 F 
ENDBRANCH  26  40
BRANCH  27  51
ATOM     51  C   UNL A   1      49.235  26.471  27.342  1.00  0.00     0.064 A 
ATOM     52  C   UNL A   1      50.094  26.233  28.428  1.00  0.00     0.173 A 
ATOM     53  C   UNL A   1      49.797  26.382  26.058  1.00  0.00     0.173 A 
ATOM     54  F   UNL A   1      49.627  26.318  29.683  1.00  0.00    -0.203 F 
ATOM     55  C   UNL A   1      51.449  25.953  28.239  1.00  0.00     0.198 A 
ATOM     56  C   UNL A   1      51.140  26.055  25.868  1.00  0.00     0.198 A 
ATOM     57  F   UNL A   1      49.041  26.615  24.976  1.00  0.00    -0.203 F 
ATOM     58  F   UNL A   1      52.252  25.802  29.301  1.00  0.00    -0.200 F 
ATOM     59  C   UNL A   1      51.970  25.856  26.960  1.00  0.00     0.200 A 
ATOM     60  F   UNL A   1      51.631  25.951  24.626  1.00  0.00    -0.200 F 
ATOM     61  F   UNL A   1      53.271  25.594  26.780  1.00  0.00    -0.200 F 
ENDBRANCH  27  51
BRANCH  39  62
ATOM     62  C   UNL A   1      45.920  32.395  28.897  1.00  0.00     0.064 A 
ATOM     63  C   UNL A   1      45.987  33.218  27.762  1.00  0.00     0.173 A 
ATOM     64  C   UNL A   1      46.252  32.952  30.140  1.00  0.00     0.173 A 
ATOM     65  F   UNL A   1      45.692  32.721  26.550  1.00  0.00    -0.203 F 
ATOM     66  C   UNL A   1      46.387  34.545  27.866  1.00  0.00     0.198 A 
ATOM     67  C   UNL A   1      46.620  34.289  30.244  1.00  0.00     0.198 A 
ATOM     68  F   UNL A   1      46.192  32.205  31.253  1.00  0.00    -0.203 F 
ATOM     69  F   UNL A   1      46.483  35.302  26.765  1.00  0.00    -0.200 F 
ATOM     70  C   UNL A   1      46.692  35.082  29.108  1.00  0.00     0.200 A 
ATOM     71  F   UNL A   1      46.897  34.812  31.446  1.00  0.00    -0.200 F 
ATOM     72  F   UNL A   1      47.060  36.366  29.210  1.00  0.00    -0.200 F 
ENDBRANCH  39  62
ENDBRANCH  13  14
ENDBRANCH   6   8
ENDBRANCH   5   6
ENDBRANCH   4   5
ENDBRANCH   3   4
ENDBRANCH   2   3
ENDBRANCH   1   2
BRANCH   1  73
ATOM     73  C   UNL A   1      37.059  22.430  24.931  1.00  0.00     0.188 C 
BRANCH  73  74
ATOM     74  O   UNL A   1      35.703  22.527  25.349  1.00  0.00    -0.376 OA
BRANCH  74  75
ATOM     75  C   UNL A   1      35.146  21.459  26.101  1.00  0.00     0.202 C 
BRANCH  75  76
ATOM     76  C   UNL A   1      34.144  20.518  25.421  1.00  0.00     0.261 C 
BRANCH  76  77
ATOM     77  O   UNL A   1      33.405  21.039  24.310  1.00  0.00    -0.462 OA
BRANCH  77  78
ATOM     78  C   UNL A   1      32.285  21.748  24.639  1.00  0.00     0.333 C 
ATOM     79  O   UNL A   1      31.405  21.300  25.377  1.00  0.00    -0.250 OA
BRANCH  78  80
ATOM     80  C   UNL A   1      32.272  23.169  24.042  1.00  0.00     0.180 C 
ATOM     81  Cl  UNL A   1      33.535  23.147  22.712  1.00  0.00    -0.100 Cl
ATOM     82  C   UNL A   1      30.975  23.478  23.309  1.00  0.00     0.009 C 
ATOM     83  C   UNL A   1      32.684  24.250  25.107  1.00  0.00     0.148 C 
ATOM     84  C   UNL A   1      30.279  24.608  23.479  1.00  0.00    -0.002 C 
ATOM     85  C   UNL A   1      31.883  25.550  25.048  1.00  0.00    -0.020 C 
ATOM     86  Cl  UNL A   1      32.489  23.702  26.845  1.00  0.00    -0.115 Cl
ATOM     87  C   UNL A   1      30.756  25.666  24.327  1.00  0.00     0.006 C 
BRANCH  85  88
ATOM     88  C   UNL A   1      32.323  26.641  25.944  1.00  0.00    -0.021 A 
ATOM     89  C   UNL A   1      33.643  27.110  25.854  1.00  0.00     0.008 A 
ATOM     90  C   UNL A   1      31.404  27.346  26.733  1.00  0.00     0.008 A 
ATOM     91  C   UNL A   1      34.022  28.285  26.499  1.00  0.00     0.001 A 
ATOM     92  C   UNL A   1      31.788  28.523  27.380  1.00  0.00     0.001 A 
ATOM     93  C   UNL A   1      33.092  28.998  27.251  1.00  0.00     0.000 A 
ENDBRANCH  85  88
ENDBRANCH  78  80
ENDBRANCH  77  78
ENDBRANCH  76  77
ENDBRANCH  75  76
ENDBRANCH  74  75
ENDBRANCH  73  74
ENDBRANCH   1  73
TORSDOF 18
ENDMDL
MODEL 2
REMARK VINA RESULT:     -10.9      6.109     10.959
REMARK SMILES O=C(OCCOCCOCCOC(=O)[C@@]1(Cl)C=CC=C(c2ccccc2)[C@H]1Cl)c1ccc(-c2c3nc(c(-c4c(F)c(F)c(F)c(F)c4F)c4ccc([nH]4)c(-c4c(F)c(F)c(F)c(F)c4F)c4nc(c(-c5c(F)c(F)c(F)c(F)c5F)c5ccc2[nH]5)C=C4)C=C3)cc1
REMARK SMILES IDX 7 1 6 2 5 3 4 4 3 5 2 6 1 7 29 8 30 9 91 10 31 11 90 12
REMARK SMILES IDX 32 13 33 14 34 15 84 16 35 17 89 18 83 19 85 20 36 21 88 22
REMARK SMILES IDX 82 23 81 24 37 26 69 27 49 28 68 29 50 30 53 31 67 32 86 33
REMARK SMILES IDX 51 34 52 35 66 37 87 38 54 39 38 40 39 41 47 42 40 43 41 44
REMARK SMILES IDX 45 45 48 46 42 47 43 48 46 49 44 50 70 51 71 52 79 53 72 54
REMARK SMILES IDX 73 55 77 56 80 57 74 58 75 59 78 60 76 61 55 62 56 63 64 64
REMARK SMILES IDX 57 65 58 66 62 67 65 68 59 69 60 70 63 71 61 72 8 73 9 74
REMARK SMILES IDX 10 75 11 76 12 77 13 78 14 79 15 80 16 81 17 82 27 83 18 84
REMARK SMILES IDX 20 85 28 86 19 87 21 88 22 89 26 90 23 91 25 92 24 93
REMARK H PARENT 85 25 53 36
REMARK Flexibility Score: inf
ROOT
ATOM      1  C   UNL A   1      33.184  30.489  27.376  1.00  0.00     0.188 C 
ENDROOT
BRANCH   1   2
ATOM      2  O   UNL A   1      31.844  30.653  26.898  1.00  0.00    -0.376 OA
BRANCH   2   3
ATOM      3  C   UNL A   1      31.429  32.022  26.811  1.00  0.00     0.202 C 
BRANCH   3   4
ATOM      4  C   UNL A   1      32.530  33.088  26.951  1.00  0.00     0.261 C 
BRANCH   4   5
ATOM      5  O   UNL A   1      32.197  34.207  27.794  1.00  0.00    -0.460 OA
BRANCH   5   6
ATOM      6  C   UNL A   1      32.942  34.862  28.715  1.00  0.00     0.338 C 
ATOM      7  O   UNL A   1      32.659  36.032  28.968  1.00  0.00    -0.246 OA
BRANCH   6   8
ATOM      8  C   UNL A   1      34.103  34.263  29.436  1.00  0.00     0.060 A 
ATOM      9  C   UNL A   1      35.441  34.482  29.114  1.00  0.00     0.016 A 
ATOM     10  C   UNL A   1      33.821  33.500  30.583  1.00  0.00     0.016 A 
ATOM     11  C   UNL A   1      36.470  33.924  29.861  1.00  0.00     0.010 A 
ATOM     12  C   UNL A   1      34.847  32.948  31.356  1.00  0.00     0.010 A 
ATOM     13  C   UNL A   1      36.175  33.146  30.978  1.00  0.00    -0.014 A 
BRANCH  13  14
ATOM     14  C   UNL A   1      37.300  32.492  31.663  1.00  0.00     0.031 A 
ATOM     15  C   UNL A   1      38.129  31.524  30.888  1.00  0.00     0.074 A 
ATOM     16  C   UNL A   1      37.612  32.869  32.914  1.00  0.00     0.049 A 
ATOM     17  N   UNL A   1      39.171  30.843  31.274  1.00  0.00    -0.248 NA
ATOM     18  C   UNL A   1      37.725  31.276  29.493  1.00  0.00     0.031 C 
ATOM     19  C   UNL A   1      36.842  33.826  33.704  1.00  0.00     0.029 A 
ATOM     20  N   UNL A   1      38.663  32.533  33.726  1.00  0.00    -0.354 N 
ATOM     21  C   UNL A   1      39.493  30.022  30.205  1.00  0.00     0.074 A 
ATOM     22  C   UNL A   1      38.583  30.335  29.128  1.00  0.00     0.031 C 
ATOM     23  C   UNL A   1      37.477  34.041  34.867  1.00  0.00     0.029 A 
ATOM     24  C   UNL A   1      38.680  33.224  34.917  1.00  0.00     0.049 A 
ATOM     25  H   UNL A   1      39.340  31.862  33.482  1.00  0.00     0.167 HD
ATOM     26  C   UNL A   1      40.432  29.052  30.174  1.00  0.00     0.037 A 
ATOM     27  C   UNL A   1      39.575  33.183  35.923  1.00  0.00     0.037 A 
ATOM     28  C   UNL A   1      41.318  28.785  31.275  1.00  0.00     0.049 A 
ATOM     29  C   UNL A   1      40.675  32.154  35.813  1.00  0.00     0.074 A 
ATOM     30  C   UNL A   1      42.290  27.809  31.384  1.00  0.00     0.029 A 
ATOM     31  N   UNL A   1      41.328  29.504  32.463  1.00  0.00    -0.354 N 
ATOM     32  N   UNL A   1      40.961  31.356  34.810  1.00  0.00    -0.248 NA
ATOM     33  C   UNL A   1      41.532  31.969  36.991  1.00  0.00     0.031 C 
ATOM     34  C   UNL A   1      42.849  27.902  32.663  1.00  0.00     0.029 A 
ATOM     35  C   UNL A   1      42.269  28.974  33.328  1.00  0.00     0.049 A 
ATOM     36  H   UNL A   1      40.751  30.276  32.662  1.00  0.00     0.167 HD
ATOM     37  C   UNL A   1      41.989  30.539  35.254  1.00  0.00     0.074 A 
ATOM     38  C   UNL A   1      42.339  31.001  36.583  1.00  0.00     0.031 C 
ATOM     39  C   UNL A   1      42.561  29.468  34.650  1.00  0.00     0.037 A 
BRANCH  26  40
ATOM     40  C   UNL A   1      40.453  28.146  28.982  1.00  0.00     0.064 A 
ATOM     41  C   UNL A   1      41.194  28.429  27.827  1.00  0.00     0.173 A 
ATOM     42  C   UNL A   1      39.701  26.959  29.006  1.00  0.00     0.173 A 
ATOM     43  F   UNL A   1      41.900  29.567  27.740  1.00  0.00    -0.203 F 
ATOM     44  C   UNL A   1      41.172  27.563  26.735  1.00  0.00     0.198 A 
ATOM     45  C   UNL A   1      39.703  26.085  27.924  1.00  0.00     0.198 A 
ATOM     46  F   UNL A   1      38.961  26.651  30.082  1.00  0.00    -0.203 F 
ATOM     47  F   UNL A   1      41.852  27.874  25.623  1.00  0.00    -0.200 F 
ATOM     48  C   UNL A   1      40.434  26.389  26.788  1.00  0.00     0.200 A 
ATOM     49  F   UNL A   1      38.990  24.951  27.981  1.00  0.00    -0.200 F 
ATOM     50  F   UNL A   1      40.421  25.556  25.739  1.00  0.00    -0.200 F 
ENDBRANCH  26  40
BRANCH  27  51
ATOM     51  C   UNL A   1      39.460  34.073  37.118  1.00  0.00     0.064 A 
ATOM     52  C   UNL A   1      40.054  35.346  37.131  1.00  0.00     0.173 A 
ATOM     53  C   UNL A   1      38.788  33.675  38.286  1.00  0.00     0.173 A 
ATOM     54  F   UNL A   1      40.725  35.783  36.054  1.00  0.00    -0.203 F 
ATOM     55  C   UNL A   1      40.007  36.163  38.263  1.00  0.00     0.198 A 
ATOM     56  C   UNL A   1      38.700  34.511  39.399  1.00  0.00     0.198 A 
ATOM     57  F   UNL A   1      38.213  32.467  38.351  1.00  0.00    -0.203 F 
ATOM     58  F   UNL A   1      40.646  37.341  38.262  1.00  0.00    -0.200 F 
ATOM     59  C   UNL A   1      39.323  35.749  39.393  1.00  0.00     0.200 A 
ATOM     60  F   UNL A   1      38.025  34.106  40.483  1.00  0.00    -0.200 F 
ATOM     61  F   UNL A   1      39.283  36.530  40.481  1.00  0.00    -0.200 F 
ENDBRANCH  27  51
BRANCH  39  62
ATOM     62  C   UNL A   1      43.573  28.707  35.450  1.00  0.00     0.064 A 
ATOM     63  C   UNL A   1      44.943  28.990  35.337  1.00  0.00     0.173 A 
ATOM     64  C   UNL A   1      43.171  27.744  36.384  1.00  0.00     0.173 A 
ATOM     65  F   UNL A   1      45.374  29.896  34.444  1.00  0.00    -0.203 F 
ATOM     66  C   UNL A   1      45.877  28.321  36.120  1.00  0.00     0.198 A 
ATOM     67  C   UNL A   1      44.105  27.100  37.189  1.00  0.00     0.198 A 
ATOM     68  F   UNL A   1      41.870  27.448  36.533  1.00  0.00    -0.203 F 
ATOM     69  F   UNL A   1      47.183  28.579  35.968  1.00  0.00    -0.200 F 
ATOM     70  C   UNL A   1      45.455  27.386  37.053  1.00  0.00     0.200 A 
ATOM     71  F   UNL A   1      43.696  26.209  38.102  1.00  0.00    -0.200 F 
ATOM     72  F   UNL A   1      46.354  26.754  37.820  1.00  0.00    -0.200 F 
ENDBRANCH  39  62
ENDBRANCH  13  14
ENDBRANCH   6   8
ENDBRANCH   5   6
ENDBRANCH   4   5
ENDBRANCH   3   4
ENDBRANCH   2   3
ENDBRANCH   1   2
BRANCH   1  73
ATOM     73  C   UNL A   1      34.002  29.503  26.553  1.00  0.00     0.188 C 
BRANCH  73  74
ATOM     74  O   UNL A   1      34.037  28.152  26.997  1.00  0.00    -0.376 OA
BRANCH  74  75
ATOM     75  C   UNL A   1      33.142  27.220  26.408  1.00  0.00     0.202 C 
BRANCH  75  76
ATOM     76  C   UNL A   1      33.714  26.088  25.545  1.00  0.00     0.261 C 
BRANCH  76  77
ATOM     77  O   UNL A   1      32.901  25.611  24.467  1.00  0.00    -0.462 OA
BRANCH  77  78
ATOM     78  C   UNL A   1      32.924  26.381  23.339  1.00  0.00     0.333 C 
ATOM     79  O   UNL A   1      33.969  26.816  22.850  1.00  0.00    -0.250 OA
BRANCH  78  80
ATOM     80  C   UNL A   1      31.528  26.592  22.722  1.00  0.00     0.180 C 
ATOM     81  Cl  UNL A   1      31.615  25.836  21.053  1.00  0.00    -0.100 Cl
ATOM     82  C   UNL A   1      30.451  25.785  23.432  1.00  0.00     0.009 C 
ATOM     83  C   UNL A   1      31.188  28.119  22.563  1.00  0.00     0.148 C 
ATOM     84  C   UNL A   1      29.276  26.293  23.817  1.00  0.00    -0.002 C 
ATOM     85  C   UNL A   1      29.744  28.495  22.893  1.00  0.00    -0.020 C 
ATOM     86  Cl  UNL A   1      32.178  29.223  23.641  1.00  0.00    -0.115 Cl
ATOM     87  C   UNL A   1      28.906  27.649  23.512  1.00  0.00     0.006 C 
BRANCH  85  88
ATOM     88  C   UNL A   1      29.348  29.897  22.633  1.00  0.00    -0.021 A 
ATOM     89  C   UNL A   1      29.020  30.283  21.324  1.00  0.00     0.008 A 
ATOM     90  C   UNL A   1      29.101  30.787  23.687  1.00  0.00     0.008 A 
ATOM     91  C   UNL A   1      28.414  31.514  21.081  1.00  0.00     0.001 A 
ATOM     92  C   UNL A   1      28.495  32.020  23.439  1.00  0.00     0.001 A 
ATOM     93  C   UNL A   1      28.140  32.376  22.139  1.00  0.00     0.000 A 
ENDBRANCH  85  88
ENDBRANCH  78  80
ENDBRANCH  77  78
ENDBRANCH  76  77
ENDBRANCH  75  76
ENDBRANCH  74  75
ENDBRANCH  73  74
ENDBRANCH   1  73
TORSDOF 18
ENDMDL
MODEL 3
REMARK VINA RESULT:     -10.9      5.751     10.992
REMARK SMILES O=C(OCCOCCOCCOC(=O)[C@@]1(Cl)C=CC=C(c2ccccc2)[C@H]1Cl)c1ccc(-c2c3nc(c(-c4c(F)c(F)c(F)c(F)c4F)c4ccc([nH]4)c(-c4c(F)c(F)c(F)c(F)c4F)c4nc(c(-c5c(F)c(F)c(F)c(F)c5F)c5ccc2[nH]5)C=C4)C=C3)cc1
REMARK SMILES IDX 7 1 6 2 5 3 4 4 3 5 2 6 1 7 29 8 30 9 91 10 31 11 90 12
REMARK SMILES IDX 32 13 33 14 34 15 84 16 35 17 89 18 83 19 85 20 36 21 88 22
REMARK SMILES IDX 82 23 81 24 37 26 69 27 49 28 68 29 50 30 53 31 67 32 86 33
REMARK SMILES IDX 51 34 52 35 66 37 87 38 54 39 38 40 39 41 47 42 40 43 41 44
REMARK SMILES IDX 45 45 48 46 42 47 43 48 46 49 44 50 70 51 71 52 79 53 72 54
REMARK SMILES IDX 73 55 77 56 80 57 74 58 75 59 78 60 76 61 55 62 56 63 64 64
REMARK SMILES IDX 57 65 58 66 62 67 65 68 59 69 60 70 63 71 61 72 8 73 9 74
REMARK SMILES IDX 10 75 11 76 12 77 13 78 14 79 15 80 16 81 17 82 27 83 18 84
REMARK SMILES IDX 20 85 28 86 19 87 21 88 22 89 26 90 23 91 25 92 24 93
REMARK H PARENT 85 25 53 36
REMARK Flexibility Score: inf
ROOT
ATOM      1  C   UNL A   1      31.872  29.552  26.319  1.00  0.00     0.188 C 
ENDROOT
BRANCH   1   2
ATOM      2  O   UNL A   1      31.470  30.780  25.702  1.00  0.00    -0.376 OA
BRANCH   2   3
ATOM      3  C   UNL A   1      31.280  31.855  26.631  1.00  0.00     0.202 C 
BRANCH   3   4
ATOM      4  C   UNL A   1      32.507  32.738  26.925  1.00  0.00     0.261 C 
BRANCH   4   5
ATOM      5  O   UNL A   1      32.229  33.953  27.645  1.00  0.00    -0.460 OA
BRANCH   5   6
ATOM      6  C   UNL A   1      32.977  34.627  28.550  1.00  0.00     0.338 C 
ATOM      7  O   UNL A   1      32.688  35.798  28.790  1.00  0.00    -0.246 OA
BRANCH   6   8
ATOM      8  C   UNL A   1      34.150  34.046  29.267  1.00  0.00     0.060 A 
ATOM      9  C   UNL A   1      35.476  34.426  29.068  1.00  0.00     0.016 A 
ATOM     10  C   UNL A   1      33.880  33.116  30.288  1.00  0.00     0.016 A 
ATOM     11  C   UNL A   1      36.510  33.870  29.808  1.00  0.00     0.010 A 
ATOM     12  C   UNL A   1      34.910  32.562  31.054  1.00  0.00     0.010 A 
ATOM     13  C   UNL A   1      36.231  32.928  30.795  1.00  0.00    -0.014 A 
BRANCH  13  14
ATOM     14  C   UNL A   1      37.375  32.295  31.469  1.00  0.00     0.031 A 
ATOM     15  C   UNL A   1      38.228  31.361  30.677  1.00  0.00     0.074 A 
ATOM     16  C   UNL A   1      37.681  32.662  32.724  1.00  0.00     0.049 A 
ATOM     17  N   UNL A   1      39.289  30.702  31.052  1.00  0.00    -0.248 NA
ATOM     18  C   UNL A   1      37.827  31.122  29.280  1.00  0.00     0.031 C 
ATOM     19  C   UNL A   1      36.888  33.586  33.530  1.00  0.00     0.029 A 
ATOM     20  N   UNL A   1      38.743  32.342  33.529  1.00  0.00    -0.354 N 
ATOM     21  C   UNL A   1      39.629  29.904  29.970  1.00  0.00     0.074 A 
ATOM     22  C   UNL A   1      38.708  30.209  28.899  1.00  0.00     0.031 C 
ATOM     23  C   UNL A   1      37.520  33.801  34.694  1.00  0.00     0.029 A 
ATOM     24  C   UNL A   1      38.744  33.016  34.729  1.00  0.00     0.049 A 
ATOM     25  H   UNL A   1      39.436  31.693  33.274  1.00  0.00     0.167 HD
ATOM     26  C   UNL A   1      40.593  28.961  29.923  1.00  0.00     0.037 A 
ATOM     27  C   UNL A   1      39.643  32.984  35.733  1.00  0.00     0.037 A 
ATOM     28  C   UNL A   1      41.490  28.701  31.017  1.00  0.00     0.049 A 
ATOM     29  C   UNL A   1      40.770  31.987  35.605  1.00  0.00     0.074 A 
ATOM     30  C   UNL A   1      42.487  27.751  31.111  1.00  0.00     0.029 A 
ATOM     31  N   UNL A   1      41.483  29.403  32.216  1.00  0.00    -0.354 N 
ATOM     32  N   UNL A   1      41.074  31.211  34.591  1.00  0.00    -0.248 NA
ATOM     33  C   UNL A   1      41.634  31.808  36.778  1.00  0.00     0.031 C 
ATOM     34  C   UNL A   1      43.046  27.840  32.389  1.00  0.00     0.029 A 
ATOM     35  C   UNL A   1      42.440  28.886  33.071  1.00  0.00     0.049 A 
ATOM     36  H   UNL A   1      40.887  30.157  32.428  1.00  0.00     0.167 HD
ATOM     37  C   UNL A   1      42.124  30.415  35.020  1.00  0.00     0.074 A 
ATOM     38  C   UNL A   1      42.466  30.867  36.355  1.00  0.00     0.031 C 
ATOM     39  C   UNL A   1      42.722  29.368  34.399  1.00  0.00     0.037 A 
BRANCH  26  40
ATOM     40  C   UNL A   1      40.635  28.072  28.718  1.00  0.00     0.064 A 
ATOM     41  C   UNL A   1      41.389  28.378  27.577  1.00  0.00     0.173 A 
ATOM     42  C   UNL A   1      39.890  26.882  28.714  1.00  0.00     0.173 A 
ATOM     43  F   UNL A   1      42.090  29.520  27.515  1.00  0.00    -0.203 F 
ATOM     44  C   UNL A   1      41.387  27.527  26.472  1.00  0.00     0.198 A 
ATOM     45  C   UNL A   1      39.911  26.023  27.620  1.00  0.00     0.198 A 
ATOM     46  F   UNL A   1      39.138  26.553  29.776  1.00  0.00    -0.203 F 
ATOM     47  F   UNL A   1      42.079  27.859  25.373  1.00  0.00    -0.200 F 
ATOM     48  C   UNL A   1      40.656  26.348  26.498  1.00  0.00     0.200 A 
ATOM     49  F   UNL A   1      39.204  24.885  27.651  1.00  0.00    -0.200 F 
ATOM     50  F   UNL A   1      40.660  25.531  25.436  1.00  0.00    -0.200 F 
ENDBRANCH  26  40
BRANCH  27  51
ATOM     51  C   UNL A   1      39.507  33.854  36.941  1.00  0.00     0.064 A 
ATOM     52  C   UNL A   1      38.815  33.409  38.079  1.00  0.00     0.173 A 
ATOM     53  C   UNL A   1      40.029  35.157  36.986  1.00  0.00     0.173 A 
ATOM     54  F   UNL A   1      38.276  32.180  38.097  1.00  0.00    -0.203 F 
ATOM     55  C   UNL A   1      38.628  34.234  39.190  1.00  0.00     0.198 A 
ATOM     56  C   UNL A   1      39.884  35.964  38.114  1.00  0.00     0.198 A 
ATOM     57  F   UNL A   1      40.686  35.654  35.929  1.00  0.00    -0.203 F 
ATOM     58  F   UNL A   1      37.902  33.800  40.228  1.00  0.00    -0.200 F 
ATOM     59  C   UNL A   1      39.169  35.509  39.210  1.00  0.00     0.200 A 
ATOM     60  F   UNL A   1      40.423  37.191  38.128  1.00  0.00    -0.200 F 
ATOM     61  F   UNL A   1      38.984  36.302  40.273  1.00  0.00    -0.200 F 
ENDBRANCH  27  51
BRANCH  39  62
ATOM     62  C   UNL A   1      43.757  28.623  35.186  1.00  0.00     0.064 A 
ATOM     63  C   UNL A   1      45.116  28.959  35.091  1.00  0.00     0.173 A 
ATOM     64  C   UNL A   1      43.384  27.621  36.090  1.00  0.00     0.173 A 
ATOM     65  F   UNL A   1      45.519  29.905  34.227  1.00  0.00    -0.203 F 
ATOM     66  C   UNL A   1      46.068  28.304  35.863  1.00  0.00     0.198 A 
ATOM     67  C   UNL A   1      44.336  26.990  36.885  1.00  0.00     0.198 A 
ATOM     68  F   UNL A   1      42.094  27.273  36.221  1.00  0.00    -0.203 F 
ATOM     69  F   UNL A   1      47.365  28.613  35.728  1.00  0.00    -0.200 F 
ATOM     70  C   UNL A   1      45.676  27.328  36.766  1.00  0.00     0.200 A 
ATOM     71  F   UNL A   1      43.954  26.059  37.770  1.00  0.00    -0.200 F 
ATOM     72  F   UNL A   1      46.592  26.708  37.523  1.00  0.00    -0.200 F 
ENDBRANCH  39  62
ENDBRANCH  13  14
ENDBRANCH   6   8
ENDBRANCH   5   6
ENDBRANCH   4   5
ENDBRANCH   3   4
ENDBRANCH   2   3
ENDBRANCH   1   2
BRANCH   1  73
ATOM     73  C   UNL A   1      31.493  28.318  25.513  1.00  0.00     0.188 C 
BRANCH  73  74
ATOM     74  O   UNL A   1      32.215  27.121  25.771  1.00  0.00    -0.376 OA
BRANCH  74  75
ATOM     75  C   UNL A   1      32.501  26.252  24.685  1.00  0.00     0.202 C 
BRANCH  75  76
ATOM     76  C   UNL A   1      33.902  25.637  24.577  1.00  0.00     0.261 C 
BRANCH  76  77
ATOM     77  O   UNL A   1      33.984  24.243  24.260  1.00  0.00    -0.462 OA
BRANCH  77  78
ATOM     78  C   UNL A   1      33.550  23.398  25.241  1.00  0.00     0.333 C 
ATOM     79  O   UNL A   1      33.953  23.463  26.404  1.00  0.00    -0.250 OA
BRANCH  78  80
ATOM     80  C   UNL A   1      32.474  22.408  24.754  1.00  0.00     0.180 C 
ATOM     81  Cl  UNL A   1      30.978  22.792  25.744  1.00  0.00    -0.100 Cl
ATOM     82  C   UNL A   1      32.041  22.680  23.321  1.00  0.00     0.009 C 
ATOM     83  C   UNL A   1      32.889  20.917  25.030  1.00  0.00     0.148 C 
ATOM     84  C   UNL A   1      31.933  21.729  22.386  1.00  0.00    -0.002 C 
ATOM     85  C   UNL A   1      32.539  19.934  23.913  1.00  0.00    -0.020 C 
ATOM     86  Cl  UNL A   1      34.689  20.673  25.272  1.00  0.00    -0.115 Cl
ATOM     87  C   UNL A   1      32.149  20.341  22.695  1.00  0.00     0.006 C 
BRANCH  85  88
ATOM     88  C   UNL A   1      32.795  18.503  24.186  1.00  0.00    -0.021 A 
ATOM     89  C   UNL A   1      33.541  17.754  23.263  1.00  0.00     0.008 A 
ATOM     90  C   UNL A   1      32.484  17.935  25.429  1.00  0.00     0.008 A 
ATOM     91  C   UNL A   1      34.008  16.483  23.595  1.00  0.00     0.001 A 
ATOM     92  C   UNL A   1      32.952  16.661  25.758  1.00  0.00     0.001 A 
ATOM     93  C   UNL A   1      33.724  15.943  24.847  1.00  0.00     0.000 A 
ENDBRANCH  85  88
ENDBRANCH  78  80
ENDBRANCH  77  78
ENDBRANCH  76  77
ENDBRANCH  75  76
ENDBRANCH  74  75
ENDBRANCH  73  74
ENDBRANCH   1  73
TORSDOF 18
ENDMDL
