MODEL 1
REMARK VINA RESULT:     -11.0      0.000      0.000
REMARK SMILES CCc1[nH]nc(-n2cccc2)c1C(=O)OCCOCCOCCOC(=O)c1ccc(-c2c3nc(c(-c4c(F)c(F)c(F)c(F)c4F)c4ccc([nH]4)c(-c4c(F)c(F)c(F)c(F)c4F)c4nc(c(-c5c(F)c(F)c(F)c(F)c5F)c5ccc2[nH]5)C=C4)C=C3)cc1
REMARK SMILES IDX 20 1 19 2 18 3 17 4 16 5 15 6 13 7 14 8 12 9 3 10 4 11 5 12
REMARK SMILES IDX 6 14 2 15 1 16 7 17 8 18 11 19 9 20 10 21 21 22 22 23 23 24
REMARK SMILES IDX 24 25 25 26 26 27 27 28 28 29 89 30 29 31 88 32 30 33 31 34
REMARK SMILES IDX 32 35 82 36 33 37 87 38 81 39 83 40 34 41 86 42 80 43 79 44
REMARK SMILES IDX 35 46 67 47 47 48 66 49 48 50 51 51 65 52 84 53 49 54 50 55
REMARK SMILES IDX 64 57 85 58 52 59 36 60 37 61 45 62 38 63 39 64 43 65 46 66
REMARK SMILES IDX 40 67 41 68 44 69 42 70 68 71 69 72 77 73 70 74 71 75 75 76
REMARK SMILES IDX 78 77 72 78 73 79 76 80 74 81 53 82 54 83 62 84 55 85 56 86
REMARK SMILES IDX 60 87 63 88 57 89 58 90 61 91 59 92
REMARK H PARENT 4 13 83 45 51 56
REMARK Flexibility Score: inf
ROOT
ATOM      1  C   UNL A   1      36.837  22.599  23.682  1.00  0.00     0.188 C 
ENDROOT
BRANCH   1   2
ATOM      2  C   UNL A   1      35.588  23.508  23.715  1.00  0.00     0.188 C 
BRANCH   2   3
ATOM      3  O   UNL A   1      35.246  23.942  25.012  1.00  0.00    -0.376 OA
BRANCH   3   4
ATOM      4  C   UNL A   1      34.535  25.161  25.117  1.00  0.00     0.202 C 
BRANCH   4   5
ATOM      5  C   UNL A   1      33.896  25.793  23.863  1.00  0.00     0.261 C 
BRANCH   5   6
ATOM      6  O   UNL A   1      32.473  25.687  23.713  1.00  0.00    -0.459 OA
BRANCH   6   7
ATOM      7  C   UNL A   1      31.889  24.466  23.847  1.00  0.00     0.343 C 
ATOM      8  O   UNL A   1      32.113  23.515  23.098  1.00  0.00    -0.246 OA
BRANCH   7   9
ATOM      9  C   UNL A   1      31.061  24.370  25.039  1.00  0.00     0.125 A 
ATOM     10  C   UNL A   1      30.098  25.271  25.501  1.00  0.00     0.052 A 
ATOM     11  N   UNL A   1      29.631  24.748  26.682  1.00  0.00    -0.280 N 
ATOM     12  N   UNL A   1      30.219  23.596  27.037  1.00  0.00    -0.156 NA
ATOM     13  H   UNL A   1      28.928  25.179  27.219  1.00  0.00     0.190 HD
ATOM     14  C   UNL A   1      31.107  23.391  26.060  1.00  0.00     0.173 A 
BRANCH  10  15
ATOM     15  C   UNL A   1      29.644  26.589  24.951  1.00  0.00     0.053 C 
ATOM     16  C   UNL A   1      28.716  26.497  23.750  1.00  0.00     0.011 C 
ENDBRANCH  10  15
BRANCH  14  17
ATOM     17  N   UNL A   1      32.119  22.421  26.287  1.00  0.00    -0.306 N 
ATOM     18  C   UNL A   1      32.332  21.293  25.517  1.00  0.00     0.093 A 
ATOM     19  C   UNL A   1      33.135  22.500  27.211  1.00  0.00     0.093 A 
ATOM     20  C   UNL A   1      33.419  20.611  26.019  1.00  0.00     0.020 A 
ATOM     21  C   UNL A   1      33.918  21.370  27.103  1.00  0.00     0.020 A 
ENDBRANCH  14  17
ENDBRANCH   7   9
ENDBRANCH   6   7
ENDBRANCH   5   6
ENDBRANCH   4   5
ENDBRANCH   3   4
ENDBRANCH   2   3
ENDBRANCH   1   2
BRANCH   1  22
ATOM     22  O   UNL A   1      36.890  21.332  24.331  1.00  0.00    -0.376 OA
BRANCH  22  23
ATOM     23  C   UNL A   1      37.554  21.136  25.573  1.00  0.00     0.202 C 
BRANCH  23  24
ATOM     24  C   UNL A   1      39.031  21.508  25.721  1.00  0.00     0.261 C 
BRANCH  24  25
ATOM     25  O   UNL A   1      39.692  20.806  26.753  1.00  0.00    -0.460 OA
BRANCH  25  26
ATOM     26  C   UNL A   1      40.585  19.926  26.264  1.00  0.00     0.338 C 
ATOM     27  O   UNL A   1      40.372  18.886  25.661  1.00  0.00    -0.246 OA
BRANCH  26  28
ATOM     28  C   UNL A   1      41.931  20.382  26.628  1.00  0.00     0.060 A 
ATOM     29  C   UNL A   1      42.000  20.857  27.942  1.00  0.00     0.016 A 
ATOM     30  C   UNL A   1      42.589  20.985  25.554  1.00  0.00     0.016 A 
ATOM     31  C   UNL A   1      42.367  22.163  28.104  1.00  0.00     0.010 A 
ATOM     32  C   UNL A   1      42.884  22.312  25.695  1.00  0.00     0.010 A 
ATOM     33  C   UNL A   1      42.710  22.891  26.959  1.00  0.00    -0.014 A 
BRANCH  33  34
ATOM     34  C   UNL A   1      43.085  24.281  27.142  1.00  0.00     0.031 A 
ATOM     35  C   UNL A   1      41.799  25.111  27.346  1.00  0.00     0.074 A 
ATOM     36  C   UNL A   1      44.436  24.504  27.073  1.00  0.00     0.049 A 
ATOM     37  N   UNL A   1      41.605  26.387  27.280  1.00  0.00    -0.248 NA
ATOM     38  C   UNL A   1      40.510  24.405  27.650  1.00  0.00     0.031 C 
ATOM     39  C   UNL A   1      45.489  23.471  26.862  1.00  0.00     0.029 A 
ATOM     40  N   UNL A   1      45.205  25.637  27.147  1.00  0.00    -0.354 N 
ATOM     41  C   UNL A   1      40.295  26.643  27.742  1.00  0.00     0.074 A 
ATOM     42  C   UNL A   1      39.638  25.386  27.869  1.00  0.00     0.031 C 
ATOM     43  C   UNL A   1      46.710  24.038  26.722  1.00  0.00     0.029 A 
ATOM     44  C   UNL A   1      46.588  25.475  26.856  1.00  0.00     0.049 A 
ATOM     45  H   UNL A   1      44.823  26.512  27.388  1.00  0.00     0.167 HD
ATOM     46  C   UNL A   1      39.872  27.885  28.104  1.00  0.00     0.037 A 
ATOM     47  C   UNL A   1      47.528  26.458  26.680  1.00  0.00     0.037 A 
ATOM     48  C   UNL A   1      40.877  28.844  27.802  1.00  0.00     0.049 A 
ATOM     49  C   UNL A   1      46.805  27.689  27.033  1.00  0.00     0.074 A 
ATOM     50  C   UNL A   1      41.271  29.378  26.605  1.00  0.00     0.029 A 
ATOM     51  N   UNL A   1      41.869  29.035  28.732  1.00  0.00    -0.354 N 
ATOM     52  N   UNL A   1      46.449  28.015  28.239  1.00  0.00    -0.248 NA
ATOM     53  C   UNL A   1      46.305  28.535  25.945  1.00  0.00     0.031 C 
ATOM     54  C   UNL A   1      42.675  29.432  26.723  1.00  0.00     0.029 A 
ATOM     55  C   UNL A   1      43.052  29.164  28.044  1.00  0.00     0.049 A 
ATOM     56  H   UNL A   1      41.754  29.072  29.710  1.00  0.00     0.167 HD
ATOM     57  C   UNL A   1      45.430  28.908  28.014  1.00  0.00     0.074 A 
ATOM     58  C   UNL A   1      45.601  29.402  26.665  1.00  0.00     0.031 C 
ATOM     59  C   UNL A   1      44.277  28.824  28.727  1.00  0.00     0.037 A 
BRANCH  46  60
ATOM     60  C   UNL A   1      38.683  28.349  28.883  1.00  0.00     0.064 A 
ATOM     61  C   UNL A   1      37.931  29.426  28.359  1.00  0.00     0.173 A 
ATOM     62  C   UNL A   1      38.490  28.052  30.239  1.00  0.00     0.173 A 
ATOM     63  F   UNL A   1      37.997  29.738  27.055  1.00  0.00    -0.203 F 
ATOM     64  C   UNL A   1      37.173  30.259  29.175  1.00  0.00     0.198 A 
ATOM     65  C   UNL A   1      37.684  28.861  31.045  1.00  0.00     0.198 A 
ATOM     66  F   UNL A   1      39.153  27.048  30.829  1.00  0.00    -0.203 F 
ATOM     67  F   UNL A   1      36.607  31.360  28.661  1.00  0.00    -0.200 F 
ATOM     68  C   UNL A   1      37.068  29.989  30.524  1.00  0.00     0.200 A 
ATOM     69  F   UNL A   1      37.570  28.589  32.352  1.00  0.00    -0.200 F 
ATOM     70  F   UNL A   1      36.404  30.830  31.328  1.00  0.00    -0.200 F 
ENDBRANCH  46  60
BRANCH  47  71
ATOM     71  C   UNL A   1      48.932  26.631  26.137  1.00  0.00     0.064 A 
ATOM     72  C   UNL A   1      49.322  26.564  24.795  1.00  0.00     0.173 A 
ATOM     73  C   UNL A   1      49.983  27.013  27.024  1.00  0.00     0.173 A 
ATOM     74  F   UNL A   1      48.490  26.094  23.860  1.00  0.00    -0.203 F 
ATOM     75  C   UNL A   1      50.603  26.978  24.368  1.00  0.00     0.198 A 
ATOM     76  C   UNL A   1      51.227  27.481  26.600  1.00  0.00     0.198 A 
ATOM     77  F   UNL A   1      49.835  26.959  28.355  1.00  0.00    -0.203 F 
ATOM     78  F   UNL A   1      50.928  26.907  23.069  1.00  0.00    -0.200 F 
ATOM     79  C   UNL A   1      51.532  27.483  25.263  1.00  0.00     0.200 A 
ATOM     80  F   UNL A   1      52.103  27.952  27.501  1.00  0.00    -0.200 F 
ATOM     81  F   UNL A   1      52.714  27.955  24.843  1.00  0.00    -0.200 F 
ENDBRANCH  47  71
BRANCH  59  82
ATOM     82  C   UNL A   1      44.396  28.049  30.029  1.00  0.00     0.064 A 
ATOM     83  C   UNL A   1      45.070  28.616  31.120  1.00  0.00     0.173 A 
ATOM     84  C   UNL A   1      43.959  26.725  30.210  1.00  0.00     0.173 A 
ATOM     85  F   UNL A   1      45.503  29.884  31.047  1.00  0.00    -0.203 F 
ATOM     86  C   UNL A   1      45.298  27.900  32.300  1.00  0.00     0.198 A 
ATOM     87  C   UNL A   1      44.184  26.004  31.385  1.00  0.00     0.198 A 
ATOM     88  F   UNL A   1      43.282  26.096  29.255  1.00  0.00    -0.203 F 
ATOM     89  F   UNL A   1      45.938  28.487  33.321  1.00  0.00    -0.200 F 
ATOM     90  C   UNL A   1      44.858  26.593  32.432  1.00  0.00     0.200 A 
ATOM     91  F   UNL A   1      43.733  24.744  31.497  1.00  0.00    -0.200 F 
ATOM     92  F   UNL A   1      45.064  25.914  33.569  1.00  0.00    -0.200 F 
ENDBRANCH  59  82
ENDBRANCH  33  34
ENDBRANCH  26  28
ENDBRANCH  25  26
ENDBRANCH  24  25
ENDBRANCH  23  24
ENDBRANCH  22  23
ENDBRANCH   1  22
TORSDOF 19
ENDMDL
MODEL 2
REMARK VINA RESULT:     -10.8      1.759      2.828
REMARK SMILES CCc1[nH]nc(-n2cccc2)c1C(=O)OCCOCCOCCOC(=O)c1ccc(-c2c3nc(c(-c4c(F)c(F)c(F)c(F)c4F)c4ccc([nH]4)c(-c4c(F)c(F)c(F)c(F)c4F)c4nc(c(-c5c(F)c(F)c(F)c(F)c5F)c5ccc2[nH]5)C=C4)C=C3)cc1
REMARK SMILES IDX 20 1 19 2 18 3 17 4 16 5 15 6 13 7 14 8 12 9 3 10 4 11 5 12
REMARK SMILES IDX 6 14 2 15 1 16 7 17 8 18 11 19 9 20 10 21 21 22 22 23 23 24
REMARK SMILES IDX 24 25 25 26 26 27 27 28 28 29 89 30 29 31 88 32 30 33 31 34
REMARK SMILES IDX 32 35 82 36 33 37 87 38 81 39 83 40 34 41 86 42 80 43 79 44
REMARK SMILES IDX 35 46 67 47 47 48 66 49 48 50 51 51 65 52 84 53 49 54 50 55
REMARK SMILES IDX 64 57 85 58 52 59 36 60 37 61 45 62 38 63 39 64 43 65 46 66
REMARK SMILES IDX 40 67 41 68 44 69 42 70 68 71 69 72 77 73 70 74 71 75 75 76
REMARK SMILES IDX 78 77 72 78 73 79 76 80 74 81 53 82 54 83 62 84 55 85 56 86
REMARK SMILES IDX 60 87 63 88 57 89 58 90 61 91 59 92
REMARK H PARENT 4 13 83 45 51 56
REMARK Flexibility Score: inf
ROOT
ATOM      1  C   UNL A   1      36.992  23.185  24.850  1.00  0.00     0.188 C 
ENDROOT
BRANCH   1   2
ATOM      2  C   UNL A   1      35.836  23.748  25.705  1.00  0.00     0.188 C 
BRANCH   2   3
ATOM      3  O   UNL A   1      35.043  24.692  25.023  1.00  0.00    -0.376 OA
BRANCH   3   4
ATOM      4  C   UNL A   1      34.018  25.328  25.763  1.00  0.00     0.202 C 
BRANCH   4   5
ATOM      5  C   UNL A   1      32.538  25.014  25.462  1.00  0.00     0.261 C 
BRANCH   5   6
ATOM      6  O   UNL A   1      31.571  26.041  25.723  1.00  0.00    -0.459 OA
BRANCH   6   7
ATOM      7  C   UNL A   1      30.859  26.551  24.684  1.00  0.00     0.343 C 
ATOM      8  O   UNL A   1      29.634  26.466  24.586  1.00  0.00    -0.246 OA
BRANCH   7   9
ATOM      9  C   UNL A   1      31.686  27.310  23.758  1.00  0.00     0.125 A 
ATOM     10  C   UNL A   1      32.138  26.935  22.490  1.00  0.00     0.052 A 
ATOM     11  N   UNL A   1      32.913  27.977  22.046  1.00  0.00    -0.280 N 
ATOM     12  N   UNL A   1      33.020  28.989  22.920  1.00  0.00    -0.156 NA
ATOM     13  H   UNL A   1      33.351  27.981  21.164  1.00  0.00     0.190 HD
ATOM     14  C   UNL A   1      32.306  28.565  23.967  1.00  0.00     0.173 A 
BRANCH  10  15
ATOM     15  C   UNL A   1      31.945  25.666  21.717  1.00  0.00     0.053 C 
ATOM     16  C   UNL A   1      32.554  25.667  20.323  1.00  0.00     0.011 C 
ENDBRANCH  10  15
BRANCH  14  17
ATOM     17  N   UNL A   1      32.469  29.259  25.195  1.00  0.00    -0.306 N 
ATOM     18  C   UNL A   1      33.474  29.031  26.116  1.00  0.00     0.093 A 
ATOM     19  C   UNL A   1      31.753  30.356  25.614  1.00  0.00     0.093 A 
ATOM     20  C   UNL A   1      33.329  29.917  27.161  1.00  0.00     0.020 A 
ATOM     21  C   UNL A   1      32.228  30.747  26.849  1.00  0.00     0.020 A 
ENDBRANCH  14  17
ENDBRANCH   7   9
ENDBRANCH   6   7
ENDBRANCH   5   6
ENDBRANCH   4   5
ENDBRANCH   3   4
ENDBRANCH   2   3
ENDBRANCH   1   2
BRANCH   1  22
ATOM     22  O   UNL A   1      37.151  21.795  24.582  1.00  0.00    -0.376 OA
BRANCH  22  23
ATOM     23  C   UNL A   1      38.048  20.971  25.317  1.00  0.00     0.202 C 
BRANCH  23  24
ATOM     24  C   UNL A   1      39.350  21.556  25.868  1.00  0.00     0.261 C 
BRANCH  24  25
ATOM     25  O   UNL A   1      39.965  20.745  26.849  1.00  0.00    -0.460 OA
BRANCH  25  26
ATOM     26  C   UNL A   1      40.890  19.929  26.312  1.00  0.00     0.338 C 
ATOM     27  O   UNL A   1      40.716  18.903  25.674  1.00  0.00    -0.246 OA
BRANCH  26  28
ATOM     28  C   UNL A   1      42.219  20.436  26.672  1.00  0.00     0.060 A 
ATOM     29  C   UNL A   1      42.272  20.919  27.984  1.00  0.00     0.016 A 
ATOM     30  C   UNL A   1      42.852  21.058  25.595  1.00  0.00     0.016 A 
ATOM     31  C   UNL A   1      42.591  22.238  28.140  1.00  0.00     0.010 A 
ATOM     32  C   UNL A   1      43.098  22.395  25.730  1.00  0.00     0.010 A 
ATOM     33  C   UNL A   1      42.905  22.973  26.991  1.00  0.00    -0.014 A 
BRANCH  33  34
ATOM     34  C   UNL A   1      43.229  24.377  27.167  1.00  0.00     0.031 A 
ATOM     35  C   UNL A   1      41.912  25.163  27.347  1.00  0.00     0.074 A 
ATOM     36  C   UNL A   1      44.572  24.646  27.116  1.00  0.00     0.049 A 
ATOM     37  N   UNL A   1      41.674  26.431  27.267  1.00  0.00    -0.248 NA
ATOM     38  C   UNL A   1      40.644  24.415  27.638  1.00  0.00     0.031 C 
ATOM     39  C   UNL A   1      45.663  23.649  26.928  1.00  0.00     0.029 A 
ATOM     40  N   UNL A   1      45.300  25.806  27.191  1.00  0.00    -0.354 N 
ATOM     41  C   UNL A   1      40.350  26.645  27.709  1.00  0.00     0.074 A 
ATOM     42  C   UNL A   1      39.735  25.366  27.837  1.00  0.00     0.031 C 
ATOM     43  C   UNL A   1      46.866  24.257  26.800  1.00  0.00     0.029 A 
ATOM     44  C   UNL A   1      46.692  25.690  26.921  1.00  0.00     0.049 A 
ATOM     45  H   UNL A   1      44.885  26.669  27.418  1.00  0.00     0.167 HD
ATOM     46  C   UNL A   1      39.879  27.874  28.054  1.00  0.00     0.037 A 
ATOM     47  C   UNL A   1      47.600  26.703  26.749  1.00  0.00     0.037 A 
ATOM     48  C   UNL A   1      40.854  28.865  27.758  1.00  0.00     0.049 A 
ATOM     49  C   UNL A   1      46.829  27.911  27.082  1.00  0.00     0.074 A 
ATOM     50  C   UNL A   1      41.247  29.403  26.562  1.00  0.00     0.029 A 
ATOM     51  N   UNL A   1      41.826  29.098  28.700  1.00  0.00    -0.354 N 
ATOM     52  N   UNL A   1      46.445  28.235  28.280  1.00  0.00    -0.248 NA
ATOM     53  C   UNL A   1      46.316  28.731  25.980  1.00  0.00     0.031 C 
ATOM     54  C   UNL A   1      42.646  29.507  26.699  1.00  0.00     0.029 A 
ATOM     55  C   UNL A   1      43.013  29.263  28.027  1.00  0.00     0.049 A 
ATOM     56  H   UNL A   1      41.696  29.139  29.676  1.00  0.00     0.167 HD
ATOM     57  C   UNL A   1      45.399  29.090  28.032  1.00  0.00     0.074 A 
ATOM     58  C   UNL A   1      45.572  29.578  26.682  1.00  0.00     0.031 C 
ATOM     59  C   UNL A   1      44.239  28.971  28.730  1.00  0.00     0.037 A 
BRANCH  46  60
ATOM     60  C   UNL A   1      38.663  28.302  28.813  1.00  0.00     0.064 A 
ATOM     61  C   UNL A   1      37.886  29.352  28.271  1.00  0.00     0.173 A 
ATOM     62  C   UNL A   1      38.460  28.006  30.167  1.00  0.00     0.173 A 
ATOM     63  F   UNL A   1      37.962  29.660  26.967  1.00  0.00    -0.203 F 
ATOM     64  C   UNL A   1      37.088  30.163  29.071  1.00  0.00     0.198 A 
ATOM     65  C   UNL A   1      37.615  28.791  30.956  1.00  0.00     0.198 A 
ATOM     66  F   UNL A   1      39.145  27.026  30.772  1.00  0.00    -0.203 F 
ATOM     67  F   UNL A   1      36.495  31.243  28.543  1.00  0.00    -0.200 F 
ATOM     68  C   UNL A   1      36.971  29.896  30.420  1.00  0.00     0.200 A 
ATOM     69  F   UNL A   1      37.490  28.522  32.263  1.00  0.00    -0.200 F 
ATOM     70  F   UNL A   1      36.267  30.719  31.210  1.00  0.00    -0.200 F 
ENDBRANCH  46  60
BRANCH  47  71
ATOM     71  C   UNL A   1      49.004  26.921  26.224  1.00  0.00     0.064 A 
ATOM     72  C   UNL A   1      50.179  26.982  26.983  1.00  0.00     0.173 A 
ATOM     73  C   UNL A   1      49.226  26.964  24.815  1.00  0.00     0.173 A 
ATOM     74  F   UNL A   1      50.132  27.086  28.315  1.00  0.00    -0.203 F 
ATOM     75  C   UNL A   1      51.457  26.945  26.384  1.00  0.00     0.198 A 
ATOM     76  C   UNL A   1      50.485  26.865  24.223  1.00  0.00     0.198 A 
ATOM     77  F   UNL A   1      48.213  27.092  23.947  1.00  0.00    -0.203 F 
ATOM     78  F   UNL A   1      52.555  26.995  27.152  1.00  0.00    -0.200 F 
ATOM     79  C   UNL A   1      51.606  26.835  25.011  1.00  0.00     0.200 A 
ATOM     80  F   UNL A   1      50.586  26.771  22.888  1.00  0.00    -0.200 F 
ATOM     81  F   UNL A   1      52.819  26.714  24.453  1.00  0.00    -0.200 F 
ENDBRANCH  47  71
BRANCH  59  82
ATOM     82  C   UNL A   1      44.367  28.211  30.041  1.00  0.00     0.064 A 
ATOM     83  C   UNL A   1      45.046  28.792  31.121  1.00  0.00     0.173 A 
ATOM     84  C   UNL A   1      43.932  26.889  30.239  1.00  0.00     0.173 A 
ATOM     85  F   UNL A   1      45.479  30.058  31.031  1.00  0.00    -0.203 F 
ATOM     86  C   UNL A   1      45.282  28.089  32.308  1.00  0.00     0.198 A 
ATOM     87  C   UNL A   1      44.165  26.182  31.421  1.00  0.00     0.198 A 
ATOM     88  F   UNL A   1      43.250  26.248  29.296  1.00  0.00    -0.203 F 
ATOM     89  F   UNL A   1      45.928  28.688  33.318  1.00  0.00    -0.200 F 
ATOM     90  C   UNL A   1      44.845  26.784  32.457  1.00  0.00     0.200 A 
ATOM     91  F   UNL A   1      43.715  24.923  31.550  1.00  0.00    -0.200 F 
ATOM     92  F   UNL A   1      45.058  26.118  33.601  1.00  0.00    -0.200 F 
ENDBRANCH  59  82
ENDBRANCH  33  34
ENDBRANCH  26  28
ENDBRANCH  25  26
ENDBRANCH  24  25
ENDBRANCH  23  24
ENDBRANCH  22  23
ENDBRANCH   1  22
TORSDOF 19
ENDMDL
MODEL 3
REMARK VINA RESULT:     -10.6      4.725     10.362
REMARK SMILES CCc1[nH]nc(-n2cccc2)c1C(=O)OCCOCCOCCOC(=O)c1ccc(-c2c3nc(c(-c4c(F)c(F)c(F)c(F)c4F)c4ccc([nH]4)c(-c4c(F)c(F)c(F)c(F)c4F)c4nc(c(-c5c(F)c(F)c(F)c(F)c5F)c5ccc2[nH]5)C=C4)C=C3)cc1
REMARK SMILES IDX 20 1 19 2 18 3 17 4 16 5 15 6 13 7 14 8 12 9 3 10 4 11 5 12
REMARK SMILES IDX 6 14 2 15 1 16 7 17 8 18 11 19 9 20 10 21 21 22 22 23 23 24
REMARK SMILES IDX 24 25 25 26 26 27 27 28 28 29 89 30 29 31 88 32 30 33 31 34
REMARK SMILES IDX 32 35 82 36 33 37 87 38 81 39 83 40 34 41 86 42 80 43 79 44
REMARK SMILES IDX 35 46 67 47 47 48 66 49 48 50 51 51 65 52 84 53 49 54 50 55
REMARK SMILES IDX 64 57 85 58 52 59 36 60 37 61 45 62 38 63 39 64 43 65 46 66
REMARK SMILES IDX 40 67 41 68 44 69 42 70 68 71 69 72 77 73 70 74 71 75 75 76
REMARK SMILES IDX 78 77 72 78 73 79 76 80 74 81 53 82 54 83 62 84 55 85 56 86
REMARK SMILES IDX 60 87 63 88 57 89 58 90 61 91 59 92
REMARK H PARENT 4 13 83 45 51 56
REMARK Flexibility Score: inf
ROOT
ATOM      1  C   UNL A   1      32.002  28.958  25.057  1.00  0.00     0.188 C 
ENDROOT
BRANCH   1   2
ATOM      2  C   UNL A   1      33.159  28.375  24.217  1.00  0.00     0.188 C 
BRANCH   2   3
ATOM      3  O   UNL A   1      33.306  26.980  24.359  1.00  0.00    -0.376 OA
BRANCH   3   4
ATOM      4  C   UNL A   1      33.856  26.511  25.576  1.00  0.00     0.202 C 
BRANCH   4   5
ATOM      5  C   UNL A   1      34.297  25.039  25.708  1.00  0.00     0.261 C 
BRANCH   5   6
ATOM      6  O   UNL A   1      34.789  24.381  24.533  1.00  0.00    -0.459 OA
BRANCH   6   7
ATOM      7  C   UNL A   1      33.920  23.670  23.766  1.00  0.00     0.343 C 
ATOM      8  O   UNL A   1      33.954  23.648  22.536  1.00  0.00    -0.246 OA
BRANCH   7   9
ATOM      9  C   UNL A   1      33.020  22.847  24.559  1.00  0.00     0.125 A 
ATOM     10  C   UNL A   1      33.143  21.495  24.887  1.00  0.00     0.052 A 
ATOM     11  N   UNL A   1      32.020  21.181  25.612  1.00  0.00    -0.280 N 
ATOM     12  N   UNL A   1      31.170  22.206  25.770  1.00  0.00    -0.156 NA
ATOM     13  H   UNL A   1      31.856  20.285  25.984  1.00  0.00     0.190 HD
ATOM     14  C   UNL A   1      31.761  23.200  25.101  1.00  0.00     0.173 A 
BRANCH  10  15
ATOM     15  C   UNL A   1      34.190  20.488  24.517  1.00  0.00     0.053 C 
ATOM     16  C   UNL A   1      33.772  19.036  24.692  1.00  0.00     0.011 C 
ENDBRANCH  10  15
BRANCH  14  17
ATOM     17  N   UNL A   1      30.976  24.345  24.800  1.00  0.00    -0.306 N 
ATOM     18  C   UNL A   1      30.595  24.743  23.532  1.00  0.00     0.093 A 
ATOM     19  C   UNL A   1      30.350  25.168  25.707  1.00  0.00     0.093 A 
ATOM     20  C   UNL A   1      29.814  25.873  23.637  1.00  0.00     0.020 A 
ATOM     21  C   UNL A   1      29.672  26.150  25.016  1.00  0.00     0.020 A 
ENDBRANCH  14  17
ENDBRANCH   7   9
ENDBRANCH   6   7
ENDBRANCH   5   6
ENDBRANCH   4   5
ENDBRANCH   3   4
ENDBRANCH   2   3
ENDBRANCH   1   2
BRANCH   1  22
ATOM     22  O   UNL A   1      32.140  30.126  25.861  1.00  0.00    -0.376 OA
BRANCH  22  23
ATOM     23  C   UNL A   1      33.339  30.436  26.560  1.00  0.00     0.202 C 
BRANCH  23  24
ATOM     24  C   UNL A   1      33.320  31.455  27.701  1.00  0.00     0.261 C 
BRANCH  24  25
ATOM     25  O   UNL A   1      33.905  32.696  27.362  1.00  0.00    -0.460 OA
BRANCH  25  26
ATOM     26  C   UNL A   1      33.263  33.725  27.944  1.00  0.00     0.338 C 
ATOM     27  O   UNL A   1      32.154  34.168  27.689  1.00  0.00    -0.246 OA
BRANCH  26  28
ATOM     28  C   UNL A   1      34.155  34.319  28.946  1.00  0.00     0.060 A 
ATOM     29  C   UNL A   1      35.457  34.496  28.469  1.00  0.00     0.016 A 
ATOM     30  C   UNL A   1      33.860  33.878  30.238  1.00  0.00     0.016 A 
ATOM     31  C   UNL A   1      36.450  33.828  29.129  1.00  0.00     0.010 A 
ATOM     32  C   UNL A   1      34.829  33.145  30.861  1.00  0.00     0.010 A 
ATOM     33  C   UNL A   1      36.094  33.085  30.261  1.00  0.00    -0.014 A 
BRANCH  33  34
ATOM     34  C   UNL A   1      37.153  32.369  30.946  1.00  0.00     0.031 A 
ATOM     35  C   UNL A   1      37.436  31.061  30.174  1.00  0.00     0.074 A 
ATOM     36  C   UNL A   1      37.610  33.000  32.073  1.00  0.00     0.049 A 
ATOM     37  N   UNL A   1      38.080  29.998  30.533  1.00  0.00    -0.248 NA
ATOM     38  C   UNL A   1      36.891  30.895  28.787  1.00  0.00     0.031 C 
ATOM     39  C   UNL A   1      37.138  34.312  32.600  1.00  0.00     0.029 A 
ATOM     40  N   UNL A   1      38.547  32.671  33.019  1.00  0.00    -0.354 N 
ATOM     41  C   UNL A   1      38.215  29.178  29.391  1.00  0.00     0.074 A 
ATOM     42  C   UNL A   1      37.389  29.733  28.371  1.00  0.00     0.031 C 
ATOM     43  C   UNL A   1      37.707  34.593  33.796  1.00  0.00     0.029 A 
ATOM     44  C   UNL A   1      38.618  33.526  34.154  1.00  0.00     0.049 A 
ATOM     45  H   UNL A   1      39.136  31.888  32.919  1.00  0.00     0.167 HD
ATOM     46  C   UNL A   1      39.100  28.146  29.327  1.00  0.00     0.037 A 
ATOM     47  C   UNL A   1      39.324  33.323  35.313  1.00  0.00     0.037 A 
ATOM     48  C   UNL A   1      39.715  27.959  30.595  1.00  0.00     0.049 A 
ATOM     49  C   UNL A   1      40.112  32.115  35.025  1.00  0.00     0.074 A 
ATOM     50  C   UNL A   1      39.229  27.408  31.751  1.00  0.00     0.029 A 
ATOM     51  N   UNL A   1      40.811  28.732  30.887  1.00  0.00    -0.354 N 
ATOM     52  N   UNL A   1      41.121  32.069  34.207  1.00  0.00    -0.248 NA
ATOM     53  C   UNL A   1      39.643  30.837  35.567  1.00  0.00     0.031 C 
ATOM     54  C   UNL A   1      39.743  28.256  32.752  1.00  0.00     0.029 A 
ATOM     55  C   UNL A   1      40.695  29.121  32.200  1.00  0.00     0.049 A 
ATOM     56  H   UNL A   1      41.543  28.964  30.270  1.00  0.00     0.167 HD
ATOM     57  C   UNL A   1      41.188  30.732  33.898  1.00  0.00     0.074 A 
ATOM     58  C   UNL A   1      40.501  30.026  34.957  1.00  0.00     0.031 C 
ATOM     59  C   UNL A   1      41.357  30.337  32.609  1.00  0.00     0.037 A 
BRANCH  46  60
ATOM     60  C   UNL A   1      39.631  27.354  28.174  1.00  0.00     0.064 A 
ATOM     61  C   UNL A   1      39.692  25.948  28.315  1.00  0.00     0.173 A 
ATOM     62  C   UNL A   1      40.401  27.916  27.148  1.00  0.00     0.173 A 
ATOM     63  F   UNL A   1      38.934  25.316  29.224  1.00  0.00    -0.203 F 
ATOM     64  C   UNL A   1      40.595  25.177  27.591  1.00  0.00     0.198 A 
ATOM     65  C   UNL A   1      41.269  27.128  26.386  1.00  0.00     0.198 A 
ATOM     66  F   UNL A   1      40.408  29.238  26.931  1.00  0.00    -0.203 F 
ATOM     67  F   UNL A   1      40.730  23.873  27.870  1.00  0.00    -0.200 F 
ATOM     68  C   UNL A   1      41.401  25.771  26.642  1.00  0.00     0.200 A 
ATOM     69  F   UNL A   1      42.040  27.704  25.454  1.00  0.00    -0.200 F 
ATOM     70  F   UNL A   1      42.327  25.048  25.998  1.00  0.00    -0.200 F 
ENDBRANCH  46  60
BRANCH  47  71
ATOM     71  C   UNL A   1      39.407  33.863  36.726  1.00  0.00     0.064 A 
ATOM     72  C   UNL A   1      38.442  33.725  37.730  1.00  0.00     0.173 A 
ATOM     73  C   UNL A   1      40.613  34.486  37.168  1.00  0.00     0.173 A 
ATOM     74  F   UNL A   1      37.212  33.284  37.445  1.00  0.00    -0.203 F 
ATOM     75  C   UNL A   1      38.714  34.051  39.077  1.00  0.00     0.198 A 
ATOM     76  C   UNL A   1      40.906  34.750  38.505  1.00  0.00     0.198 A 
ATOM     77  F   UNL A   1      41.571  34.855  36.306  1.00  0.00    -0.203 F 
ATOM     78  F   UNL A   1      37.761  33.892  40.006  1.00  0.00    -0.200 F 
ATOM     79  C   UNL A   1      39.960  34.513  39.468  1.00  0.00     0.200 A 
ATOM     80  F   UNL A   1      42.123  35.207  38.841  1.00  0.00    -0.200 F 
ATOM     81  F   UNL A   1      40.241  34.739  40.759  1.00  0.00    -0.200 F 
ENDBRANCH  47  71
BRANCH  59  82
ATOM     82  C   UNL A   1      41.925  31.407  31.691  1.00  0.00     0.064 A 
ATOM     83  C   UNL A   1      43.275  31.770  31.794  1.00  0.00     0.173 A 
ATOM     84  C   UNL A   1      41.163  32.159  30.780  1.00  0.00     0.173 A 
ATOM     85  F   UNL A   1      44.085  31.092  32.621  1.00  0.00    -0.203 F 
ATOM     86  C   UNL A   1      43.815  32.822  31.045  1.00  0.00     0.198 A 
ATOM     87  C   UNL A   1      41.696  33.211  30.031  1.00  0.00     0.198 A 
ATOM     88  F   UNL A   1      39.880  31.883  30.576  1.00  0.00    -0.203 F 
ATOM     89  F   UNL A   1      45.114  33.128  31.170  1.00  0.00    -0.200 F 
ATOM     90  C   UNL A   1      43.026  33.545  30.167  1.00  0.00     0.200 A 
ATOM     91  F   UNL A   1      40.915  33.886  29.171  1.00  0.00    -0.200 F 
ATOM     92  F   UNL A   1      43.549  34.542  29.439  1.00  0.00    -0.200 F 
ENDBRANCH  59  82
ENDBRANCH  33  34
ENDBRANCH  26  28
ENDBRANCH  25  26
ENDBRANCH  24  25
ENDBRANCH  23  24
ENDBRANCH  22  23
ENDBRANCH   1  22
TORSDOF 19
ENDMDL
