MODEL 1
REMARK VINA RESULT:     -10.3      0.000      0.000
REMARK SMILES Cc1ccc(-c2nn(CCC(=O)OCCOCCOCCOC(=O)c3ccc(-c4c5nc(c(-c6c(F)c(F)c(F)c(F)c6F)c6ccc([nH]6)c(-c6c(F)c(F)c(F)c(F)c6F)c6nc(c(-c7c(F)c(F)c(F)c(F)c7F)c7ccc4[nH]7)C=C6)C=C5)cc3)c(=O)c3noc(C)c23)cc1C
REMARK SMILES IDX 17 1 16 2 15 3 14 4 13 5 11 6 12 7 10 8 9 9 8 10 6 11 7 12
REMARK SMILES IDX 95 13 90 14 93 15 88 16 91 17 92 18 94 19 89 20 5 21 1 22
REMARK SMILES IDX 2 23 3 24 97 25 4 26 96 27 98 28 18 29 19 30 20 31 21 32
REMARK SMILES IDX 22 33 23 34 24 35 25 36 26 37 87 38 27 39 86 40 28 41 29 42
REMARK SMILES IDX 30 43 80 44 31 45 85 46 79 47 81 48 32 49 84 50 78 51 77 52
REMARK SMILES IDX 33 54 65 55 45 56 64 57 46 58 49 59 63 60 82 61 47 62 48 63
REMARK SMILES IDX 62 65 83 66 50 67 34 68 35 69 43 70 36 71 37 72 41 73 44 74
REMARK SMILES IDX 38 75 39 76 42 77 40 78 66 79 67 80 75 81 68 82 69 83 73 84
REMARK SMILES IDX 76 85 70 86 71 87 74 88 72 89 51 90 52 91 60 92 53 93 54 94
REMARK SMILES IDX 58 95 61 96 55 97 56 98 59 99 57 100
REMARK H PARENT 81 53 49 64
REMARK Flexibility Score: inf
ROOT
ATOM      1  C   UNL A   1      43.314  27.871  31.733  1.00  0.00     0.188 C 
ENDROOT
BRANCH   1   2
ATOM      2  O   UNL A   1      42.948  27.076  30.618  1.00  0.00    -0.376 OA
BRANCH   2   3
ATOM      3  C   UNL A   1      43.639  27.372  29.400  1.00  0.00     0.202 C 
BRANCH   3   4
ATOM      4  C   UNL A   1      42.864  27.198  28.067  1.00  0.00     0.261 C 
BRANCH   4   5
ATOM      5  O   UNL A   1      43.365  26.168  27.178  1.00  0.00    -0.463 OA
BRANCH   5   6
ATOM      6  C   UNL A   1      42.483  25.539  26.366  1.00  0.00     0.307 C 
ATOM      7  O   UNL A   1      42.795  24.901  25.367  1.00  0.00    -0.252 OA
BRANCH   6   8
ATOM      8  C   UNL A   1      41.039  25.684  26.820  1.00  0.00     0.146 C 
BRANCH   8   9
ATOM      9  C   UNL A   1      40.427  24.608  27.731  1.00  0.00     0.160 C 
BRANCH   9  10
ATOM     10  N   UNL A   1      39.905  23.412  27.067  1.00  0.00    -0.227 N 
ATOM     11  C   UNL A   1      38.111  22.548  25.819  1.00  0.00     0.104 A 
ATOM     12  N   UNL A   1      38.646  23.550  26.461  1.00  0.00    -0.169 NA
ATOM     13  C   UNL A   1      38.772  21.273  25.779  1.00  0.00     0.078 A 
ATOM     14  C   UNL A   1      40.052  21.151  26.315  1.00  0.00     0.183 A 
ATOM     15  C   UNL A   1      38.475  20.007  25.331  1.00  0.00     0.143 A 
ATOM     16  C   UNL A   1      40.717  22.272  26.913  1.00  0.00     0.296 A 
ATOM     17  N   UNL A   1      40.536  19.909  26.219  1.00  0.00    -0.074 NA
ATOM     18  O   UNL A   1      39.534  19.186  25.598  1.00  0.00    -0.360 OA
ATOM     19  C   UNL A   1      37.332  19.342  24.684  1.00  0.00     0.091 C 
ATOM     20  O   UNL A   1      41.887  22.196  27.259  1.00  0.00    -0.265 OA
BRANCH  11  21
ATOM     21  C   UNL A   1      36.816  22.710  25.163  1.00  0.00     0.003 A 
ATOM     22  C   UNL A   1      32.969  23.092  23.306  1.00  0.00     0.044 C 
ATOM     23  C   UNL A   1      34.305  22.953  23.981  1.00  0.00    -0.048 A 
ATOM     24  C   UNL A   1      35.477  23.118  23.216  1.00  0.00     0.004 A 
ATOM     25  C   UNL A   1      34.407  22.672  25.359  1.00  0.00    -0.048 A 
ATOM     26  C   UNL A   1      36.736  22.998  23.803  1.00  0.00     0.011 A 
ATOM     27  C   UNL A   1      35.672  22.572  25.942  1.00  0.00     0.014 A 
ATOM     28  C   UNL A   1      33.229  22.450  26.263  1.00  0.00     0.044 C 
ENDBRANCH  11  21
ENDBRANCH   9  10
ENDBRANCH   8   9
ENDBRANCH   6   8
ENDBRANCH   5   6
ENDBRANCH   4   5
ENDBRANCH   3   4
ENDBRANCH   2   3
ENDBRANCH   1   2
BRANCH   1  29
ATOM     29  C   UNL A   1      43.853  27.128  32.941  1.00  0.00     0.188 C 
BRANCH  29  30
ATOM     30  O   UNL A   1      43.758  27.817  34.185  1.00  0.00    -0.376 OA
BRANCH  30  31
ATOM     31  C   UNL A   1      44.682  27.423  35.194  1.00  0.00     0.202 C 
BRANCH  31  32
ATOM     32  C   UNL A   1      44.125  27.385  36.631  1.00  0.00     0.261 C 
BRANCH  32  33
ATOM     33  O   UNL A   1      43.164  28.409  36.926  1.00  0.00    -0.460 OA
BRANCH  33  34
ATOM     34  C   UNL A   1      43.722  29.565  37.364  1.00  0.00     0.338 C 
ATOM     35  O   UNL A   1      44.656  29.690  38.139  1.00  0.00    -0.246 OA
BRANCH  34  36
ATOM     36  C   UNL A   1      43.089  30.716  36.705  1.00  0.00     0.060 A 
ATOM     37  C   UNL A   1      42.174  31.499  37.423  1.00  0.00     0.016 A 
ATOM     38  C   UNL A   1      43.259  30.896  35.339  1.00  0.00     0.016 A 
ATOM     39  C   UNL A   1      41.367  32.422  36.761  1.00  0.00     0.010 A 
ATOM     40  C   UNL A   1      42.403  31.768  34.674  1.00  0.00     0.010 A 
ATOM     41  C   UNL A   1      41.431  32.517  35.369  1.00  0.00    -0.014 A 
BRANCH  41  42
ATOM     42  C   UNL A   1      40.487  33.418  34.655  1.00  0.00     0.031 A 
ATOM     43  C   UNL A   1      41.179  34.378  33.743  1.00  0.00     0.074 A 
ATOM     44  C   UNL A   1      39.214  33.040  34.370  1.00  0.00     0.049 A 
ATOM     45  N   UNL A   1      41.642  33.974  32.596  1.00  0.00    -0.248 NA
ATOM     46  C   UNL A   1      41.713  35.673  34.160  1.00  0.00     0.031 C 
ATOM     47  C   UNL A   1      38.761  31.642  34.375  1.00  0.00     0.029 A 
ATOM     48  N   UNL A   1      38.129  33.728  33.854  1.00  0.00    -0.354 N 
ATOM     49  C   UNL A   1      42.605  34.872  32.193  1.00  0.00     0.074 A 
ATOM     50  C   UNL A   1      42.568  35.951  33.158  1.00  0.00     0.031 C 
ATOM     51  C   UNL A   1      37.578  31.558  33.734  1.00  0.00     0.029 A 
ATOM     52  C   UNL A   1      37.110  32.897  33.366  1.00  0.00     0.049 A 
ATOM     53  H   UNL A   1      38.077  34.710  33.832  1.00  0.00     0.167 HD
ATOM     54  C   UNL A   1      43.401  34.621  31.122  1.00  0.00     0.037 A 
ATOM     55  C   UNL A   1      36.411  33.109  32.209  1.00  0.00     0.037 A 
ATOM     56  C   UNL A   1      43.257  33.321  30.529  1.00  0.00     0.049 A 
ATOM     57  C   UNL A   1      37.498  33.018  31.166  1.00  0.00     0.074 A 
ATOM     58  C   UNL A   1      43.925  32.115  30.547  1.00  0.00     0.029 A 
ATOM     59  N   UNL A   1      42.146  33.087  29.755  1.00  0.00    -0.354 N 
ATOM     60  N   UNL A   1      38.052  31.927  30.708  1.00  0.00    -0.248 NA
ATOM     61  C   UNL A   1      38.225  34.253  30.873  1.00  0.00     0.031 C 
ATOM     62  C   UNL A   1      42.944  31.131  30.200  1.00  0.00     0.029 A 
ATOM     63  C   UNL A   1      41.738  31.802  30.007  1.00  0.00     0.049 A 
ATOM     64  H   UNL A   1      41.722  33.723  29.135  1.00  0.00     0.167 HD
ATOM     65  C   UNL A   1      39.332  32.313  30.307  1.00  0.00     0.074 A 
ATOM     66  C   UNL A   1      39.365  33.756  30.419  1.00  0.00     0.031 C 
ATOM     67  C   UNL A   1      40.346  31.431  30.074  1.00  0.00     0.037 A 
BRANCH  54  68
ATOM     68  C   UNL A   1      44.206  35.630  30.420  1.00  0.00     0.064 A 
ATOM     69  C   UNL A   1      43.561  36.313  29.377  1.00  0.00     0.173 A 
ATOM     70  C   UNL A   1      45.590  35.753  30.544  1.00  0.00     0.173 A 
ATOM     71  F   UNL A   1      42.233  36.183  29.214  1.00  0.00    -0.203 F 
ATOM     72  C   UNL A   1      44.280  37.061  28.456  1.00  0.00     0.198 A 
ATOM     73  C   UNL A   1      46.309  36.520  29.625  1.00  0.00     0.198 A 
ATOM     74  F   UNL A   1      46.248  35.096  31.509  1.00  0.00    -0.203 F 
ATOM     75  F   UNL A   1      43.641  37.645  27.433  1.00  0.00    -0.200 F 
ATOM     76  C   UNL A   1      45.656  37.157  28.574  1.00  0.00     0.200 A 
ATOM     77  F   UNL A   1      47.642  36.611  29.726  1.00  0.00    -0.200 F 
ATOM     78  F   UNL A   1      46.355  37.847  27.663  1.00  0.00    -0.200 F 
ENDBRANCH  54  68
BRANCH  55  79
ATOM     79  C   UNL A   1      35.379  34.199  32.166  1.00  0.00     0.064 A 
ATOM     80  C   UNL A   1      34.550  34.331  31.037  1.00  0.00     0.173 A 
ATOM     81  C   UNL A   1      35.188  35.157  33.179  1.00  0.00     0.173 A 
ATOM     82  F   UNL A   1      34.748  33.557  29.959  1.00  0.00    -0.203 F 
ATOM     83  C   UNL A   1      33.505  35.258  30.991  1.00  0.00     0.198 A 
ATOM     84  C   UNL A   1      34.122  36.060  33.151  1.00  0.00     0.198 A 
ATOM     85  F   UNL A   1      36.021  35.233  34.227  1.00  0.00    -0.203 F 
ATOM     86  F   UNL A   1      32.718  35.321  29.908  1.00  0.00    -0.200 F 
ATOM     87  C   UNL A   1      33.267  36.095  32.065  1.00  0.00     0.200 A 
ATOM     88  F   UNL A   1      33.916  36.881  34.191  1.00  0.00    -0.200 F 
ATOM     89  F   UNL A   1      32.224  36.937  32.052  1.00  0.00    -0.200 F 
ENDBRANCH  55  79
BRANCH  67  90
ATOM     90  C   UNL A   1      39.970  29.991  30.091  1.00  0.00     0.064 A 
ATOM     91  C   UNL A   1      39.948  29.294  31.305  1.00  0.00     0.173 A 
ATOM     92  C   UNL A   1      39.559  29.315  28.931  1.00  0.00     0.173 A 
ATOM     93  F   UNL A   1      40.324  29.903  32.441  1.00  0.00    -0.203 F 
ATOM     94  C   UNL A   1      39.494  27.981  31.366  1.00  0.00     0.198 A 
ATOM     95  C   UNL A   1      39.087  28.007  29.000  1.00  0.00     0.198 A 
ATOM     96  F   UNL A   1      39.577  29.929  27.737  1.00  0.00    -0.203 F 
ATOM     97  F   UNL A   1      39.458  27.341  32.543  1.00  0.00    -0.200 F 
ATOM     98  C   UNL A   1      39.049  27.345  30.217  1.00  0.00     0.200 A 
ATOM     99  F   UNL A   1      38.639  27.398  27.893  1.00  0.00    -0.200 F 
ATOM    100  F   UNL A   1      38.562  26.097  30.287  1.00  0.00    -0.200 F 
ENDBRANCH  67  90
ENDBRANCH  41  42
ENDBRANCH  34  36
ENDBRANCH  33  34
ENDBRANCH  32  33
ENDBRANCH  31  32
ENDBRANCH  30  31
ENDBRANCH  29  30
ENDBRANCH   1  29
TORSDOF 20
ENDMDL
MODEL 2
REMARK VINA RESULT:     -10.0      4.717     10.064
REMARK SMILES Cc1ccc(-c2nn(CCC(=O)OCCOCCOCCOC(=O)c3ccc(-c4c5nc(c(-c6c(F)c(F)c(F)c(F)c6F)c6ccc([nH]6)c(-c6c(F)c(F)c(F)c(F)c6F)c6nc(c(-c7c(F)c(F)c(F)c(F)c7F)c7ccc4[nH]7)C=C6)C=C5)cc3)c(=O)c3noc(C)c23)cc1C
REMARK SMILES IDX 17 1 16 2 15 3 14 4 13 5 11 6 12 7 10 8 9 9 8 10 6 11 7 12
REMARK SMILES IDX 95 13 90 14 93 15 88 16 91 17 92 18 94 19 89 20 5 21 1 22
REMARK SMILES IDX 2 23 3 24 97 25 4 26 96 27 98 28 18 29 19 30 20 31 21 32
REMARK SMILES IDX 22 33 23 34 24 35 25 36 26 37 87 38 27 39 86 40 28 41 29 42
REMARK SMILES IDX 30 43 80 44 31 45 85 46 79 47 81 48 32 49 84 50 78 51 77 52
REMARK SMILES IDX 33 54 65 55 45 56 64 57 46 58 49 59 63 60 82 61 47 62 48 63
REMARK SMILES IDX 62 65 83 66 50 67 34 68 35 69 43 70 36 71 37 72 41 73 44 74
REMARK SMILES IDX 38 75 39 76 42 77 40 78 66 79 67 80 75 81 68 82 69 83 73 84
REMARK SMILES IDX 76 85 70 86 71 87 74 88 72 89 51 90 52 91 60 92 53 93 54 94
REMARK SMILES IDX 58 95 61 96 55 97 56 98 59 99 57 100
REMARK H PARENT 81 53 49 64
REMARK Flexibility Score: inf
ROOT
ATOM      1  C   UNL A   1      35.646  20.133  25.016  1.00  0.00     0.188 C 
ENDROOT
BRANCH   1   2
ATOM      2  O   UNL A   1      34.398  19.565  24.653  1.00  0.00    -0.376 OA
BRANCH   2   3
ATOM      3  C   UNL A   1      33.388  20.502  24.264  1.00  0.00     0.202 C 
BRANCH   3   4
ATOM      4  C   UNL A   1      32.255  20.808  25.280  1.00  0.00     0.261 C 
BRANCH   4   5
ATOM      5  O   UNL A   1      32.685  21.335  26.561  1.00  0.00    -0.463 OA
BRANCH   5   6
ATOM      6  C   UNL A   1      32.626  22.674  26.754  1.00  0.00     0.307 C 
ATOM      7  O   UNL A   1      33.607  23.400  26.868  1.00  0.00    -0.252 OA
BRANCH   6   8
ATOM      8  C   UNL A   1      31.205  23.212  26.801  1.00  0.00     0.146 C 
BRANCH   8   9
ATOM      9  C   UNL A   1      30.589  23.816  25.529  1.00  0.00     0.160 C 
BRANCH   9  10
ATOM     10  N   UNL A   1      31.418  24.774  24.793  1.00  0.00    -0.227 N 
ATOM     11  C   UNL A   1      32.451  26.882  24.897  1.00  0.00     0.104 A 
ATOM     12  N   UNL A   1      31.696  25.978  25.459  1.00  0.00    -0.169 NA
ATOM     13  C   UNL A   1      32.955  26.684  23.566  1.00  0.00     0.078 A 
ATOM     14  C   UNL A   1      32.743  25.462  22.931  1.00  0.00     0.183 A 
ATOM     15  C   UNL A   1      33.644  27.428  22.637  1.00  0.00     0.143 A 
ATOM     16  C   UNL A   1      32.025  24.403  23.579  1.00  0.00     0.296 A 
ATOM     17  N   UNL A   1      33.254  25.425  21.697  1.00  0.00    -0.074 NA
ATOM     18  O   UNL A   1      33.822  26.673  21.513  1.00  0.00    -0.360 OA
ATOM     19  C   UNL A   1      34.193  28.792  22.553  1.00  0.00     0.091 C 
ATOM     20  O   UNL A   1      31.957  23.291  23.075  1.00  0.00    -0.265 OA
BRANCH  11  21
ATOM     21  C   UNL A   1      32.764  28.118  25.610  1.00  0.00     0.003 A 
ATOM     22  C   UNL A   1      33.736  31.679  27.792  1.00  0.00     0.044 C 
ATOM     23  C   UNL A   1      33.420  30.420  27.034  1.00  0.00    -0.048 A 
ATOM     24  C   UNL A   1      32.187  30.321  26.359  1.00  0.00     0.004 A 
ATOM     25  C   UNL A   1      34.332  29.346  26.979  1.00  0.00    -0.048 A 
ATOM     26  C   UNL A   1      31.854  29.171  25.645  1.00  0.00     0.011 A 
ATOM     27  C   UNL A   1      33.998  28.206  26.245  1.00  0.00     0.014 A 
ATOM     28  C   UNL A   1      35.660  29.331  27.680  1.00  0.00     0.044 C 
ENDBRANCH  11  21
ENDBRANCH   9  10
ENDBRANCH   8   9
ENDBRANCH   6   8
ENDBRANCH   5   6
ENDBRANCH   4   5
ENDBRANCH   3   4
ENDBRANCH   2   3
ENDBRANCH   1   2
BRANCH   1  29
ATOM     29  C   UNL A   1      35.779  21.633  24.837  1.00  0.00     0.188 C 
BRANCH  29  30
ATOM     30  O   UNL A   1      37.051  22.185  25.166  1.00  0.00    -0.376 OA
BRANCH  30  31
ATOM     31  C   UNL A   1      38.170  21.316  25.022  1.00  0.00     0.202 C 
BRANCH  31  32
ATOM     32  C   UNL A   1      39.278  21.474  26.081  1.00  0.00     0.261 C 
BRANCH  32  33
ATOM     33  O   UNL A   1      39.345  22.773  26.687  1.00  0.00    -0.460 OA
BRANCH  33  34
ATOM     34  C   UNL A   1      40.340  22.893  27.601  1.00  0.00     0.338 C 
ATOM     35  O   UNL A   1      40.872  22.000  28.239  1.00  0.00    -0.246 OA
BRANCH  34  36
ATOM     36  C   UNL A   1      40.784  24.292  27.687  1.00  0.00     0.060 A 
ATOM     37  C   UNL A   1      42.053  24.577  28.211  1.00  0.00     0.016 A 
ATOM     38  C   UNL A   1      39.878  25.311  27.427  1.00  0.00     0.016 A 
ATOM     39  C   UNL A   1      42.396  25.884  28.550  1.00  0.00     0.010 A 
ATOM     40  C   UNL A   1      40.199  26.602  27.830  1.00  0.00     0.010 A 
ATOM     41  C   UNL A   1      41.445  26.900  28.422  1.00  0.00    -0.014 A 
BRANCH  41  42
ATOM     42  C   UNL A   1      41.775  28.271  28.893  1.00  0.00     0.031 A 
ATOM     43  C   UNL A   1      41.925  28.355  30.377  1.00  0.00     0.074 A 
ATOM     44  C   UNL A   1      42.453  29.152  28.112  1.00  0.00     0.049 A 
ATOM     45  N   UNL A   1      43.004  27.910  30.953  1.00  0.00    -0.248 NA
ATOM     46  C   UNL A   1      40.818  28.568  31.306  1.00  0.00     0.031 C 
ATOM     47  C   UNL A   1      43.241  28.756  26.936  1.00  0.00     0.029 A 
ATOM     48  N   UNL A   1      42.752  30.496  28.262  1.00  0.00    -0.354 N 
ATOM     49  C   UNL A   1      42.703  27.665  32.273  1.00  0.00     0.074 A 
ATOM     50  C   UNL A   1      41.355  28.155  32.470  1.00  0.00     0.031 C 
ATOM     51  C   UNL A   1      44.053  29.774  26.585  1.00  0.00     0.029 A 
ATOM     52  C   UNL A   1      43.779  30.946  27.421  1.00  0.00     0.049 A 
ATOM     53  H   UNL A   1      42.286  31.080  28.902  1.00  0.00     0.167 HD
ATOM     54  C   UNL A   1      43.577  27.020  33.089  1.00  0.00     0.037 A 
ATOM     55  C   UNL A   1      44.782  31.799  27.794  1.00  0.00     0.037 A 
ATOM     56  C   UNL A   1      44.759  26.507  32.456  1.00  0.00     0.049 A 
ATOM     57  C   UNL A   1      45.494  30.997  28.857  1.00  0.00     0.074 A 
ATOM     58  C   UNL A   1      45.221  25.291  31.997  1.00  0.00     0.029 A 
ATOM     59  N   UNL A   1      45.744  27.401  32.113  1.00  0.00    -0.354 N 
ATOM     60  N   UNL A   1      46.321  30.005  28.663  1.00  0.00    -0.248 NA
ATOM     61  C   UNL A   1      44.978  31.118  30.220  1.00  0.00     0.031 C 
ATOM     62  C   UNL A   1      46.200  25.607  31.001  1.00  0.00     0.029 A 
ATOM     63  C   UNL A   1      46.258  26.996  30.907  1.00  0.00     0.049 A 
ATOM     64  H   UNL A   1      46.028  28.185  32.635  1.00  0.00     0.167 HD
ATOM     65  C   UNL A   1      46.216  29.218  29.810  1.00  0.00     0.074 A 
ATOM     66  C   UNL A   1      45.389  29.968  30.732  1.00  0.00     0.031 C 
ATOM     67  C   UNL A   1      46.660  27.931  29.884  1.00  0.00     0.037 A 
BRANCH  54  68
ATOM     68  C   UNL A   1      43.502  27.008  34.557  1.00  0.00     0.064 A 
ATOM     69  C   UNL A   1      44.147  28.068  35.213  1.00  0.00     0.173 A 
ATOM     70  C   UNL A   1      43.082  25.913  35.311  1.00  0.00     0.173 A 
ATOM     71  F   UNL A   1      44.594  29.119  34.504  1.00  0.00    -0.203 F 
ATOM     72  C   UNL A   1      44.406  28.019  36.574  1.00  0.00     0.198 A 
ATOM     73  C   UNL A   1      43.330  25.873  36.685  1.00  0.00     0.198 A 
ATOM     74  F   UNL A   1      42.487  24.867  34.720  1.00  0.00    -0.203 F 
ATOM     75  F   UNL A   1      45.084  29.018  37.157  1.00  0.00    -0.200 F 
ATOM     76  C   UNL A   1      44.006  26.916  37.310  1.00  0.00     0.200 A 
ATOM     77  F   UNL A   1      42.954  24.805  37.402  1.00  0.00    -0.200 F 
ATOM     78  F   UNL A   1      44.290  26.850  38.617  1.00  0.00    -0.200 F 
ENDBRANCH  54  68
BRANCH  55  79
ATOM     79  C   UNL A   1      44.469  33.254  27.994  1.00  0.00     0.064 A 
ATOM     80  C   UNL A   1      45.268  34.231  27.372  1.00  0.00     0.173 A 
ATOM     81  C   UNL A   1      43.432  33.743  28.810  1.00  0.00     0.173 A 
ATOM     82  F   UNL A   1      46.366  33.872  26.689  1.00  0.00    -0.203 F 
ATOM     83  C   UNL A   1      44.957  35.592  27.438  1.00  0.00     0.198 A 
ATOM     84  C   UNL A   1      43.098  35.099  28.848  1.00  0.00     0.198 A 
ATOM     85  F   UNL A   1      42.708  32.916  29.579  1.00  0.00    -0.203 F 
ATOM     86  F   UNL A   1      45.727  36.483  26.798  1.00  0.00    -0.200 F 
ATOM     87  C   UNL A   1      43.849  36.021  28.144  1.00  0.00     0.200 A 
ATOM     88  F   UNL A   1      42.032  35.503  29.554  1.00  0.00    -0.200 F 
ATOM     89  F   UNL A   1      43.509  37.318  28.152  1.00  0.00    -0.200 F 
ENDBRANCH  55  79
BRANCH  67  90
ATOM     90  C   UNL A   1      47.444  27.447  28.715  1.00  0.00     0.064 A 
ATOM     91  C   UNL A   1      48.835  27.610  28.698  1.00  0.00     0.173 A 
ATOM     92  C   UNL A   1      46.844  26.758  27.649  1.00  0.00     0.173 A 
ATOM     93  F   UNL A   1      49.452  28.256  29.700  1.00  0.00    -0.203 F 
ATOM     94  C   UNL A   1      49.603  27.070  27.673  1.00  0.00     0.198 A 
ATOM     95  C   UNL A   1      47.620  26.201  26.636  1.00  0.00     0.198 A 
ATOM     96  F   UNL A   1      45.513  26.587  27.605  1.00  0.00    -0.203 F 
ATOM     97  F   UNL A   1      50.935  27.217  27.689  1.00  0.00    -0.200 F 
ATOM     98  C   UNL A   1      48.998  26.352  26.653  1.00  0.00     0.200 A 
ATOM     99  F   UNL A   1      47.037  25.491  25.660  1.00  0.00    -0.200 F 
ATOM    100  F   UNL A   1      49.746  25.787  25.694  1.00  0.00    -0.200 F 
ENDBRANCH  67  90
ENDBRANCH  41  42
ENDBRANCH  34  36
ENDBRANCH  33  34
ENDBRANCH  32  33
ENDBRANCH  31  32
ENDBRANCH  30  31
ENDBRANCH  29  30
ENDBRANCH   1  29
TORSDOF 20
ENDMDL
MODEL 3
REMARK VINA RESULT:      -9.9      5.377     10.443
REMARK SMILES Cc1ccc(-c2nn(CCC(=O)OCCOCCOCCOC(=O)c3ccc(-c4c5nc(c(-c6c(F)c(F)c(F)c(F)c6F)c6ccc([nH]6)c(-c6c(F)c(F)c(F)c(F)c6F)c6nc(c(-c7c(F)c(F)c(F)c(F)c7F)c7ccc4[nH]7)C=C6)C=C5)cc3)c(=O)c3noc(C)c23)cc1C
REMARK SMILES IDX 17 1 16 2 15 3 14 4 13 5 11 6 12 7 10 8 9 9 8 10 6 11 7 12
REMARK SMILES IDX 95 13 90 14 93 15 88 16 91 17 92 18 94 19 89 20 5 21 1 22
REMARK SMILES IDX 2 23 3 24 97 25 4 26 96 27 98 28 18 29 19 30 20 31 21 32
REMARK SMILES IDX 22 33 23 34 24 35 25 36 26 37 87 38 27 39 86 40 28 41 29 42
REMARK SMILES IDX 30 43 80 44 31 45 85 46 79 47 81 48 32 49 84 50 78 51 77 52
REMARK SMILES IDX 33 54 65 55 45 56 64 57 46 58 49 59 63 60 82 61 47 62 48 63
REMARK SMILES IDX 62 65 83 66 50 67 34 68 35 69 43 70 36 71 37 72 41 73 44 74
REMARK SMILES IDX 38 75 39 76 42 77 40 78 66 79 67 80 75 81 68 82 69 83 73 84
REMARK SMILES IDX 76 85 70 86 71 87 74 88 72 89 51 90 52 91 60 92 53 93 54 94
REMARK SMILES IDX 58 95 61 96 55 97 56 98 59 99 57 100
REMARK H PARENT 81 53 49 64
REMARK Flexibility Score: inf
ROOT
ATOM      1  C   UNL A   1      38.651  21.625  25.686  1.00  0.00     0.188 C 
ENDROOT
BRANCH   1   2
ATOM      2  O   UNL A   1      38.159  22.887  26.107  1.00  0.00    -0.376 OA
BRANCH   2   3
ATOM      3  C   UNL A   1      37.239  23.516  25.208  1.00  0.00     0.202 C 
BRANCH   3   4
ATOM      4  C   UNL A   1      35.736  23.515  25.593  1.00  0.00     0.261 C 
BRANCH   4   5
ATOM      5  O   UNL A   1      35.230  22.275  26.148  1.00  0.00    -0.463 OA
BRANCH   5   6
ATOM      6  C   UNL A   1      34.087  22.318  26.873  1.00  0.00     0.307 C 
ATOM      7  O   UNL A   1      34.021  22.692  28.039  1.00  0.00    -0.252 OA
BRANCH   6   8
ATOM      8  C   UNL A   1      32.863  21.868  26.093  1.00  0.00     0.146 C 
BRANCH   8   9
ATOM      9  C   UNL A   1      31.804  22.908  25.692  1.00  0.00     0.160 C 
BRANCH   9  10
ATOM     10  N   UNL A   1      32.265  24.023  24.862  1.00  0.00    -0.227 N 
ATOM     11  C   UNL A   1      32.765  26.319  24.853  1.00  0.00     0.104 A 
ATOM     12  N   UNL A   1      32.337  25.271  25.501  1.00  0.00    -0.169 NA
ATOM     13  C   UNL A   1      33.108  26.224  23.461  1.00  0.00     0.078 A 
ATOM     14  C   UNL A   1      33.109  24.975  22.843  1.00  0.00     0.183 A 
ATOM     15  C   UNL A   1      33.460  27.095  22.457  1.00  0.00     0.143 A 
ATOM     16  C   UNL A   1      32.767  23.787  23.569  1.00  0.00     0.296 A 
ATOM     17  N   UNL A   1      33.435  25.040  21.548  1.00  0.00    -0.074 NA
ATOM     18  O   UNL A   1      33.654  26.384  21.306  1.00  0.00    -0.360 OA
ATOM     19  C   UNL A   1      33.647  28.549  22.318  1.00  0.00     0.091 C 
ATOM     20  O   UNL A   1      32.898  22.682  23.061  1.00  0.00    -0.265 OA
BRANCH  11  21
ATOM     21  C   UNL A   1      32.868  27.607  25.534  1.00  0.00     0.003 A 
ATOM     22  C   UNL A   1      33.235  31.332  27.627  1.00  0.00     0.044 C 
ATOM     23  C   UNL A   1      33.132  30.020  26.900  1.00  0.00    -0.048 A 
ATOM     24  C   UNL A   1      31.935  29.704  26.229  1.00  0.00     0.004 A 
ATOM     25  C   UNL A   1      34.208  29.109  26.872  1.00  0.00    -0.048 A 
ATOM     26  C   UNL A   1      31.798  28.498  25.543  1.00  0.00     0.011 A 
ATOM     27  C   UNL A   1      34.069  27.912  26.167  1.00  0.00     0.014 A 
ATOM     28  C   UNL A   1      35.518  29.329  27.574  1.00  0.00     0.044 C 
ENDBRANCH  11  21
ENDBRANCH   9  10
ENDBRANCH   8   9
ENDBRANCH   6   8
ENDBRANCH   5   6
ENDBRANCH   4   5
ENDBRANCH   3   4
ENDBRANCH   2   3
ENDBRANCH   1   2
BRANCH   1  29
ATOM     29  C   UNL A   1      39.903  21.126  26.382  1.00  0.00     0.188 C 
BRANCH  29  30
ATOM     30  O   UNL A   1      41.008  22.026  26.388  1.00  0.00    -0.376 OA
BRANCH  30  31
ATOM     31  C   UNL A   1      42.248  21.495  26.844  1.00  0.00     0.202 C 
BRANCH  31  32
ATOM     32  C   UNL A   1      43.132  20.841  25.763  1.00  0.00     0.261 C 
BRANCH  32  33
ATOM     33  O   UNL A   1      43.876  21.768  24.958  1.00  0.00    -0.460 OA
BRANCH  33  34
ATOM     34  C   UNL A   1      45.045  22.157  25.523  1.00  0.00     0.338 C 
ATOM     35  O   UNL A   1      46.029  21.470  25.740  1.00  0.00    -0.246 OA
BRANCH  34  36
ATOM     36  C   UNL A   1      45.022  23.602  25.793  1.00  0.00     0.060 A 
ATOM     37  C   UNL A   1      45.595  24.088  26.977  1.00  0.00     0.016 A 
ATOM     38  C   UNL A   1      44.274  24.436  24.972  1.00  0.00     0.016 A 
ATOM     39  C   UNL A   1      45.359  25.399  27.385  1.00  0.00     0.010 A 
ATOM     40  C   UNL A   1      43.985  25.720  25.418  1.00  0.00     0.010 A 
ATOM     41  C   UNL A   1      44.498  26.208  26.640  1.00  0.00    -0.014 A 
BRANCH  41  42
ATOM     42  C   UNL A   1      44.157  27.566  27.140  1.00  0.00     0.031 A 
ATOM     43  C   UNL A   1      43.699  27.563  28.562  1.00  0.00     0.074 A 
ATOM     44  C   UNL A   1      44.749  28.682  26.642  1.00  0.00     0.049 A 
ATOM     45  N   UNL A   1      44.562  27.436  29.528  1.00  0.00    -0.248 NA
ATOM     46  C   UNL A   1      42.319  27.330  28.984  1.00  0.00     0.031 C 
ATOM     47  C   UNL A   1      46.005  28.663  25.878  1.00  0.00     0.029 A 
ATOM     48  N   UNL A   1      44.511  30.032  26.835  1.00  0.00    -0.354 N 
ATOM     49  C   UNL A   1      43.884  26.994  30.640  1.00  0.00     0.074 A 
ATOM     50  C   UNL A   1      42.481  27.009  30.281  1.00  0.00     0.031 C 
ATOM     51  C   UNL A   1      46.508  29.912  25.822  1.00  0.00     0.029 A 
ATOM     52  C   UNL A   1      45.571  30.858  26.435  1.00  0.00     0.049 A 
ATOM     53  H   UNL A   1      43.675  30.379  27.220  1.00  0.00     0.167 HD
ATOM     54  C   UNL A   1      44.544  26.592  31.758  1.00  0.00     0.037 A 
ATOM     55  C   UNL A   1      46.019  31.950  27.127  1.00  0.00     0.037 A 
ATOM     56  C   UNL A   1      45.975  26.540  31.651  1.00  0.00     0.049 A 
ATOM     57  C   UNL A   1      46.499  31.328  28.416  1.00  0.00     0.074 A 
ATOM     58  C   UNL A   1      46.947  25.580  31.460  1.00  0.00     0.029 A 
ATOM     59  N   UNL A   1      46.665  27.727  31.674  1.00  0.00    -0.354 N 
ATOM     60  N   UNL A   1      47.613  30.672  28.600  1.00  0.00    -0.248 NA
ATOM     61  C   UNL A   1      45.498  31.157  29.469  1.00  0.00     0.031 C 
ATOM     62  C   UNL A   1      48.067  26.278  30.904  1.00  0.00     0.029 A 
ATOM     63  C   UNL A   1      47.697  27.615  30.778  1.00  0.00     0.049 A 
ATOM     64  H   UNL A   1      46.457  28.513  32.230  1.00  0.00     0.167 HD
ATOM     65  C   UNL A   1      47.347  29.795  29.652  1.00  0.00     0.074 A 
ATOM     66  C   UNL A   1      46.037  30.158  30.150  1.00  0.00     0.031 C 
ATOM     67  C   UNL A   1      48.125  28.715  29.948  1.00  0.00     0.037 A 
BRANCH  54  68
ATOM     68  C   UNL A   1      43.930  26.428  33.082  1.00  0.00     0.064 A 
ATOM     69  C   UNL A   1      43.780  25.107  33.530  1.00  0.00     0.173 A 
ATOM     70  C   UNL A   1      43.270  27.446  33.772  1.00  0.00     0.173 A 
ATOM     71  F   UNL A   1      44.376  24.103  32.863  1.00  0.00    -0.203 F 
ATOM     72  C   UNL A   1      42.960  24.802  34.606  1.00  0.00     0.198 A 
ATOM     73  C   UNL A   1      42.457  27.137  34.864  1.00  0.00     0.198 A 
ATOM     74  F   UNL A   1      43.363  28.718  33.361  1.00  0.00    -0.203 F 
ATOM     75  F   UNL A   1      42.787  23.522  34.966  1.00  0.00    -0.200 F 
ATOM     76  C   UNL A   1      42.291  25.816  35.269  1.00  0.00     0.200 A 
ATOM     77  F   UNL A   1      41.798  28.112  35.505  1.00  0.00    -0.200 F 
ATOM     78  F   UNL A   1      41.469  25.519  36.284  1.00  0.00    -0.200 F 
ENDBRANCH  54  68
BRANCH  55  79
ATOM     79  C   UNL A   1      45.197  33.206  27.127  1.00  0.00     0.064 A 
ATOM     80  C   UNL A   1      44.341  33.480  26.043  1.00  0.00     0.173 A 
ATOM     81  C   UNL A   1      45.237  34.187  28.135  1.00  0.00     0.173 A 
ATOM     82  F   UNL A   1      44.337  32.679  24.967  1.00  0.00    -0.203 F 
ATOM     83  C   UNL A   1      43.477  34.578  26.043  1.00  0.00     0.198 A 
ATOM     84  C   UNL A   1      44.348  35.265  28.154  1.00  0.00     0.198 A 
ATOM     85  F   UNL A   1      46.129  34.116  29.134  1.00  0.00    -0.203 F 
ATOM     86  F   UNL A   1      42.653  34.777  25.005  1.00  0.00    -0.200 F 
ATOM     87  C   UNL A   1      43.453  35.448  27.117  1.00  0.00     0.200 A 
ATOM     88  F   UNL A   1      44.351  36.113  29.193  1.00  0.00    -0.200 F 
ATOM     89  F   UNL A   1      42.577  36.461  27.150  1.00  0.00    -0.200 F 
ENDBRANCH  55  79
BRANCH  67  90
ATOM     90  C   UNL A   1      49.404  28.611  29.193  1.00  0.00     0.064 A 
ATOM     91  C   UNL A   1      49.443  27.894  27.991  1.00  0.00     0.173 A 
ATOM     92  C   UNL A   1      50.569  29.275  29.608  1.00  0.00     0.173 A 
ATOM     93  F   UNL A   1      48.351  27.250  27.551  1.00  0.00    -0.203 F 
ATOM     94  C   UNL A   1      50.594  27.873  27.211  1.00  0.00     0.198 A 
ATOM     95  C   UNL A   1      51.712  29.268  28.813  1.00  0.00     0.198 A 
ATOM     96  F   UNL A   1      50.593  29.962  30.761  1.00  0.00    -0.203 F 
ATOM     97  F   UNL A   1      50.603  27.201  26.051  1.00  0.00    -0.200 F 
ATOM     98  C   UNL A   1      51.721  28.573  27.613  1.00  0.00     0.200 A 
ATOM     99  F   UNL A   1      52.796  29.960  29.193  1.00  0.00    -0.200 F 
ATOM    100  F   UNL A   1      52.811  28.596  26.833  1.00  0.00    -0.200 F 
ENDBRANCH  67  90
ENDBRANCH  41  42
ENDBRANCH  34  36
ENDBRANCH  33  34
ENDBRANCH  32  33
ENDBRANCH  31  32
ENDBRANCH  30  31
ENDBRANCH  29  30
ENDBRANCH   1  29
TORSDOF 20
ENDMDL
