MODEL 1
REMARK VINA RESULT:     -13.2      0.000      0.000
REMARK SMILES O=C(OCCOCCOCCOC(=O)c1ccccc1C(=O)Nc1ccc(N2C(=O)[C@H]3[C@@H]4CC[C@@H](C4)[C@@H]3C2=O)cc1)c1ccc(-c2c3nc(c(-c4c(F)c(F)c(F)c(F)c4F)c4ccc([nH]4)c(-c4c(F)c(F)c(F)c(F)c4F)c4nc(c(-c5c(F)c(F)c(F)c(F)c5F)c5ccc2[nH]5)C=C4)C=C3)cc1
REMARK SMILES IDX 8 1 7 2 6 3 5 4 4 5 3 6 2 7 1 8 42 9 43 10 104 11 44 12
REMARK SMILES IDX 103 13 45 14 46 15 47 16 97 17 48 18 102 19 96 20 98 21
REMARK SMILES IDX 49 22 101 23 95 24 94 25 50 27 82 28 62 29 81 30 63 31 66 32
REMARK SMILES IDX 80 33 99 34 64 35 65 36 79 38 100 39 67 40 51 41 52 42 60 43
REMARK SMILES IDX 53 44 54 45 58 46 61 47 55 48 56 49 59 50 57 51 83 52 84 53
REMARK SMILES IDX 92 54 85 55 86 56 90 57 93 58 87 59 88 60 91 61 89 62 68 63
REMARK SMILES IDX 69 64 77 65 70 66 71 67 75 68 78 69 72 70 73 71 76 72 74 73
REMARK SMILES IDX 9 74 10 75 11 76 12 77 13 78 14 79 15 80 16 81 20 82 17 83
REMARK SMILES IDX 19 84 18 85 21 86 22 87 23 88 24 90 25 91 41 92 26 93 40 94
REMARK SMILES IDX 27 95 28 96 29 97 38 98 30 99 31 100 37 101 39 102 32 103
REMARK SMILES IDX 35 104 33 105 36 106 34 107
REMARK H PARENT 98 26 66 37 23 89
REMARK Flexibility Score: inf
ROOT
ATOM      1  C   UNL A   1      41.677  19.846  26.267  1.00  0.00     0.188 C 
ENDROOT
BRANCH   1   2
ATOM      2  C   UNL A   1      43.036  20.151  25.716  1.00  0.00     0.188 C 
BRANCH   2   3
ATOM      3  O   UNL A   1      43.251  21.443  25.209  1.00  0.00    -0.376 OA
BRANCH   3   4
ATOM      4  C   UNL A   1      44.571  21.944  25.185  1.00  0.00     0.202 C 
BRANCH   4   5
ATOM      5  C   UNL A   1      45.243  22.639  26.406  1.00  0.00     0.261 C 
BRANCH   5   6
ATOM      6  O   UNL A   1      45.513  24.068  26.402  1.00  0.00    -0.460 OA
BRANCH   6   7
ATOM      7  C   UNL A   1      44.816  25.044  25.755  1.00  0.00     0.338 C 
ATOM      8  O   UNL A   1      45.072  25.370  24.604  1.00  0.00    -0.246 OA
BRANCH   7   9
ATOM      9  C   UNL A   1      43.855  25.844  26.548  1.00  0.00     0.060 A 
ATOM     10  C   UNL A   1      44.095  27.190  26.731  1.00  0.00     0.016 A 
ATOM     11  C   UNL A   1      42.673  25.312  27.065  1.00  0.00     0.016 A 
ATOM     12  C   UNL A   1      43.412  27.938  27.649  1.00  0.00     0.010 A 
ATOM     13  C   UNL A   1      41.873  26.100  27.907  1.00  0.00     0.010 A 
ATOM     14  C   UNL A   1      42.309  27.385  28.273  1.00  0.00    -0.014 A 
BRANCH  14  15
ATOM     15  C   UNL A   1      41.851  28.085  29.483  1.00  0.00     0.031 A 
ATOM     16  C   UNL A   1      40.541  28.805  29.389  1.00  0.00     0.074 A 
ATOM     17  C   UNL A   1      42.422  27.831  30.675  1.00  0.00     0.049 A 
ATOM     18  N   UNL A   1      39.945  29.568  30.258  1.00  0.00    -0.248 NA
ATOM     19  C   UNL A   1      39.774  28.607  28.143  1.00  0.00     0.031 C 
ATOM     20  C   UNL A   1      43.522  26.887  30.898  1.00  0.00     0.029 A 
ATOM     21  N   UNL A   1      42.119  28.281  31.929  1.00  0.00    -0.354 N 
ATOM     22  C   UNL A   1      38.774  29.988  29.643  1.00  0.00     0.074 A 
ATOM     23  C   UNL A   1      38.721  29.379  28.338  1.00  0.00     0.031 C 
ATOM     24  C   UNL A   1      43.776  26.810  32.212  1.00  0.00     0.029 A 
ATOM     25  C   UNL A   1      42.963  27.796  32.898  1.00  0.00     0.049 A 
ATOM     26  H   UNL A   1      41.372  28.893  32.118  1.00  0.00     0.167 HD
ATOM     27  C   UNL A   1      37.845  30.836  30.137  1.00  0.00     0.037 A 
ATOM     28  C   UNL A   1      43.107  28.176  34.180  1.00  0.00     0.037 A 
ATOM     29  C   UNL A   1      37.958  31.406  31.449  1.00  0.00     0.049 A 
ATOM     30  C   UNL A   1      42.187  29.264  34.657  1.00  0.00     0.074 A 
ATOM     31  C   UNL A   1      37.198  32.391  32.045  1.00  0.00     0.029 A 
ATOM     32  N   UNL A   1      38.923  31.017  32.374  1.00  0.00    -0.354 N 
ATOM     33  N   UNL A   1      41.180  29.823  34.024  1.00  0.00    -0.248 NA
ATOM     34  C   UNL A   1      42.431  29.800  35.997  1.00  0.00     0.031 C 
ATOM     35  C   UNL A   1      37.742  32.636  33.313  1.00  0.00     0.029 A 
ATOM     36  C   UNL A   1      38.797  31.760  33.531  1.00  0.00     0.049 A 
ATOM     37  H   UNL A   1      39.595  30.314  32.226  1.00  0.00     0.167 HD
ATOM     38  C   UNL A   1      40.656  30.765  34.891  1.00  0.00     0.074 A 
ATOM     39  C   UNL A   1      41.451  30.689  36.104  1.00  0.00     0.031 C 
ATOM     40  C   UNL A   1      39.621  31.623  34.710  1.00  0.00     0.037 A 
BRANCH  27  41
ATOM     41  C   UNL A   1      36.765  31.272  29.192  1.00  0.00     0.064 A 
ATOM     42  C   UNL A   1      36.665  32.588  28.713  1.00  0.00     0.173 A 
ATOM     43  C   UNL A   1      35.738  30.375  28.857  1.00  0.00     0.173 A 
ATOM     44  F   UNL A   1      37.591  33.499  29.047  1.00  0.00    -0.203 F 
ATOM     45  C   UNL A   1      35.558  32.998  27.971  1.00  0.00     0.198 A 
ATOM     46  C   UNL A   1      34.648  30.782  28.092  1.00  0.00     0.198 A 
ATOM     47  F   UNL A   1      35.770  29.113  29.308  1.00  0.00    -0.203 F 
ATOM     48  F   UNL A   1      35.441  34.281  27.599  1.00  0.00    -0.200 F 
ATOM     49  C   UNL A   1      34.551  32.096  27.661  1.00  0.00     0.200 A 
ATOM     50  F   UNL A   1      33.671  29.909  27.804  1.00  0.00    -0.200 F 
ATOM     51  F   UNL A   1      33.475  32.499  26.973  1.00  0.00    -0.200 F 
ENDBRANCH  27  41
BRANCH  28  52
ATOM     52  C   UNL A   1      44.211  27.629  35.018  1.00  0.00     0.064 A 
ATOM     53  C   UNL A   1      44.037  26.492  35.818  1.00  0.00     0.173 A 
ATOM     54  C   UNL A   1      45.475  28.248  35.051  1.00  0.00     0.173 A 
ATOM     55  F   UNL A   1      42.850  25.870  35.845  1.00  0.00    -0.203 F 
ATOM     56  C   UNL A   1      45.068  26.011  36.628  1.00  0.00     0.198 A 
ATOM     57  C   UNL A   1      46.513  27.748  35.834  1.00  0.00     0.198 A 
ATOM     58  F   UNL A   1      45.708  29.344  34.312  1.00  0.00    -0.203 F 
ATOM     59  F   UNL A   1      44.853  24.954  37.424  1.00  0.00    -0.200 F 
ATOM     60  C   UNL A   1      46.306  26.636  36.632  1.00  0.00     0.200 A 
ATOM     61  F   UNL A   1      47.710  28.354  35.822  1.00  0.00    -0.200 F 
ATOM     62  F   UNL A   1      47.292  26.179  37.417  1.00  0.00    -0.200 F 
ENDBRANCH  28  52
BRANCH  40  63
ATOM     63  C   UNL A   1      39.275  32.500  35.869  1.00  0.00     0.064 A 
ATOM     64  C   UNL A   1      38.483  32.038  36.928  1.00  0.00     0.173 A 
ATOM     65  C   UNL A   1      39.801  33.798  35.942  1.00  0.00     0.173 A 
ATOM     66  F   UNL A   1      37.949  30.808  36.886  1.00  0.00    -0.203 F 
ATOM     67  C   UNL A   1      38.214  32.857  38.018  1.00  0.00     0.198 A 
ATOM     68  C   UNL A   1      39.556  34.600  37.049  1.00  0.00     0.198 A 
ATOM     69  F   UNL A   1      40.569  34.274  34.951  1.00  0.00    -0.203 F 
ATOM     70  F   UNL A   1      37.420  32.415  39.003  1.00  0.00    -0.200 F 
ATOM     71  C   UNL A   1      38.758  34.131  38.083  1.00  0.00     0.200 A 
ATOM     72  F   UNL A   1      40.096  35.824  37.117  1.00  0.00    -0.200 F 
ATOM     73  F   UNL A   1      38.511  34.913  39.143  1.00  0.00    -0.200 F 
ENDBRANCH  40  63
ENDBRANCH  14  15
ENDBRANCH   7   9
ENDBRANCH   6   7
ENDBRANCH   5   6
ENDBRANCH   4   5
ENDBRANCH   3   4
ENDBRANCH   2   3
ENDBRANCH   1   2
BRANCH   1  74
ATOM     74  O   UNL A   1      41.058  20.777  27.145  1.00  0.00    -0.376 OA
BRANCH  74  75
ATOM     75  C   UNL A   1      40.039  21.687  26.731  1.00  0.00     0.202 C 
BRANCH  75  76
ATOM     76  C   UNL A   1      38.773  21.166  25.743  1.00  0.00     0.261 C 
BRANCH  76  77
ATOM     77  O   UNL A   1      36.785  21.308  25.960  1.00  0.00    -0.460 OA
BRANCH  77  78
ATOM     78  C   UNL A   1      35.441  21.664  26.282  1.00  0.00     0.339 C 
ATOM     79  O   UNL A   1      35.175  22.104  27.398  1.00  0.00    -0.246 OA
BRANCH  78  80
ATOM     80  C   UNL A   1      34.296  21.666  25.289  1.00  0.00     0.072 A 
ATOM     81  C   UNL A   1      33.150  20.977  25.757  1.00  0.00     0.016 A 
ATOM     82  C   UNL A   1      34.312  22.114  23.951  1.00  0.00     0.054 A 
ATOM     83  C   UNL A   1      32.087  20.649  24.910  1.00  0.00     0.001 A 
ATOM     84  C   UNL A   1      33.262  21.689  23.098  1.00  0.00     0.015 A 
ATOM     85  C   UNL A   1      32.169  20.962  23.564  1.00  0.00     0.001 A 
BRANCH  82  86
ATOM     86  C   UNL A   1      35.301  23.008  23.262  1.00  0.00     0.256 C 
ATOM     87  O   UNL A   1      36.428  22.578  23.003  1.00  0.00    -0.269 OA
ATOM     88  N   UNL A   1      35.012  24.293  22.886  1.00  0.00    -0.322 N 
ATOM     89  H   UNL A   1      35.718  24.805  22.427  1.00  0.00     0.170 HD
BRANCH  88  90
ATOM     90  C   UNL A   1      33.802  24.922  23.103  1.00  0.00     0.041 A 
ATOM     91  C   UNL A   1      33.417  25.593  24.737  1.00  0.00     0.028 A 
ATOM     92  C   UNL A   1      32.993  25.587  21.629  1.00  0.00     0.028 A 
ATOM     93  C   UNL A   1      32.194  26.937  24.869  1.00  0.00     0.029 A 
ATOM     94  C   UNL A   1      31.782  26.908  21.787  1.00  0.00     0.029 A 
ATOM     95  C   UNL A   1      31.380  27.583  23.395  1.00  0.00     0.052 A 
BRANCH  95  96
ATOM     96  N   UNL A   1      30.288  28.434  23.638  1.00  0.00    -0.250 N 
ATOM     97  C   UNL A   1      28.922  28.222  23.451  1.00  0.00     0.237 C 
ATOM     98  C   UNL A   1      30.509  29.715  24.094  1.00  0.00     0.237 C 
ATOM     99  O   UNL A   1      28.252  27.211  23.516  1.00  0.00    -0.274 OA
ATOM    100  C   UNL A   1      28.498  29.588  22.944  1.00  0.00     0.095 C 
ATOM    101  C   UNL A   1      29.258  30.465  23.909  1.00  0.00     0.095 C 
ATOM    102  O   UNL A   1      31.388  30.106  24.842  1.00  0.00    -0.274 OA
ATOM    103  C   UNL A   1      27.306  30.521  22.653  1.00  0.00     0.002 C 
ATOM    104  C   UNL A   1      28.998  31.859  23.355  1.00  0.00     0.002 C 
ATOM    105  C   UNL A   1      27.724  31.243  21.344  1.00  0.00     0.005 C 
ATOM    106  C   UNL A   1      27.478  31.773  23.577  1.00  0.00     0.009 C 
ATOM    107  C   UNL A   1      29.031  31.971  21.797  1.00  0.00     0.005 C 
ENDBRANCH  95  96
ENDBRANCH  88  90
ENDBRANCH  82  86
ENDBRANCH  78  80
ENDBRANCH  77  78
ENDBRANCH  76  77
ENDBRANCH  75  76
ENDBRANCH  74  75
ENDBRANCH   1  74
TORSDOF 20
ENDMDL
MODEL 2
REMARK VINA RESULT:     -12.6      1.075      6.980
REMARK SMILES O=C(OCCOCCOCCOC(=O)c1ccccc1C(=O)Nc1ccc(N2C(=O)[C@H]3[C@@H]4CC[C@@H](C4)[C@@H]3C2=O)cc1)c1ccc(-c2c3nc(c(-c4c(F)c(F)c(F)c(F)c4F)c4ccc([nH]4)c(-c4c(F)c(F)c(F)c(F)c4F)c4nc(c(-c5c(F)c(F)c(F)c(F)c5F)c5ccc2[nH]5)C=C4)C=C3)cc1
REMARK SMILES IDX 8 1 7 2 6 3 5 4 4 5 3 6 2 7 1 8 42 9 43 10 104 11 44 12
REMARK SMILES IDX 103 13 45 14 46 15 47 16 97 17 48 18 102 19 96 20 98 21
REMARK SMILES IDX 49 22 101 23 95 24 94 25 50 27 82 28 62 29 81 30 63 31 66 32
REMARK SMILES IDX 80 33 99 34 64 35 65 36 79 38 100 39 67 40 51 41 52 42 60 43
REMARK SMILES IDX 53 44 54 45 58 46 61 47 55 48 56 49 59 50 57 51 83 52 84 53
REMARK SMILES IDX 92 54 85 55 86 56 90 57 93 58 87 59 88 60 91 61 89 62 68 63
REMARK SMILES IDX 69 64 77 65 70 66 71 67 75 68 78 69 72 70 73 71 76 72 74 73
REMARK SMILES IDX 9 74 10 75 11 76 12 77 13 78 14 79 15 80 16 81 20 82 17 83
REMARK SMILES IDX 19 84 18 85 21 86 22 87 23 88 24 90 25 91 41 92 26 93 40 94
REMARK SMILES IDX 27 95 28 96 29 97 38 98 30 99 31 100 37 101 39 102 32 103
REMARK SMILES IDX 35 104 33 105 36 106 34 107
REMARK H PARENT 98 26 66 37 23 89
REMARK Flexibility Score: inf
ROOT
ATOM      1  C   UNL A   1      42.015  18.923  26.117  1.00  0.00     0.188 C 
ENDROOT
BRANCH   1   2
ATOM      2  C   UNL A   1      43.364  19.402  25.676  1.00  0.00     0.188 C 
BRANCH   2   3
ATOM      3  O   UNL A   1      43.446  20.704  25.153  1.00  0.00    -0.376 OA
BRANCH   3   4
ATOM      4  C   UNL A   1      44.719  21.310  25.055  1.00  0.00     0.202 C 
BRANCH   4   5
ATOM      5  C   UNL A   1      45.278  22.296  26.122  1.00  0.00     0.261 C 
BRANCH   5   6
ATOM      6  O   UNL A   1      44.656  23.591  26.347  1.00  0.00    -0.460 OA
BRANCH   6   7
ATOM      7  C   UNL A   1      43.564  24.109  25.716  1.00  0.00     0.338 C 
ATOM      8  O   UNL A   1      43.405  24.009  24.507  1.00  0.00    -0.246 OA
BRANCH   7   9
ATOM      9  C   UNL A   1      42.657  24.972  26.507  1.00  0.00     0.060 A 
ATOM     10  C   UNL A   1      42.742  26.341  26.363  1.00  0.00     0.016 A 
ATOM     11  C   UNL A   1      41.666  24.460  27.345  1.00  0.00     0.016 A 
ATOM     12  C   UNL A   1      42.135  27.208  27.229  1.00  0.00     0.010 A 
ATOM     13  C   UNL A   1      40.926  25.337  28.153  1.00  0.00     0.010 A 
ATOM     14  C   UNL A   1      41.243  26.707  28.159  1.00  0.00    -0.014 A 
BRANCH  14  15
ATOM     15  C   UNL A   1      40.913  27.614  29.269  1.00  0.00     0.031 A 
ATOM     16  C   UNL A   1      41.886  27.665  30.407  1.00  0.00     0.074 A 
ATOM     17  C   UNL A   1      39.964  28.556  29.122  1.00  0.00     0.049 A 
ATOM     18  N   UNL A   1      41.808  28.298  31.542  1.00  0.00    -0.248 NA
ATOM     19  C   UNL A   1      43.147  26.919  30.224  1.00  0.00     0.031 C 
ATOM     20  C   UNL A   1      39.174  28.772  27.905  1.00  0.00     0.029 A 
ATOM     21  N   UNL A   1      39.548  29.551  29.961  1.00  0.00    -0.354 N 
ATOM     22  C   UNL A   1      42.972  27.977  32.226  1.00  0.00     0.074 A 
ATOM     23  C   UNL A   1      43.757  27.116  31.378  1.00  0.00     0.031 C 
ATOM     24  C   UNL A   1      38.394  29.850  28.072  1.00  0.00     0.029 A 
ATOM     25  C   UNL A   1      38.525  30.306  29.443  1.00  0.00     0.049 A 
ATOM     26  H   UNL A   1      39.942  29.708  30.849  1.00  0.00     0.167 HD
ATOM     27  C   UNL A   1      43.324  28.360  33.474  1.00  0.00     0.037 A 
ATOM     28  C   UNL A   1      37.733  31.209  30.047  1.00  0.00     0.037 A 
ATOM     29  C   UNL A   1      42.494  29.223  34.265  1.00  0.00     0.049 A 
ATOM     30  C   UNL A   1      38.021  31.479  31.497  1.00  0.00     0.074 A 
ATOM     31  C   UNL A   1      42.620  29.585  35.590  1.00  0.00     0.029 A 
ATOM     32  N   UNL A   1      41.362  29.865  33.771  1.00  0.00    -0.354 N 
ATOM     33  N   UNL A   1      39.015  31.035  32.233  1.00  0.00    -0.248 NA
ATOM     34  C   UNL A   1      37.076  32.338  32.213  1.00  0.00     0.031 C 
ATOM     35  C   UNL A   1      41.528  30.402  35.911  1.00  0.00     0.029 A 
ATOM     36  C   UNL A   1      40.759  30.601  34.771  1.00  0.00     0.049 A 
ATOM     37  H   UNL A   1      41.038  29.803  32.843  1.00  0.00     0.167 HD
ATOM     38  C   UNL A   1      38.830  31.572  33.495  1.00  0.00     0.074 A 
ATOM     39  C   UNL A   1      37.632  32.389  33.417  1.00  0.00     0.031 C 
ATOM     40  C   UNL A   1      39.569  31.405  34.620  1.00  0.00     0.037 A 
BRANCH  27  41
ATOM     41  C   UNL A   1      44.551  27.721  34.050  1.00  0.00     0.064 A 
ATOM     42  C   UNL A   1      44.502  26.548  34.821  1.00  0.00     0.173 A 
ATOM     43  C   UNL A   1      45.790  28.368  33.926  1.00  0.00     0.173 A 
ATOM     44  F   UNL A   1      43.334  25.918  35.016  1.00  0.00    -0.203 F 
ATOM     45  C   UNL A   1      45.637  26.074  35.478  1.00  0.00     0.198 A 
ATOM     46  C   UNL A   1      46.927  27.876  34.562  1.00  0.00     0.198 A 
ATOM     47  F   UNL A   1      45.890  29.505  33.223  1.00  0.00    -0.203 F 
ATOM     48  F   UNL A   1      45.547  25.003  36.280  1.00  0.00    -0.200 F 
ATOM     49  C   UNL A   1      46.848  26.738  35.348  1.00  0.00     0.200 A 
ATOM     50  F   UNL A   1      48.094  28.528  34.442  1.00  0.00    -0.200 F 
ATOM     51  F   UNL A   1      47.930  26.298  36.004  1.00  0.00    -0.200 F 
ENDBRANCH  27  41
BRANCH  28  52
ATOM     52  C   UNL A   1      36.562  31.794  29.335  1.00  0.00     0.064 A 
ATOM     53  C   UNL A   1      36.486  33.161  29.037  1.00  0.00     0.173 A 
ATOM     54  C   UNL A   1      35.471  30.992  28.949  1.00  0.00     0.173 A 
ATOM     55  F   UNL A   1      37.484  33.979  29.398  1.00  0.00    -0.203 F 
ATOM     56  C   UNL A   1      35.366  33.703  28.403  1.00  0.00     0.198 A 
ATOM     57  C   UNL A   1      34.369  31.529  28.287  1.00  0.00     0.198 A 
ATOM     58  F   UNL A   1      35.477  29.676  29.208  1.00  0.00    -0.203 F 
ATOM     59  F   UNL A   1      35.300  35.024  28.182  1.00  0.00    -0.200 F 
ATOM     60  C   UNL A   1      34.311  32.887  28.024  1.00  0.00     0.200 A 
ATOM     61  F   UNL A   1      33.359  30.728  27.915  1.00  0.00    -0.200 F 
ATOM     62  F   UNL A   1      33.232  33.411  27.425  1.00  0.00    -0.200 F 
ENDBRANCH  28  52
BRANCH  40  63
ATOM     63  C   UNL A   1      39.119  32.161  35.827  1.00  0.00     0.064 A 
ATOM     64  C   UNL A   1      38.273  31.581  36.782  1.00  0.00     0.173 A 
ATOM     65  C   UNL A   1      39.596  33.459  36.056  1.00  0.00     0.173 A 
ATOM     66  F   UNL A   1      37.783  30.346  36.591  1.00  0.00    -0.203 F 
ATOM     67  C   UNL A   1      37.905  32.286  37.921  1.00  0.00     0.198 A 
ATOM     68  C   UNL A   1      39.252  34.147  37.212  1.00  0.00     0.198 A 
ATOM     69  F   UNL A   1      40.414  34.045  35.169  1.00  0.00    -0.203 F 
ATOM     70  F   UNL A   1      37.062  31.734  38.804  1.00  0.00    -0.200 F 
ATOM     71  C   UNL A   1      38.402  33.563  38.140  1.00  0.00     0.200 A 
ATOM     72  F   UNL A   1      39.747  35.373  37.430  1.00  0.00    -0.200 F 
ATOM     73  F   UNL A   1      38.059  34.235  39.248  1.00  0.00    -0.200 F 
ENDBRANCH  40  63
ENDBRANCH  14  15
ENDBRANCH   7   9
ENDBRANCH   6   7
ENDBRANCH   5   6
ENDBRANCH   4   5
ENDBRANCH   3   4
ENDBRANCH   2   3
ENDBRANCH   1   2
BRANCH   1  74
ATOM     74  O   UNL A   1      41.195  19.779  26.901  1.00  0.00    -0.376 OA
BRANCH  74  75
ATOM     75  C   UNL A   1      40.030  20.431  26.391  1.00  0.00     0.202 C 
BRANCH  75  76
ATOM     76  C   UNL A   1      38.996  19.628  25.326  1.00  0.00     0.261 C 
BRANCH  76  77
ATOM     77  O   UNL A   1      37.027  19.822  25.001  1.00  0.00    -0.460 OA
BRANCH  77  78
ATOM     78  C   UNL A   1      35.631  20.120  25.039  1.00  0.00     0.339 C 
ATOM     79  O   UNL A   1      34.819  19.299  24.619  1.00  0.00    -0.246 OA
BRANCH  78  80
ATOM     80  C   UNL A   1      35.037  21.350  25.694  1.00  0.00     0.072 A 
ATOM     81  C   UNL A   1      34.398  21.072  26.928  1.00  0.00     0.016 A 
ATOM     82  C   UNL A   1      34.913  22.646  25.150  1.00  0.00     0.054 A 
ATOM     83  C   UNL A   1      33.579  22.009  27.564  1.00  0.00     0.001 A 
ATOM     84  C   UNL A   1      34.007  23.541  25.771  1.00  0.00     0.015 A 
ATOM     85  C   UNL A   1      33.342  23.230  26.955  1.00  0.00     0.001 A 
BRANCH  82  86
ATOM     86  C   UNL A   1      35.622  23.252  23.974  1.00  0.00     0.256 C 
ATOM     87  O   UNL A   1      36.682  22.754  23.583  1.00  0.00    -0.269 OA
ATOM     88  N   UNL A   1      35.144  24.339  23.290  1.00  0.00    -0.322 N 
ATOM     89  H   UNL A   1      35.669  24.662  22.522  1.00  0.00     0.170 HD
BRANCH  88  90
ATOM     90  C   UNL A   1      33.978  25.010  23.600  1.00  0.00     0.041 A 
ATOM     91  C   UNL A   1      34.020  26.396  24.760  1.00  0.00     0.028 A 
ATOM     92  C   UNL A   1      32.657  24.887  22.372  1.00  0.00     0.028 A 
ATOM     93  C   UNL A   1      32.703  27.652  24.675  1.00  0.00     0.029 A 
ATOM     94  C   UNL A   1      31.363  26.135  22.316  1.00  0.00     0.029 A 
ATOM     95  C   UNL A   1      31.379  27.512  23.458  1.00  0.00     0.052 A 
BRANCH  95  96
ATOM     96  N   UNL A   1      30.297  28.389  23.645  1.00  0.00    -0.250 N 
ATOM     97  C   UNL A   1      28.933  28.195  23.429  1.00  0.00     0.237 C 
ATOM     98  C   UNL A   1      30.529  29.679  24.068  1.00  0.00     0.237 C 
ATOM     99  O   UNL A   1      28.242  27.199  23.507  1.00  0.00    -0.274 OA
ATOM    100  C   UNL A   1      28.547  29.552  22.869  1.00  0.00     0.095 C 
ATOM    101  C   UNL A   1      29.297  30.445  23.826  1.00  0.00     0.095 C 
ATOM    102  O   UNL A   1      31.395  30.077  24.826  1.00  0.00    -0.274 OA
ATOM    103  C   UNL A   1      27.381  30.496  22.517  1.00  0.00     0.002 C 
ATOM    104  C   UNL A   1      29.078  31.826  23.223  1.00  0.00     0.002 C 
ATOM    105  C   UNL A   1      27.846  31.169  21.199  1.00  0.00     0.005 C 
ATOM    106  C   UNL A   1      27.551  31.773  23.406  1.00  0.00     0.009 C 
ATOM    107  C   UNL A   1      29.154  31.888  21.664  1.00  0.00     0.005 C 
ENDBRANCH  95  96
ENDBRANCH  88  90
ENDBRANCH  82  86
ENDBRANCH  78  80
ENDBRANCH  77  78
ENDBRANCH  76  77
ENDBRANCH  75  76
ENDBRANCH  74  75
ENDBRANCH   1  74
TORSDOF 20
ENDMDL
MODEL 3
REMARK VINA RESULT:     -11.9      5.258      9.589
REMARK SMILES O=C(OCCOCCOCCOC(=O)c1ccccc1C(=O)Nc1ccc(N2C(=O)[C@H]3[C@@H]4CC[C@@H](C4)[C@@H]3C2=O)cc1)c1ccc(-c2c3nc(c(-c4c(F)c(F)c(F)c(F)c4F)c4ccc([nH]4)c(-c4c(F)c(F)c(F)c(F)c4F)c4nc(c(-c5c(F)c(F)c(F)c(F)c5F)c5ccc2[nH]5)C=C4)C=C3)cc1
REMARK SMILES IDX 8 1 7 2 6 3 5 4 4 5 3 6 2 7 1 8 42 9 43 10 104 11 44 12
REMARK SMILES IDX 103 13 45 14 46 15 47 16 97 17 48 18 102 19 96 20 98 21
REMARK SMILES IDX 49 22 101 23 95 24 94 25 50 27 82 28 62 29 81 30 63 31 66 32
REMARK SMILES IDX 80 33 99 34 64 35 65 36 79 38 100 39 67 40 51 41 52 42 60 43
REMARK SMILES IDX 53 44 54 45 58 46 61 47 55 48 56 49 59 50 57 51 83 52 84 53
REMARK SMILES IDX 92 54 85 55 86 56 90 57 93 58 87 59 88 60 91 61 89 62 68 63
REMARK SMILES IDX 69 64 77 65 70 66 71 67 75 68 78 69 72 70 73 71 76 72 74 73
REMARK SMILES IDX 9 74 10 75 11 76 12 77 13 78 14 79 15 80 16 81 20 82 17 83
REMARK SMILES IDX 19 84 18 85 21 86 22 87 23 88 24 90 25 91 41 92 26 93 40 94
REMARK SMILES IDX 27 95 28 96 29 97 38 98 30 99 31 100 37 101 39 102 32 103
REMARK SMILES IDX 35 104 33 105 36 106 34 107
REMARK H PARENT 98 26 66 37 23 89
REMARK Flexibility Score: inf
ROOT
ATOM      1  C   UNL A   1      50.186  26.772  29.484  1.00  0.00     0.188 C 
ENDROOT
BRANCH   1   2
ATOM      2  C   UNL A   1      51.158  27.003  28.368  1.00  0.00     0.188 C 
BRANCH   2   3
ATOM      3  O   UNL A   1      52.135  26.016  28.150  1.00  0.00    -0.376 OA
BRANCH   3   4
ATOM      4  C   UNL A   1      52.373  25.588  26.825  1.00  0.00     0.202 C 
BRANCH   4   5
ATOM      5  C   UNL A   1      51.626  26.174  25.592  1.00  0.00     0.261 C 
BRANCH   5   6
ATOM      6  O   UNL A   1      50.195  25.984  25.421  1.00  0.00    -0.460 OA
BRANCH   6   7
ATOM      7  C   UNL A   1      49.352  26.693  24.618  1.00  0.00     0.338 C 
ATOM      8  O   UNL A   1      49.394  26.610  23.398  1.00  0.00    -0.246 OA
BRANCH   7   9
ATOM      9  C   UNL A   1      48.501  27.726  25.253  1.00  0.00     0.060 A 
ATOM     10  C   UNL A   1      49.072  28.602  26.153  1.00  0.00     0.016 A 
ATOM     11  C   UNL A   1      47.155  27.900  24.931  1.00  0.00     0.016 A 
ATOM     12  C   UNL A   1      48.324  29.405  26.969  1.00  0.00     0.010 A 
ATOM     13  C   UNL A   1      46.385  28.818  25.661  1.00  0.00     0.010 A 
ATOM     14  C   UNL A   1      46.962  29.494  26.751  1.00  0.00    -0.014 A 
BRANCH  14  15
ATOM     15  C   UNL A   1      46.181  30.068  27.857  1.00  0.00     0.031 A 
ATOM     16  C   UNL A   1      46.026  29.219  29.082  1.00  0.00     0.074 A 
ATOM     17  C   UNL A   1      45.895  31.383  27.881  1.00  0.00     0.049 A 
ATOM     18  N   UNL A   1      45.327  29.430  30.159  1.00  0.00    -0.248 NA
ATOM     19  C   UNL A   1      46.802  27.963  29.110  1.00  0.00     0.031 C 
ATOM     20  C   UNL A   1      46.293  32.349  26.852  1.00  0.00     0.029 A 
ATOM     21  N   UNL A   1      45.273  32.149  28.825  1.00  0.00    -0.354 N 
ATOM     22  C   UNL A   1      45.528  28.313  30.957  1.00  0.00     0.074 A 
ATOM     23  C   UNL A   1      46.433  27.433  30.261  1.00  0.00     0.031 C 
ATOM     24  C   UNL A   1      45.929  33.580  27.241  1.00  0.00     0.029 A 
ATOM     25  C   UNL A   1      45.155  33.469  28.463  1.00  0.00     0.049 A 
ATOM     26  H   UNL A   1      44.940  31.790  29.679  1.00  0.00     0.167 HD
ATOM     27  C   UNL A   1      44.968  28.050  32.159  1.00  0.00     0.037 A 
ATOM     28  C   UNL A   1      44.429  34.452  29.022  1.00  0.00     0.037 A 
ATOM     29  C   UNL A   1      44.075  28.973  32.798  1.00  0.00     0.049 A 
ATOM     30  C   UNL A   1      43.656  34.085  30.257  1.00  0.00     0.074 A 
ATOM     31  C   UNL A   1      43.306  28.806  33.931  1.00  0.00     0.029 A 
ATOM     32  N   UNL A   1      43.839  30.263  32.331  1.00  0.00    -0.354 N 
ATOM     33  N   UNL A   1      43.677  32.959  30.934  1.00  0.00    -0.248 NA
ATOM     34  C   UNL A   1      42.738  35.093  30.791  1.00  0.00     0.031 C 
ATOM     35  C   UNL A   1      42.563  29.979  34.116  1.00  0.00     0.029 A 
ATOM     36  C   UNL A   1      42.916  30.899  33.136  1.00  0.00     0.049 A 
ATOM     37  H   UNL A   1      44.269  30.664  31.542  1.00  0.00     0.167 HD
ATOM     38  C   UNL A   1      42.792  33.124  31.985  1.00  0.00     0.074 A 
ATOM     39  C   UNL A   1      42.262  34.471  31.862  1.00  0.00     0.031 C 
ATOM     40  C   UNL A   1      42.439  32.251  32.961  1.00  0.00     0.037 A 
BRANCH  27  41
ATOM     41  C   UNL A   1      45.208  26.683  32.726  1.00  0.00     0.064 A 
ATOM     42  C   UNL A   1      44.482  25.555  32.312  1.00  0.00     0.173 A 
ATOM     43  C   UNL A   1      46.103  26.526  33.796  1.00  0.00     0.173 A 
ATOM     44  F   UNL A   1      43.575  25.660  31.330  1.00  0.00    -0.203 F 
ATOM     45  C   UNL A   1      44.614  24.335  32.974  1.00  0.00     0.198 A 
ATOM     46  C   UNL A   1      46.252  25.299  34.437  1.00  0.00     0.198 A 
ATOM     47  F   UNL A   1      46.803  27.576  34.249  1.00  0.00    -0.203 F 
ATOM     48  F   UNL A   1      43.847  23.294  32.619  1.00  0.00    -0.200 F 
ATOM     49  C   UNL A   1      45.498  24.208  34.035  1.00  0.00     0.200 A 
ATOM     50  F   UNL A   1      47.100  25.184  35.470  1.00  0.00    -0.200 F 
ATOM     51  F   UNL A   1      45.602  23.043  34.689  1.00  0.00    -0.200 F 
ENDBRANCH  27  41
BRANCH  28  52
ATOM     52  C   UNL A   1      44.308  35.782  28.361  1.00  0.00     0.064 A 
ATOM     53  C   UNL A   1      45.307  36.758  28.479  1.00  0.00     0.173 A 
ATOM     54  C   UNL A   1      43.171  36.117  27.603  1.00  0.00     0.173 A 
ATOM     55  F   UNL A   1      46.405  36.506  29.206  1.00  0.00    -0.203 F 
ATOM     56  C   UNL A   1      45.166  38.015  27.886  1.00  0.00     0.198 A 
ATOM     57  C   UNL A   1      43.046  37.359  26.984  1.00  0.00     0.198 A 
ATOM     58  F   UNL A   1      42.175  35.230  27.453  1.00  0.00    -0.203 F 
ATOM     59  F   UNL A   1      46.113  38.946  28.064  1.00  0.00    -0.200 F 
ATOM     60  C   UNL A   1      44.038  38.313  27.136  1.00  0.00     0.200 A 
ATOM     61  F   UNL A   1      41.956  37.633  26.251  1.00  0.00    -0.200 F 
ATOM     62  F   UNL A   1      43.899  39.523  26.575  1.00  0.00    -0.200 F 
ENDBRANCH  28  52
BRANCH  40  63
ATOM     63  C   UNL A   1      41.472  32.753  33.983  1.00  0.00     0.064 A 
ATOM     64  C   UNL A   1      40.092  32.561  33.844  1.00  0.00     0.173 A 
ATOM     65  C   UNL A   1      41.948  33.379  35.144  1.00  0.00     0.173 A 
ATOM     66  F   UNL A   1      39.597  31.981  32.740  1.00  0.00    -0.203 F 
ATOM     67  C   UNL A   1      39.215  32.996  34.831  1.00  0.00     0.198 A 
ATOM     68  C   UNL A   1      41.071  33.781  36.142  1.00  0.00     0.198 A 
ATOM     69  F   UNL A   1      43.263  33.574  35.317  1.00  0.00    -0.203 F 
ATOM     70  F   UNL A   1      37.894  32.842  34.664  1.00  0.00    -0.200 F 
ATOM     71  C   UNL A   1      39.705  33.595  35.982  1.00  0.00     0.200 A 
ATOM     72  F   UNL A   1      41.547  34.345  37.261  1.00  0.00    -0.200 F 
ATOM     73  F   UNL A   1      38.859  33.998  36.940  1.00  0.00    -0.200 F 
ENDBRANCH  40  63
ENDBRANCH  14  15
ENDBRANCH   7   9
ENDBRANCH   6   7
ENDBRANCH   5   6
ENDBRANCH   4   5
ENDBRANCH   3   4
ENDBRANCH   2   3
ENDBRANCH   1   2
BRANCH   1  74
ATOM     74  O   UNL A   1      49.387  25.596  29.478  1.00  0.00    -0.376 OA
BRANCH  74  75
ATOM     75  C   UNL A   1      49.079  24.864  28.291  1.00  0.00     0.202 C 
BRANCH  75  76
ATOM     76  C   UNL A   1      47.533  24.934  27.617  1.00  0.00     0.261 C 
BRANCH  76  77
ATOM     77  O   UNL A   1      45.876  23.874  28.001  1.00  0.00    -0.460 OA
BRANCH  77  78
ATOM     78  C   UNL A   1      44.686  23.294  28.534  1.00  0.00     0.339 C 
ATOM     79  O   UNL A   1      44.615  23.033  29.733  1.00  0.00    -0.246 OA
BRANCH  78  80
ATOM     80  C   UNL A   1      43.410  23.084  27.745  1.00  0.00     0.072 A 
ATOM     81  C   UNL A   1      42.353  22.551  28.524  1.00  0.00     0.016 A 
ATOM     82  C   UNL A   1      43.226  23.199  26.350  1.00  0.00     0.054 A 
ATOM     83  C   UNL A   1      41.183  22.053  27.941  1.00  0.00     0.001 A 
ATOM     84  C   UNL A   1      42.070  22.606  25.784  1.00  0.00     0.015 A 
ATOM     85  C   UNL A   1      41.065  22.033  26.562  1.00  0.00     0.001 A 
BRANCH  82  86
ATOM     86  C   UNL A   1      44.092  23.883  25.333  1.00  0.00     0.256 C 
ATOM     87  O   UNL A   1      44.857  23.208  24.638  1.00  0.00    -0.269 OA
ATOM     88  N   UNL A   1      44.070  25.235  25.119  1.00  0.00    -0.322 N 
ATOM     89  H   UNL A   1      44.664  25.597  24.421  1.00  0.00     0.170 HD
BRANCH  88  90
ATOM     90  C   UNL A   1      43.274  26.127  25.811  1.00  0.00     0.041 A 
ATOM     91  C   UNL A   1      41.497  26.186  25.484  1.00  0.00     0.028 A 
ATOM     92  C   UNL A   1      43.929  26.688  27.399  1.00  0.00     0.028 A 
ATOM     93  C   UNL A   1      40.388  26.832  26.776  1.00  0.00     0.029 A 
ATOM     94  C   UNL A   1      42.814  27.331  28.655  1.00  0.00     0.029 A 
ATOM     95  C   UNL A   1      41.052  27.405  28.352  1.00  0.00     0.052 A 
BRANCH  95  96
ATOM     96  N   UNL A   1      40.145  28.105  29.166  1.00  0.00    -0.250 N 
ATOM     97  C   UNL A   1      39.049  27.643  29.896  1.00  0.00     0.237 C 
ATOM     98  C   UNL A   1      40.251  29.473  29.289  1.00  0.00     0.237 C 
ATOM     99  O   UNL A   1      38.839  26.578  30.440  1.00  0.00    -0.274 OA
ATOM    100  C   UNL A   1      38.070  28.782  29.672  1.00  0.00     0.095 C 
ATOM    101  C   UNL A   1      38.994  29.956  29.879  1.00  0.00     0.095 C 
ATOM    102  O   UNL A   1      41.263  30.151  29.287  1.00  0.00    -0.274 OA
ATOM    103  C   UNL A   1      36.748  29.428  30.129  1.00  0.00     0.002 C 
ATOM    104  C   UNL A   1      38.105  31.138  29.513  1.00  0.00     0.002 C 
ATOM    105  C   UNL A   1      36.100  29.904  28.801  1.00  0.00     0.005 C 
ATOM    106  C   UNL A   1      37.102  30.862  30.647  1.00  0.00     0.009 C 
ATOM    107  C   UNL A   1      37.176  30.911  28.278  1.00  0.00     0.005 C 
ENDBRANCH  95  96
ENDBRANCH  88  90
ENDBRANCH  82  86
ENDBRANCH  78  80
ENDBRANCH  77  78
ENDBRANCH  76  77
ENDBRANCH  75  76
ENDBRANCH  74  75
ENDBRANCH   1  74
TORSDOF 20
ENDMDL
