MODEL 1
REMARK VINA RESULT:     -10.7      0.000      0.000
REMARK SMILES CC(C)c1ccc(S[C@H](C)[C@@H](C)C(=O)OCCOCCOCCOC(=O)c2ccc(-c3c4nc(c(-c5c(F)c(F)c(F)c(F)c5F)c5ccc([nH]5)c(-c5c(F)c(F)c(F)c(F)c5F)c5nc(c(-c6c(F)c(F)c(F)c(F)c6F)c6ccc3[nH]6)C=C5)C=C4)cc2)cc1
REMARK SMILES IDX 19 1 18 2 17 3 16 4 15 5 13 6 14 7 11 8 12 9 9 10 10 11 8 12
REMARK SMILES IDX 7 13 4 14 5 15 91 16 6 17 90 18 2 19 1 20 3 21 20 22 21 23
REMARK SMILES IDX 22 24 23 25 24 26 25 27 26 28 27 29 28 30 89 31 29 32 88 33
REMARK SMILES IDX 30 34 31 35 32 36 82 37 33 38 87 39 81 40 83 41 34 42 86 43
REMARK SMILES IDX 80 44 79 45 35 47 67 48 47 49 66 50 48 51 51 52 65 53 84 54
REMARK SMILES IDX 49 55 50 56 64 58 85 59 52 60 36 61 37 62 45 63 38 64 39 65
REMARK SMILES IDX 43 66 46 67 40 68 41 69 44 70 42 71 68 72 69 73 77 74 70 75
REMARK SMILES IDX 71 76 75 77 78 78 72 79 73 80 76 81 74 82 53 83 54 84 62 85
REMARK SMILES IDX 55 86 56 87 60 88 63 89 57 90 58 91 61 92 59 93
REMARK H PARENT 83 46 51 57
REMARK Flexibility Score: inf
ROOT
ATOM      1  C   UNL A   1      40.023  20.820  26.389  1.00  0.00     0.188 C 
ENDROOT
BRANCH   1   2
ATOM      2  O   UNL A   1      39.469  21.898  25.640  1.00  0.00    -0.376 OA
BRANCH   2   3
ATOM      3  C   UNL A   1      38.441  22.682  26.222  1.00  0.00     0.202 C 
BRANCH   3   4
ATOM      4  C   UNL A   1      37.384  23.201  25.230  1.00  0.00     0.261 C 
BRANCH   4   5
ATOM      5  O   UNL A   1      36.864  22.274  24.239  1.00  0.00    -0.463 OA
BRANCH   5   6
ATOM      6  C   UNL A   1      35.616  22.551  23.773  1.00  0.00     0.309 C 
ATOM      7  O   UNL A   1      35.384  23.363  22.881  1.00  0.00    -0.252 OA
BRANCH   6   8
ATOM      8  C   UNL A   1      34.467  21.940  24.580  1.00  0.00     0.109 C 
ATOM      9  C   UNL A   1      34.971  20.531  24.934  1.00  0.00     0.021 C 
BRANCH   8  10
ATOM     10  C   UNL A   1      33.001  21.942  24.036  1.00  0.00     0.062 C 
ATOM     11  C   UNL A   1      32.584  20.561  23.549  1.00  0.00     0.020 C 
BRANCH  10  12
ATOM     12  S   UNL A   1      31.840  22.672  25.305  1.00  0.00    -0.122 SA
BRANCH  12  13
ATOM     13  C   UNL A   1      31.360  24.391  25.113  1.00  0.00     0.008 A 
ATOM     14  C   UNL A   1      30.978  27.161  24.426  1.00  0.00    -0.045 A 
ATOM     15  C   UNL A   1      30.770  26.685  25.728  1.00  0.00     0.005 A 
ATOM     16  C   UNL A   1      31.376  26.235  23.465  1.00  0.00     0.005 A 
ATOM     17  C   UNL A   1      30.975  25.327  26.068  1.00  0.00     0.015 A 
ATOM     18  C   UNL A   1      31.530  24.881  23.803  1.00  0.00     0.015 A 
BRANCH  14  19
ATOM     19  C   UNL A   1      30.755  28.627  24.088  1.00  0.00     0.013 C 
ATOM     20  C   UNL A   1      31.465  29.569  25.065  1.00  0.00     0.012 C 
ATOM     21  C   UNL A   1      31.175  28.951  22.649  1.00  0.00     0.012 C 
ENDBRANCH  14  19
ENDBRANCH  12  13
ENDBRANCH  10  12
ENDBRANCH   8  10
ENDBRANCH   6   8
ENDBRANCH   5   6
ENDBRANCH   4   5
ENDBRANCH   3   4
ENDBRANCH   2   3
ENDBRANCH   1   2
BRANCH   1  22
ATOM     22  C   UNL A   1      40.791  21.116  27.675  1.00  0.00     0.188 C 
BRANCH  22  23
ATOM     23  O   UNL A   1      42.200  21.029  27.493  1.00  0.00    -0.376 OA
BRANCH  23  24
ATOM     24  C   UNL A   1      42.574  20.479  26.235  1.00  0.00     0.202 C 
BRANCH  24  25
ATOM     25  C   UNL A   1      43.420  21.509  25.482  1.00  0.00     0.261 C 
BRANCH  25  26
ATOM     26  O   UNL A   1      42.676  22.692  25.119  1.00  0.00    -0.460 OA
BRANCH  26  27
ATOM     27  C   UNL A   1      43.391  23.833  25.049  1.00  0.00     0.338 C 
ATOM     28  O   UNL A   1      44.326  24.071  24.291  1.00  0.00    -0.246 OA
BRANCH  27  29
ATOM     29  C   UNL A   1      42.777  24.839  25.931  1.00  0.00     0.060 A 
ATOM     30  C   UNL A   1      43.230  26.162  25.877  1.00  0.00     0.016 A 
ATOM     31  C   UNL A   1      41.800  24.471  26.852  1.00  0.00     0.016 A 
ATOM     32  C   UNL A   1      42.760  27.112  26.781  1.00  0.00     0.010 A 
ATOM     33  C   UNL A   1      41.322  25.422  27.757  1.00  0.00     0.010 A 
ATOM     34  C   UNL A   1      41.827  26.737  27.750  1.00  0.00    -0.014 A 
BRANCH  34  35
ATOM     35  C   UNL A   1      41.485  27.659  28.858  1.00  0.00     0.031 A 
ATOM     36  C   UNL A   1      42.292  27.594  30.122  1.00  0.00     0.074 A 
ATOM     37  C   UNL A   1      40.469  28.532  28.747  1.00  0.00     0.049 A 
ATOM     38  N   UNL A   1      42.081  28.171  31.277  1.00  0.00    -0.248 NA
ATOM     39  C   UNL A   1      43.500  26.753  30.080  1.00  0.00     0.031 C 
ATOM     40  C   UNL A   1      39.657  28.743  27.552  1.00  0.00     0.029 A 
ATOM     41  N   UNL A   1      39.937  29.394  29.675  1.00  0.00    -0.354 N 
ATOM     42  C   UNL A   1      43.108  27.741  32.105  1.00  0.00     0.074 A 
ATOM     43  C   UNL A   1      43.936  26.844  31.328  1.00  0.00     0.031 C 
ATOM     44  C   UNL A   1      38.713  29.662  27.825  1.00  0.00     0.029 A 
ATOM     45  C   UNL A   1      38.827  30.063  29.225  1.00  0.00     0.049 A 
ATOM     46  H   UNL A   1      40.316  29.519  30.576  1.00  0.00     0.167 HD
ATOM     47  C   UNL A   1      43.337  28.066  33.399  1.00  0.00     0.037 A 
ATOM     48  C   UNL A   1      37.979  30.876  29.884  1.00  0.00     0.037 A 
ATOM     49  C   UNL A   1      42.524  28.974  34.162  1.00  0.00     0.049 A 
ATOM     50  C   UNL A   1      38.212  31.161  31.347  1.00  0.00     0.074 A 
ATOM     51  C   UNL A   1      42.686  29.384  35.473  1.00  0.00     0.029 A 
ATOM     52  N   UNL A   1      41.392  29.614  33.680  1.00  0.00    -0.354 N 
ATOM     53  N   UNL A   1      39.178  30.748  32.130  1.00  0.00    -0.248 NA
ATOM     54  C   UNL A   1      37.227  32.023  32.018  1.00  0.00     0.031 C 
ATOM     55  C   UNL A   1      41.625  30.236  35.800  1.00  0.00     0.029 A 
ATOM     56  C   UNL A   1      40.832  30.398  34.676  1.00  0.00     0.049 A 
ATOM     57  H   UNL A   1      41.039  29.525  32.765  1.00  0.00     0.167 HD
ATOM     58  C   UNL A   1      38.938  31.323  33.372  1.00  0.00     0.074 A 
ATOM     59  C   UNL A   1      37.738  32.122  33.237  1.00  0.00     0.031 C 
ATOM     60  C   UNL A   1      39.647  31.201  34.521  1.00  0.00     0.037 A 
BRANCH  47  61
ATOM     61  C   UNL A   1      44.497  27.406  34.084  1.00  0.00     0.064 A 
ATOM     62  C   UNL A   1      45.768  27.997  34.124  1.00  0.00     0.173 A 
ATOM     63  C   UNL A   1      44.321  26.178  34.740  1.00  0.00     0.173 A 
ATOM     64  F   UNL A   1      45.992  29.162  33.498  1.00  0.00    -0.203 F 
ATOM     65  C   UNL A   1      46.826  27.373  34.779  1.00  0.00     0.198 A 
ATOM     66  C   UNL A   1      45.374  25.571  35.418  1.00  0.00     0.198 A 
ATOM     67  F   UNL A   1      43.124  25.572  34.733  1.00  0.00    -0.203 F 
ATOM     68  F   UNL A   1      48.044  27.933  34.768  1.00  0.00    -0.200 F 
ATOM     69  C   UNL A   1      46.627  26.164  35.432  1.00  0.00     0.200 A 
ATOM     70  F   UNL A   1      45.176  24.409  36.056  1.00  0.00    -0.200 F 
ATOM     71  F   UNL A   1      47.644  25.569  36.069  1.00  0.00    -0.200 F 
ENDBRANCH  47  61
BRANCH  48  72
ATOM     72  C   UNL A   1      36.807  31.460  29.180  1.00  0.00     0.064 A 
ATOM     73  C   UNL A   1      36.769  32.823  28.855  1.00  0.00     0.173 A 
ATOM     74  C   UNL A   1      35.690  30.679  28.851  1.00  0.00     0.173 A 
ATOM     75  F   UNL A   1      37.800  33.617  29.179  1.00  0.00    -0.203 F 
ATOM     76  C   UNL A   1      35.650  33.386  28.244  1.00  0.00     0.198 A 
ATOM     77  C   UNL A   1      34.583  31.237  28.214  1.00  0.00     0.198 A 
ATOM     78  F   UNL A   1      35.672  29.372  29.149  1.00  0.00    -0.203 F 
ATOM     79  F   UNL A   1      35.618  34.702  27.994  1.00  0.00    -0.200 F 
ATOM     80  C   UNL A   1      34.561  32.591  27.919  1.00  0.00     0.200 A 
ATOM     81  F   UNL A   1      33.535  30.465  27.897  1.00  0.00    -0.200 F 
ATOM     82  F   UNL A   1      33.484  33.135  27.336  1.00  0.00    -0.200 F 
ENDBRANCH  48  72
BRANCH  60  83
ATOM     83  C   UNL A   1      39.177  31.986  35.712  1.00  0.00     0.064 A 
ATOM     84  C   UNL A   1      39.533  33.330  35.899  1.00  0.00     0.173 A 
ATOM     85  C   UNL A   1      38.321  31.395  36.655  1.00  0.00     0.173 A 
ATOM     86  F   UNL A   1      40.360  33.935  35.033  1.00  0.00    -0.203 F 
ATOM     87  C   UNL A   1      39.068  34.047  36.999  1.00  0.00     0.198 A 
ATOM     88  C   UNL A   1      37.835  32.124  37.737  1.00  0.00     0.198 A 
ATOM     89  F   UNL A   1      37.943  30.116  36.518  1.00  0.00    -0.203 F 
ATOM     90  F   UNL A   1      39.457  35.315  37.182  1.00  0.00    -0.200 F 
ATOM     91  C   UNL A   1      38.214  33.446  37.912  1.00  0.00     0.200 A 
ATOM     92  F   UNL A   1      36.998  31.546  38.610  1.00  0.00    -0.200 F 
ATOM     93  F   UNL A   1      37.762  34.140  38.965  1.00  0.00    -0.200 F 
ENDBRANCH  60  83
ENDBRANCH  34  35
ENDBRANCH  27  29
ENDBRANCH  26  27
ENDBRANCH  25  26
ENDBRANCH  24  25
ENDBRANCH  23  24
ENDBRANCH  22  23
ENDBRANCH   1  22
TORSDOF 21
ENDMDL
MODEL 2
REMARK VINA RESULT:     -10.3      3.245      8.431
REMARK SMILES CC(C)c1ccc(S[C@H](C)[C@@H](C)C(=O)OCCOCCOCCOC(=O)c2ccc(-c3c4nc(c(-c5c(F)c(F)c(F)c(F)c5F)c5ccc([nH]5)c(-c5c(F)c(F)c(F)c(F)c5F)c5nc(c(-c6c(F)c(F)c(F)c(F)c6F)c6ccc3[nH]6)C=C5)C=C4)cc2)cc1
REMARK SMILES IDX 19 1 18 2 17 3 16 4 15 5 13 6 14 7 11 8 12 9 9 10 10 11 8 12
REMARK SMILES IDX 7 13 4 14 5 15 91 16 6 17 90 18 2 19 1 20 3 21 20 22 21 23
REMARK SMILES IDX 22 24 23 25 24 26 25 27 26 28 27 29 28 30 89 31 29 32 88 33
REMARK SMILES IDX 30 34 31 35 32 36 82 37 33 38 87 39 81 40 83 41 34 42 86 43
REMARK SMILES IDX 80 44 79 45 35 47 67 48 47 49 66 50 48 51 51 52 65 53 84 54
REMARK SMILES IDX 49 55 50 56 64 58 85 59 52 60 36 61 37 62 45 63 38 64 39 65
REMARK SMILES IDX 43 66 46 67 40 68 41 69 44 70 42 71 68 72 69 73 77 74 70 75
REMARK SMILES IDX 71 76 75 77 78 78 72 79 73 80 76 81 74 82 53 83 54 84 62 85
REMARK SMILES IDX 55 86 56 87 60 88 63 89 57 90 58 91 61 92 59 93
REMARK H PARENT 83 46 51 57
REMARK Flexibility Score: inf
ROOT
ATOM      1  C   UNL A   1      33.935  27.724  24.040  1.00  0.00     0.188 C 
ENDROOT
BRANCH   1   2
ATOM      2  O   UNL A   1      33.593  26.675  23.137  1.00  0.00    -0.376 OA
BRANCH   2   3
ATOM      3  C   UNL A   1      32.415  26.796  22.358  1.00  0.00     0.202 C 
BRANCH   3   4
ATOM      4  C   UNL A   1      31.174  26.105  22.951  1.00  0.00     0.261 C 
BRANCH   4   5
ATOM      5  O   UNL A   1      31.339  25.337  24.173  1.00  0.00    -0.463 OA
BRANCH   5   6
ATOM      6  C   UNL A   1      31.447  23.991  24.011  1.00  0.00     0.309 C 
ATOM      7  O   UNL A   1      30.669  23.319  23.339  1.00  0.00    -0.252 OA
BRANCH   6   8
ATOM      8  C   UNL A   1      32.488  23.308  24.902  1.00  0.00     0.109 C 
ATOM      9  C   UNL A   1      32.425  24.098  26.220  1.00  0.00     0.021 C 
BRANCH   8  10
ATOM     10  C   UNL A   1      33.952  23.070  24.405  1.00  0.00     0.062 C 
ATOM     11  C   UNL A   1      34.066  23.250  22.897  1.00  0.00     0.020 C 
BRANCH  10  12
ATOM     12  S   UNL A   1      35.148  24.125  25.379  1.00  0.00    -0.122 SA
BRANCH  12  13
ATOM     13  C   UNL A   1      36.803  23.486  25.648  1.00  0.00     0.008 A 
ATOM     14  C   UNL A   1      39.210  21.987  26.151  1.00  0.00    -0.045 A 
ATOM     15  C   UNL A   1      39.082  23.331  26.528  1.00  0.00     0.005 A 
ATOM     16  C   UNL A   1      38.120  21.397  25.513  1.00  0.00     0.005 A 
ATOM     17  C   UNL A   1      37.893  24.062  26.295  1.00  0.00     0.015 A 
ATOM     18  C   UNL A   1      36.963  22.145  25.245  1.00  0.00     0.015 A 
BRANCH  14  19
ATOM     19  C   UNL A   1      40.498  21.222  26.416  1.00  0.00     0.013 C 
ATOM     20  C   UNL A   1      40.966  21.349  27.869  1.00  0.00     0.012 C 
ATOM     21  C   UNL A   1      40.372  19.743  26.033  1.00  0.00     0.012 C 
ENDBRANCH  14  19
ENDBRANCH  12  13
ENDBRANCH  10  12
ENDBRANCH   8  10
ENDBRANCH   6   8
ENDBRANCH   5   6
ENDBRANCH   4   5
ENDBRANCH   3   4
ENDBRANCH   2   3
ENDBRANCH   1   2
BRANCH   1  22
ATOM     22  C   UNL A   1      33.514  27.621  25.504  1.00  0.00     0.188 C 
BRANCH  22  23
ATOM     23  O   UNL A   1      32.153  27.989  25.701  1.00  0.00    -0.376 OA
BRANCH  23  24
ATOM     24  C   UNL A   1      31.857  28.367  27.041  1.00  0.00     0.202 C 
BRANCH  24  25
ATOM     25  C   UNL A   1      31.814  29.895  27.118  1.00  0.00     0.261 C 
BRANCH  25  26
ATOM     26  O   UNL A   1      32.993  30.522  26.569  1.00  0.00    -0.460 OA
BRANCH  26  27
ATOM     27  C   UNL A   1      33.452  31.594  27.245  1.00  0.00     0.338 C 
ATOM     28  O   UNL A   1      32.830  32.617  27.514  1.00  0.00    -0.246 OA
BRANCH  27  29
ATOM     29  C   UNL A   1      34.797  31.294  27.763  1.00  0.00     0.060 A 
ATOM     30  C   UNL A   1      35.118  29.977  28.109  1.00  0.00     0.016 A 
ATOM     31  C   UNL A   1      35.722  32.315  27.966  1.00  0.00     0.016 A 
ATOM     32  C   UNL A   1      36.334  29.676  28.717  1.00  0.00     0.010 A 
ATOM     33  C   UNL A   1      36.945  32.017  28.571  1.00  0.00     0.010 A 
ATOM     34  C   UNL A   1      37.242  30.704  28.983  1.00  0.00    -0.014 A 
BRANCH  34  35
ATOM     35  C   UNL A   1      38.433  30.451  29.827  1.00  0.00     0.031 A 
ATOM     36  C   UNL A   1      39.536  29.594  29.276  1.00  0.00     0.074 A 
ATOM     37  C   UNL A   1      38.529  30.965  31.065  1.00  0.00     0.049 A 
ATOM     38  N   UNL A   1      40.586  29.097  29.878  1.00  0.00    -0.248 NA
ATOM     39  C   UNL A   1      39.435  29.242  27.849  1.00  0.00     0.031 C 
ATOM     40  C   UNL A   1      37.563  31.867  31.687  1.00  0.00     0.029 A 
ATOM     41  N   UNL A   1      39.489  30.777  32.030  1.00  0.00    -0.354 N 
ATOM     42  C   UNL A   1      41.252  28.352  28.915  1.00  0.00     0.074 A 
ATOM     43  C   UNL A   1      40.483  28.447  27.693  1.00  0.00     0.031 C 
ATOM     44  C   UNL A   1      37.970  32.139  32.940  1.00  0.00     0.029 A 
ATOM     45  C   UNL A   1      39.194  31.392  33.220  1.00  0.00     0.049 A 
ATOM     46  H   UNL A   1      40.309  30.253  31.881  1.00  0.00     0.167 HD
ATOM     47  C   UNL A   1      42.401  27.648  29.043  1.00  0.00     0.037 A 
ATOM     48  C   UNL A   1      39.822  31.324  34.410  1.00  0.00     0.037 A 
ATOM     49  C   UNL A   1      43.173  27.572  30.254  1.00  0.00     0.049 A 
ATOM     50  C   UNL A   1      41.058  30.471  34.547  1.00  0.00     0.074 A 
ATOM     51  C   UNL A   1      44.363  26.903  30.478  1.00  0.00     0.029 A 
ATOM     52  N   UNL A   1      42.829  28.188  31.448  1.00  0.00    -0.354 N 
ATOM     53  N   UNL A   1      41.682  29.760  33.640  1.00  0.00    -0.248 NA
ATOM     54  C   UNL A   1      41.673  30.408  35.881  1.00  0.00     0.031 C 
ATOM     55  C   UNL A   1      44.715  27.074  31.822  1.00  0.00     0.029 A 
ATOM     56  C   UNL A   1      43.772  27.894  32.420  1.00  0.00     0.049 A 
ATOM     57  H   UNL A   1      42.033  28.751  31.585  1.00  0.00     0.167 HD
ATOM     58  C   UNL A   1      42.777  29.194  34.281  1.00  0.00     0.074 A 
ATOM     59  C   UNL A   1      42.737  29.650  35.654  1.00  0.00     0.031 C 
ATOM     60  C   UNL A   1      43.729  28.370  33.779  1.00  0.00     0.037 A 
BRANCH  47  61
ATOM     61  C   UNL A   1      42.876  26.874  27.850  1.00  0.00     0.064 A 
ATOM     62  C   UNL A   1      42.468  25.553  27.613  1.00  0.00     0.173 A 
ATOM     63  C   UNL A   1      43.726  27.479  26.910  1.00  0.00     0.173 A 
ATOM     64  F   UNL A   1      41.671  24.925  28.489  1.00  0.00    -0.203 F 
ATOM     65  C   UNL A   1      42.911  24.859  26.490  1.00  0.00     0.198 A 
ATOM     66  C   UNL A   1      44.143  26.792  25.775  1.00  0.00     0.198 A 
ATOM     67  F   UNL A   1      44.143  28.741  27.090  1.00  0.00    -0.203 F 
ATOM     68  F   UNL A   1      42.545  23.583  26.305  1.00  0.00    -0.200 F 
ATOM     69  C   UNL A   1      43.741  25.481  25.568  1.00  0.00     0.200 A 
ATOM     70  F   UNL A   1      44.936  27.398  24.881  1.00  0.00    -0.200 F 
ATOM     71  F   UNL A   1      44.159  24.814  24.484  1.00  0.00    -0.200 F 
ENDBRANCH  47  61
BRANCH  48  72
ATOM     72  C   UNL A   1      39.281  32.060  35.582  1.00  0.00     0.064 A 
ATOM     73  C   UNL A   1      39.686  33.373  35.857  1.00  0.00     0.173 A 
ATOM     74  C   UNL A   1      38.378  31.457  36.469  1.00  0.00     0.173 A 
ATOM     75  F   UNL A   1      40.574  33.981  35.056  1.00  0.00    -0.203 F 
ATOM     76  C   UNL A   1      39.224  34.048  36.985  1.00  0.00     0.198 A 
ATOM     77  C   UNL A   1      37.893  32.143  37.581  1.00  0.00     0.198 A 
ATOM     78  F   UNL A   1      37.966  30.198  36.257  1.00  0.00    -0.203 F 
ATOM     79  F   UNL A   1      39.670  35.283  37.254  1.00  0.00    -0.200 F 
ATOM     80  C   UNL A   1      38.323  33.434  37.843  1.00  0.00     0.200 A 
ATOM     81  F   UNL A   1      37.020  31.548  38.405  1.00  0.00    -0.200 F 
ATOM     82  F   UNL A   1      37.883  34.083  38.930  1.00  0.00    -0.200 F 
ENDBRANCH  48  72
BRANCH  60  83
ATOM     83  C   UNL A   1      44.836  27.947  34.701  1.00  0.00     0.064 A 
ATOM     84  C   UNL A   1      44.763  26.761  35.446  1.00  0.00     0.173 A 
ATOM     85  C   UNL A   1      46.004  28.718  34.804  1.00  0.00     0.173 A 
ATOM     86  F   UNL A   1      43.662  25.997  35.394  1.00  0.00    -0.203 F 
ATOM     87  C   UNL A   1      45.811  26.374  36.279  1.00  0.00     0.198 A 
ATOM     88  C   UNL A   1      47.061  28.313  35.615  1.00  0.00     0.198 A 
ATOM     89  F   UNL A   1      46.127  29.856  34.106  1.00  0.00    -0.203 F 
ATOM     90  F   UNL A   1      45.702  25.262  37.017  1.00  0.00    -0.200 F 
ATOM     91  C   UNL A   1      46.961  27.146  36.357  1.00  0.00     0.200 A 
ATOM     92  F   UNL A   1      48.178  29.053  35.677  1.00  0.00    -0.200 F 
ATOM     93  F   UNL A   1      47.971  26.768  37.152  1.00  0.00    -0.200 F 
ENDBRANCH  60  83
ENDBRANCH  34  35
ENDBRANCH  27  29
ENDBRANCH  26  27
ENDBRANCH  25  26
ENDBRANCH  24  25
ENDBRANCH  23  24
ENDBRANCH  22  23
ENDBRANCH   1  22
TORSDOF 21
ENDMDL
MODEL 3
REMARK VINA RESULT:     -10.2      0.642      2.032
REMARK SMILES CC(C)c1ccc(S[C@H](C)[C@@H](C)C(=O)OCCOCCOCCOC(=O)c2ccc(-c3c4nc(c(-c5c(F)c(F)c(F)c(F)c5F)c5ccc([nH]5)c(-c5c(F)c(F)c(F)c(F)c5F)c5nc(c(-c6c(F)c(F)c(F)c(F)c6F)c6ccc3[nH]6)C=C5)C=C4)cc2)cc1
REMARK SMILES IDX 19 1 18 2 17 3 16 4 15 5 13 6 14 7 11 8 12 9 9 10 10 11 8 12
REMARK SMILES IDX 7 13 4 14 5 15 91 16 6 17 90 18 2 19 1 20 3 21 20 22 21 23
REMARK SMILES IDX 22 24 23 25 24 26 25 27 26 28 27 29 28 30 89 31 29 32 88 33
REMARK SMILES IDX 30 34 31 35 32 36 82 37 33 38 87 39 81 40 83 41 34 42 86 43
REMARK SMILES IDX 80 44 79 45 35 47 67 48 47 49 66 50 48 51 51 52 65 53 84 54
REMARK SMILES IDX 49 55 50 56 64 58 85 59 52 60 36 61 37 62 45 63 38 64 39 65
REMARK SMILES IDX 43 66 46 67 40 68 41 69 44 70 42 71 68 72 69 73 77 74 70 75
REMARK SMILES IDX 71 76 75 77 78 78 72 79 73 80 76 81 74 82 53 83 54 84 62 85
REMARK SMILES IDX 55 86 56 87 60 88 63 89 57 90 58 91 61 92 59 93
REMARK H PARENT 83 46 51 57
REMARK Flexibility Score: inf
ROOT
ATOM      1  C   UNL A   1      40.126  20.570  26.471  1.00  0.00     0.188 C 
ENDROOT
BRANCH   1   2
ATOM      2  O   UNL A   1      39.104  21.185  25.690  1.00  0.00    -0.376 OA
BRANCH   2   3
ATOM      3  C   UNL A   1      38.548  22.413  26.129  1.00  0.00     0.202 C 
BRANCH   3   4
ATOM      4  C   UNL A   1      37.667  23.131  25.091  1.00  0.00     0.261 C 
BRANCH   4   5
ATOM      5  O   UNL A   1      37.032  22.327  24.060  1.00  0.00    -0.463 OA
BRANCH   5   6
ATOM      6  C   UNL A   1      35.690  22.498  23.924  1.00  0.00     0.309 C 
ATOM      7  O   UNL A   1      35.180  23.382  23.239  1.00  0.00    -0.252 OA
BRANCH   6   8
ATOM      8  C   UNL A   1      34.825  21.646  24.856  1.00  0.00     0.109 C 
ATOM      9  C   UNL A   1      35.615  20.335  25.001  1.00  0.00     0.021 C 
BRANCH   8  10
ATOM     10  C   UNL A   1      33.306  21.411  24.567  1.00  0.00     0.062 C 
ATOM     11  C   UNL A   1      32.933  19.940  24.696  1.00  0.00     0.020 C 
BRANCH  10  12
ATOM     12  S   UNL A   1      32.261  22.545  25.621  1.00  0.00    -0.122 SA
BRANCH  12  13
ATOM     13  C   UNL A   1      32.339  24.307  25.291  1.00  0.00     0.008 A 
ATOM     14  C   UNL A   1      32.533  26.983  24.244  1.00  0.00    -0.045 A 
ATOM     15  C   UNL A   1      32.992  26.654  25.526  1.00  0.00     0.005 A 
ATOM     16  C   UNL A   1      31.968  25.959  23.487  1.00  0.00     0.005 A 
ATOM     17  C   UNL A   1      32.911  25.336  26.033  1.00  0.00     0.015 A 
ATOM     18  C   UNL A   1      31.850  24.665  24.018  1.00  0.00     0.015 A 
BRANCH  14  19
ATOM     19  C   UNL A   1      32.634  28.408  23.721  1.00  0.00     0.013 C 
ATOM     20  C   UNL A   1      32.766  29.437  24.849  1.00  0.00     0.012 C 
ATOM     21  C   UNL A   1      33.789  28.570  22.725  1.00  0.00     0.012 C 
ENDBRANCH  14  19
ENDBRANCH  12  13
ENDBRANCH  10  12
ENDBRANCH   8  10
ENDBRANCH   6   8
ENDBRANCH   5   6
ENDBRANCH   4   5
ENDBRANCH   3   4
ENDBRANCH   2   3
ENDBRANCH   1   2
BRANCH   1  22
ATOM     22  C   UNL A   1      40.776  21.356  27.608  1.00  0.00     0.188 C 
BRANCH  22  23
ATOM     23  O   UNL A   1      42.187  21.459  27.452  1.00  0.00    -0.376 OA
BRANCH  23  24
ATOM     24  C   UNL A   1      42.686  20.735  26.334  1.00  0.00     0.202 C 
BRANCH  24  25
ATOM     25  C   UNL A   1      43.335  21.724  25.362  1.00  0.00     0.261 C 
BRANCH  25  26
ATOM     26  O   UNL A   1      42.618  22.973  25.265  1.00  0.00    -0.460 OA
BRANCH  26  27
ATOM     27  C   UNL A   1      43.380  24.085  25.280  1.00  0.00     0.338 C 
ATOM     28  O   UNL A   1      44.365  24.312  24.585  1.00  0.00    -0.246 OA
BRANCH  27  29
ATOM     29  C   UNL A   1      42.754  25.083  26.163  1.00  0.00     0.060 A 
ATOM     30  C   UNL A   1      43.253  26.390  26.179  1.00  0.00     0.016 A 
ATOM     31  C   UNL A   1      41.717  24.720  27.019  1.00  0.00     0.016 A 
ATOM     32  C   UNL A   1      42.769  27.326  27.090  1.00  0.00     0.010 A 
ATOM     33  C   UNL A   1      41.225  25.657  27.930  1.00  0.00     0.010 A 
ATOM     34  C   UNL A   1      41.773  26.952  27.995  1.00  0.00    -0.014 A 
BRANCH  34  35
ATOM     35  C   UNL A   1      41.404  27.849  29.115  1.00  0.00     0.031 A 
ATOM     36  C   UNL A   1      42.195  27.771  30.389  1.00  0.00     0.074 A 
ATOM     37  C   UNL A   1      40.378  28.711  29.007  1.00  0.00     0.049 A 
ATOM     38  N   UNL A   1      41.961  28.324  31.551  1.00  0.00    -0.248 NA
ATOM     39  C   UNL A   1      43.415  26.947  30.348  1.00  0.00     0.031 C 
ATOM     40  C   UNL A   1      39.580  28.934  27.805  1.00  0.00     0.029 A 
ATOM     41  N   UNL A   1      39.823  29.548  29.944  1.00  0.00    -0.354 N 
ATOM     42  C   UNL A   1      42.983  27.891  32.385  1.00  0.00     0.074 A 
ATOM     43  C   UNL A   1      43.832  27.020  31.603  1.00  0.00     0.031 C 
ATOM     44  C   UNL A   1      38.621  29.835  28.082  1.00  0.00     0.029 A 
ATOM     45  C   UNL A   1      38.710  30.212  29.491  1.00  0.00     0.049 A 
ATOM     46  H   UNL A   1      40.187  29.662  30.851  1.00  0.00     0.167 HD
ATOM     47  C   UNL A   1      43.190  28.194  33.688  1.00  0.00     0.037 A 
ATOM     48  C   UNL A   1      37.842  31.001  30.153  1.00  0.00     0.037 A 
ATOM     49  C   UNL A   1      42.355  29.078  34.457  1.00  0.00     0.049 A 
ATOM     50  C   UNL A   1      38.052  31.261  31.624  1.00  0.00     0.074 A 
ATOM     51  C   UNL A   1      42.494  29.465  35.777  1.00  0.00     0.029 A 
ATOM     52  N   UNL A   1      41.221  29.712  33.971  1.00  0.00    -0.354 N 
ATOM     53  N   UNL A   1      39.013  30.846  32.412  1.00  0.00    -0.248 NA
ATOM     54  C   UNL A   1      37.047  32.098  32.297  1.00  0.00     0.031 C 
ATOM     55  C   UNL A   1      41.417  30.296  36.105  1.00  0.00     0.029 A 
ATOM     56  C   UNL A   1      40.636  30.469  34.974  1.00  0.00     0.049 A 
ATOM     57  H   UNL A   1      40.881  29.636  33.050  1.00  0.00     0.167 HD
ATOM     58  C   UNL A   1      38.748  31.395  33.661  1.00  0.00     0.074 A 
ATOM     59  C   UNL A   1      37.540  32.180  33.525  1.00  0.00     0.031 C 
ATOM     60  C   UNL A   1      39.443  31.260  34.817  1.00  0.00     0.037 A 
BRANCH  47  61
ATOM     61  C   UNL A   1      44.349  27.537  34.376  1.00  0.00     0.064 A 
ATOM     62  C   UNL A   1      44.218  26.306  35.036  1.00  0.00     0.173 A 
ATOM     63  C   UNL A   1      45.619  28.134  34.343  1.00  0.00     0.173 A 
ATOM     64  F   UNL A   1      43.022  25.704  35.111  1.00  0.00    -0.203 F 
ATOM     65  C   UNL A   1      45.311  25.708  35.656  1.00  0.00     0.198 A 
ATOM     66  C   UNL A   1      46.715  27.519  34.939  1.00  0.00     0.198 A 
ATOM     67  F   UNL A   1      45.797  29.310  33.723  1.00  0.00    -0.203 F 
ATOM     68  F   UNL A   1      45.155  24.553  36.319  1.00  0.00    -0.200 F 
ATOM     69  C   UNL A   1      46.560  26.310  35.600  1.00  0.00     0.200 A 
ATOM     70  F   UNL A   1      47.922  28.097  34.874  1.00  0.00    -0.200 F 
ATOM     71  F   UNL A   1      47.614  25.728  36.190  1.00  0.00    -0.200 F 
ENDBRANCH  47  61
BRANCH  48  72
ATOM     72  C   UNL A   1      36.673  31.583  29.444  1.00  0.00     0.064 A 
ATOM     73  C   UNL A   1      35.620  30.770  29.003  1.00  0.00     0.173 A 
ATOM     74  C   UNL A   1      36.599  32.956  29.164  1.00  0.00     0.173 A 
ATOM     75  F   UNL A   1      35.662  29.447  29.219  1.00  0.00    -0.203 F 
ATOM     76  C   UNL A   1      34.549  31.304  28.291  1.00  0.00     0.198 A 
ATOM     77  C   UNL A   1      35.512  33.493  28.477  1.00  0.00     0.198 A 
ATOM     78  F   UNL A   1      37.584  33.776  29.557  1.00  0.00    -0.203 F 
ATOM     79  F   UNL A   1      33.583  30.495  27.832  1.00  0.00    -0.200 F 
ATOM     80  C   UNL A   1      34.492  32.666  28.033  1.00  0.00     0.200 A 
ATOM     81  F   UNL A   1      35.460  34.810  28.235  1.00  0.00    -0.200 F 
ATOM     82  F   UNL A   1      33.463  33.176  27.344  1.00  0.00    -0.200 F 
ENDBRANCH  48  72
BRANCH  60  83
ATOM     83  C   UNL A   1      38.947  32.016  36.016  1.00  0.00     0.064 A 
ATOM     84  C   UNL A   1      38.152  31.406  36.997  1.00  0.00     0.173 A 
ATOM     85  C   UNL A   1      39.311  33.358  36.206  1.00  0.00     0.173 A 
ATOM     86  F   UNL A   1      37.764  30.129  36.854  1.00  0.00    -0.203 F 
ATOM     87  C   UNL A   1      37.720  32.118  38.114  1.00  0.00     0.198 A 
ATOM     88  C   UNL A   1      38.903  34.058  37.338  1.00  0.00     0.198 A 
ATOM     89  F   UNL A   1      40.077  33.986  35.303  1.00  0.00    -0.203 F 
ATOM     90  F   UNL A   1      36.924  31.529  39.015  1.00  0.00    -0.200 F 
ATOM     91  C   UNL A   1      38.102  33.441  38.287  1.00  0.00     0.200 A 
ATOM     92  F   UNL A   1      39.285  35.332  37.511  1.00  0.00    -0.200 F 
ATOM     93  F   UNL A   1      37.693  34.122  39.365  1.00  0.00    -0.200 F 
ENDBRANCH  60  83
ENDBRANCH  34  35
ENDBRANCH  27  29
ENDBRANCH  26  27
ENDBRANCH  25  26
ENDBRANCH  24  25
ENDBRANCH  23  24
ENDBRANCH  22  23
ENDBRANCH   1  22
TORSDOF 21
ENDMDL
