MODEL 1
REMARK VINA RESULT:     -11.2      0.000      0.000
REMARK SMILES Cc1ccc(C)c(NC(=O)C=CC(=O)OCCOCCOCCOC(=O)c2ccc(-c3c4nc(c(-c5c(F)c(F)c(F)c(F)c5F)c5ccc([nH]5)c(-c5c(F)c(F)c(F)c(F)c5F)c5nc(c(-c6c(F)c(F)c(F)c(F)c6F)c6ccc3[nH]6)C=C5)C=C4)cc2)c1
REMARK SMILES IDX 19 1 18 2 17 3 16 4 15 5 13 6 14 7 12 8 11 9 9 10 8 11 10 13
REMARK SMILES IDX 7 14 1 15 2 16 3 17 90 18 4 19 5 20 6 21 20 22 21 23 22 24
REMARK SMILES IDX 23 25 24 26 25 27 26 28 27 29 28 30 89 31 29 32 88 33 30 34
REMARK SMILES IDX 31 35 32 36 82 37 33 38 87 39 81 40 83 41 34 42 86 43 80 44
REMARK SMILES IDX 79 45 35 47 67 48 47 49 66 50 48 51 51 52 65 53 84 54 49 55
REMARK SMILES IDX 50 56 64 58 85 59 52 60 36 61 37 62 45 63 38 64 39 65 43 66
REMARK SMILES IDX 46 67 40 68 41 69 44 70 42 71 68 72 69 73 77 74 70 75 71 76
REMARK SMILES IDX 75 77 78 78 72 79 73 80 76 81 74 82 53 83 54 84 62 85 55 86
REMARK SMILES IDX 56 87 60 88 63 89 57 90 58 91 61 92 59 93
REMARK H PARENT 8 12 83 46 51 57
REMARK Flexibility Score: inf
ROOT
ATOM      1  C   UNL A   1      40.662  20.572  26.229  1.00  0.00     0.188 C 
ENDROOT
BRANCH   1   2
ATOM      2  O   UNL A   1      39.832  21.517  26.896  1.00  0.00    -0.376 OA
BRANCH   2   3
ATOM      3  C   UNL A   1      38.922  22.271  26.087  1.00  0.00     0.202 C 
BRANCH   3   4
ATOM      4  C   UNL A   1      37.753  21.509  25.410  1.00  0.00     0.261 C 
BRANCH   4   5
ATOM      5  O   UNL A   1      36.502  22.224  25.509  1.00  0.00    -0.460 OA
BRANCH   5   6
ATOM      6  C   UNL A   1      36.118  23.288  24.755  1.00  0.00     0.331 C 
ATOM      7  O   UNL A   1      36.753  23.600  23.751  1.00  0.00    -0.247 OA
BRANCH   6   8
ATOM      8  C   UNL A   1      34.951  24.126  25.145  1.00  0.00     0.099 C 
ATOM      9  C   UNL A   1      33.890  24.106  24.306  1.00  0.00     0.079 C 
BRANCH   9  10
ATOM     10  C   UNL A   1      33.585  25.232  23.366  1.00  0.00     0.248 C 
ATOM     11  N   UNL A   1      33.131  26.445  23.800  1.00  0.00    -0.322 N 
ATOM     12  H   UNL A   1      33.003  27.088  23.066  1.00  0.00     0.170 HD
ATOM     13  O   UNL A   1      33.803  25.067  22.164  1.00  0.00    -0.270 OA
BRANCH  11  14
ATOM     14  C   UNL A   1      32.803  26.985  25.063  1.00  0.00     0.044 A 
ATOM     15  C   UNL A   1      34.617  29.232  27.574  1.00  0.00     0.044 C 
ATOM     16  C   UNL A   1      33.537  28.477  26.861  1.00  0.00    -0.049 A 
ATOM     17  C   UNL A   1      32.236  28.504  27.357  1.00  0.00     0.004 A 
ATOM     18  C   UNL A   1      33.797  27.761  25.682  1.00  0.00     0.029 A 
ATOM     19  C   UNL A   1      31.281  27.652  26.821  1.00  0.00     0.006 A 
ATOM     20  C   UNL A   1      31.611  26.791  25.762  1.00  0.00    -0.027 A 
ATOM     21  C   UNL A   1      30.752  25.585  25.585  1.00  0.00     0.046 C 
ENDBRANCH  11  14
ENDBRANCH   9  10
ENDBRANCH   6   8
ENDBRANCH   5   6
ENDBRANCH   4   5
ENDBRANCH   3   4
ENDBRANCH   2   3
ENDBRANCH   1   2
BRANCH   1  22
ATOM     22  C   UNL A   1      42.159  20.724  26.507  1.00  0.00     0.188 C 
BRANCH  22  23
ATOM     23  O   UNL A   1      42.807  21.163  25.319  1.00  0.00    -0.376 OA
BRANCH  23  24
ATOM     24  C   UNL A   1      43.220  22.519  25.337  1.00  0.00     0.202 C 
BRANCH  24  25
ATOM     25  C   UNL A   1      43.149  23.268  26.676  1.00  0.00     0.261 C 
BRANCH  25  26
ATOM     26  O   UNL A   1      41.998  24.068  27.053  1.00  0.00    -0.460 OA
BRANCH  26  27
ATOM     27  C   UNL A   1      41.388  25.110  26.446  1.00  0.00     0.338 C 
ATOM     28  O   UNL A   1      41.426  25.284  25.241  1.00  0.00    -0.246 OA
BRANCH  27  29
ATOM     29  C   UNL A   1      40.878  26.170  27.314  1.00  0.00     0.060 A 
ATOM     30  C   UNL A   1      40.647  27.372  26.670  1.00  0.00     0.016 A 
ATOM     31  C   UNL A   1      40.742  26.049  28.699  1.00  0.00     0.016 A 
ATOM     32  C   UNL A   1      40.475  28.498  27.440  1.00  0.00     0.010 A 
ATOM     33  C   UNL A   1      40.561  27.205  29.470  1.00  0.00     0.010 A 
ATOM     34  C   UNL A   1      40.507  28.448  28.838  1.00  0.00    -0.014 A 
BRANCH  34  35
ATOM     35  C   UNL A   1      40.321  29.746  29.509  1.00  0.00     0.031 A 
ATOM     36  C   UNL A   1      41.597  30.470  29.763  1.00  0.00     0.074 A 
ATOM     37  C   UNL A   1      39.141  30.260  29.924  1.00  0.00     0.049 A 
ATOM     38  N   UNL A   1      41.993  31.000  30.878  1.00  0.00    -0.248 NA
ATOM     39  C   UNL A   1      42.604  30.494  28.685  1.00  0.00     0.031 C 
ATOM     40  C   UNL A   1      37.821  29.679  29.697  1.00  0.00     0.029 A 
ATOM     41  N   UNL A   1      38.856  31.443  30.579  1.00  0.00    -0.354 N 
ATOM     42  C   UNL A   1      43.207  31.606  30.576  1.00  0.00     0.074 A 
ATOM     43  C   UNL A   1      43.600  31.161  29.263  1.00  0.00     0.031 C 
ATOM     44  C   UNL A   1      36.877  30.591  30.011  1.00  0.00     0.029 A 
ATOM     45  C   UNL A   1      37.513  31.805  30.504  1.00  0.00     0.049 A 
ATOM     46  H   UNL A   1      39.536  31.976  31.051  1.00  0.00     0.167 HD
ATOM     47  C   UNL A   1      43.598  32.726  31.231  1.00  0.00     0.037 A 
ATOM     48  C   UNL A   1      36.946  33.018  30.740  1.00  0.00     0.037 A 
ATOM     49  C   UNL A   1      43.101  32.820  32.569  1.00  0.00     0.049 A 
ATOM     50  C   UNL A   1      37.824  33.814  31.630  1.00  0.00     0.074 A 
ATOM     51  C   UNL A   1      43.463  32.378  33.819  1.00  0.00     0.029 A 
ATOM     52  N   UNL A   1      41.840  33.322  32.670  1.00  0.00    -0.354 N 
ATOM     53  N   UNL A   1      37.919  33.642  32.918  1.00  0.00    -0.248 NA
ATOM     54  C   UNL A   1      38.786  34.750  31.050  1.00  0.00     0.031 C 
ATOM     55  C   UNL A   1      42.351  32.623  34.682  1.00  0.00     0.029 A 
ATOM     56  C   UNL A   1      41.340  33.218  33.937  1.00  0.00     0.049 A 
ATOM     57  H   UNL A   1      41.345  33.715  31.915  1.00  0.00     0.167 HD
ATOM     58  C   UNL A   1      39.175  34.118  33.231  1.00  0.00     0.074 A 
ATOM     59  C   UNL A   1      39.581  34.939  32.103  1.00  0.00     0.031 C 
ATOM     60  C   UNL A   1      39.939  33.483  34.162  1.00  0.00     0.037 A 
BRANCH  47  61
ATOM     61  C   UNL A   1      43.905  33.970  30.432  1.00  0.00     0.064 A 
ATOM     62  C   UNL A   1      42.938  34.523  29.579  1.00  0.00     0.173 A 
ATOM     63  C   UNL A   1      45.228  34.446  30.261  1.00  0.00     0.173 A 
ATOM     64  F   UNL A   1      41.676  34.069  29.602  1.00  0.00    -0.203 F 
ATOM     65  C   UNL A   1      43.274  35.496  28.632  1.00  0.00     0.198 A 
ATOM     66  C   UNL A   1      45.548  35.455  29.361  1.00  0.00     0.198 A 
ATOM     67  F   UNL A   1      46.268  33.865  30.875  1.00  0.00    -0.203 F 
ATOM     68  F   UNL A   1      42.347  35.938  27.773  1.00  0.00    -0.200 F 
ATOM     69  C   UNL A   1      44.573  35.971  28.533  1.00  0.00     0.200 A 
ATOM     70  F   UNL A   1      46.820  35.863  29.250  1.00  0.00    -0.200 F 
ATOM     71  F   UNL A   1      44.900  36.879  27.605  1.00  0.00    -0.200 F 
ENDBRANCH  47  61
BRANCH  48  72
ATOM     72  C   UNL A   1      35.700  33.619  30.172  1.00  0.00     0.064 A 
ATOM     73  C   UNL A   1      34.690  34.130  31.014  1.00  0.00     0.173 A 
ATOM     74  C   UNL A   1      35.566  33.935  28.806  1.00  0.00     0.173 A 
ATOM     75  F   UNL A   1      34.739  33.933  32.339  1.00  0.00    -0.203 F 
ATOM     76  C   UNL A   1      33.644  34.922  30.526  1.00  0.00     0.198 A 
ATOM     77  C   UNL A   1      34.504  34.700  28.316  1.00  0.00     0.198 A 
ATOM     78  F   UNL A   1      36.505  33.594  27.915  1.00  0.00    -0.203 F 
ATOM     79  F   UNL A   1      32.755  35.452  31.378  1.00  0.00    -0.200 F 
ATOM     80  C   UNL A   1      33.554  35.210  29.177  1.00  0.00     0.200 A 
ATOM     81  F   UNL A   1      34.448  34.990  27.008  1.00  0.00    -0.200 F 
ATOM     82  F   UNL A   1      32.585  36.010  28.715  1.00  0.00    -0.200 F 
ENDBRANCH  48  72
BRANCH  60  83
ATOM     83  C   UNL A   1      39.254  32.927  35.362  1.00  0.00     0.064 A 
ATOM     84  C   UNL A   1      38.839  31.595  35.501  1.00  0.00     0.173 A 
ATOM     85  C   UNL A   1      39.005  33.804  36.431  1.00  0.00     0.173 A 
ATOM     86  F   UNL A   1      39.119  30.681  34.559  1.00  0.00    -0.203 F 
ATOM     87  C   UNL A   1      38.146  31.181  36.638  1.00  0.00     0.198 A 
ATOM     88  C   UNL A   1      38.352  33.377  37.581  1.00  0.00     0.198 A 
ATOM     89  F   UNL A   1      39.407  35.084  36.360  1.00  0.00    -0.203 F 
ATOM     90  F   UNL A   1      37.712  29.916  36.733  1.00  0.00    -0.200 F 
ATOM     91  C   UNL A   1      37.906  32.069  37.676  1.00  0.00     0.200 A 
ATOM     92  F   UNL A   1      38.155  34.233  38.593  1.00  0.00    -0.200 F 
ATOM     93  F   UNL A   1      37.252  31.664  38.774  1.00  0.00    -0.200 F 
ENDBRANCH  60  83
ENDBRANCH  34  35
ENDBRANCH  27  29
ENDBRANCH  26  27
ENDBRANCH  25  26
ENDBRANCH  24  25
ENDBRANCH  23  24
ENDBRANCH  22  23
ENDBRANCH   1  22
TORSDOF 19
ENDMDL
MODEL 2
REMARK VINA RESULT:     -10.9      1.477      3.153
REMARK SMILES Cc1ccc(C)c(NC(=O)C=CC(=O)OCCOCCOCCOC(=O)c2ccc(-c3c4nc(c(-c5c(F)c(F)c(F)c(F)c5F)c5ccc([nH]5)c(-c5c(F)c(F)c(F)c(F)c5F)c5nc(c(-c6c(F)c(F)c(F)c(F)c6F)c6ccc3[nH]6)C=C5)C=C4)cc2)c1
REMARK SMILES IDX 19 1 18 2 17 3 16 4 15 5 13 6 14 7 12 8 11 9 9 10 8 11 10 13
REMARK SMILES IDX 7 14 1 15 2 16 3 17 90 18 4 19 5 20 6 21 20 22 21 23 22 24
REMARK SMILES IDX 23 25 24 26 25 27 26 28 27 29 28 30 89 31 29 32 88 33 30 34
REMARK SMILES IDX 31 35 32 36 82 37 33 38 87 39 81 40 83 41 34 42 86 43 80 44
REMARK SMILES IDX 79 45 35 47 67 48 47 49 66 50 48 51 51 52 65 53 84 54 49 55
REMARK SMILES IDX 50 56 64 58 85 59 52 60 36 61 37 62 45 63 38 64 39 65 43 66
REMARK SMILES IDX 46 67 40 68 41 69 44 70 42 71 68 72 69 73 77 74 70 75 71 76
REMARK SMILES IDX 75 77 78 78 72 79 73 80 76 81 74 82 53 83 54 84 62 85 55 86
REMARK SMILES IDX 56 87 60 88 63 89 57 90 58 91 61 92 59 93
REMARK H PARENT 8 12 83 46 51 57
REMARK Flexibility Score: inf
ROOT
ATOM      1  C   UNL A   1      34.103  23.840  23.807  1.00  0.00     0.188 C 
ENDROOT
BRANCH   1   2
ATOM      2  O   UNL A   1      33.102  22.894  23.447  1.00  0.00    -0.376 OA
BRANCH   2   3
ATOM      3  C   UNL A   1      31.872  22.937  24.179  1.00  0.00     0.202 C 
BRANCH   3   4
ATOM      4  C   UNL A   1      30.986  24.203  24.033  1.00  0.00     0.261 C 
BRANCH   4   5
ATOM      5  O   UNL A   1      31.028  25.039  25.209  1.00  0.00    -0.460 OA
BRANCH   5   6
ATOM      6  C   UNL A   1      30.431  26.251  25.360  1.00  0.00     0.331 C 
ATOM      7  O   UNL A   1      30.619  26.914  26.376  1.00  0.00    -0.247 OA
BRANCH   6   8
ATOM      8  C   UNL A   1      29.503  26.786  24.326  1.00  0.00     0.099 C 
ATOM      9  C   UNL A   1      30.069  27.213  23.175  1.00  0.00     0.079 C 
BRANCH   9  10
ATOM     10  C   UNL A   1      30.254  28.665  22.857  1.00  0.00     0.248 C 
ATOM     11  N   UNL A   1      31.281  29.402  23.372  1.00  0.00    -0.322 N 
ATOM     12  H   UNL A   1      31.283  30.331  23.048  1.00  0.00     0.170 HD
ATOM     13  O   UNL A   1      29.476  29.194  22.059  1.00  0.00    -0.270 OA
BRANCH  11  14
ATOM     14  C   UNL A   1      32.342  29.133  24.266  1.00  0.00     0.044 A 
ATOM     15  C   UNL A   1      33.519  30.660  27.572  1.00  0.00     0.044 C 
ATOM     16  C   UNL A   1      33.349  29.716  26.421  1.00  0.00    -0.049 A 
ATOM     17  C   UNL A   1      34.087  28.535  26.385  1.00  0.00     0.004 A 
ATOM     18  C   UNL A   1      32.437  29.976  25.386  1.00  0.00     0.029 A 
ATOM     19  C   UNL A   1      34.083  27.761  25.234  1.00  0.00     0.006 A 
ATOM     20  C   UNL A   1      33.314  28.142  24.123  1.00  0.00    -0.027 A 
ATOM     21  C   UNL A   1      33.733  27.601  22.798  1.00  0.00     0.046 C 
ENDBRANCH  11  14
ENDBRANCH   9  10
ENDBRANCH   6   8
ENDBRANCH   5   6
ENDBRANCH   4   5
ENDBRANCH   3   4
ENDBRANCH   2   3
ENDBRANCH   1   2
BRANCH   1  22
ATOM     22  C   UNL A   1      35.501  23.251  24.004  1.00  0.00     0.188 C 
BRANCH  22  23
ATOM     23  O   UNL A   1      35.914  23.480  25.346  1.00  0.00    -0.376 OA
BRANCH  23  24
ATOM     24  C   UNL A   1      37.240  23.070  25.635  1.00  0.00     0.202 C 
BRANCH  24  25
ATOM     25  C   UNL A   1      38.173  24.093  26.301  1.00  0.00     0.261 C 
BRANCH  25  26
ATOM     26  O   UNL A   1      39.148  23.708  27.305  1.00  0.00    -0.460 OA
BRANCH  26  27
ATOM     27  C   UNL A   1      40.381  24.180  27.590  1.00  0.00     0.338 C 
ATOM     28  O   UNL A   1      41.326  23.450  27.828  1.00  0.00    -0.246 OA
BRANCH  27  29
ATOM     29  C   UNL A   1      40.494  25.615  27.844  1.00  0.00     0.060 A 
ATOM     30  C   UNL A   1      40.892  25.937  29.130  1.00  0.00     0.016 A 
ATOM     31  C   UNL A   1      40.121  26.604  26.931  1.00  0.00     0.016 A 
ATOM     32  C   UNL A   1      40.722  27.232  29.557  1.00  0.00     0.010 A 
ATOM     33  C   UNL A   1      39.958  27.921  27.379  1.00  0.00     0.010 A 
ATOM     34  C   UNL A   1      40.185  28.220  28.724  1.00  0.00    -0.014 A 
BRANCH  34  35
ATOM     35  C   UNL A   1      40.058  29.550  29.342  1.00  0.00     0.031 A 
ATOM     36  C   UNL A   1      41.362  30.248  29.518  1.00  0.00     0.074 A 
ATOM     37  C   UNL A   1      38.908  30.115  29.775  1.00  0.00     0.049 A 
ATOM     38  N   UNL A   1      41.811  30.815  30.594  1.00  0.00    -0.248 NA
ATOM     39  C   UNL A   1      42.329  30.196  28.405  1.00  0.00     0.031 C 
ATOM     40  C   UNL A   1      37.566  29.562  29.620  1.00  0.00     0.029 A 
ATOM     41  N   UNL A   1      38.679  31.333  30.385  1.00  0.00    -0.354 N 
ATOM     42  C   UNL A   1      43.029  31.373  30.222  1.00  0.00     0.074 A 
ATOM     43  C   UNL A   1      43.362  30.860  28.917  1.00  0.00     0.031 C 
ATOM     44  C   UNL A   1      36.659  30.513  29.926  1.00  0.00     0.029 A 
ATOM     45  C   UNL A   1      37.344  31.729  30.342  1.00  0.00     0.049 A 
ATOM     46  H   UNL A   1      39.389  31.867  30.809  1.00  0.00     0.167 HD
ATOM     47  C   UNL A   1      43.474  32.510  30.811  1.00  0.00     0.037 A 
ATOM     48  C   UNL A   1      36.818  32.967  30.542  1.00  0.00     0.037 A 
ATOM     49  C   UNL A   1      43.028  32.677  32.160  1.00  0.00     0.049 A 
ATOM     50  C   UNL A   1      37.749  33.776  31.364  1.00  0.00     0.074 A 
ATOM     51  C   UNL A   1      43.423  32.279  33.416  1.00  0.00     0.029 A 
ATOM     52  N   UNL A   1      41.785  33.218  32.284  1.00  0.00    -0.354 N 
ATOM     53  N   UNL A   1      37.887  33.659  32.655  1.00  0.00    -0.248 NA
ATOM     54  C   UNL A   1      38.714  34.659  30.709  1.00  0.00     0.031 C 
ATOM     55  C   UNL A   1      42.350  32.594  34.305  1.00  0.00     0.029 A 
ATOM     56  C   UNL A   1      41.329  33.184  33.571  1.00  0.00     0.049 A 
ATOM     57  H   UNL A   1      41.274  33.591  31.529  1.00  0.00     0.167 HD
ATOM     58  C   UNL A   1      39.165  34.112  32.902  1.00  0.00     0.074 A 
ATOM     59  C   UNL A   1      39.552  34.871  31.724  1.00  0.00     0.031 C 
ATOM     60  C   UNL A   1      39.945  33.498  33.833  1.00  0.00     0.037 A 
BRANCH  47  61
ATOM     61  C   UNL A   1      43.784  33.709  29.947  1.00  0.00     0.064 A 
ATOM     62  C   UNL A   1      45.019  34.365  30.060  1.00  0.00     0.173 A 
ATOM     63  C   UNL A   1      42.775  34.401  29.235  1.00  0.00     0.173 A 
ATOM     64  F   UNL A   1      46.006  33.829  30.793  1.00  0.00    -0.203 F 
ATOM     65  C   UNL A   1      45.230  35.622  29.484  1.00  0.00     0.198 A 
ATOM     66  C   UNL A   1      43.006  35.623  28.614  1.00  0.00     0.198 A 
ATOM     67  F   UNL A   1      41.505  33.974  29.222  1.00  0.00    -0.203 F 
ATOM     68  F   UNL A   1      46.390  36.260  29.684  1.00  0.00    -0.200 F 
ATOM     69  C   UNL A   1      44.230  36.243  28.751  1.00  0.00     0.200 A 
ATOM     70  F   UNL A   1      42.009  36.226  27.951  1.00  0.00    -0.200 F 
ATOM     71  F   UNL A   1      44.422  37.460  28.227  1.00  0.00    -0.200 F 
ENDBRANCH  47  61
BRANCH  48  72
ATOM     72  C   UNL A   1      35.569  33.577  29.992  1.00  0.00     0.064 A 
ATOM     73  C   UNL A   1      34.552  34.049  30.848  1.00  0.00     0.173 A 
ATOM     74  C   UNL A   1      35.436  33.941  28.638  1.00  0.00     0.173 A 
ATOM     75  F   UNL A   1      34.598  33.805  32.166  1.00  0.00    -0.203 F 
ATOM     76  C   UNL A   1      33.501  34.849  30.385  1.00  0.00     0.198 A 
ATOM     77  C   UNL A   1      34.369  34.714  28.172  1.00  0.00     0.198 A 
ATOM     78  F   UNL A   1      36.381  33.640  27.738  1.00  0.00    -0.203 F 
ATOM     79  F   UNL A   1      32.604  35.341  31.253  1.00  0.00    -0.200 F 
ATOM     80  C   UNL A   1      33.412  35.184  29.047  1.00  0.00     0.200 A 
ATOM     81  F   UNL A   1      34.315  35.050  26.874  1.00  0.00    -0.200 F 
ATOM     82  F   UNL A   1      32.438  35.992  28.610  1.00  0.00    -0.200 F 
ENDBRANCH  48  72
BRANCH  60  83
ATOM     83  C   UNL A   1      39.290  33.014  35.079  1.00  0.00     0.064 A 
ATOM     84  C   UNL A   1      38.894  31.690  35.315  1.00  0.00     0.173 A 
ATOM     85  C   UNL A   1      39.049  33.958  36.093  1.00  0.00     0.173 A 
ATOM     86  F   UNL A   1      39.169  30.718  34.430  1.00  0.00    -0.203 F 
ATOM     87  C   UNL A   1      38.228  31.344  36.490  1.00  0.00     0.198 A 
ATOM     88  C   UNL A   1      38.422  33.599  37.281  1.00  0.00     0.198 A 
ATOM     89  F   UNL A   1      39.432  35.234  35.930  1.00  0.00    -0.203 F 
ATOM     90  F   UNL A   1      37.813  30.083  36.676  1.00  0.00    -0.200 F 
ATOM     91  C   UNL A   1      37.996  32.296  37.471  1.00  0.00     0.200 A 
ATOM     92  F   UNL A   1      38.232  34.519  38.238  1.00  0.00    -0.200 F 
ATOM     93  F   UNL A   1      37.368  31.957  38.605  1.00  0.00    -0.200 F 
ENDBRANCH  60  83
ENDBRANCH  34  35
ENDBRANCH  27  29
ENDBRANCH  26  27
ENDBRANCH  25  26
ENDBRANCH  24  25
ENDBRANCH  23  24
ENDBRANCH  22  23
ENDBRANCH   1  22
TORSDOF 19
ENDMDL
MODEL 3
REMARK VINA RESULT:     -10.7      5.902     11.080
REMARK SMILES Cc1ccc(C)c(NC(=O)C=CC(=O)OCCOCCOCCOC(=O)c2ccc(-c3c4nc(c(-c5c(F)c(F)c(F)c(F)c5F)c5ccc([nH]5)c(-c5c(F)c(F)c(F)c(F)c5F)c5nc(c(-c6c(F)c(F)c(F)c(F)c6F)c6ccc3[nH]6)C=C5)C=C4)cc2)c1
REMARK SMILES IDX 19 1 18 2 17 3 16 4 15 5 13 6 14 7 12 8 11 9 9 10 8 11 10 13
REMARK SMILES IDX 7 14 1 15 2 16 3 17 90 18 4 19 5 20 6 21 20 22 21 23 22 24
REMARK SMILES IDX 23 25 24 26 25 27 26 28 27 29 28 30 89 31 29 32 88 33 30 34
REMARK SMILES IDX 31 35 32 36 82 37 33 38 87 39 81 40 83 41 34 42 86 43 80 44
REMARK SMILES IDX 79 45 35 47 67 48 47 49 66 50 48 51 51 52 65 53 84 54 49 55
REMARK SMILES IDX 50 56 64 58 85 59 52 60 36 61 37 62 45 63 38 64 39 65 43 66
REMARK SMILES IDX 46 67 40 68 41 69 44 70 42 71 68 72 69 73 77 74 70 75 71 76
REMARK SMILES IDX 75 77 78 78 72 79 73 80 76 81 74 82 53 83 54 84 62 85 55 86
REMARK SMILES IDX 56 87 60 88 63 89 57 90 58 91 61 92 59 93
REMARK H PARENT 8 12 83 46 51 57
REMARK Flexibility Score: inf
ROOT
ATOM      1  C   UNL A   1      34.085  30.753  27.250  1.00  0.00     0.188 C 
ENDROOT
BRANCH   1   2
ATOM      2  O   UNL A   1      32.849  30.296  26.712  1.00  0.00    -0.376 OA
BRANCH   2   3
ATOM      3  C   UNL A   1      32.894  29.139  25.868  1.00  0.00     0.202 C 
BRANCH   3   4
ATOM      4  C   UNL A   1      32.276  29.254  24.449  1.00  0.00     0.261 C 
BRANCH   4   5
ATOM      5  O   UNL A   1      31.166  28.349  24.260  1.00  0.00    -0.460 OA
BRANCH   5   6
ATOM      6  C   UNL A   1      30.974  27.516  23.203  1.00  0.00     0.331 C 
ATOM      7  O   UNL A   1      30.602  27.961  22.121  1.00  0.00    -0.247 OA
BRANCH   6   8
ATOM      8  C   UNL A   1      31.166  26.046  23.337  1.00  0.00     0.099 C 
ATOM      9  C   UNL A   1      32.445  25.610  23.398  1.00  0.00     0.079 C 
BRANCH   9  10
ATOM     10  C   UNL A   1      33.131  24.959  22.237  1.00  0.00     0.248 C 
ATOM     11  N   UNL A   1      33.483  23.640  22.241  1.00  0.00    -0.322 N 
ATOM     12  H   UNL A   1      33.900  23.354  21.396  1.00  0.00     0.170 HD
ATOM     13  O   UNL A   1      33.335  25.632  21.224  1.00  0.00    -0.270 OA
BRANCH  11  14
ATOM     14  C   UNL A   1      33.386  22.592  23.183  1.00  0.00     0.044 A 
ATOM     15  C   UNL A   1      35.271  21.680  26.387  1.00  0.00     0.044 C 
ATOM     16  C   UNL A   1      34.228  21.721  25.312  1.00  0.00    -0.049 A 
ATOM     17  C   UNL A   1      33.123  20.877  25.393  1.00  0.00     0.004 A 
ATOM     18  C   UNL A   1      34.319  22.614  24.233  1.00  0.00     0.029 A 
ATOM     19  C   UNL A   1      32.264  20.768  24.308  1.00  0.00     0.006 A 
ATOM     20  C   UNL A   1      32.483  21.529  23.149  1.00  0.00    -0.027 A 
ATOM     21  C   UNL A   1      31.881  21.014  21.885  1.00  0.00     0.046 C 
ENDBRANCH  11  14
ENDBRANCH   9  10
ENDBRANCH   6   8
ENDBRANCH   5   6
ENDBRANCH   4   5
ENDBRANCH   3   4
ENDBRANCH   2   3
ENDBRANCH   1   2
BRANCH   1  22
ATOM     22  C   UNL A   1      33.996  32.061  28.039  1.00  0.00     0.188 C 
BRANCH  22  23
ATOM     23  O   UNL A   1      35.027  32.937  27.598  1.00  0.00    -0.376 OA
BRANCH  23  24
ATOM     24  C   UNL A   1      35.342  33.982  28.501  1.00  0.00     0.202 C 
BRANCH  24  25
ATOM     25  C   UNL A   1      35.696  33.594  29.945  1.00  0.00     0.261 C 
BRANCH  25  26
ATOM     26  O   UNL A   1      36.758  32.654  30.253  1.00  0.00    -0.460 OA
BRANCH  26  27
ATOM     27  C   UNL A   1      36.737  31.334  30.541  1.00  0.00     0.338 C 
ATOM     28  O   UNL A   1      35.958  30.849  31.341  1.00  0.00    -0.246 OA
BRANCH  27  29
ATOM     29  C   UNL A   1      37.851  30.533  30.038  1.00  0.00     0.060 A 
ATOM     30  C   UNL A   1      37.670  29.167  30.156  1.00  0.00     0.016 A 
ATOM     31  C   UNL A   1      39.059  31.069  29.584  1.00  0.00     0.016 A 
ATOM     32  C   UNL A   1      38.767  28.352  30.010  1.00  0.00     0.010 A 
ATOM     33  C   UNL A   1      40.167  30.225  29.434  1.00  0.00     0.010 A 
ATOM     34  C   UNL A   1      40.037  28.866  29.727  1.00  0.00    -0.014 A 
BRANCH  34  35
ATOM     35  C   UNL A   1      41.104  27.858  29.618  1.00  0.00     0.031 A 
ATOM     36  C   UNL A   1      42.071  27.894  30.750  1.00  0.00     0.074 A 
ATOM     37  C   UNL A   1      41.274  26.994  28.592  1.00  0.00     0.049 A 
ATOM     38  N   UNL A   1      43.365  27.921  30.680  1.00  0.00    -0.248 NA
ATOM     39  C   UNL A   1      41.531  28.047  32.115  1.00  0.00     0.031 C 
ATOM     40  C   UNL A   1      40.378  26.823  27.452  1.00  0.00     0.029 A 
ATOM     41  N   UNL A   1      42.243  26.033  28.377  1.00  0.00    -0.354 N 
ATOM     42  C   UNL A   1      43.797  27.880  32.000  1.00  0.00     0.074 A 
ATOM     43  C   UNL A   1      42.645  28.088  32.841  1.00  0.00     0.031 C 
ATOM     44  C   UNL A   1      40.720  25.702  26.785  1.00  0.00     0.029 A 
ATOM     45  C   UNL A   1      41.884  25.092  27.414  1.00  0.00     0.049 A 
ATOM     46  H   UNL A   1      43.103  26.016  28.856  1.00  0.00     0.167 HD
ATOM     47  C   UNL A   1      44.970  27.282  32.323  1.00  0.00     0.037 A 
ATOM     48  C   UNL A   1      42.423  23.866  27.182  1.00  0.00     0.037 A 
ATOM     49  C   UNL A   1      45.951  27.330  31.283  1.00  0.00     0.049 A 
ATOM     50  C   UNL A   1      43.813  23.827  27.695  1.00  0.00     0.074 A 
ATOM     51  C   UNL A   1      46.915  28.204  30.838  1.00  0.00     0.029 A 
ATOM     52  N   UNL A   1      45.827  26.355  30.341  1.00  0.00    -0.354 N 
ATOM     53  N   UNL A   1      44.838  24.359  27.090  1.00  0.00    -0.248 NA
ATOM     54  C   UNL A   1      44.075  23.318  29.040  1.00  0.00     0.031 C 
ATOM     55  C   UNL A   1      47.360  27.717  29.571  1.00  0.00     0.029 A 
ATOM     56  C   UNL A   1      46.661  26.552  29.277  1.00  0.00     0.049 A 
ATOM     57  H   UNL A   1      45.207  25.595  30.419  1.00  0.00     0.167 HD
ATOM     58  C   UNL A   1      45.736  24.612  28.105  1.00  0.00     0.074 A 
ATOM     59  C   UNL A   1      45.303  23.800  29.230  1.00  0.00     0.031 C 
ATOM     60  C   UNL A   1      46.488  25.748  28.092  1.00  0.00     0.037 A 
BRANCH  47  61
ATOM     61  C   UNL A   1      44.963  26.153  33.326  1.00  0.00     0.064 A 
ATOM     62  C   UNL A   1      44.242  24.978  33.067  1.00  0.00     0.173 A 
ATOM     63  C   UNL A   1      45.401  26.332  34.660  1.00  0.00     0.173 A 
ATOM     64  F   UNL A   1      43.708  24.764  31.856  1.00  0.00    -0.203 F 
ATOM     65  C   UNL A   1      43.992  24.042  34.076  1.00  0.00     0.198 A 
ATOM     66  C   UNL A   1      45.202  25.373  35.646  1.00  0.00     0.198 A 
ATOM     67  F   UNL A   1      45.927  27.493  35.078  1.00  0.00    -0.203 F 
ATOM     68  F   UNL A   1      43.226  22.974  33.819  1.00  0.00    -0.200 F 
ATOM     69  C   UNL A   1      44.483  24.232  35.359  1.00  0.00     0.200 A 
ATOM     70  F   UNL A   1      45.644  25.603  36.890  1.00  0.00    -0.200 F 
ATOM     71  F   UNL A   1      44.216  23.351  36.331  1.00  0.00    -0.200 F 
ENDBRANCH  47  61
BRANCH  48  72
ATOM     72  C   UNL A   1      41.794  22.636  26.611  1.00  0.00     0.064 A 
ATOM     73  C   UNL A   1      42.577  21.519  26.248  1.00  0.00     0.173 A 
ATOM     74  C   UNL A   1      40.402  22.418  26.630  1.00  0.00     0.173 A 
ATOM     75  F   UNL A   1      43.915  21.596  26.240  1.00  0.00    -0.203 F 
ATOM     76  C   UNL A   1      42.008  20.274  25.957  1.00  0.00     0.198 A 
ATOM     77  C   UNL A   1      39.834  21.182  26.310  1.00  0.00     0.198 A 
ATOM     78  F   UNL A   1      39.554  23.365  27.049  1.00  0.00    -0.203 F 
ATOM     79  F   UNL A   1      42.799  19.223  25.698  1.00  0.00    -0.200 F 
ATOM     80  C   UNL A   1      40.636  20.105  25.992  1.00  0.00     0.200 A 
ATOM     81  F   UNL A   1      38.503  21.031  26.374  1.00  0.00    -0.200 F 
ATOM     82  F   UNL A   1      40.092  18.903  25.766  1.00  0.00    -0.200 F 
ENDBRANCH  48  72
BRANCH  60  83
ATOM     83  C   UNL A   1      47.002  26.226  26.779  1.00  0.00     0.064 A 
ATOM     84  C   UNL A   1      46.310  27.083  25.911  1.00  0.00     0.173 A 
ATOM     85  C   UNL A   1      48.275  25.783  26.382  1.00  0.00     0.173 A 
ATOM     86  F   UNL A   1      45.128  27.614  26.261  1.00  0.00    -0.203 F 
ATOM     87  C   UNL A   1      46.847  27.425  24.671  1.00  0.00     0.198 A 
ATOM     88  C   UNL A   1      48.825  26.161  25.162  1.00  0.00     0.198 A 
ATOM     89  F   UNL A   1      48.992  24.983  27.187  1.00  0.00    -0.203 F 
ATOM     90  F   UNL A   1      46.149  28.205  23.833  1.00  0.00    -0.200 F 
ATOM     91  C   UNL A   1      48.103  26.968  24.299  1.00  0.00     0.200 A 
ATOM     92  F   UNL A   1      50.053  25.743  24.826  1.00  0.00    -0.200 F 
ATOM     93  F   UNL A   1      48.622  27.311  23.113  1.00  0.00    -0.200 F 
ENDBRANCH  60  83
ENDBRANCH  34  35
ENDBRANCH  27  29
ENDBRANCH  26  27
ENDBRANCH  25  26
ENDBRANCH  24  25
ENDBRANCH  23  24
ENDBRANCH  22  23
ENDBRANCH   1  22
TORSDOF 19
ENDMDL
