MODEL 1
REMARK VINA RESULT:      -7.9      0.000      0.000
REMARK SMILES CCc1cc(C(=O)N2CCO[C@@H](CC(=O)OCCOCCOCCOC(=O)c3ccc(-c4c5nc(c(-c6c(F)c(F)c(F)c(F)c6F)c6ccc([nH]6)c(-c6c(F)c(F)c(F)c(F)c6F)c6nc(c(-c7c(F)c(F)c(F)c(F)c7F)c7ccc4[nH]7)C=C6)C=C5)cc3)C2)sc1C
REMARK SMILES IDX 20 1 19 2 18 3 17 4 16 5 14 6 15 7 13 8 12 9 8 10 9 11 91 12
REMARK SMILES IDX 10 13 11 14 6 15 7 16 5 17 3 18 4 19 93 20 92 21 94 22 2 23
REMARK SMILES IDX 1 24 21 25 22 26 23 27 24 28 25 29 26 30 27 31 28 32 29 33
REMARK SMILES IDX 90 34 30 35 89 36 31 37 32 38 33 39 83 40 34 41 88 42 82 43
REMARK SMILES IDX 84 44 35 45 87 46 81 47 80 48 36 50 68 51 48 52 67 53 49 54
REMARK SMILES IDX 52 55 66 56 85 57 50 58 51 59 65 61 86 62 53 63 37 64 38 65
REMARK SMILES IDX 46 66 39 67 40 68 44 69 47 70 41 71 42 72 45 73 43 74 69 75
REMARK SMILES IDX 70 76 78 77 71 78 72 79 76 80 79 81 73 82 74 83 77 84 75 85
REMARK SMILES IDX 54 86 55 87 63 88 56 89 57 90 61 91 64 92 58 93 59 94 62 95
REMARK SMILES IDX 60 96
REMARK H PARENT 84 49 52 60
REMARK Flexibility Score: inf
ROOT
ATOM      1  C   UNL A   1      43.431  20.894  25.860  1.00  0.00     0.188 C 
ENDROOT
BRANCH   1   2
ATOM      2  O   UNL A   1      42.161  20.250  25.847  1.00  0.00    -0.376 OA
BRANCH   2   3
ATOM      3  C   UNL A   1      41.367  20.378  27.029  1.00  0.00     0.202 C 
BRANCH   3   4
ATOM      4  C   UNL A   1      41.286  21.786  27.638  1.00  0.00     0.261 C 
BRANCH   4   5
ATOM      5  O   UNL A   1      40.594  22.751  26.813  1.00  0.00    -0.463 OA
BRANCH   5   6
ATOM      6  C   UNL A   1      40.718  24.047  27.184  1.00  0.00     0.308 C 
ATOM      7  O   UNL A   1      41.783  24.593  27.458  1.00  0.00    -0.252 OA
BRANCH   6   8
ATOM      8  C   UNL A   1      39.433  24.836  27.176  1.00  0.00     0.156 C 
BRANCH   8   9
ATOM      9  C   UNL A   1      39.390  26.301  27.603  1.00  0.00     0.148 C 
ATOM     10  N   UNL A   1      39.821  28.008  29.308  1.00  0.00    -0.333 N 
ATOM     11  C   UNL A   1      40.780  28.683  28.437  1.00  0.00     0.148 C 
ATOM     12  C   UNL A   1      39.735  26.559  29.084  1.00  0.00     0.152 C 
ATOM     13  C   UNL A   1      40.469  28.367  26.973  1.00  0.00     0.182 C 
ATOM     14  O   UNL A   1      40.376  26.954  26.748  1.00  0.00    -0.374 OA
BRANCH  10  15
ATOM     15  C   UNL A   1      39.081  28.598  30.332  1.00  0.00     0.264 C 
ATOM     16  O   UNL A   1      38.613  27.887  31.225  1.00  0.00    -0.268 OA
BRANCH  15  17
ATOM     17  C   UNL A   1      38.787  30.029  30.246  1.00  0.00     0.093 A 
ATOM     18  C   UNL A   1      38.986  32.391  30.257  1.00  0.00    -0.034 A 
ATOM     19  C   UNL A   1      39.537  31.121  30.640  1.00  0.00     0.029 A 
ATOM     20  C   UNL A   1      37.838  32.207  29.502  1.00  0.00     0.005 A 
ATOM     21  S   UNL A   1      37.401  30.552  29.388  1.00  0.00    -0.135 S 
ATOM     22  C   UNL A   1      36.997  33.209  28.781  1.00  0.00     0.056 C 
BRANCH  18  23
ATOM     23  C   UNL A   1      39.660  33.700  30.572  1.00  0.00     0.033 C 
ATOM     24  C   UNL A   1      39.056  34.395  31.787  1.00  0.00     0.009 C 
ENDBRANCH  18  23
ENDBRANCH  15  17
ENDBRANCH  10  15
ENDBRANCH   8   9
ENDBRANCH   6   8
ENDBRANCH   5   6
ENDBRANCH   4   5
ENDBRANCH   3   4
ENDBRANCH   2   3
ENDBRANCH   1   2
BRANCH   1  25
ATOM     25  C   UNL A   1      44.481  20.295  24.927  1.00  0.00     0.188 C 
BRANCH  25  26
ATOM     26  O   UNL A   1      44.830  21.111  23.823  1.00  0.00    -0.376 OA
BRANCH  26  27
ATOM     27  C   UNL A   1      44.558  22.512  23.918  1.00  0.00     0.202 C 
BRANCH  27  28
ATOM     28  C   UNL A   1      45.627  23.443  24.531  1.00  0.00     0.261 C 
BRANCH  28  29
ATOM     29  O   UNL A   1      45.284  24.844  24.624  1.00  0.00    -0.460 OA
BRANCH  29  30
ATOM     30  C   UNL A   1      46.269  25.715  24.931  1.00  0.00     0.338 C 
ATOM     31  O   UNL A   1      47.327  25.856  24.341  1.00  0.00    -0.246 OA
BRANCH  30  32
ATOM     32  C   UNL A   1      45.770  26.687  25.941  1.00  0.00     0.060 A 
ATOM     33  C   UNL A   1      46.717  27.302  26.775  1.00  0.00     0.016 A 
ATOM     34  C   UNL A   1      44.424  27.051  26.038  1.00  0.00     0.016 A 
ATOM     35  C   UNL A   1      46.321  28.239  27.729  1.00  0.00     0.010 A 
ATOM     36  C   UNL A   1      44.023  27.981  27.009  1.00  0.00     0.010 A 
ATOM     37  C   UNL A   1      44.965  28.555  27.883  1.00  0.00    -0.014 A 
BRANCH  37  38
ATOM     38  C   UNL A   1      44.532  29.329  29.077  1.00  0.00     0.031 A 
ATOM     39  C   UNL A   1      44.385  30.822  28.949  1.00  0.00     0.074 A 
ATOM     40  C   UNL A   1      44.209  28.727  30.236  1.00  0.00     0.049 A 
ATOM     41  N   UNL A   1      44.001  31.704  29.838  1.00  0.00    -0.248 NA
ATOM     42  C   UNL A   1      44.714  31.399  27.636  1.00  0.00     0.031 C 
ATOM     43  C   UNL A   1      44.261  27.289  30.487  1.00  0.00     0.029 A 
ATOM     44  N   UNL A   1      43.766  29.260  31.424  1.00  0.00    -0.354 N 
ATOM     45  C   UNL A   1      44.043  32.933  29.193  1.00  0.00     0.074 A 
ATOM     46  C   UNL A   1      44.525  32.691  27.851  1.00  0.00     0.031 C 
ATOM     47  C   UNL A   1      43.869  27.053  31.752  1.00  0.00     0.029 A 
ATOM     48  C   UNL A   1      43.567  28.325  32.409  1.00  0.00     0.049 A 
ATOM     49  H   UNL A   1      43.607  30.223  31.555  1.00  0.00     0.167 HD
ATOM     50  C   UNL A   1      43.699  34.154  29.670  1.00  0.00     0.037 A 
ATOM     51  C   UNL A   1      43.200  28.479  33.698  1.00  0.00     0.037 A 
ATOM     52  C   UNL A   1      43.224  34.403  31.006  1.00  0.00     0.049 A 
ATOM     53  C   UNL A   1      42.903  29.860  34.231  1.00  0.00     0.074 A 
ATOM     54  C   UNL A   1      42.835  35.605  31.572  1.00  0.00     0.029 A 
ATOM     55  N   UNL A   1      43.085  33.436  31.989  1.00  0.00    -0.354 N 
ATOM     56  N   UNL A   1      42.911  31.013  33.604  1.00  0.00    -0.248 NA
ATOM     57  C   UNL A   1      42.538  29.961  35.652  1.00  0.00     0.031 C 
ATOM     58  C   UNL A   1      42.523  35.376  32.916  1.00  0.00     0.029 A 
ATOM     59  C   UNL A   1      42.649  34.020  33.168  1.00  0.00     0.049 A 
ATOM     60  H   UNL A   1      43.269  32.477  31.869  1.00  0.00     0.167 HD
ATOM     61  C   UNL A   1      42.527  31.964  34.543  1.00  0.00     0.074 A 
ATOM     62  C   UNL A   1      42.273  31.253  35.777  1.00  0.00     0.031 C 
ATOM     63  C   UNL A   1      42.394  33.306  34.394  1.00  0.00     0.037 A 
BRANCH  50  64
ATOM     64  C   UNL A   1      43.855  35.327  28.744  1.00  0.00     0.064 A 
ATOM     65  C   UNL A   1      42.765  35.869  28.046  1.00  0.00     0.173 A 
ATOM     66  C   UNL A   1      45.108  35.937  28.580  1.00  0.00     0.173 A 
ATOM     67  F   UNL A   1      41.549  35.314  28.155  1.00  0.00    -0.203 F 
ATOM     68  C   UNL A   1      42.930  36.962  27.198  1.00  0.00     0.198 A 
ATOM     69  C   UNL A   1      45.262  37.049  27.758  1.00  0.00     0.198 A 
ATOM     70  F   UNL A   1      46.183  35.461  29.226  1.00  0.00    -0.203 F 
ATOM     71  F   UNL A   1      41.886  37.429  26.501  1.00  0.00    -0.200 F 
ATOM     72  C   UNL A   1      44.176  37.555  27.061  1.00  0.00     0.200 A 
ATOM     73  F   UNL A   1      46.464  37.630  27.637  1.00  0.00    -0.200 F 
ATOM     74  F   UNL A   1      44.331  38.611  26.251  1.00  0.00    -0.200 F 
ENDBRANCH  50  64
BRANCH  51  75
ATOM     75  C   UNL A   1      43.102  27.294  34.595  1.00  0.00     0.064 A 
ATOM     76  C   UNL A   1      41.887  26.620  34.781  1.00  0.00     0.173 A 
ATOM     77  C   UNL A   1      44.216  26.838  35.317  1.00  0.00     0.173 A 
ATOM     78  F   UNL A   1      40.785  27.038  34.141  1.00  0.00    -0.203 F 
ATOM     79  C   UNL A   1      41.785  25.550  35.668  1.00  0.00     0.198 A 
ATOM     80  C   UNL A   1      44.120  25.748  36.178  1.00  0.00     0.198 A 
ATOM     81  F   UNL A   1      45.399  27.454  35.184  1.00  0.00    -0.203 F 
ATOM     82  F   UNL A   1      40.598  24.962  35.871  1.00  0.00    -0.200 F 
ATOM     83  C   UNL A   1      42.902  25.110  36.361  1.00  0.00     0.200 A 
ATOM     84  F   UNL A   1      45.205  25.322  36.840  1.00  0.00    -0.200 F 
ATOM     85  F   UNL A   1      42.803  24.082  37.215  1.00  0.00    -0.200 F 
ENDBRANCH  51  75
BRANCH  63  86
ATOM     86  C   UNL A   1      41.917  34.095  35.583  1.00  0.00     0.064 A 
ATOM     87  C   UNL A   1      42.812  34.716  36.469  1.00  0.00     0.173 A 
ATOM     88  C   UNL A   1      40.543  34.261  35.821  1.00  0.00     0.173 A 
ATOM     89  F   UNL A   1      44.136  34.581  36.297  1.00  0.00    -0.203 F 
ATOM     90  C   UNL A   1      42.350  35.442  37.565  1.00  0.00     0.198 A 
ATOM     91  C   UNL A   1      40.085  35.018  36.897  1.00  0.00     0.198 A 
ATOM     92  F   UNL A   1      39.642  33.701  35.001  1.00  0.00    -0.203 F 
ATOM     93  F   UNL A   1      43.224  35.977  38.428  1.00  0.00    -0.200 F 
ATOM     94  C   UNL A   1      40.987  35.598  37.773  1.00  0.00     0.200 A 
ATOM     95  F   UNL A   1      38.768  35.183  37.085  1.00  0.00    -0.200 F 
ATOM     96  F   UNL A   1      40.545  36.302  38.825  1.00  0.00    -0.200 F 
ENDBRANCH  63  86
ENDBRANCH  37  38
ENDBRANCH  30  32
ENDBRANCH  29  30
ENDBRANCH  28  29
ENDBRANCH  27  28
ENDBRANCH  26  27
ENDBRANCH  25  26
ENDBRANCH   1  25
TORSDOF 21
ENDMDL
MODEL 2
REMARK VINA RESULT:      -7.7      3.111      6.837
REMARK SMILES CCc1cc(C(=O)N2CCO[C@@H](CC(=O)OCCOCCOCCOC(=O)c3ccc(-c4c5nc(c(-c6c(F)c(F)c(F)c(F)c6F)c6ccc([nH]6)c(-c6c(F)c(F)c(F)c(F)c6F)c6nc(c(-c7c(F)c(F)c(F)c(F)c7F)c7ccc4[nH]7)C=C6)C=C5)cc3)C2)sc1C
REMARK SMILES IDX 20 1 19 2 18 3 17 4 16 5 14 6 15 7 13 8 12 9 8 10 9 11 91 12
REMARK SMILES IDX 10 13 11 14 6 15 7 16 5 17 3 18 4 19 93 20 92 21 94 22 2 23
REMARK SMILES IDX 1 24 21 25 22 26 23 27 24 28 25 29 26 30 27 31 28 32 29 33
REMARK SMILES IDX 90 34 30 35 89 36 31 37 32 38 33 39 83 40 34 41 88 42 82 43
REMARK SMILES IDX 84 44 35 45 87 46 81 47 80 48 36 50 68 51 48 52 67 53 49 54
REMARK SMILES IDX 52 55 66 56 85 57 50 58 51 59 65 61 86 62 53 63 37 64 38 65
REMARK SMILES IDX 46 66 39 67 40 68 44 69 47 70 41 71 42 72 45 73 43 74 69 75
REMARK SMILES IDX 70 76 78 77 71 78 72 79 76 80 79 81 73 82 74 83 77 84 75 85
REMARK SMILES IDX 54 86 55 87 63 88 56 89 57 90 61 91 64 92 58 93 59 94 62 95
REMARK SMILES IDX 60 96
REMARK H PARENT 84 49 52 60
REMARK Flexibility Score: inf
ROOT
ATOM      1  C   UNL A   1      44.070  23.599  26.638  1.00  0.00     0.188 C 
ENDROOT
BRANCH   1   2
ATOM      2  O   UNL A   1      44.397  23.905  27.989  1.00  0.00    -0.376 OA
BRANCH   2   3
ATOM      3  C   UNL A   1      43.924  22.994  28.984  1.00  0.00     0.202 C 
BRANCH   3   4
ATOM      4  C   UNL A   1      44.155  23.412  30.445  1.00  0.00     0.261 C 
BRANCH   4   5
ATOM      5  O   UNL A   1      44.138  24.841  30.663  1.00  0.00    -0.463 OA
BRANCH   5   6
ATOM      6  C   UNL A   1      44.877  25.291  31.705  1.00  0.00     0.308 C 
ATOM      7  O   UNL A   1      46.101  25.374  31.705  1.00  0.00    -0.252 OA
BRANCH   6   8
ATOM      8  C   UNL A   1      44.077  25.771  32.890  1.00  0.00     0.156 C 
BRANCH   8   9
ATOM      9  C   UNL A   1      44.081  27.236  33.318  1.00  0.00     0.148 C 
ATOM     10  N   UNL A   1      42.854  29.189  34.147  1.00  0.00    -0.333 N 
ATOM     11  C   UNL A   1      43.665  29.225  35.362  1.00  0.00     0.148 C 
ATOM     12  C   UNL A   1      42.688  27.843  33.584  1.00  0.00     0.152 C 
ATOM     13  C   UNL A   1      45.019  28.561  35.106  1.00  0.00     0.182 C 
ATOM     14  O   UNL A   1      44.865  27.249  34.549  1.00  0.00    -0.374 OA
BRANCH  10  15
ATOM     15  C   UNL A   1      42.200  30.273  33.561  1.00  0.00     0.264 C 
ATOM     16  O   UNL A   1      42.483  30.594  32.405  1.00  0.00    -0.268 OA
BRANCH  15  17
ATOM     17  C   UNL A   1      41.281  31.061  34.383  1.00  0.00     0.093 A 
ATOM     18  C   UNL A   1      39.940  32.818  35.239  1.00  0.00    -0.034 A 
ATOM     19  C   UNL A   1      41.028  32.419  34.389  1.00  0.00     0.029 A 
ATOM     20  C   UNL A   1      39.345  31.704  35.810  1.00  0.00     0.005 A 
ATOM     21  S   UNL A   1      40.174  30.256  35.413  1.00  0.00    -0.135 S 
ATOM     22  C   UNL A   1      38.115  31.603  36.651  1.00  0.00     0.056 C 
BRANCH  18  23
ATOM     23  C   UNL A   1      39.492  34.250  35.371  1.00  0.00     0.033 C 
ATOM     24  C   UNL A   1      38.381  34.612  34.392  1.00  0.00     0.009 C 
ENDBRANCH  18  23
ENDBRANCH  15  17
ENDBRANCH  10  15
ENDBRANCH   8   9
ENDBRANCH   6   8
ENDBRANCH   5   6
ENDBRANCH   4   5
ENDBRANCH   3   4
ENDBRANCH   2   3
ENDBRANCH   1   2
BRANCH   1  25
ATOM     25  C   UNL A   1      43.799  22.124  26.346  1.00  0.00     0.188 C 
BRANCH  25  26
ATOM     26  O   UNL A   1      42.811  21.884  25.360  1.00  0.00    -0.376 OA
BRANCH  26  27
ATOM     27  C   UNL A   1      41.562  21.334  25.789  1.00  0.00     0.202 C 
BRANCH  27  28
ATOM     28  C   UNL A   1      41.039  21.676  27.201  1.00  0.00     0.261 C 
BRANCH  28  29
ATOM     29  O   UNL A   1      39.626  21.961  27.313  1.00  0.00    -0.460 OA
BRANCH  29  30
ATOM     30  C   UNL A   1      39.117  22.941  26.536  1.00  0.00     0.338 C 
ATOM     31  O   UNL A   1      38.256  22.820  25.681  1.00  0.00    -0.246 OA
BRANCH  30  32
ATOM     32  C   UNL A   1      39.561  24.262  27.056  1.00  0.00     0.060 A 
ATOM     33  C   UNL A   1      40.221  25.123  26.165  1.00  0.00     0.016 A 
ATOM     34  C   UNL A   1      39.288  24.692  28.357  1.00  0.00     0.016 A 
ATOM     35  C   UNL A   1      40.645  26.385  26.580  1.00  0.00     0.010 A 
ATOM     36  C   UNL A   1      39.728  25.955  28.780  1.00  0.00     0.010 A 
ATOM     37  C   UNL A   1      40.440  26.795  27.904  1.00  0.00    -0.014 A 
BRANCH  37  38
ATOM     38  C   UNL A   1      41.140  28.009  28.404  1.00  0.00     0.031 A 
ATOM     39  C   UNL A   1      40.309  29.151  28.928  1.00  0.00     0.074 A 
ATOM     40  C   UNL A   1      42.482  28.084  28.459  1.00  0.00     0.049 A 
ATOM     41  N   UNL A   1      40.689  30.297  29.436  1.00  0.00    -0.248 NA
ATOM     42  C   UNL A   1      38.850  28.972  28.875  1.00  0.00     0.031 C 
ATOM     43  C   UNL A   1      43.407  27.039  28.028  1.00  0.00     0.029 A 
ATOM     44  N   UNL A   1      43.300  29.094  28.909  1.00  0.00    -0.354 N 
ATOM     45  C   UNL A   1      39.520  30.972  29.760  1.00  0.00     0.074 A 
ATOM     46  C   UNL A   1      38.417  30.126  29.359  1.00  0.00     0.031 C 
ATOM     47  C   UNL A   1      44.668  27.464  28.230  1.00  0.00     0.029 A 
ATOM     48  C   UNL A   1      44.639  28.820  28.778  1.00  0.00     0.049 A 
ATOM     49  H   UNL A   1      42.957  29.935  29.289  1.00  0.00     0.167 HD
ATOM     50  C   UNL A   1      39.374  32.182  30.351  1.00  0.00     0.037 A 
ATOM     51  C   UNL A   1      45.717  29.583  29.051  1.00  0.00     0.037 A 
ATOM     52  C   UNL A   1      40.467  33.032  30.748  1.00  0.00     0.049 A 
ATOM     53  C   UNL A   1      45.528  30.964  29.631  1.00  0.00     0.074 A 
ATOM     54  C   UNL A   1      40.415  34.268  31.369  1.00  0.00     0.029 A 
ATOM     55  N   UNL A   1      41.807  32.740  30.550  1.00  0.00    -0.354 N 
ATOM     56  N   UNL A   1      44.420  31.581  29.967  1.00  0.00    -0.248 NA
ATOM     57  C   UNL A   1      46.744  31.755  29.876  1.00  0.00     0.031 C 
ATOM     58  C   UNL A   1      41.721  34.753  31.489  1.00  0.00     0.029 A 
ATOM     59  C   UNL A   1      42.591  33.789  31.008  1.00  0.00     0.049 A 
ATOM     60  H   UNL A   1      42.152  31.912  30.146  1.00  0.00     0.167 HD
ATOM     61  C   UNL A   1      44.806  32.811  30.488  1.00  0.00     0.074 A 
ATOM     62  C   UNL A   1      46.252  32.848  30.442  1.00  0.00     0.031 C 
ATOM     63  C   UNL A   1      44.032  33.818  30.963  1.00  0.00     0.037 A 
BRANCH  50  64
ATOM     64  C   UNL A   1      37.974  32.678  30.577  1.00  0.00     0.064 A 
ATOM     65  C   UNL A   1      37.292  33.435  29.613  1.00  0.00     0.173 A 
ATOM     66  C   UNL A   1      37.295  32.361  31.764  1.00  0.00     0.173 A 
ATOM     67  F   UNL A   1      37.901  33.779  28.468  1.00  0.00    -0.203 F 
ATOM     68  C   UNL A   1      35.992  33.879  29.840  1.00  0.00     0.198 A 
ATOM     69  C   UNL A   1      35.984  32.779  31.973  1.00  0.00     0.198 A 
ATOM     70  F   UNL A   1      37.900  31.638  32.718  1.00  0.00    -0.203 F 
ATOM     71  F   UNL A   1      35.379  34.645  28.928  1.00  0.00    -0.200 F 
ATOM     72  C   UNL A   1      35.336  33.544  31.016  1.00  0.00     0.200 A 
ATOM     73  F   UNL A   1      35.347  32.442  33.103  1.00  0.00    -0.200 F 
ATOM     74  F   UNL A   1      34.083  33.966  31.229  1.00  0.00    -0.200 F 
ENDBRANCH  50  64
BRANCH  51  75
ATOM     75  C   UNL A   1      47.087  29.071  28.768  1.00  0.00     0.064 A 
ATOM     76  C   UNL A   1      47.698  29.275  27.522  1.00  0.00     0.173 A 
ATOM     77  C   UNL A   1      47.795  28.329  29.725  1.00  0.00     0.173 A 
ATOM     78  F   UNL A   1      47.048  29.949  26.561  1.00  0.00    -0.203 F 
ATOM     79  C   UNL A   1      48.954  28.742  27.239  1.00  0.00     0.198 A 
ATOM     80  C   UNL A   1      49.065  27.824  29.453  1.00  0.00     0.198 A 
ATOM     81  F   UNL A   1      47.252  28.096  30.929  1.00  0.00    -0.203 F 
ATOM     82  F   UNL A   1      49.488  28.903  26.021  1.00  0.00    -0.200 F 
ATOM     83  C   UNL A   1      49.639  28.022  28.206  1.00  0.00     0.200 A 
ATOM     84  F   UNL A   1      49.725  27.136  30.393  1.00  0.00    -0.200 F 
ATOM     85  F   UNL A   1      50.846  27.508  27.933  1.00  0.00    -0.200 F 
ENDBRANCH  51  75
BRANCH  63  86
ATOM     86  C   UNL A   1      44.728  35.035  31.509  1.00  0.00     0.064 A 
ATOM     87  C   UNL A   1      44.918  36.191  30.736  1.00  0.00     0.173 A 
ATOM     88  C   UNL A   1      45.183  35.057  32.837  1.00  0.00     0.173 A 
ATOM     89  F   UNL A   1      44.514  36.222  29.457  1.00  0.00    -0.203 F 
ATOM     90  C   UNL A   1      45.567  37.307  31.260  1.00  0.00     0.198 A 
ATOM     91  C   UNL A   1      45.799  36.187  33.369  1.00  0.00     0.198 A 
ATOM     92  F   UNL A   1      45.018  33.985  33.626  1.00  0.00    -0.203 F 
ATOM     93  F   UNL A   1      45.788  38.377  30.484  1.00  0.00    -0.200 F 
ATOM     94  C   UNL A   1      46.000  37.306  32.578  1.00  0.00     0.200 A 
ATOM     95  F   UNL A   1      46.200  36.191  34.649  1.00  0.00    -0.200 F 
ATOM     96  F   UNL A   1      46.619  38.383  33.082  1.00  0.00    -0.200 F 
ENDBRANCH  63  86
ENDBRANCH  37  38
ENDBRANCH  30  32
ENDBRANCH  29  30
ENDBRANCH  28  29
ENDBRANCH  27  28
ENDBRANCH  26  27
ENDBRANCH  25  26
ENDBRANCH   1  25
TORSDOF 21
ENDMDL
MODEL 3
REMARK VINA RESULT:      -7.5      4.311      6.868
REMARK SMILES CCc1cc(C(=O)N2CCO[C@@H](CC(=O)OCCOCCOCCOC(=O)c3ccc(-c4c5nc(c(-c6c(F)c(F)c(F)c(F)c6F)c6ccc([nH]6)c(-c6c(F)c(F)c(F)c(F)c6F)c6nc(c(-c7c(F)c(F)c(F)c(F)c7F)c7ccc4[nH]7)C=C6)C=C5)cc3)C2)sc1C
REMARK SMILES IDX 20 1 19 2 18 3 17 4 16 5 14 6 15 7 13 8 12 9 8 10 9 11 91 12
REMARK SMILES IDX 10 13 11 14 6 15 7 16 5 17 3 18 4 19 93 20 92 21 94 22 2 23
REMARK SMILES IDX 1 24 21 25 22 26 23 27 24 28 25 29 26 30 27 31 28 32 29 33
REMARK SMILES IDX 90 34 30 35 89 36 31 37 32 38 33 39 83 40 34 41 88 42 82 43
REMARK SMILES IDX 84 44 35 45 87 46 81 47 80 48 36 50 68 51 48 52 67 53 49 54
REMARK SMILES IDX 52 55 66 56 85 57 50 58 51 59 65 61 86 62 53 63 37 64 38 65
REMARK SMILES IDX 46 66 39 67 40 68 44 69 47 70 41 71 42 72 45 73 43 74 69 75
REMARK SMILES IDX 70 76 78 77 71 78 72 79 76 80 79 81 73 82 74 83 77 84 75 85
REMARK SMILES IDX 54 86 55 87 63 88 56 89 57 90 61 91 64 92 58 93 59 94 62 95
REMARK SMILES IDX 60 96
REMARK H PARENT 84 49 52 60
REMARK Flexibility Score: inf
ROOT
ATOM      1  C   UNL A   1      43.624  21.199  25.810  1.00  0.00     0.188 C 
ENDROOT
BRANCH   1   2
ATOM      2  O   UNL A   1      42.271  20.854  25.531  1.00  0.00    -0.376 OA
BRANCH   2   3
ATOM      3  C   UNL A   1      41.507  20.328  26.619  1.00  0.00     0.202 C 
BRANCH   3   4
ATOM      4  C   UNL A   1      40.223  21.093  26.974  1.00  0.00     0.261 C 
BRANCH   4   5
ATOM      5  O   UNL A   1      40.089  22.369  26.306  1.00  0.00    -0.463 OA
BRANCH   5   6
ATOM      6  C   UNL A   1      38.835  22.877  26.243  1.00  0.00     0.308 C 
ATOM      7  O   UNL A   1      38.515  23.992  26.643  1.00  0.00    -0.252 OA
BRANCH   6   8
ATOM      8  C   UNL A   1      37.824  21.989  25.561  1.00  0.00     0.156 C 
BRANCH   8   9
ATOM      9  C   UNL A   1      36.378  22.432  25.358  1.00  0.00     0.148 C 
ATOM     10  N   UNL A   1      34.416  22.604  23.898  1.00  0.00    -0.333 N 
ATOM     11  C   UNL A   1      33.632  21.760  24.796  1.00  0.00     0.148 C 
ATOM     12  C   UNL A   1      35.855  22.310  23.912  1.00  0.00     0.152 C 
ATOM     13  C   UNL A   1      34.200  21.837  26.215  1.00  0.00     0.182 C 
ATOM     14  O   UNL A   1      35.606  21.558  26.235  1.00  0.00    -0.374 OA
BRANCH  10  15
ATOM     15  C   UNL A   1      33.912  23.565  23.022  1.00  0.00     0.264 C 
ATOM     16  O   UNL A   1      33.739  23.268  21.837  1.00  0.00    -0.268 OA
BRANCH  15  17
ATOM     17  C   UNL A   1      33.714  24.928  23.517  1.00  0.00     0.093 A 
ATOM     18  C   UNL A   1      33.638  26.851  24.900  1.00  0.00    -0.034 A 
ATOM     19  C   UNL A   1      33.719  25.419  24.808  1.00  0.00     0.029 A 
ATOM     20  C   UNL A   1      33.646  27.413  23.634  1.00  0.00     0.005 A 
ATOM     21  S   UNL A   1      33.624  26.222  22.400  1.00  0.00    -0.135 S 
ATOM     22  C   UNL A   1      33.708  28.849  23.226  1.00  0.00     0.056 C 
BRANCH  18  23
ATOM     23  C   UNL A   1      33.650  27.584  26.216  1.00  0.00     0.033 C 
ATOM     24  C   UNL A   1      32.342  27.435  26.984  1.00  0.00     0.009 C 
ENDBRANCH  18  23
ENDBRANCH  15  17
ENDBRANCH  10  15
ENDBRANCH   8   9
ENDBRANCH   6   8
ENDBRANCH   5   6
ENDBRANCH   4   5
ENDBRANCH   3   4
ENDBRANCH   2   3
ENDBRANCH   1   2
BRANCH   1  25
ATOM     25  C   UNL A   1      44.320  22.043  24.744  1.00  0.00     0.188 C 
BRANCH  25  26
ATOM     26  O   UNL A   1      43.540  23.105  24.223  1.00  0.00    -0.376 OA
BRANCH  26  27
ATOM     27  C   UNL A   1      43.025  24.068  25.147  1.00  0.00     0.202 C 
BRANCH  27  28
ATOM     28  C   UNL A   1      43.340  25.563  24.924  1.00  0.00     0.261 C 
BRANCH  28  29
ATOM     29  O   UNL A   1      42.215  26.471  24.966  1.00  0.00    -0.460 OA
BRANCH  29  30
ATOM     30  C   UNL A   1      42.411  27.692  25.510  1.00  0.00     0.338 C 
ATOM     31  O   UNL A   1      42.037  28.760  25.055  1.00  0.00    -0.246 OA
BRANCH  30  32
ATOM     32  C   UNL A   1      42.916  27.536  26.900  1.00  0.00     0.060 A 
ATOM     33  C   UNL A   1      42.007  27.099  27.876  1.00  0.00     0.016 A 
ATOM     34  C   UNL A   1      44.254  27.741  27.245  1.00  0.00     0.016 A 
ATOM     35  C   UNL A   1      42.418  26.911  29.196  1.00  0.00     0.010 A 
ATOM     36  C   UNL A   1      44.665  27.568  28.575  1.00  0.00     0.010 A 
ATOM     37  C   UNL A   1      43.740  27.185  29.565  1.00  0.00    -0.014 A 
BRANCH  37  38
ATOM     38  C   UNL A   1      44.091  27.254  31.010  1.00  0.00     0.031 A 
ATOM     39  C   UNL A   1      43.940  28.573  31.722  1.00  0.00     0.074 A 
ATOM     40  C   UNL A   1      44.472  26.165  31.702  1.00  0.00     0.049 A 
ATOM     41  N   UNL A   1      44.158  28.874  32.977  1.00  0.00    -0.248 NA
ATOM     42  C   UNL A   1      43.474  29.704  30.905  1.00  0.00     0.031 C 
ATOM     43  C   UNL A   1      44.618  24.820  31.152  1.00  0.00     0.029 A 
ATOM     44  N   UNL A   1      44.804  26.024  33.029  1.00  0.00    -0.354 N 
ATOM     45  C   UNL A   1      43.859  30.224  33.099  1.00  0.00     0.074 A 
ATOM     46  C   UNL A   1      43.478  30.694  31.784  1.00  0.00     0.031 C 
ATOM     47  C   UNL A   1      45.015  23.989  32.133  1.00  0.00     0.029 A 
ATOM     48  C   UNL A   1      45.178  24.749  33.372  1.00  0.00     0.049 A 
ATOM     49  H   UNL A   1      44.776  26.769  33.672  1.00  0.00     0.167 HD
ATOM     50  C   UNL A   1      43.884  31.004  34.207  1.00  0.00     0.037 A 
ATOM     51  C   UNL A   1      45.620  24.255  34.547  1.00  0.00     0.037 A 
ATOM     52  C   UNL A   1      44.266  30.545  35.517  1.00  0.00     0.049 A 
ATOM     53  C   UNL A   1      45.720  25.163  35.749  1.00  0.00     0.074 A 
ATOM     54  C   UNL A   1      44.306  31.259  36.702  1.00  0.00     0.029 A 
ATOM     55  N   UNL A   1      44.688  29.258  35.812  1.00  0.00    -0.354 N 
ATOM     56  N   UNL A   1      45.402  26.430  35.864  1.00  0.00    -0.248 NA
ATOM     57  C   UNL A   1      46.238  24.568  36.991  1.00  0.00     0.031 C 
ATOM     58  C   UNL A   1      44.812  30.422  37.702  1.00  0.00     0.029 A 
ATOM     59  C   UNL A   1      45.022  29.167  37.155  1.00  0.00     0.049 A 
ATOM     60  H   UNL A   1      44.743  28.519  35.166  1.00  0.00     0.167 HD
ATOM     61  C   UNL A   1      45.651  26.772  37.188  1.00  0.00     0.074 A 
ATOM     62  C   UNL A   1      46.129  25.575  37.845  1.00  0.00     0.031 C 
ATOM     63  C   UNL A   1      45.494  27.970  37.805  1.00  0.00     0.037 A 
BRANCH  50  64
ATOM     64  C   UNL A   1      43.515  32.451  34.044  1.00  0.00     0.064 A 
ATOM     65  C   UNL A   1      44.467  33.424  33.703  1.00  0.00     0.173 A 
ATOM     66  C   UNL A   1      42.183  32.863  34.199  1.00  0.00     0.173 A 
ATOM     67  F   UNL A   1      45.757  33.086  33.559  1.00  0.00    -0.203 F 
ATOM     68  C   UNL A   1      44.103  34.759  33.550  1.00  0.00     0.198 A 
ATOM     69  C   UNL A   1      41.817  34.193  34.012  1.00  0.00     0.198 A 
ATOM     70  F   UNL A   1      41.232  31.974  34.522  1.00  0.00    -0.203 F 
ATOM     71  F   UNL A   1      45.038  35.679  33.277  1.00  0.00    -0.200 F 
ATOM     72  C   UNL A   1      42.778  35.141  33.697  1.00  0.00     0.200 A 
ATOM     73  F   UNL A   1      40.534  34.558  34.140  1.00  0.00    -0.200 F 
ATOM     74  F   UNL A   1      42.429  36.425  33.542  1.00  0.00    -0.200 F 
ENDBRANCH  50  64
BRANCH  51  75
ATOM     75  C   UNL A   1      46.019  22.824  34.654  1.00  0.00     0.064 A 
ATOM     76  C   UNL A   1      47.366  22.437  34.589  1.00  0.00     0.173 A 
ATOM     77  C   UNL A   1      45.057  21.810  34.779  1.00  0.00     0.173 A 
ATOM     78  F   UNL A   1      48.322  23.365  34.435  1.00  0.00    -0.203 F 
ATOM     79  C   UNL A   1      47.732  21.093  34.627  1.00  0.00     0.198 A 
ATOM     80  C   UNL A   1      45.426  20.469  34.850  1.00  0.00     0.198 A 
ATOM     81  F   UNL A   1      43.755  22.125  34.835  1.00  0.00    -0.203 F 
ATOM     82  F   UNL A   1      49.021  20.749  34.504  1.00  0.00    -0.200 F 
ATOM     83  C   UNL A   1      46.763  20.111  34.764  1.00  0.00     0.200 A 
ATOM     84  F   UNL A   1      44.487  19.524  34.990  1.00  0.00    -0.200 F 
ATOM     85  F   UNL A   1      47.116  18.818  34.798  1.00  0.00    -0.200 F 
ENDBRANCH  51  75
BRANCH  63  86
ATOM     86  C   UNL A   1      45.806  28.043  39.275  1.00  0.00     0.064 A 
ATOM     87  C   UNL A   1      44.976  27.452  40.240  1.00  0.00     0.173 A 
ATOM     88  C   UNL A   1      46.973  28.685  39.723  1.00  0.00     0.173 A 
ATOM     89  F   UNL A   1      43.843  26.836  39.870  1.00  0.00    -0.203 F 
ATOM     90  C   UNL A   1      45.282  27.532  41.597  1.00  0.00     0.198 A 
ATOM     91  C   UNL A   1      47.294  28.731  41.077  1.00  0.00     0.198 A 
ATOM     92  F   UNL A   1      47.810  29.256  38.845  1.00  0.00    -0.203 F 
ATOM     93  F   UNL A   1      44.443  27.010  42.503  1.00  0.00    -0.200 F 
ATOM     94  C   UNL A   1      46.444  28.164  42.013  1.00  0.00     0.200 A 
ATOM     95  F   UNL A   1      48.428  29.326  41.475  1.00  0.00    -0.200 F 
ATOM     96  F   UNL A   1      46.740  28.234  43.319  1.00  0.00    -0.200 F 
ENDBRANCH  63  86
ENDBRANCH  37  38
ENDBRANCH  30  32
ENDBRANCH  29  30
ENDBRANCH  28  29
ENDBRANCH  27  28
ENDBRANCH  26  27
ENDBRANCH  25  26
ENDBRANCH   1  25
TORSDOF 21
ENDMDL
