MODEL 1
REMARK VINA RESULT:      -9.1      0.000      0.000
REMARK SMILES C#CC[N@H+](CC(=O)OCCOCCOCCOC(=O)c1ccc(-c2c3nc(c(-c4c(F)c(F)c(F)c(F)c4F)c4ccc([nH]4)c(-c4c(F)c(F)c(F)c(F)c4F)c4nc(c(-c5c(F)c(F)c(F)c(F)c5F)c5ccc2[nH]5)C=C4)C=C3)cc1)[C@H](C)C(=O)NCCC
REMARK SMILES IDX 11 1 10 2 9 3 8 4 6 5 7 6 5 7 4 8 3 10 2 11 1 12 83 13 84 14
REMARK SMILES IDX 85 15 86 16 87 17 88 19 89 20 90 21 12 22 13 23 14 24 15 25
REMARK SMILES IDX 16 26 17 27 18 28 19 29 20 30 21 31 82 32 22 33 81 34 23 35
REMARK SMILES IDX 24 36 25 37 75 38 26 39 80 40 74 41 76 42 27 43 79 44 73 45
REMARK SMILES IDX 72 46 28 48 60 49 40 50 59 51 41 52 44 53 58 54 77 55 42 56
REMARK SMILES IDX 43 57 57 59 78 60 45 61 29 62 30 63 38 64 31 65 32 66 36 67
REMARK SMILES IDX 39 68 33 69 34 70 37 71 35 72 61 73 62 74 70 75 63 76 64 77
REMARK SMILES IDX 68 78 71 79 65 80 66 81 69 82 67 83 46 84 47 85 55 86 48 87
REMARK SMILES IDX 49 88 53 89 56 90 50 91 51 92 54 93 52 94
REMARK H PARENT 4 9 87 18 76 47 44 58
REMARK Flexibility Score: inf
ROOT
ATOM      1  O   UNL A   1      40.101  22.722  26.225  1.00  0.00    -0.376 OA
ENDROOT
BRANCH   1   2
ATOM      2  C   UNL A   1      38.812  23.284  26.464  1.00  0.00     0.202 C 
BRANCH   2   3
ATOM      3  C   UNL A   1      37.602  22.675  25.736  1.00  0.00     0.261 C 
BRANCH   3   4
ATOM      4  O   UNL A   1      36.846  23.618  24.951  1.00  0.00    -0.459 OA
BRANCH   4   5
ATOM      5  C   UNL A   1      35.572  23.873  25.318  1.00  0.00     0.361 C 
ATOM      6  O   UNL A   1      35.068  23.435  26.351  1.00  0.00    -0.245 OA
BRANCH   5   7
ATOM      7  C   UNL A   1      34.735  24.734  24.364  1.00  0.00     0.387 C 
BRANCH   7   8
ATOM      8  N   UNL A   1      33.479  25.442  24.770  1.00  0.00    -0.306 N 
ATOM      9  H   UNL A   1      33.008  24.868  25.468  1.00  0.00     0.350 HD
BRANCH   8  10
ATOM     10  C   UNL A   1      33.662  26.655  25.564  1.00  0.00     0.355 C 
BRANCH  10  11
ATOM     11  C   UNL A   1      32.406  27.119  26.193  1.00  0.00    -0.047 C 
ATOM     12  C   UNL A   1      31.366  27.487  26.679  1.00  0.00     0.010 C 
ENDBRANCH  10  11
ENDBRANCH   8  10
BRANCH   8  13
ATOM     13  C   UNL A   1      32.539  25.532  23.584  1.00  0.00     0.272 C 
ATOM     14  C   UNL A   1      31.748  24.275  23.181  1.00  0.00     0.086 C 
BRANCH  13  15
ATOM     15  C   UNL A   1      33.034  26.267  22.311  1.00  0.00     0.278 C 
ATOM     16  O   UNL A   1      33.650  25.655  21.431  1.00  0.00    -0.268 OA
ATOM     17  N   UNL A   1      32.889  27.624  22.153  1.00  0.00    -0.351 N 
ATOM     18  H   UNL A   1      33.477  28.039  21.481  1.00  0.00     0.163 HD
BRANCH  17  19
ATOM     19  C   UNL A   1      31.988  28.525  22.841  1.00  0.00     0.116 C 
BRANCH  19  20
ATOM     20  C   UNL A   1      30.516  28.174  22.745  1.00  0.00     0.018 C 
ATOM     21  C   UNL A   1      29.651  29.405  22.523  1.00  0.00     0.006 C 
ENDBRANCH  19  20
ENDBRANCH  17  19
ENDBRANCH  13  15
ENDBRANCH   8  13
ENDBRANCH   7   8
ENDBRANCH   5   7
ENDBRANCH   4   5
ENDBRANCH   3   4
ENDBRANCH   2   3
ENDBRANCH   1   2
BRANCH   1  22
ATOM     22  C   UNL A   1      40.663  21.853  27.203  1.00  0.00     0.188 C 
BRANCH  22  23
ATOM     23  C   UNL A   1      40.820  20.362  26.879  1.00  0.00     0.188 C 
BRANCH  23  24
ATOM     24  O   UNL A   1      42.156  19.946  26.711  1.00  0.00    -0.376 OA
BRANCH  24  25
ATOM     25  C   UNL A   1      42.402  18.586  26.406  1.00  0.00     0.202 C 
BRANCH  25  26
ATOM     26  C   UNL A   1      43.685  18.242  25.626  1.00  0.00     0.261 C 
BRANCH  26  27
ATOM     27  O   UNL A   1      43.917  18.966  24.404  1.00  0.00    -0.460 OA
BRANCH  27  28
ATOM     28  C   UNL A   1      45.151  19.499  24.213  1.00  0.00     0.338 C 
ATOM     29  O   UNL A   1      46.083  18.993  23.616  1.00  0.00    -0.246 OA
BRANCH  28  30
ATOM     30  C   UNL A   1      45.083  20.920  24.647  1.00  0.00     0.060 A 
ATOM     31  C   UNL A   1      44.611  21.899  23.755  1.00  0.00     0.016 A 
ATOM     32  C   UNL A   1      45.428  21.273  25.952  1.00  0.00     0.016 A 
ATOM     33  C   UNL A   1      44.487  23.232  24.170  1.00  0.00     0.010 A 
ATOM     34  C   UNL A   1      45.331  22.609  26.353  1.00  0.00     0.010 A 
ATOM     35  C   UNL A   1      44.878  23.601  25.462  1.00  0.00    -0.014 A 
BRANCH  35  36
ATOM     36  C   UNL A   1      44.992  25.030  25.858  1.00  0.00     0.031 A 
ATOM     37  C   UNL A   1      46.347  25.678  25.802  1.00  0.00     0.074 A 
ATOM     38  C   UNL A   1      43.935  25.729  26.309  1.00  0.00     0.049 A 
ATOM     39  N   UNL A   1      46.737  26.845  26.251  1.00  0.00    -0.248 NA
ATOM     40  C   UNL A   1      47.414  24.892  25.164  1.00  0.00     0.031 C 
ATOM     41  C   UNL A   1      42.561  25.241  26.373  1.00  0.00     0.029 A 
ATOM     42  N   UNL A   1      43.865  27.002  26.828  1.00  0.00    -0.354 N 
ATOM     43  C   UNL A   1      48.094  26.922  25.968  1.00  0.00     0.074 A 
ATOM     44  C   UNL A   1      48.467  25.676  25.333  1.00  0.00     0.031 C 
ATOM     45  C   UNL A   1      41.786  26.191  26.926  1.00  0.00     0.029 A 
ATOM     46  C   UNL A   1      42.619  27.336  27.300  1.00  0.00     0.049 A 
ATOM     47  H   UNL A   1      44.636  27.614  26.859  1.00  0.00     0.167 HD
ATOM     48  C   UNL A   1      48.951  27.941  26.213  1.00  0.00     0.037 A 
ATOM     49  C   UNL A   1      42.208  28.421  27.989  1.00  0.00     0.037 A 
ATOM     50  C   UNL A   1      48.577  29.180  26.845  1.00  0.00     0.049 A 
ATOM     51  C   UNL A   1      43.201  29.506  28.332  1.00  0.00     0.074 A 
ATOM     52  C   UNL A   1      49.367  30.284  27.109  1.00  0.00     0.029 A 
ATOM     53  N   UNL A   1      47.309  29.471  27.325  1.00  0.00    -0.354 N 
ATOM     54  N   UNL A   1      44.476  29.590  28.036  1.00  0.00    -0.248 NA
ATOM     55  C   UNL A   1      42.697  30.650  29.110  1.00  0.00     0.031 C 
ATOM     56  C   UNL A   1      48.599  31.213  27.815  1.00  0.00     0.029 A 
ATOM     57  C   UNL A   1      47.307  30.723  27.921  1.00  0.00     0.049 A 
ATOM     58  H   UNL A   1      46.527  28.878  27.253  1.00  0.00     0.167 HD
ATOM     59  C   UNL A   1      44.915  30.801  28.559  1.00  0.00     0.074 A 
ATOM     60  C   UNL A   1      43.768  31.428  29.178  1.00  0.00     0.031 C 
ATOM     61  C   UNL A   1      46.157  31.345  28.527  1.00  0.00     0.037 A 
BRANCH  48  62
ATOM     62  C   UNL A   1      50.391  27.749  25.830  1.00  0.00     0.064 A 
ATOM     63  C   UNL A   1      51.363  27.356  26.762  1.00  0.00     0.173 A 
ATOM     64  C   UNL A   1      50.795  27.921  24.496  1.00  0.00     0.173 A 
ATOM     65  F   UNL A   1      51.033  27.188  28.051  1.00  0.00    -0.203 F 
ATOM     66  C   UNL A   1      52.690  27.171  26.379  1.00  0.00     0.198 A 
ATOM     67  C   UNL A   1      52.113  27.699  24.110  1.00  0.00     0.198 A 
ATOM     68  F   UNL A   1      49.905  28.289  23.561  1.00  0.00    -0.203 F 
ATOM     69  F   UNL A   1      53.610  26.846  27.297  1.00  0.00    -0.200 F 
ATOM     70  C   UNL A   1      53.062  27.333  25.053  1.00  0.00     0.200 A 
ATOM     71  F   UNL A   1      52.466  27.836  22.824  1.00  0.00    -0.200 F 
ATOM     72  F   UNL A   1      54.336  27.141  24.685  1.00  0.00    -0.200 F 
ENDBRANCH  48  62
BRANCH  49  73
ATOM     73  C   UNL A   1      40.791  28.530  28.437  1.00  0.00     0.064 A 
ATOM     74  C   UNL A   1      39.802  29.053  27.591  1.00  0.00     0.173 A 
ATOM     75  C   UNL A   1      40.403  28.155  29.732  1.00  0.00     0.173 A 
ATOM     76  F   UNL A   1      40.126  29.458  26.355  1.00  0.00    -0.203 F 
ATOM     77  C   UNL A   1      38.489  29.215  28.029  1.00  0.00     0.198 A 
ATOM     78  C   UNL A   1      39.082  28.284  30.158  1.00  0.00     0.198 A 
ATOM     79  F   UNL A   1      41.309  27.660  30.589  1.00  0.00    -0.203 F 
ATOM     80  F   UNL A   1      37.580  29.775  27.219  1.00  0.00    -0.200 F 
ATOM     81  C   UNL A   1      38.128  28.824  29.309  1.00  0.00     0.200 A 
ATOM     82  F   UNL A   1      38.736  27.895  31.392  1.00  0.00    -0.200 F 
ATOM     83  F   UNL A   1      36.865  28.981  29.729  1.00  0.00    -0.200 F 
ENDBRANCH  49  73
BRANCH  61  84
ATOM     84  C   UNL A   1      46.345  32.706  29.140  1.00  0.00     0.064 A 
ATOM     85  C   UNL A   1      46.127  33.885  28.412  1.00  0.00     0.173 A 
ATOM     86  C   UNL A   1      46.683  32.831  30.498  1.00  0.00     0.173 A 
ATOM     87  F   UNL A   1      45.812  33.825  27.109  1.00  0.00    -0.203 F 
ATOM     88  C   UNL A   1      46.264  35.135  29.012  1.00  0.00     0.198 A 
ATOM     89  C   UNL A   1      46.782  34.081  31.103  1.00  0.00     0.198 A 
ATOM     90  F   UNL A   1      46.895  31.737  31.246  1.00  0.00    -0.203 F 
ATOM     91  F   UNL A   1      46.095  36.247  28.283  1.00  0.00    -0.200 F 
ATOM     92  C   UNL A   1      46.579  35.232  30.359  1.00  0.00     0.200 A 
ATOM     93  F   UNL A   1      47.068  34.170  32.410  1.00  0.00    -0.200 F 
ATOM     94  F   UNL A   1      46.692  36.434  30.938  1.00  0.00    -0.200 F 
ENDBRANCH  61  84
ENDBRANCH  35  36
ENDBRANCH  28  30
ENDBRANCH  27  28
ENDBRANCH  26  27
ENDBRANCH  25  26
ENDBRANCH  24  25
ENDBRANCH  23  24
ENDBRANCH  22  23
ENDBRANCH   1  22
TORSDOF 24
ENDMDL
MODEL 2
REMARK VINA RESULT:      -9.1      1.032      2.473
REMARK SMILES C#CC[N@H+](CC(=O)OCCOCCOCCOC(=O)c1ccc(-c2c3nc(c(-c4c(F)c(F)c(F)c(F)c4F)c4ccc([nH]4)c(-c4c(F)c(F)c(F)c(F)c4F)c4nc(c(-c5c(F)c(F)c(F)c(F)c5F)c5ccc2[nH]5)C=C4)C=C3)cc1)[C@H](C)C(=O)NCCC
REMARK SMILES IDX 11 1 10 2 9 3 8 4 6 5 7 6 5 7 4 8 3 10 2 11 1 12 83 13 84 14
REMARK SMILES IDX 85 15 86 16 87 17 88 19 89 20 90 21 12 22 13 23 14 24 15 25
REMARK SMILES IDX 16 26 17 27 18 28 19 29 20 30 21 31 82 32 22 33 81 34 23 35
REMARK SMILES IDX 24 36 25 37 75 38 26 39 80 40 74 41 76 42 27 43 79 44 73 45
REMARK SMILES IDX 72 46 28 48 60 49 40 50 59 51 41 52 44 53 58 54 77 55 42 56
REMARK SMILES IDX 43 57 57 59 78 60 45 61 29 62 30 63 38 64 31 65 32 66 36 67
REMARK SMILES IDX 39 68 33 69 34 70 37 71 35 72 61 73 62 74 70 75 63 76 64 77
REMARK SMILES IDX 68 78 71 79 65 80 66 81 69 82 67 83 46 84 47 85 55 86 48 87
REMARK SMILES IDX 49 88 53 89 56 90 50 91 51 92 54 93 52 94
REMARK H PARENT 4 9 87 18 76 47 44 58
REMARK Flexibility Score: inf
ROOT
ATOM      1  O   UNL A   1      38.723  22.016  25.560  1.00  0.00    -0.376 OA
ENDROOT
BRANCH   1   2
ATOM      2  C   UNL A   1      37.539  21.459  24.991  1.00  0.00     0.202 C 
BRANCH   2   3
ATOM      3  C   UNL A   1      36.636  22.372  24.145  1.00  0.00     0.261 C 
BRANCH   3   4
ATOM      4  O   UNL A   1      36.479  23.704  24.671  1.00  0.00    -0.459 OA
BRANCH   4   5
ATOM      5  C   UNL A   1      35.238  24.110  25.014  1.00  0.00     0.361 C 
ATOM      6  O   UNL A   1      34.741  23.896  26.119  1.00  0.00    -0.245 OA
BRANCH   5   7
ATOM      7  C   UNL A   1      34.429  24.850  23.943  1.00  0.00     0.387 C 
BRANCH   7   8
ATOM      8  N   UNL A   1      32.974  25.179  24.079  1.00  0.00    -0.306 N 
ATOM      9  H   UNL A   1      32.658  24.833  24.985  1.00  0.00     0.350 HD
BRANCH   8  10
ATOM     10  C   UNL A   1      32.657  26.594  24.260  1.00  0.00     0.355 C 
BRANCH  10  11
ATOM     11  C   UNL A   1      33.243  27.157  25.496  1.00  0.00    -0.047 C 
ATOM     12  C   UNL A   1      33.749  27.602  26.496  1.00  0.00     0.010 C 
ENDBRANCH  10  11
ENDBRANCH   8  10
BRANCH   8  13
ATOM     13  C   UNL A   1      32.180  24.425  23.032  1.00  0.00     0.272 C 
ATOM     14  C   UNL A   1      30.685  24.168  23.293  1.00  0.00     0.086 C 
BRANCH  13  15
ATOM     15  C   UNL A   1      32.821  23.166  22.391  1.00  0.00     0.278 C 
ATOM     16  O   UNL A   1      33.363  23.232  21.282  1.00  0.00    -0.268 OA
ATOM     17  N   UNL A   1      32.735  21.928  22.979  1.00  0.00    -0.351 N 
ATOM     18  H   UNL A   1      32.899  21.162  22.383  1.00  0.00     0.163 HD
BRANCH  17  19
ATOM     19  C   UNL A   1      32.438  21.599  24.358  1.00  0.00     0.116 C 
BRANCH  19  20
ATOM     20  C   UNL A   1      33.497  20.786  25.078  1.00  0.00     0.018 C 
ATOM     21  C   UNL A   1      33.551  19.352  24.576  1.00  0.00     0.006 C 
ENDBRANCH  19  20
ENDBRANCH  17  19
ENDBRANCH  13  15
ENDBRANCH   8  13
ENDBRANCH   7   8
ENDBRANCH   5   7
ENDBRANCH   4   5
ENDBRANCH   3   4
ENDBRANCH   2   3
ENDBRANCH   1   2
BRANCH   1  22
ATOM     22  C   UNL A   1      39.699  21.137  26.108  1.00  0.00     0.188 C 
BRANCH  22  23
ATOM     23  C   UNL A   1      41.174  21.561  26.109  1.00  0.00     0.188 C 
BRANCH  23  24
ATOM     24  O   UNL A   1      42.056  20.579  26.603  1.00  0.00    -0.376 OA
BRANCH  24  25
ATOM     25  C   UNL A   1      41.935  19.259  26.109  1.00  0.00     0.202 C 
BRANCH  25  26
ATOM     26  C   UNL A   1      43.208  18.563  25.591  1.00  0.00     0.261 C 
BRANCH  26  27
ATOM     27  O   UNL A   1      43.716  19.000  24.317  1.00  0.00    -0.460 OA
BRANCH  27  28
ATOM     28  C   UNL A   1      44.986  19.479  24.278  1.00  0.00     0.338 C 
ATOM     29  O   UNL A   1      45.961  18.933  23.797  1.00  0.00    -0.246 OA
BRANCH  28  30
ATOM     30  C   UNL A   1      44.926  20.904  24.704  1.00  0.00     0.060 A 
ATOM     31  C   UNL A   1      44.423  21.874  23.820  1.00  0.00     0.016 A 
ATOM     32  C   UNL A   1      45.310  21.268  25.994  1.00  0.00     0.016 A 
ATOM     33  C   UNL A   1      44.307  23.210  24.228  1.00  0.00     0.010 A 
ATOM     34  C   UNL A   1      45.221  22.606  26.389  1.00  0.00     0.010 A 
ATOM     35  C   UNL A   1      44.737  23.590  25.505  1.00  0.00    -0.014 A 
BRANCH  35  36
ATOM     36  C   UNL A   1      44.857  25.022  25.886  1.00  0.00     0.031 A 
ATOM     37  C   UNL A   1      46.215  25.664  25.820  1.00  0.00     0.074 A 
ATOM     38  C   UNL A   1      43.805  25.730  26.335  1.00  0.00     0.049 A 
ATOM     39  N   UNL A   1      46.611  26.834  26.256  1.00  0.00    -0.248 NA
ATOM     40  C   UNL A   1      47.277  24.868  25.185  1.00  0.00     0.031 C 
ATOM     41  C   UNL A   1      42.429  25.248  26.408  1.00  0.00     0.029 A 
ATOM     42  N   UNL A   1      43.742  27.008  26.842  1.00  0.00    -0.354 N 
ATOM     43  C   UNL A   1      47.967  26.903  25.967  1.00  0.00     0.074 A 
ATOM     44  C   UNL A   1      48.333  25.650  25.343  1.00  0.00     0.031 C 
ATOM     45  C   UNL A   1      41.660  26.207  26.955  1.00  0.00     0.029 A 
ATOM     46  C   UNL A   1      42.499  27.352  27.315  1.00  0.00     0.049 A 
ATOM     47  H   UNL A   1      44.515  27.618  26.864  1.00  0.00     0.167 HD
ATOM     48  C   UNL A   1      48.829  27.921  26.199  1.00  0.00     0.037 A 
ATOM     49  C   UNL A   1      42.094  28.444  27.995  1.00  0.00     0.037 A 
ATOM     50  C   UNL A   1      48.462  29.168  26.820  1.00  0.00     0.049 A 
ATOM     51  C   UNL A   1      43.093  29.529  28.323  1.00  0.00     0.074 A 
ATOM     52  C   UNL A   1      49.258  30.271  27.071  1.00  0.00     0.029 A 
ATOM     53  N   UNL A   1      47.198  29.469  27.303  1.00  0.00    -0.354 N 
ATOM     54  N   UNL A   1      44.367  29.605  28.022  1.00  0.00    -0.248 NA
ATOM     55  C   UNL A   1      42.596  30.682  29.092  1.00  0.00     0.031 C 
ATOM     56  C   UNL A   1      48.496  31.210  27.771  1.00  0.00     0.029 A 
ATOM     57  C   UNL A   1      47.202  30.725  27.886  1.00  0.00     0.049 A 
ATOM     58  H   UNL A   1      46.412  28.878  27.239  1.00  0.00     0.167 HD
ATOM     59  C   UNL A   1      44.813  30.820  28.532  1.00  0.00     0.074 A 
ATOM     60  C   UNL A   1      43.671  31.457  29.149  1.00  0.00     0.031 C 
ATOM     61  C   UNL A   1      46.057  31.358  28.491  1.00  0.00     0.037 A 
BRANCH  48  62
ATOM     62  C   UNL A   1      50.267  27.720  25.813  1.00  0.00     0.064 A 
ATOM     63  C   UNL A   1      50.711  27.879  24.492  1.00  0.00     0.173 A 
ATOM     64  C   UNL A   1      51.224  27.405  26.792  1.00  0.00     0.173 A 
ATOM     65  F   UNL A   1      49.839  28.170  23.516  1.00  0.00    -0.203 F 
ATOM     66  C   UNL A   1      52.053  27.701  24.161  1.00  0.00     0.198 A 
ATOM     67  C   UNL A   1      52.568  27.265  26.464  1.00  0.00     0.198 A 
ATOM     68  F   UNL A   1      50.855  27.250  28.073  1.00  0.00    -0.203 F 
ATOM     69  F   UNL A   1      52.445  27.806  22.884  1.00  0.00    -0.200 F 
ATOM     70  C   UNL A   1      52.981  27.404  25.148  1.00  0.00     0.200 A 
ATOM     71  F   UNL A   1      53.466  26.998  27.423  1.00  0.00    -0.200 F 
ATOM     72  F   UNL A   1      54.273  27.246  24.829  1.00  0.00    -0.200 F 
ENDBRANCH  48  62
BRANCH  49  73
ATOM     73  C   UNL A   1      40.680  28.564  28.447  1.00  0.00     0.064 A 
ATOM     74  C   UNL A   1      39.686  29.064  27.593  1.00  0.00     0.173 A 
ATOM     75  C   UNL A   1      40.298  28.220  29.753  1.00  0.00     0.173 A 
ATOM     76  F   UNL A   1      40.004  29.440  26.345  1.00  0.00    -0.203 F 
ATOM     77  C   UNL A   1      38.375  29.237  28.033  1.00  0.00     0.198 A 
ATOM     78  C   UNL A   1      38.979  28.359  30.181  1.00  0.00     0.198 A 
ATOM     79  F   UNL A   1      41.208  27.748  30.617  1.00  0.00    -0.203 F 
ATOM     80  F   UNL A   1      37.462  29.775  27.214  1.00  0.00    -0.200 F 
ATOM     81  C   UNL A   1      38.021  28.877  29.324  1.00  0.00     0.200 A 
ATOM     82  F   UNL A   1      38.640  28.001  31.426  1.00  0.00    -0.200 F 
ATOM     83  F   UNL A   1      36.759  29.043  29.746  1.00  0.00    -0.200 F 
ENDBRANCH  49  73
BRANCH  61  84
ATOM     84  C   UNL A   1      46.252  32.724  29.090  1.00  0.00     0.064 A 
ATOM     85  C   UNL A   1      46.665  32.900  30.419  1.00  0.00     0.173 A 
ATOM     86  C   UNL A   1      46.087  33.874  28.300  1.00  0.00     0.173 A 
ATOM     87  F   UNL A   1      46.828  31.837  31.221  1.00  0.00    -0.203 F 
ATOM     88  C   UNL A   1      46.883  34.173  30.940  1.00  0.00     0.198 A 
ATOM     89  C   UNL A   1      46.342  35.143  28.814  1.00  0.00     0.198 A 
ATOM     90  F   UNL A   1      45.702  33.767  27.019  1.00  0.00    -0.203 F 
ATOM     91  F   UNL A   1      47.233  34.317  32.226  1.00  0.00    -0.200 F 
ATOM     92  C   UNL A   1      46.733  35.292  30.135  1.00  0.00     0.200 A 
ATOM     93  F   UNL A   1      46.215  36.221  28.028  1.00  0.00    -0.200 F 
ATOM     94  F   UNL A   1      46.960  36.515  30.634  1.00  0.00    -0.200 F 
ENDBRANCH  61  84
ENDBRANCH  35  36
ENDBRANCH  28  30
ENDBRANCH  27  28
ENDBRANCH  26  27
ENDBRANCH  25  26
ENDBRANCH  24  25
ENDBRANCH  23  24
ENDBRANCH  22  23
ENDBRANCH   1  22
TORSDOF 24
ENDMDL
MODEL 3
REMARK VINA RESULT:      -8.9      4.265     10.258
REMARK SMILES C#CC[N@H+](CC(=O)OCCOCCOCCOC(=O)c1ccc(-c2c3nc(c(-c4c(F)c(F)c(F)c(F)c4F)c4ccc([nH]4)c(-c4c(F)c(F)c(F)c(F)c4F)c4nc(c(-c5c(F)c(F)c(F)c(F)c5F)c5ccc2[nH]5)C=C4)C=C3)cc1)[C@H](C)C(=O)NCCC
REMARK SMILES IDX 11 1 10 2 9 3 8 4 6 5 7 6 5 7 4 8 3 10 2 11 1 12 83 13 84 14
REMARK SMILES IDX 85 15 86 16 87 17 88 19 89 20 90 21 12 22 13 23 14 24 15 25
REMARK SMILES IDX 16 26 17 27 18 28 19 29 20 30 21 31 82 32 22 33 81 34 23 35
REMARK SMILES IDX 24 36 25 37 75 38 26 39 80 40 74 41 76 42 27 43 79 44 73 45
REMARK SMILES IDX 72 46 28 48 60 49 40 50 59 51 41 52 44 53 58 54 77 55 42 56
REMARK SMILES IDX 43 57 57 59 78 60 45 61 29 62 30 63 38 64 31 65 32 66 36 67
REMARK SMILES IDX 39 68 33 69 34 70 37 71 35 72 61 73 62 74 70 75 63 76 64 77
REMARK SMILES IDX 68 78 71 79 65 80 66 81 69 82 67 83 46 84 47 85 55 86 48 87
REMARK SMILES IDX 49 88 53 89 56 90 50 91 51 92 54 93 52 94
REMARK H PARENT 4 9 87 18 76 47 44 58
REMARK Flexibility Score: inf
ROOT
ATOM      1  O   UNL A   1      34.284  35.227  29.907  1.00  0.00    -0.376 OA
ENDROOT
BRANCH   1   2
ATOM      2  C   UNL A   1      34.045  33.891  29.472  1.00  0.00     0.202 C 
BRANCH   2   3
ATOM      3  C   UNL A   1      33.915  33.626  27.963  1.00  0.00     0.261 C 
BRANCH   3   4
ATOM      4  O   UNL A   1      33.694  32.244  27.620  1.00  0.00    -0.459 OA
BRANCH   4   5
ATOM      5  C   UNL A   1      32.462  31.882  27.204  1.00  0.00     0.361 C 
ATOM      6  O   UNL A   1      31.518  32.667  27.129  1.00  0.00    -0.245 OA
BRANCH   5   7
ATOM      7  C   UNL A   1      32.259  30.407  26.838  1.00  0.00     0.387 C 
BRANCH   7   8
ATOM      8  N   UNL A   1      33.376  29.482  26.464  1.00  0.00    -0.306 N 
ATOM      9  H   UNL A   1      34.101  30.035  26.007  1.00  0.00     0.350 HD
BRANCH   8  10
ATOM     10  C   UNL A   1      34.165  28.956  27.576  1.00  0.00     0.355 C 
BRANCH  10  11
ATOM     11  C   UNL A   1      35.535  29.512  27.617  1.00  0.00    -0.047 C 
ATOM     12  C   UNL A   1      36.659  29.949  27.622  1.00  0.00     0.010 C 
ENDBRANCH  10  11
ENDBRANCH   8  10
BRANCH   8  13
ATOM     13  C   UNL A   1      32.888  28.482  25.434  1.00  0.00     0.272 C 
ATOM     14  C   UNL A   1      33.379  27.027  25.538  1.00  0.00     0.086 C 
BRANCH  13  15
ATOM     15  C   UNL A   1      32.860  28.918  23.946  1.00  0.00     0.278 C 
ATOM     16  O   UNL A   1      33.879  28.843  23.249  1.00  0.00    -0.268 OA
ATOM     17  N   UNL A   1      31.745  29.482  23.375  1.00  0.00    -0.351 N 
ATOM     18  H   UNL A   1      31.902  29.988  22.545  1.00  0.00     0.163 HD
BRANCH  17  19
ATOM     19  C   UNL A   1      30.371  29.430  23.829  1.00  0.00     0.116 C 
BRANCH  19  20
ATOM     20  C   UNL A   1      29.504  28.378  23.165  1.00  0.00     0.018 C 
ATOM     21  C   UNL A   1      30.177  27.015  23.148  1.00  0.00     0.006 C 
ENDBRANCH  19  20
ENDBRANCH  17  19
ENDBRANCH  13  15
ENDBRANCH   8  13
ENDBRANCH   7   8
ENDBRANCH   5   7
ENDBRANCH   4   5
ENDBRANCH   3   4
ENDBRANCH   2   3
ENDBRANCH   1   2
BRANCH   1  22
ATOM     22  C   UNL A   1      33.328  35.854  30.757  1.00  0.00     0.188 C 
BRANCH  22  23
ATOM     23  C   UNL A   1      33.619  35.964  32.260  1.00  0.00     0.188 C 
BRANCH  23  24
ATOM     24  O   UNL A   1      34.904  35.522  32.632  1.00  0.00    -0.376 OA
BRANCH  24  25
ATOM     25  C   UNL A   1      35.009  34.569  33.674  1.00  0.00     0.202 C 
BRANCH  25  26
ATOM     26  C   UNL A   1      34.655  33.105  33.350  1.00  0.00     0.261 C 
BRANCH  26  27
ATOM     27  O   UNL A   1      35.689  32.303  32.752  1.00  0.00    -0.460 OA
BRANCH  27  28
ATOM     28  C   UNL A   1      36.820  32.093  33.473  1.00  0.00     0.338 C 
ATOM     29  O   UNL A   1      36.925  32.088  34.685  1.00  0.00    -0.246 OA
BRANCH  28  30
ATOM     30  C   UNL A   1      37.862  31.619  32.522  1.00  0.00     0.060 A 
ATOM     31  C   UNL A   1      38.980  30.918  33.005  1.00  0.00     0.016 A 
ATOM     32  C   UNL A   1      37.701  31.816  31.150  1.00  0.00     0.016 A 
ATOM     33  C   UNL A   1      39.939  30.417  32.115  1.00  0.00     0.010 A 
ATOM     34  C   UNL A   1      38.675  31.340  30.267  1.00  0.00     0.010 A 
ATOM     35  C   UNL A   1      39.809  30.654  30.742  1.00  0.00    -0.014 A 
BRANCH  35  36
ATOM     36  C   UNL A   1      40.917  30.354  29.796  1.00  0.00     0.031 A 
ATOM     37  C   UNL A   1      40.989  28.975  29.200  1.00  0.00     0.074 A 
ATOM     38  C   UNL A   1      41.872  31.257  29.509  1.00  0.00     0.049 A 
ATOM     39  N   UNL A   1      41.940  28.417  28.493  1.00  0.00    -0.248 NA
ATOM     40  C   UNL A   1      39.833  28.101  29.451  1.00  0.00     0.031 C 
ATOM     41  C   UNL A   1      41.901  32.638  29.980  1.00  0.00     0.029 A 
ATOM     42  N   UNL A   1      43.024  31.129  28.768  1.00  0.00    -0.354 N 
ATOM     43  C   UNL A   1      41.505  27.124  28.234  1.00  0.00     0.074 A 
ATOM     44  C   UNL A   1      40.219  26.971  28.879  1.00  0.00     0.031 C 
ATOM     45  C   UNL A   1      43.028  33.225  29.539  1.00  0.00     0.029 A 
ATOM     46  C   UNL A   1      43.823  32.246  28.796  1.00  0.00     0.049 A 
ATOM     47  H   UNL A   1      43.254  30.314  28.265  1.00  0.00     0.167 HD
ATOM     48  C   UNL A   1      42.122  26.154  27.519  1.00  0.00     0.037 A 
ATOM     49  C   UNL A   1      45.068  32.442  28.315  1.00  0.00     0.037 A 
ATOM     50  C   UNL A   1      43.402  26.309  26.877  1.00  0.00     0.049 A 
ATOM     51  C   UNL A   1      45.775  31.315  27.598  1.00  0.00     0.074 A 
ATOM     52  C   UNL A   1      44.094  25.394  26.105  1.00  0.00     0.029 A 
ATOM     53  N   UNL A   1      44.187  27.450  26.946  1.00  0.00    -0.354 N 
ATOM     54  N   UNL A   1      45.349  30.105  27.328  1.00  0.00    -0.248 NA
ATOM     55  C   UNL A   1      47.142  31.583  27.121  1.00  0.00     0.031 C 
ATOM     56  C   UNL A   1      45.330  25.951  25.769  1.00  0.00     0.029 A 
ATOM     57  C   UNL A   1      45.376  27.245  26.264  1.00  0.00     0.049 A 
ATOM     58  H   UNL A   1      43.937  28.282  27.410  1.00  0.00     0.167 HD
ATOM     59  C   UNL A   1      46.376  29.482  26.626  1.00  0.00     0.074 A 
ATOM     60  C   UNL A   1      47.441  30.452  26.497  1.00  0.00     0.031 C 
ATOM     61  C   UNL A   1      46.429  28.220  26.131  1.00  0.00     0.037 A 
BRANCH  48  62
ATOM     62  C   UNL A   1      41.439  24.819  27.420  1.00  0.00     0.064 A 
ATOM     63  C   UNL A   1      40.326  24.613  26.591  1.00  0.00     0.173 A 
ATOM     64  C   UNL A   1      41.936  23.717  28.135  1.00  0.00     0.173 A 
ATOM     65  F   UNL A   1      39.805  25.633  25.894  1.00  0.00    -0.203 F 
ATOM     66  C   UNL A   1      39.718  23.362  26.505  1.00  0.00     0.198 A 
ATOM     67  C   UNL A   1      41.349  22.461  28.018  1.00  0.00     0.198 A 
ATOM     68  F   UNL A   1      43.003  23.856  28.936  1.00  0.00    -0.203 F 
ATOM     69  F   UNL A   1      38.625  23.202  25.748  1.00  0.00    -0.200 F 
ATOM     70  C   UNL A   1      40.235  22.286  27.211  1.00  0.00     0.200 A 
ATOM     71  F   UNL A   1      41.864  21.418  28.685  1.00  0.00    -0.200 F 
ATOM     72  F   UNL A   1      39.657  21.081  27.116  1.00  0.00    -0.200 F 
ENDBRANCH  48  62
BRANCH  49  73
ATOM     73  C   UNL A   1      45.752  33.749  28.518  1.00  0.00     0.064 A 
ATOM     74  C   UNL A   1      45.611  34.793  27.590  1.00  0.00     0.173 A 
ATOM     75  C   UNL A   1      46.594  33.972  29.619  1.00  0.00     0.173 A 
ATOM     76  F   UNL A   1      44.846  34.621  26.503  1.00  0.00    -0.203 F 
ATOM     77  C   UNL A   1      46.300  35.994  27.745  1.00  0.00     0.198 A 
ATOM     78  C   UNL A   1      47.254  35.187  29.791  1.00  0.00     0.198 A 
ATOM     79  F   UNL A   1      46.776  33.006  30.531  1.00  0.00    -0.203 F 
ATOM     80  F   UNL A   1      46.194  36.949  26.810  1.00  0.00    -0.200 F 
ATOM     81  C   UNL A   1      47.115  36.194  28.849  1.00  0.00     0.200 A 
ATOM     82  F   UNL A   1      48.032  35.378  30.864  1.00  0.00    -0.200 F 
ATOM     83  F   UNL A   1      47.776  37.350  28.996  1.00  0.00    -0.200 F 
ENDBRANCH  49  73
BRANCH  61  84
ATOM     84  C   UNL A   1      47.659  27.817  25.365  1.00  0.00     0.064 A 
ATOM     85  C   UNL A   1      48.817  27.356  26.009  1.00  0.00     0.173 A 
ATOM     86  C   UNL A   1      47.653  27.828  23.960  1.00  0.00     0.173 A 
ATOM     87  F   UNL A   1      48.881  27.335  27.349  1.00  0.00    -0.203 F 
ATOM     88  C   UNL A   1      49.929  26.945  25.277  1.00  0.00     0.198 A 
ATOM     89  C   UNL A   1      48.753  27.381  23.232  1.00  0.00     0.198 A 
ATOM     90  F   UNL A   1      46.570  28.250  23.291  1.00  0.00    -0.203 F 
ATOM     91  F   UNL A   1      51.041  26.553  25.916  1.00  0.00    -0.200 F 
ATOM     92  C   UNL A   1      49.893  26.947  23.891  1.00  0.00     0.200 A 
ATOM     93  F   UNL A   1      48.707  27.365  21.893  1.00  0.00    -0.200 F 
ATOM     94  F   UNL A   1      50.957  26.535  23.190  1.00  0.00    -0.200 F 
ENDBRANCH  61  84
ENDBRANCH  35  36
ENDBRANCH  28  30
ENDBRANCH  27  28
ENDBRANCH  26  27
ENDBRANCH  25  26
ENDBRANCH  24  25
ENDBRANCH  23  24
ENDBRANCH  22  23
ENDBRANCH   1  22
TORSDOF 24
ENDMDL
