MODEL 1
REMARK VINA RESULT:      -9.1      0.000      0.000
REMARK SMILES CCCCCCCCNC(=O)Oc1cccc(-c2ccc([C@@H](C)C(=O)OCCOCCOCCOC(=O)c3ccc(-c4c5nc(c(-c6c(F)c(F)c(F)c(F)c6F)c6ccc([nH]6)c(-c6c(F)c(F)c(F)c(F)c6F)c6nc(c(-c7c(F)c(F)c(F)c(F)c7F)c7ccc4[nH]7)C=C6)C=C5)cc3)cc2F)c1
REMARK SMILES IDX 26 1 24 2 25 3 22 4 23 5 21 6 18 7 19 8 102 9 20 10 101 11
REMARK SMILES IDX 103 12 17 13 13 14 14 15 104 16 15 17 16 18 12 19 10 20 9 21
REMARK SMILES IDX 11 23 8 24 7 25 6 26 5 27 4 28 3 29 2 30 1 31 27 32 28 33
REMARK SMILES IDX 29 34 30 35 31 36 32 37 33 38 34 39 35 40 36 41 37 42 38 43
REMARK SMILES IDX 39 44 100 45 40 46 99 47 41 48 42 49 43 50 93 51 44 52 98 53
REMARK SMILES IDX 92 54 94 55 45 56 97 57 91 58 90 59 46 61 78 62 58 63 77 64
REMARK SMILES IDX 59 65 62 66 76 67 95 68 60 69 61 70 75 72 96 73 63 74 47 75
REMARK SMILES IDX 48 76 56 77 49 78 50 79 54 80 57 81 51 82 52 83 55 84 53 85
REMARK SMILES IDX 79 86 80 87 88 88 81 89 82 90 86 91 89 92 83 93 84 94 87 95
REMARK SMILES IDX 85 96 64 97 65 98 73 99 66 100 67 101 71 102 74 103 68 104
REMARK SMILES IDX 69 105 72 106 70 107
REMARK H PARENT 9 22 94 60 62 71
REMARK Flexibility Score: inf
ROOT
ATOM      1  O   UNL A   1      32.347  23.463  23.920  1.00  0.00    -0.463 OA
ENDROOT
BRANCH   1   2
ATOM      2  C   UNL A   1      31.302  23.944  24.638  1.00  0.00     0.313 C 
ATOM      3  O   UNL A   1      30.659  23.260  25.432  1.00  0.00    -0.252 OA
BRANCH   2   4
ATOM      4  C   UNL A   1      30.960  25.425  24.438  1.00  0.00     0.126 C 
ATOM      5  C   UNL A   1      30.957  25.732  22.941  1.00  0.00     0.025 C 
BRANCH   4   6
ATOM      6  C   UNL A   1      31.698  26.524  25.200  1.00  0.00    -0.031 A 
ATOM      7  C   UNL A   1      33.151  28.611  26.526  1.00  0.00     0.018 A 
ATOM      8  C   UNL A   1      32.138  27.885  27.179  1.00  0.00     0.012 A 
ATOM      9  C   UNL A   1      33.423  28.262  25.200  1.00  0.00     0.131 A 
ATOM     10  C   UNL A   1      31.428  26.854  26.534  1.00  0.00     0.005 A 
ATOM     11  C   UNL A   1      32.726  27.236  24.550  1.00  0.00     0.044 A 
ATOM     12  F   UNL A   1      34.381  28.902  24.511  1.00  0.00    -0.206 F 
BRANCH   7  13
ATOM     13  C   UNL A   1      33.905  29.667  27.228  1.00  0.00    -0.012 A 
ATOM     14  C   UNL A   1      35.861  30.461  28.432  1.00  0.00     0.133 A 
ATOM     15  C   UNL A   1      35.304  31.730  28.570  1.00  0.00     0.047 A 
ATOM     16  C   UNL A   1      35.173  29.428  27.785  1.00  0.00     0.056 A 
ATOM     17  C   UNL A   1      34.047  31.979  28.029  1.00  0.00     0.004 A 
ATOM     18  C   UNL A   1      33.358  30.959  27.365  1.00  0.00     0.009 A 
BRANCH  14  19
ATOM     19  O   UNL A   1      37.088  30.230  29.073  1.00  0.00    -0.410 OA
BRANCH  19  20
ATOM     20  C   UNL A   1      37.044  29.514  30.258  1.00  0.00     0.412 C 
ATOM     21  N   UNL A   1      37.895  28.442  30.271  1.00  0.00    -0.321 N 
ATOM     22  H   UNL A   1      37.955  27.939  31.116  1.00  0.00     0.167 HD
ATOM     23  O   UNL A   1      36.319  29.749  31.222  1.00  0.00    -0.224 OA
BRANCH  21  24
ATOM     24  C   UNL A   1      38.719  27.968  29.176  1.00  0.00     0.119 C 
BRANCH  24  25
ATOM     25  C   UNL A   1      40.129  27.586  29.628  1.00  0.00     0.021 C 
BRANCH  25  26
ATOM     26  C   UNL A   1      40.789  26.464  28.817  1.00  0.00     0.002 C 
BRANCH  26  27
ATOM     27  C   UNL A   1      42.314  26.549  28.697  1.00  0.00     0.000 C 
BRANCH  27  28
ATOM     28  C   UNL A   1      42.836  26.954  27.313  1.00  0.00    -0.000 C 
BRANCH  28  29
ATOM     29  C   UNL A   1      44.058  27.880  27.325  1.00  0.00    -0.000 C 
BRANCH  29  30
ATOM     30  C   UNL A   1      44.584  28.252  28.715  1.00  0.00    -0.003 C 
ATOM     31  C   UNL A   1      43.920  29.488  29.303  1.00  0.00     0.004 C 
ENDBRANCH  29  30
ENDBRANCH  28  29
ENDBRANCH  27  28
ENDBRANCH  26  27
ENDBRANCH  25  26
ENDBRANCH  24  25
ENDBRANCH  21  24
ENDBRANCH  19  20
ENDBRANCH  14  19
ENDBRANCH   7  13
ENDBRANCH   4   6
ENDBRANCH   2   4
ENDBRANCH   1   2
BRANCH   1  32
ATOM     32  C   UNL A   1      33.667  23.682  24.470  1.00  0.00     0.261 C 
BRANCH  32  33
ATOM     33  C   UNL A   1      33.781  23.556  25.998  1.00  0.00     0.202 C 
BRANCH  33  34
ATOM     34  O   UNL A   1      34.919  22.891  26.533  1.00  0.00    -0.376 OA
BRANCH  34  35
ATOM     35  C   UNL A   1      35.112  21.508  26.256  1.00  0.00     0.188 C 
BRANCH  35  36
ATOM     36  C   UNL A   1      35.928  21.088  25.026  1.00  0.00     0.188 C 
BRANCH  36  37
ATOM     37  O   UNL A   1      36.265  19.718  24.994  1.00  0.00    -0.376 OA
BRANCH  37  38
ATOM     38  C   UNL A   1      37.643  19.400  24.992  1.00  0.00     0.202 C 
BRANCH  38  39
ATOM     39  C   UNL A   1      38.568  20.622  25.059  1.00  0.00     0.261 C 
BRANCH  39  40
ATOM     40  O   UNL A   1      39.448  20.675  26.197  1.00  0.00    -0.460 OA
BRANCH  40  41
ATOM     41  C   UNL A   1      40.631  20.035  26.096  1.00  0.00     0.338 C 
ATOM     42  O   UNL A   1      40.827  18.883  25.730  1.00  0.00    -0.246 OA
BRANCH  41  43
ATOM     43  C   UNL A   1      41.701  21.031  26.305  1.00  0.00     0.060 A 
ATOM     44  C   UNL A   1      43.037  20.674  26.063  1.00  0.00     0.016 A 
ATOM     45  C   UNL A   1      41.382  22.318  26.741  1.00  0.00     0.016 A 
ATOM     46  C   UNL A   1      44.061  21.599  26.286  1.00  0.00     0.010 A 
ATOM     47  C   UNL A   1      42.406  23.232  26.986  1.00  0.00     0.010 A 
ATOM     48  C   UNL A   1      43.752  22.867  26.793  1.00  0.00    -0.014 A 
BRANCH  48  49
ATOM     49  C   UNL A   1      44.810  23.745  27.350  1.00  0.00     0.031 A 
ATOM     50  C   UNL A   1      44.749  24.068  28.818  1.00  0.00     0.074 A 
ATOM     51  C   UNL A   1      45.768  24.285  26.578  1.00  0.00     0.049 A 
ATOM     52  N   UNL A   1      45.426  24.947  29.509  1.00  0.00    -0.248 NA
ATOM     53  C   UNL A   1      43.774  23.299  29.607  1.00  0.00     0.031 C 
ATOM     54  C   UNL A   1      45.968  24.011  25.158  1.00  0.00     0.029 A 
ATOM     55  N   UNL A   1      46.737  25.208  26.886  1.00  0.00    -0.354 N 
ATOM     56  C   UNL A   1      44.940  24.855  30.807  1.00  0.00     0.074 A 
ATOM     57  C   UNL A   1      43.899  23.852  30.803  1.00  0.00     0.031 C 
ATOM     58  C   UNL A   1      46.981  24.772  24.708  1.00  0.00     0.029 A 
ATOM     59  C   UNL A   1      47.467  25.621  25.798  1.00  0.00     0.049 A 
ATOM     60  H   UNL A   1      46.894  25.543  27.799  1.00  0.00     0.167 HD
ATOM     61  C   UNL A   1      45.330  25.546  31.905  1.00  0.00     0.037 A 
ATOM     62  C   UNL A   1      48.388  26.598  25.691  1.00  0.00     0.037 A 
ATOM     63  C   UNL A   1      46.365  26.545  31.901  1.00  0.00     0.049 A 
ATOM     64  C   UNL A   1      48.750  27.414  26.910  1.00  0.00     0.074 A 
ATOM     65  C   UNL A   1      46.842  27.296  32.960  1.00  0.00     0.029 A 
ATOM     66  N   UNL A   1      47.076  26.939  30.777  1.00  0.00    -0.354 N 
ATOM     67  N   UNL A   1      48.298  27.320  28.137  1.00  0.00    -0.248 NA
ATOM     68  C   UNL A   1      49.753  28.474  26.725  1.00  0.00     0.031 C 
ATOM     69  C   UNL A   1      47.802  28.184  32.467  1.00  0.00     0.029 A 
ATOM     70  C   UNL A   1      47.973  27.939  31.114  1.00  0.00     0.049 A 
ATOM     71  H   UNL A   1      46.960  26.565  29.875  1.00  0.00     0.167 HD
ATOM     72  C   UNL A   1      48.988  28.274  28.876  1.00  0.00     0.074 A 
ATOM     73  C   UNL A   1      49.892  28.936  27.960  1.00  0.00     0.031 C 
ATOM     74  C   UNL A   1      48.887  28.572  30.196  1.00  0.00     0.037 A 
BRANCH  61  75
ATOM     75  C   UNL A   1      44.605  25.270  33.190  1.00  0.00     0.064 A 
ATOM     76  C   UNL A   1      44.983  24.222  34.043  1.00  0.00     0.173 A 
ATOM     77  C   UNL A   1      43.528  26.079  33.581  1.00  0.00     0.173 A 
ATOM     78  F   UNL A   1      45.995  23.408  33.708  1.00  0.00    -0.203 F 
ATOM     79  C   UNL A   1      44.289  23.977  35.226  1.00  0.00     0.198 A 
ATOM     80  C   UNL A   1      42.859  25.853  34.781  1.00  0.00     0.198 A 
ATOM     81  F   UNL A   1      43.126  27.096  32.803  1.00  0.00    -0.203 F 
ATOM     82  F   UNL A   1      44.631  22.935  35.997  1.00  0.00    -0.200 F 
ATOM     83  C   UNL A   1      43.233  24.796  35.598  1.00  0.00     0.200 A 
ATOM     84  F   UNL A   1      41.848  26.654  35.145  1.00  0.00    -0.200 F 
ATOM     85  F   UNL A   1      42.572  24.562  36.738  1.00  0.00    -0.200 F 
ENDBRANCH  61  75
BRANCH  62  86
ATOM     86  C   UNL A   1      49.027  26.883  24.377  1.00  0.00     0.064 A 
ATOM     87  C   UNL A   1      50.368  26.547  24.139  1.00  0.00     0.173 A 
ATOM     88  C   UNL A   1      48.325  27.525  23.347  1.00  0.00     0.173 A 
ATOM     89  F   UNL A   1      51.091  25.960  25.105  1.00  0.00    -0.203 F 
ATOM     90  C   UNL A   1      50.986  26.859  22.930  1.00  0.00     0.198 A 
ATOM     91  C   UNL A   1      48.935  27.808  22.126  1.00  0.00     0.198 A 
ATOM     92  F   UNL A   1      47.042  27.876  23.524  1.00  0.00    -0.203 F 
ATOM     93  F   UNL A   1      52.283  26.576  22.751  1.00  0.00    -0.200 F 
ATOM     94  C   UNL A   1      50.267  27.484  21.922  1.00  0.00     0.200 A 
ATOM     95  F   UNL A   1      48.234  28.404  21.152  1.00  0.00    -0.200 F 
ATOM     96  F   UNL A   1      50.863  27.785  20.760  1.00  0.00    -0.200 F 
ENDBRANCH  62  86
BRANCH  74  97
ATOM     97  C   UNL A   1      49.820  29.608  30.754  1.00  0.00     0.064 A 
ATOM     98  C   UNL A   1      51.029  29.267  31.374  1.00  0.00     0.173 A 
ATOM     99  C   UNL A   1      49.522  30.974  30.607  1.00  0.00     0.173 A 
ATOM    100  F   UNL A   1      51.357  27.978  31.551  1.00  0.00    -0.203 F 
ATOM    101  C   UNL A   1      51.895  30.251  31.846  1.00  0.00     0.198 A 
ATOM    102  C   UNL A   1      50.405  31.954  31.049  1.00  0.00     0.198 A 
ATOM    103  F   UNL A   1      48.382  31.357  30.011  1.00  0.00    -0.203 F 
ATOM    104  F   UNL A   1      53.025  29.901  32.477  1.00  0.00    -0.200 F 
ATOM    105  C   UNL A   1      51.587  31.592  31.675  1.00  0.00     0.200 A 
ATOM    106  F   UNL A   1      50.113  33.249  30.864  1.00  0.00    -0.200 F 
ATOM    107  F   UNL A   1      52.429  32.538  32.116  1.00  0.00    -0.200 F 
ENDBRANCH  74  97
ENDBRANCH  48  49
ENDBRANCH  41  43
ENDBRANCH  40  41
ENDBRANCH  39  40
ENDBRANCH  38  39
ENDBRANCH  37  38
ENDBRANCH  36  37
ENDBRANCH  35  36
ENDBRANCH  34  35
ENDBRANCH  33  34
ENDBRANCH  32  33
ENDBRANCH   1  32
TORSDOF 28
ENDMDL
MODEL 2
REMARK VINA RESULT:      -8.6      3.699      8.552
REMARK SMILES CCCCCCCCNC(=O)Oc1cccc(-c2ccc([C@@H](C)C(=O)OCCOCCOCCOC(=O)c3ccc(-c4c5nc(c(-c6c(F)c(F)c(F)c(F)c6F)c6ccc([nH]6)c(-c6c(F)c(F)c(F)c(F)c6F)c6nc(c(-c7c(F)c(F)c(F)c(F)c7F)c7ccc4[nH]7)C=C6)C=C5)cc3)cc2F)c1
REMARK SMILES IDX 26 1 24 2 25 3 22 4 23 5 21 6 18 7 19 8 102 9 20 10 101 11
REMARK SMILES IDX 103 12 17 13 13 14 14 15 104 16 15 17 16 18 12 19 10 20 9 21
REMARK SMILES IDX 11 23 8 24 7 25 6 26 5 27 4 28 3 29 2 30 1 31 27 32 28 33
REMARK SMILES IDX 29 34 30 35 31 36 32 37 33 38 34 39 35 40 36 41 37 42 38 43
REMARK SMILES IDX 39 44 100 45 40 46 99 47 41 48 42 49 43 50 93 51 44 52 98 53
REMARK SMILES IDX 92 54 94 55 45 56 97 57 91 58 90 59 46 61 78 62 58 63 77 64
REMARK SMILES IDX 59 65 62 66 76 67 95 68 60 69 61 70 75 72 96 73 63 74 47 75
REMARK SMILES IDX 48 76 56 77 49 78 50 79 54 80 57 81 51 82 52 83 55 84 53 85
REMARK SMILES IDX 79 86 80 87 88 88 81 89 82 90 86 91 89 92 83 93 84 94 87 95
REMARK SMILES IDX 85 96 64 97 65 98 73 99 66 100 67 101 71 102 74 103 68 104
REMARK SMILES IDX 69 105 72 106 70 107
REMARK H PARENT 9 22 94 60 62 71
REMARK Flexibility Score: inf
ROOT
ATOM      1  O   UNL A   1      37.137  29.834  31.266  1.00  0.00    -0.463 OA
ENDROOT
BRANCH   1   2
ATOM      2  C   UNL A   1      36.972  30.749  30.279  1.00  0.00     0.313 C 
ATOM      3  O   UNL A   1      36.435  31.841  30.456  1.00  0.00    -0.252 OA
BRANCH   2   4
ATOM      4  C   UNL A   1      37.520  30.371  28.898  1.00  0.00     0.126 C 
ATOM      5  C   UNL A   1      36.363  30.338  27.901  1.00  0.00     0.025 C 
BRANCH   4   6
ATOM      6  C   UNL A   1      38.418  29.151  28.704  1.00  0.00    -0.031 A 
ATOM      7  C   UNL A   1      40.156  26.918  28.238  1.00  0.00     0.018 A 
ATOM      8  C   UNL A   1      39.253  26.938  29.315  1.00  0.00     0.012 A 
ATOM      9  C   UNL A   1      40.163  28.034  27.397  1.00  0.00     0.131 A 
ATOM     10  C   UNL A   1      38.391  28.030  29.543  1.00  0.00     0.005 A 
ATOM     11  C   UNL A   1      39.309  29.124  27.612  1.00  0.00     0.044 A 
ATOM     12  F   UNL A   1      40.991  28.087  26.342  1.00  0.00    -0.206 F 
BRANCH   7  13
ATOM     13  C   UNL A   1      41.029  25.752  27.998  1.00  0.00    -0.012 A 
ATOM     14  C   UNL A   1      41.488  23.596  26.975  1.00  0.00     0.133 A 
ATOM     15  C   UNL A   1      42.742  23.539  27.577  1.00  0.00     0.047 A 
ATOM     16  C   UNL A   1      40.625  24.677  27.187  1.00  0.00     0.056 A 
ATOM     17  C   UNL A   1      43.153  24.592  28.387  1.00  0.00     0.004 A 
ATOM     18  C   UNL A   1      42.305  25.686  28.593  1.00  0.00     0.009 A 
BRANCH  14  19
ATOM     19  O   UNL A   1      41.079  22.471  26.243  1.00  0.00    -0.410 OA
BRANCH  19  20
ATOM     20  C   UNL A   1      40.326  21.528  26.923  1.00  0.00     0.412 C 
ATOM     21  N   UNL A   1      39.021  21.486  26.515  1.00  0.00    -0.321 N 
ATOM     22  H   UNL A   1      38.457  20.785  26.916  1.00  0.00     0.167 HD
ATOM     23  O   UNL A   1      40.723  20.796  27.826  1.00  0.00    -0.224 OA
BRANCH  21  24
ATOM     24  C   UNL A   1      38.377  22.361  25.553  1.00  0.00     0.119 C 
BRANCH  24  25
ATOM     25  C   UNL A   1      36.856  22.211  25.554  1.00  0.00     0.021 C 
BRANCH  25  26
ATOM     26  C   UNL A   1      36.336  20.873  25.013  1.00  0.00     0.002 C 
BRANCH  26  27
ATOM     27  C   UNL A   1      34.907  20.506  25.430  1.00  0.00     0.000 C 
BRANCH  27  28
ATOM     28  C   UNL A   1      34.207  19.485  24.525  1.00  0.00    -0.000 C 
BRANCH  28  29
ATOM     29  C   UNL A   1      34.885  18.113  24.448  1.00  0.00    -0.000 C 
BRANCH  29  30
ATOM     30  C   UNL A   1      34.046  17.003  23.808  1.00  0.00    -0.003 C 
ATOM     31  C   UNL A   1      33.032  17.518  22.798  1.00  0.00     0.004 C 
ENDBRANCH  29  30
ENDBRANCH  28  29
ENDBRANCH  27  28
ENDBRANCH  26  27
ENDBRANCH  25  26
ENDBRANCH  24  25
ENDBRANCH  21  24
ENDBRANCH  19  20
ENDBRANCH  14  19
ENDBRANCH   7  13
ENDBRANCH   4   6
ENDBRANCH   2   4
ENDBRANCH   1   2
BRANCH   1  32
ATOM     32  C   UNL A   1      36.968  30.308  32.623  1.00  0.00     0.261 C 
BRANCH  32  33
ATOM     33  C   UNL A   1      38.252  30.390  33.464  1.00  0.00     0.202 C 
BRANCH  33  34
ATOM     34  O   UNL A   1      38.153  30.150  34.863  1.00  0.00    -0.376 OA
BRANCH  34  35
ATOM     35  C   UNL A   1      38.263  31.244  35.766  1.00  0.00     0.188 C 
BRANCH  35  36
ATOM     36  C   UNL A   1      37.732  32.624  35.354  1.00  0.00     0.188 C 
BRANCH  36  37
ATOM     37  O   UNL A   1      38.731  33.527  34.934  1.00  0.00    -0.376 OA
BRANCH  37  38
ATOM     38  C   UNL A   1      38.383  34.429  33.902  1.00  0.00     0.202 C 
BRANCH  38  39
ATOM     39  C   UNL A   1      39.367  34.445  32.726  1.00  0.00     0.261 C 
BRANCH  39  40
ATOM     40  O   UNL A   1      39.988  33.184  32.416  1.00  0.00    -0.460 OA
BRANCH  40  41
ATOM     41  C   UNL A   1      39.997  32.797  31.124  1.00  0.00     0.338 C 
ATOM     42  O   UNL A   1      39.364  33.286  30.195  1.00  0.00    -0.246 OA
BRANCH  41  43
ATOM     43  C   UNL A   1      41.072  31.799  30.959  1.00  0.00     0.060 A 
ATOM     44  C   UNL A   1      40.745  30.436  30.877  1.00  0.00     0.016 A 
ATOM     45  C   UNL A   1      42.403  32.212  30.885  1.00  0.00     0.016 A 
ATOM     46  C   UNL A   1      41.756  29.479  30.751  1.00  0.00     0.010 A 
ATOM     47  C   UNL A   1      43.412  31.255  30.784  1.00  0.00     0.010 A 
ATOM     48  C   UNL A   1      43.097  29.883  30.751  1.00  0.00    -0.014 A 
BRANCH  48  49
ATOM     49  C   UNL A   1      44.190  28.901  30.953  1.00  0.00     0.031 A 
ATOM     50  C   UNL A   1      44.620  28.615  32.366  1.00  0.00     0.074 A 
ATOM     51  C   UNL A   1      44.822  28.316  29.922  1.00  0.00     0.049 A 
ATOM     52  N   UNL A   1      45.659  27.955  32.806  1.00  0.00    -0.248 NA
ATOM     53  C   UNL A   1      43.761  29.168  33.425  1.00  0.00     0.031 C 
ATOM     54  C   UNL A   1      44.469  28.467  28.514  1.00  0.00     0.029 A 
ATOM     55  N   UNL A   1      45.924  27.495  29.910  1.00  0.00    -0.354 N 
ATOM     56  C   UNL A   1      45.592  28.035  34.191  1.00  0.00     0.074 A 
ATOM     57  C   UNL A   1      44.426  28.824  34.518  1.00  0.00     0.031 C 
ATOM     58  C   UNL A   1      45.355  27.784  27.769  1.00  0.00     0.029 A 
ATOM     59  C   UNL A   1      46.364  27.187  28.646  1.00  0.00     0.049 A 
ATOM     60  H   UNL A   1      46.357  27.159  30.729  1.00  0.00     0.167 HD
ATOM     61  C   UNL A   1      46.431  27.497  35.108  1.00  0.00     0.037 A 
ATOM     62  C   UNL A   1      47.475  26.537  28.248  1.00  0.00     0.037 A 
ATOM     63  C   UNL A   1      47.591  26.715  34.777  1.00  0.00     0.049 A 
ATOM     64  C   UNL A   1      48.441  26.015  29.286  1.00  0.00     0.074 A 
ATOM     65  C   UNL A   1      48.501  26.116  35.630  1.00  0.00     0.029 A 
ATOM     66  N   UNL A   1      48.008  26.432  33.485  1.00  0.00    -0.354 N 
ATOM     67  N   UNL A   1      48.373  26.084  30.594  1.00  0.00    -0.248 NA
ATOM     68  C   UNL A   1      49.641  25.325  28.789  1.00  0.00     0.031 C 
ATOM     69  C   UNL A   1      49.499  25.519  34.855  1.00  0.00     0.029 A 
ATOM     70  C   UNL A   1      49.174  25.685  33.518  1.00  0.00     0.049 A 
ATOM     71  H   UNL A   1      47.544  26.719  32.665  1.00  0.00     0.167 HD
ATOM     72  C   UNL A   1      49.492  25.412  31.073  1.00  0.00     0.074 A 
ATOM     73  C   UNL A   1      50.223  24.941  29.917  1.00  0.00     0.031 C 
ATOM     74  C   UNL A   1      49.878  25.200  32.357  1.00  0.00     0.037 A 
BRANCH  61  75
ATOM     75  C   UNL A   1      46.142  27.771  36.555  1.00  0.00     0.064 A 
ATOM     76  C   UNL A   1      45.414  26.871  37.349  1.00  0.00     0.173 A 
ATOM     77  C   UNL A   1      46.617  28.944  37.161  1.00  0.00     0.173 A 
ATOM     78  F   UNL A   1      44.922  25.744  36.815  1.00  0.00    -0.203 F 
ATOM     79  C   UNL A   1      45.147  27.151  38.687  1.00  0.00     0.198 A 
ATOM     80  C   UNL A   1      46.378  29.204  38.508  1.00  0.00     0.198 A 
ATOM     81  F   UNL A   1      47.320  29.838  36.449  1.00  0.00    -0.203 F 
ATOM     82  F   UNL A   1      44.401  26.305  39.410  1.00  0.00    -0.200 F 
ATOM     83  C   UNL A   1      45.636  28.313  39.268  1.00  0.00     0.200 A 
ATOM     84  F   UNL A   1      46.863  30.320  39.070  1.00  0.00    -0.200 F 
ATOM     85  F   UNL A   1      45.383  28.577  40.556  1.00  0.00    -0.200 F 
ENDBRANCH  61  75
BRANCH  62  86
ATOM     86  C   UNL A   1      47.756  26.353  26.799  1.00  0.00     0.064 A 
ATOM     87  C   UNL A   1      47.208  25.275  26.088  1.00  0.00     0.173 A 
ATOM     88  C   UNL A   1      48.601  27.229  26.101  1.00  0.00     0.173 A 
ATOM     89  F   UNL A   1      46.419  24.391  26.719  1.00  0.00    -0.203 F 
ATOM     90  C   UNL A   1      47.510  25.068  24.745  1.00  0.00     0.198 A 
ATOM     91  C   UNL A   1      48.877  27.040  24.748  1.00  0.00     0.198 A 
ATOM     92  F   UNL A   1      49.158  28.272  26.733  1.00  0.00    -0.203 F 
ATOM     93  F   UNL A   1      47.017  23.998  24.106  1.00  0.00    -0.200 F 
ATOM     94  C   UNL A   1      48.340  25.954  24.073  1.00  0.00     0.200 A 
ATOM     95  F   UNL A   1      49.672  27.903  24.101  1.00  0.00    -0.200 F 
ATOM     96  F   UNL A   1      48.630  25.754  22.780  1.00  0.00    -0.200 F 
ENDBRANCH  62  86
BRANCH  74  97
ATOM     97  C   UNL A   1      51.104  24.366  32.591  1.00  0.00     0.064 A 
ATOM     98  C   UNL A   1      52.399  24.886  32.453  1.00  0.00     0.173 A 
ATOM     99  C   UNL A   1      50.977  23.035  33.025  1.00  0.00     0.173 A 
ATOM    100  F   UNL A   1      52.578  26.146  32.030  1.00  0.00    -0.203 F 
ATOM    101  C   UNL A   1      53.519  24.100  32.716  1.00  0.00     0.198 A 
ATOM    102  C   UNL A   1      52.097  22.264  33.320  1.00  0.00     0.198 A 
ATOM    103  F   UNL A   1      49.761  22.490  33.184  1.00  0.00    -0.203 F 
ATOM    104  F   UNL A   1      54.747  24.605  32.533  1.00  0.00    -0.200 F 
ATOM    105  C   UNL A   1      53.367  22.795  33.158  1.00  0.00     0.200 A 
ATOM    106  F   UNL A   1      51.946  21.009  33.766  1.00  0.00    -0.200 F 
ATOM    107  F   UNL A   1      54.446  22.045  33.427  1.00  0.00    -0.200 F 
ENDBRANCH  74  97
ENDBRANCH  48  49
ENDBRANCH  41  43
ENDBRANCH  40  41
ENDBRANCH  39  40
ENDBRANCH  38  39
ENDBRANCH  37  38
ENDBRANCH  36  37
ENDBRANCH  35  36
ENDBRANCH  34  35
ENDBRANCH  33  34
ENDBRANCH  32  33
ENDBRANCH   1  32
TORSDOF 28
ENDMDL
MODEL 3
REMARK VINA RESULT:      -8.6      6.002      8.653
REMARK SMILES CCCCCCCCNC(=O)Oc1cccc(-c2ccc([C@@H](C)C(=O)OCCOCCOCCOC(=O)c3ccc(-c4c5nc(c(-c6c(F)c(F)c(F)c(F)c6F)c6ccc([nH]6)c(-c6c(F)c(F)c(F)c(F)c6F)c6nc(c(-c7c(F)c(F)c(F)c(F)c7F)c7ccc4[nH]7)C=C6)C=C5)cc3)cc2F)c1
REMARK SMILES IDX 26 1 24 2 25 3 22 4 23 5 21 6 18 7 19 8 102 9 20 10 101 11
REMARK SMILES IDX 103 12 17 13 13 14 14 15 104 16 15 17 16 18 12 19 10 20 9 21
REMARK SMILES IDX 11 23 8 24 7 25 6 26 5 27 4 28 3 29 2 30 1 31 27 32 28 33
REMARK SMILES IDX 29 34 30 35 31 36 32 37 33 38 34 39 35 40 36 41 37 42 38 43
REMARK SMILES IDX 39 44 100 45 40 46 99 47 41 48 42 49 43 50 93 51 44 52 98 53
REMARK SMILES IDX 92 54 94 55 45 56 97 57 91 58 90 59 46 61 78 62 58 63 77 64
REMARK SMILES IDX 59 65 62 66 76 67 95 68 60 69 61 70 75 72 96 73 63 74 47 75
REMARK SMILES IDX 48 76 56 77 49 78 50 79 54 80 57 81 51 82 52 83 55 84 53 85
REMARK SMILES IDX 79 86 80 87 88 88 81 89 82 90 86 91 89 92 83 93 84 94 87 95
REMARK SMILES IDX 85 96 64 97 65 98 73 99 66 100 67 101 71 102 74 103 68 104
REMARK SMILES IDX 69 105 72 106 70 107
REMARK H PARENT 9 22 94 60 62 71
REMARK Flexibility Score: inf
ROOT
ATOM      1  O   UNL A   1      32.696  23.035  23.704  1.00  0.00    -0.463 OA
ENDROOT
BRANCH   1   2
ATOM      2  C   UNL A   1      31.669  23.373  24.523  1.00  0.00     0.313 C 
ATOM      3  O   UNL A   1      31.206  22.613  25.372  1.00  0.00    -0.252 OA
BRANCH   2   4
ATOM      4  C   UNL A   1      31.107  24.791  24.364  1.00  0.00     0.126 C 
ATOM      5  C   UNL A   1      30.906  25.077  22.876  1.00  0.00     0.025 C 
BRANCH   4   6
ATOM      6  C   UNL A   1      31.762  25.989  25.047  1.00  0.00    -0.031 A 
ATOM      7  C   UNL A   1      33.054  28.263  26.224  1.00  0.00     0.018 A 
ATOM      8  C   UNL A   1      32.122  27.490  26.940  1.00  0.00     0.012 A 
ATOM      9  C   UNL A   1      33.329  27.867  24.912  1.00  0.00     0.131 A 
ATOM     10  C   UNL A   1      31.492  26.368  26.368  1.00  0.00     0.005 A 
ATOM     11  C   UNL A   1      32.710  26.750  24.335  1.00  0.00     0.044 A 
ATOM     12  F   UNL A   1      34.213  28.548  24.166  1.00  0.00    -0.206 F 
BRANCH   7  13
ATOM     13  C   UNL A   1      33.728  29.418  26.850  1.00  0.00    -0.012 A 
ATOM     14  C   UNL A   1      35.691  30.501  27.785  1.00  0.00     0.133 A 
ATOM     15  C   UNL A   1      34.966  31.660  28.053  1.00  0.00     0.047 A 
ATOM     16  C   UNL A   1      35.087  29.380  27.205  1.00  0.00     0.056 A 
ATOM     17  C   UNL A   1      33.619  31.709  27.711  1.00  0.00     0.004 A 
ATOM     18  C   UNL A   1      33.009  30.600  27.116  1.00  0.00     0.009 A 
BRANCH  14  19
ATOM     19  O   UNL A   1      37.021  30.464  28.230  1.00  0.00    -0.410 OA
BRANCH  19  20
ATOM     20  C   UNL A   1      37.219  30.210  29.578  1.00  0.00     0.412 C 
ATOM     21  N   UNL A   1      37.804  31.254  30.242  1.00  0.00    -0.321 N 
ATOM     22  H   UNL A   1      37.904  31.154  31.216  1.00  0.00     0.167 HD
ATOM     23  O   UNL A   1      36.945  29.168  30.168  1.00  0.00    -0.224 OA
BRANCH  21  24
ATOM     24  C   UNL A   1      38.291  32.493  29.665  1.00  0.00     0.119 C 
BRANCH  24  25
ATOM     25  C   UNL A   1      38.671  33.523  30.729  1.00  0.00     0.021 C 
BRANCH  25  26
ATOM     26  C   UNL A   1      37.484  34.188  31.439  1.00  0.00     0.002 C 
BRANCH  26  27
ATOM     27  C   UNL A   1      36.103  33.855  30.863  1.00  0.00     0.000 C 
BRANCH  27  28
ATOM     28  C   UNL A   1      35.153  33.135  31.828  1.00  0.00    -0.000 C 
BRANCH  28  29
ATOM     29  C   UNL A   1      34.206  34.052  32.611  1.00  0.00    -0.000 C 
BRANCH  29  30
ATOM     30  C   UNL A   1      34.095  35.485  32.082  1.00  0.00    -0.003 C 
ATOM     31  C   UNL A   1      32.735  35.803  31.478  1.00  0.00     0.004 C 
ENDBRANCH  29  30
ENDBRANCH  28  29
ENDBRANCH  27  28
ENDBRANCH  26  27
ENDBRANCH  25  26
ENDBRANCH  24  25
ENDBRANCH  21  24
ENDBRANCH  19  20
ENDBRANCH  14  19
ENDBRANCH   7  13
ENDBRANCH   4   6
ENDBRANCH   2   4
ENDBRANCH   1   2
BRANCH   1  32
ATOM     32  C   UNL A   1      34.024  23.400  24.148  1.00  0.00     0.261 C 
BRANCH  32  33
ATOM     33  C   UNL A   1      34.270  23.306  25.662  1.00  0.00     0.202 C 
BRANCH  33  34
ATOM     34  O   UNL A   1      35.281  22.417  26.123  1.00  0.00    -0.376 OA
BRANCH  34  35
ATOM     35  C   UNL A   1      36.378  22.108  25.272  1.00  0.00     0.188 C 
BRANCH  35  36
ATOM     36  C   UNL A   1      37.771  22.664  25.598  1.00  0.00     0.188 C 
BRANCH  36  37
ATOM     37  O   UNL A   1      37.760  23.801  26.433  1.00  0.00    -0.376 OA
BRANCH  37  38
ATOM     38  C   UNL A   1      38.972  24.521  26.546  1.00  0.00     0.202 C 
BRANCH  38  39
ATOM     39  C   UNL A   1      39.440  24.736  27.991  1.00  0.00     0.261 C 
BRANCH  39  40
ATOM     40  O   UNL A   1      39.808  26.085  28.333  1.00  0.00    -0.460 OA
BRANCH  40  41
ATOM     41  C   UNL A   1      41.114  26.411  28.254  1.00  0.00     0.338 C 
ATOM     42  O   UNL A   1      41.964  25.916  27.524  1.00  0.00    -0.246 OA
BRANCH  41  43
ATOM     43  C   UNL A   1      41.324  27.631  29.060  1.00  0.00     0.060 A 
ATOM     44  C   UNL A   1      40.684  28.824  28.689  1.00  0.00     0.016 A 
ATOM     45  C   UNL A   1      42.153  27.592  30.182  1.00  0.00     0.016 A 
ATOM     46  C   UNL A   1      40.898  29.992  29.426  1.00  0.00     0.010 A 
ATOM     47  C   UNL A   1      42.385  28.764  30.902  1.00  0.00     0.010 A 
ATOM     48  C   UNL A   1      41.787  29.976  30.509  1.00  0.00    -0.014 A 
BRANCH  48  49
ATOM     49  C   UNL A   1      42.292  31.239  31.101  1.00  0.00     0.031 A 
ATOM     50  C   UNL A   1      41.570  31.785  32.301  1.00  0.00     0.074 A 
ATOM     51  C   UNL A   1      43.324  31.914  30.567  1.00  0.00     0.049 A 
ATOM     52  N   UNL A   1      41.683  32.949  32.887  1.00  0.00    -0.248 NA
ATOM     53  C   UNL A   1      40.570  30.895  32.912  1.00  0.00     0.031 C 
ATOM     54  C   UNL A   1      44.138  31.468  29.440  1.00  0.00     0.029 A 
ATOM     55  N   UNL A   1      43.839  33.145  30.892  1.00  0.00    -0.354 N 
ATOM     56  C   UNL A   1      40.752  32.939  33.918  1.00  0.00     0.074 A 
ATOM     57  C   UNL A   1      40.069  31.666  33.865  1.00  0.00     0.031 C 
ATOM     58  C   UNL A   1      45.036  32.425  29.148  1.00  0.00     0.029 A 
ATOM     59  C   UNL A   1      44.827  33.569  30.037  1.00  0.00     0.049 A 
ATOM     60  H   UNL A   1      43.532  33.673  31.665  1.00  0.00     0.167 HD
ATOM     61  C   UNL A   1      40.492  33.908  34.828  1.00  0.00     0.037 A 
ATOM     62  C   UNL A   1      45.455  34.759  29.959  1.00  0.00     0.037 A 
ATOM     63  C   UNL A   1      41.174  35.173  34.874  1.00  0.00     0.049 A 
ATOM     64  C   UNL A   1      45.092  35.855  30.932  1.00  0.00     0.074 A 
ATOM     65  C   UNL A   1      40.993  36.219  35.762  1.00  0.00     0.029 A 
ATOM     66  N   UNL A   1      42.163  35.568  33.986  1.00  0.00    -0.354 N 
ATOM     67  N   UNL A   1      44.220  35.843  31.911  1.00  0.00    -0.248 NA
ATOM     68  C   UNL A   1      45.804  37.134  30.787  1.00  0.00     0.031 C 
ATOM     69  C   UNL A   1      41.832  37.268  35.376  1.00  0.00     0.029 A 
ATOM     70  C   UNL A   1      42.587  36.851  34.291  1.00  0.00     0.049 A 
ATOM     71  H   UNL A   1      42.513  35.018  33.248  1.00  0.00     0.167 HD
ATOM     72  C   UNL A   1      44.308  37.089  32.521  1.00  0.00     0.074 A 
ATOM     73  C   UNL A   1      45.321  37.833  31.805  1.00  0.00     0.031 C 
ATOM     74  C   UNL A   1      43.616  37.571  33.584  1.00  0.00     0.037 A 
BRANCH  61  75
ATOM     75  C   UNL A   1      39.398  33.647  35.822  1.00  0.00     0.064 A 
ATOM     76  C   UNL A   1      39.670  33.188  37.120  1.00  0.00     0.173 A 
ATOM     77  C   UNL A   1      38.059  33.879  35.475  1.00  0.00     0.173 A 
ATOM     78  F   UNL A   1      40.931  32.933  37.497  1.00  0.00    -0.203 F 
ATOM     79  C   UNL A   1      38.638  32.942  38.022  1.00  0.00     0.198 A 
ATOM     80  C   UNL A   1      37.032  33.666  36.392  1.00  0.00     0.198 A 
ATOM     81  F   UNL A   1      37.743  34.320  34.248  1.00  0.00    -0.203 F 
ATOM     82  F   UNL A   1      38.917  32.448  39.237  1.00  0.00    -0.200 F 
ATOM     83  C   UNL A   1      37.321  33.188  37.661  1.00  0.00     0.200 A 
ATOM     84  F   UNL A   1      35.762  33.918  36.045  1.00  0.00    -0.200 F 
ATOM     85  F   UNL A   1      36.331  32.956  38.533  1.00  0.00    -0.200 F 
ENDBRANCH  61  75
BRANCH  62  86
ATOM     86  C   UNL A   1      46.483  34.994  28.908  1.00  0.00     0.064 A 
ATOM     87  C   UNL A   1      47.844  34.771  29.167  1.00  0.00     0.173 A 
ATOM     88  C   UNL A   1      46.133  35.476  27.639  1.00  0.00     0.173 A 
ATOM     89  F   UNL A   1      48.231  34.339  30.377  1.00  0.00    -0.203 F 
ATOM     90  C   UNL A   1      48.814  35.040  28.205  1.00  0.00     0.198 A 
ATOM     91  C   UNL A   1      47.102  35.715  26.666  1.00  0.00     0.198 A 
ATOM     92  F   UNL A   1      44.848  35.715  27.340  1.00  0.00    -0.203 F 
ATOM     93  F   UNL A   1      50.110  34.870  28.499  1.00  0.00    -0.200 F 
ATOM     94  C   UNL A   1      48.443  35.506  26.952  1.00  0.00     0.200 A 
ATOM     95  F   UNL A   1      46.738  36.157  25.454  1.00  0.00    -0.200 F 
ATOM     96  F   UNL A   1      49.377  35.765  26.028  1.00  0.00    -0.200 F 
ENDBRANCH  62  86
BRANCH  74  97
ATOM     97  C   UNL A   1      43.973  38.940  34.089  1.00  0.00     0.064 A 
ATOM     98  C   UNL A   1      43.420  40.105  33.540  1.00  0.00     0.173 A 
ATOM     99  C   UNL A   1      44.838  39.080  35.187  1.00  0.00     0.173 A 
ATOM    100  F   UNL A   1      42.597  40.030  32.483  1.00  0.00    -0.203 F 
ATOM    101  C   UNL A   1      43.737  41.360  34.056  1.00  0.00     0.198 A 
ATOM    102  C   UNL A   1      45.126  40.333  35.721  1.00  0.00     0.198 A 
ATOM    103  F   UNL A   1      45.387  37.997  35.758  1.00  0.00    -0.203 F 
ATOM    104  F   UNL A   1      43.232  42.464  33.486  1.00  0.00    -0.200 F 
ATOM    105  C   UNL A   1      44.581  41.472  35.150  1.00  0.00     0.200 A 
ATOM    106  F   UNL A   1      45.926  40.435  36.791  1.00  0.00    -0.200 F 
ATOM    107  F   UNL A   1      44.873  42.680  35.655  1.00  0.00    -0.200 F 
ENDBRANCH  74  97
ENDBRANCH  48  49
ENDBRANCH  41  43
ENDBRANCH  40  41
ENDBRANCH  39  40
ENDBRANCH  38  39
ENDBRANCH  37  38
ENDBRANCH  36  37
ENDBRANCH  35  36
ENDBRANCH  34  35
ENDBRANCH  33  34
ENDBRANCH  32  33
ENDBRANCH   1  32
TORSDOF 28
ENDMDL
