MODEL 1
REMARK VINA RESULT:     -11.1      0.000      0.000
REMARK SMILES COc1ccc(F)c(Nc2ccc(C(=O)OCCOCCOCCOC(=O)c3ccc(-c4c5nc(c(-c6c(F)c(F)c(F)c(F)c6F)c6ccc([nH]6)c(-c6c(F)c(F)c(F)c(F)c6F)c6nc(c(-c7c(F)c(F)c(F)c(F)c7F)c7ccc4[nH]7)C=C6)C=C5)cc3)cc2)c1
REMARK SMILES IDX 20 1 19 2 18 3 17 4 16 5 14 6 15 7 13 8 10 9 11 10 92 11
REMARK SMILES IDX 12 12 91 13 9 14 8 16 3 17 4 18 93 19 5 20 6 21 7 22 2 23
REMARK SMILES IDX 1 24 21 25 22 26 23 27 24 28 25 29 26 30 27 31 28 32 29 33
REMARK SMILES IDX 90 34 30 35 89 36 31 37 32 38 33 39 83 40 34 41 88 42 82 43
REMARK SMILES IDX 84 44 35 45 87 46 81 47 80 48 36 50 68 51 48 52 67 53 49 54
REMARK SMILES IDX 52 55 66 56 85 57 50 58 51 59 65 61 86 62 53 63 37 64 38 65
REMARK SMILES IDX 46 66 39 67 40 68 44 69 47 70 41 71 42 72 45 73 43 74 69 75
REMARK SMILES IDX 70 76 78 77 71 78 72 79 76 80 79 81 73 82 74 83 77 84 75 85
REMARK SMILES IDX 54 86 55 87 63 88 56 89 57 90 61 91 64 92 58 93 59 94 62 95
REMARK SMILES IDX 60 96
REMARK H PARENT 9 15 84 49 52 60
REMARK Flexibility Score: inf
ROOT
ATOM      1  C   UNL A   1      37.670  22.670  25.465  1.00  0.00     0.188 C 
ENDROOT
BRANCH   1   2
ATOM      2  O   UNL A   1      36.427  22.834  26.111  1.00  0.00    -0.376 OA
BRANCH   2   3
ATOM      3  C   UNL A   1      35.445  21.812  26.102  1.00  0.00     0.202 C 
BRANCH   3   4
ATOM      4  C   UNL A   1      33.930  22.057  26.110  1.00  0.00     0.261 C 
BRANCH   4   5
ATOM      5  O   UNL A   1      33.441  22.911  27.145  1.00  0.00    -0.460 OA
BRANCH   5   6
ATOM      6  C   UNL A   1      32.263  23.519  26.865  1.00  0.00     0.338 C 
ATOM      7  O   UNL A   1      31.203  23.375  27.455  1.00  0.00    -0.246 OA
BRANCH   6   8
ATOM      8  C   UNL A   1      32.465  24.559  25.836  1.00  0.00     0.060 A 
ATOM      9  C   UNL A   1      32.758  26.686  24.051  1.00  0.00     0.039 A 
ATOM     10  C   UNL A   1      33.482  26.675  25.245  1.00  0.00     0.027 A 
ATOM     11  C   UNL A   1      31.965  25.575  23.717  1.00  0.00     0.027 A 
ATOM     12  C   UNL A   1      33.324  25.621  26.144  1.00  0.00     0.018 A 
ATOM     13  C   UNL A   1      31.817  24.507  24.602  1.00  0.00     0.018 A 
BRANCH   9  14
ATOM     14  N   UNL A   1      32.632  27.886  23.331  1.00  0.00    -0.353 N 
ATOM     15  H   UNL A   1      33.369  28.130  22.727  1.00  0.00     0.167 HD
BRANCH  14  16
ATOM     16  C   UNL A   1      31.529  28.771  23.404  1.00  0.00     0.078 A 
ATOM     17  C   UNL A   1      29.521  29.768  22.431  1.00  0.00     0.121 A 
ATOM     18  C   UNL A   1      29.401  30.625  23.519  1.00  0.00     0.049 A 
ATOM     19  C   UNL A   1      30.566  28.844  22.386  1.00  0.00     0.075 A 
ATOM     20  C   UNL A   1      30.342  30.564  24.552  1.00  0.00     0.045 A 
ATOM     21  C   UNL A   1      31.395  29.651  24.483  1.00  0.00     0.146 A 
ATOM     22  F   UNL A   1      32.281  29.606  25.491  1.00  0.00    -0.205 F 
BRANCH  17  23
ATOM     23  O   UNL A   1      28.637  29.697  21.390  1.00  0.00    -0.497 OA
ATOM     24  C   UNL A   1      28.030  30.937  21.045  1.00  0.00     0.278 C 
ENDBRANCH  17  23
ENDBRANCH  14  16
ENDBRANCH   9  14
ENDBRANCH   6   8
ENDBRANCH   5   6
ENDBRANCH   4   5
ENDBRANCH   3   4
ENDBRANCH   2   3
ENDBRANCH   1   2
BRANCH   1  25
ATOM     25  C   UNL A   1      38.532  21.417  25.728  1.00  0.00     0.188 C 
BRANCH  25  26
ATOM     26  O   UNL A   1      39.608  21.448  26.643  1.00  0.00    -0.376 OA
BRANCH  26  27
ATOM     27  C   UNL A   1      40.745  20.629  26.424  1.00  0.00     0.202 C 
BRANCH  27  28
ATOM     28  C   UNL A   1      42.094  21.211  25.985  1.00  0.00     0.261 C 
BRANCH  28  29
ATOM     29  O   UNL A   1      42.017  22.423  25.227  1.00  0.00    -0.460 OA
BRANCH  29  30
ATOM     30  C   UNL A   1      43.017  23.308  25.458  1.00  0.00     0.338 C 
ATOM     31  O   UNL A   1      44.150  23.292  25.013  1.00  0.00    -0.246 OA
BRANCH  30  32
ATOM     32  C   UNL A   1      42.488  24.433  26.246  1.00  0.00     0.060 A 
ATOM     33  C   UNL A   1      43.041  25.709  26.062  1.00  0.00     0.016 A 
ATOM     34  C   UNL A   1      41.504  24.210  27.206  1.00  0.00     0.016 A 
ATOM     35  C   UNL A   1      42.620  26.772  26.861  1.00  0.00     0.010 A 
ATOM     36  C   UNL A   1      41.104  25.267  28.023  1.00  0.00     0.010 A 
ATOM     37  C   UNL A   1      41.680  26.542  27.872  1.00  0.00    -0.014 A 
BRANCH  37  38
ATOM     38  C   UNL A   1      41.426  27.559  28.916  1.00  0.00     0.031 A 
ATOM     39  C   UNL A   1      42.275  27.527  30.152  1.00  0.00     0.074 A 
ATOM     40  C   UNL A   1      40.428  28.450  28.795  1.00  0.00     0.049 A 
ATOM     41  N   UNL A   1      42.120  28.161  31.284  1.00  0.00    -0.248 NA
ATOM     42  C   UNL A   1      43.459  26.652  30.108  1.00  0.00     0.031 C 
ATOM     43  C   UNL A   1      39.584  28.618  27.616  1.00  0.00     0.029 A 
ATOM     44  N   UNL A   1      39.941  29.363  29.696  1.00  0.00    -0.354 N 
ATOM     45  C   UNL A   1      43.168  27.744  32.092  1.00  0.00     0.074 A 
ATOM     46  C   UNL A   1      43.949  26.796  31.329  1.00  0.00     0.031 C 
ATOM     47  C   UNL A   1      38.663  29.562  27.874  1.00  0.00     0.029 A 
ATOM     48  C   UNL A   1      38.820  30.021  29.254  1.00  0.00     0.049 A 
ATOM     49  H   UNL A   1      40.355  29.531  30.574  1.00  0.00     0.167 HD
ATOM     50  C   UNL A   1      43.447  28.120  33.361  1.00  0.00     0.037 A 
ATOM     51  C   UNL A   1      37.994  30.863  29.908  1.00  0.00     0.037 A 
ATOM     52  C   UNL A   1      42.665  29.065  34.109  1.00  0.00     0.049 A 
ATOM     53  C   UNL A   1      38.269  31.194  31.354  1.00  0.00     0.074 A 
ATOM     54  C   UNL A   1      42.872  29.525  35.396  1.00  0.00     0.029 A 
ATOM     55  N   UNL A   1      41.520  29.690  33.636  1.00  0.00    -0.354 N 
ATOM     56  N   UNL A   1      39.256  30.796  32.120  1.00  0.00    -0.248 NA
ATOM     57  C   UNL A   1      37.308  32.079  32.031  1.00  0.00     0.031 C 
ATOM     58  C   UNL A   1      41.823  30.386  35.723  1.00  0.00     0.029 A 
ATOM     59  C   UNL A   1      40.995  30.511  34.618  1.00  0.00     0.049 A 
ATOM     60  H   UNL A   1      41.139  29.567  32.737  1.00  0.00     0.167 HD
ATOM     61  C   UNL A   1      39.055  31.403  33.353  1.00  0.00     0.074 A 
ATOM     62  C   UNL A   1      37.849  32.196  33.238  1.00  0.00     0.031 C 
ATOM     63  C   UNL A   1      39.805  31.312  34.478  1.00  0.00     0.037 A 
BRANCH  50  64
ATOM     64  C   UNL A   1      44.629  27.491  34.034  1.00  0.00     0.064 A 
ATOM     65  C   UNL A   1      45.899  28.077  33.925  1.00  0.00     0.173 A 
ATOM     66  C   UNL A   1      44.522  26.281  34.734  1.00  0.00     0.173 A 
ATOM     67  F   UNL A   1      46.055  29.235  33.264  1.00  0.00    -0.203 F 
ATOM     68  C   UNL A   1      47.020  27.465  34.475  1.00  0.00     0.198 A 
ATOM     69  C   UNL A   1      45.641  25.686  35.310  1.00  0.00     0.198 A 
ATOM     70  F   UNL A   1      43.326  25.689  34.879  1.00  0.00    -0.203 F 
ATOM     71  F   UNL A   1      48.229  28.028  34.329  1.00  0.00    -0.200 F 
ATOM     72  C   UNL A   1      46.890  26.272  35.171  1.00  0.00     0.200 A 
ATOM     73  F   UNL A   1      45.510  24.546  36.001  1.00  0.00    -0.200 F 
ATOM     74  F   UNL A   1      47.969  25.690  35.709  1.00  0.00    -0.200 F 
ENDBRANCH  50  64
BRANCH  51  75
ATOM     75  C   UNL A   1      36.819  31.436  29.203  1.00  0.00     0.064 A 
ATOM     76  C   UNL A   1      36.771  32.789  28.838  1.00  0.00     0.173 A 
ATOM     77  C   UNL A   1      35.708  30.638  28.896  1.00  0.00     0.173 A 
ATOM     78  F   UNL A   1      37.810  33.594  29.103  1.00  0.00    -0.203 F 
ATOM     79  C   UNL A   1      35.646  33.328  28.214  1.00  0.00     0.198 A 
ATOM     80  C   UNL A   1      34.595  31.172  28.249  1.00  0.00     0.198 A 
ATOM     81  F   UNL A   1      35.718  29.332  29.200  1.00  0.00    -0.203 F 
ATOM     82  F   UNL A   1      35.614  34.632  27.905  1.00  0.00    -0.200 F 
ATOM     83  C   UNL A   1      34.561  32.519  27.918  1.00  0.00     0.200 A 
ATOM     84  F   UNL A   1      33.559  30.381  27.940  1.00  0.00    -0.200 F 
ATOM     85  F   UNL A   1      33.485  33.034  27.308  1.00  0.00    -0.200 F 
ENDBRANCH  51  75
BRANCH  63  86
ATOM     86  C   UNL A   1      39.392  32.114  35.677  1.00  0.00     0.064 A 
ATOM     87  C   UNL A   1      38.485  31.577  36.604  1.00  0.00     0.173 A 
ATOM     88  C   UNL A   1      39.773  33.454  35.828  1.00  0.00     0.173 A 
ATOM     89  F   UNL A   1      38.082  30.302  36.493  1.00  0.00    -0.203 F 
ATOM     90  C   UNL A   1      37.948  32.363  37.619  1.00  0.00     0.198 A 
ATOM     91  C   UNL A   1      39.253  34.230  36.861  1.00  0.00     0.198 A 
ATOM     92  F   UNL A   1      40.644  34.010  34.973  1.00  0.00    -0.203 F 
ATOM     93  F   UNL A   1      37.040  31.844  38.457  1.00  0.00    -0.200 F 
ATOM     94  C   UNL A   1      38.330  33.689  37.745  1.00  0.00     0.200 A 
ATOM     95  F   UNL A   1      39.634  35.509  36.994  1.00  0.00    -0.200 F 
ATOM     96  F   UNL A   1      37.803  34.450  38.714  1.00  0.00    -0.200 F 
ENDBRANCH  63  86
ENDBRANCH  37  38
ENDBRANCH  30  32
ENDBRANCH  29  30
ENDBRANCH  28  29
ENDBRANCH  27  28
ENDBRANCH  26  27
ENDBRANCH  25  26
ENDBRANCH   1  25
TORSDOF 20
ENDMDL
MODEL 2
REMARK VINA RESULT:     -11.0      4.596      8.653
REMARK SMILES COc1ccc(F)c(Nc2ccc(C(=O)OCCOCCOCCOC(=O)c3ccc(-c4c5nc(c(-c6c(F)c(F)c(F)c(F)c6F)c6ccc([nH]6)c(-c6c(F)c(F)c(F)c(F)c6F)c6nc(c(-c7c(F)c(F)c(F)c(F)c7F)c7ccc4[nH]7)C=C6)C=C5)cc3)cc2)c1
REMARK SMILES IDX 20 1 19 2 18 3 17 4 16 5 14 6 15 7 13 8 10 9 11 10 92 11
REMARK SMILES IDX 12 12 91 13 9 14 8 16 3 17 4 18 93 19 5 20 6 21 7 22 2 23
REMARK SMILES IDX 1 24 21 25 22 26 23 27 24 28 25 29 26 30 27 31 28 32 29 33
REMARK SMILES IDX 90 34 30 35 89 36 31 37 32 38 33 39 83 40 34 41 88 42 82 43
REMARK SMILES IDX 84 44 35 45 87 46 81 47 80 48 36 50 68 51 48 52 67 53 49 54
REMARK SMILES IDX 52 55 66 56 85 57 50 58 51 59 65 61 86 62 53 63 37 64 38 65
REMARK SMILES IDX 46 66 39 67 40 68 44 69 47 70 41 71 42 72 45 73 43 74 69 75
REMARK SMILES IDX 70 76 78 77 71 78 72 79 76 80 79 81 73 82 74 83 77 84 75 85
REMARK SMILES IDX 54 86 55 87 63 88 56 89 57 90 61 91 64 92 58 93 59 94 62 95
REMARK SMILES IDX 60 96
REMARK H PARENT 9 15 84 49 52 60
REMARK Flexibility Score: inf
ROOT
ATOM      1  C   UNL A   1      33.489  23.041  26.096  1.00  0.00     0.188 C 
ENDROOT
BRANCH   1   2
ATOM      2  O   UNL A   1      32.283  23.702  25.782  1.00  0.00    -0.376 OA
BRANCH   2   3
ATOM      3  C   UNL A   1      32.040  24.231  24.490  1.00  0.00     0.202 C 
BRANCH   3   4
ATOM      4  C   UNL A   1      32.697  25.500  23.929  1.00  0.00     0.261 C 
BRANCH   4   5
ATOM      5  O   UNL A   1      31.804  26.502  23.443  1.00  0.00    -0.460 OA
BRANCH   5   6
ATOM      6  C   UNL A   1      30.888  26.929  24.346  1.00  0.00     0.338 C 
ATOM      7  O   UNL A   1      29.734  26.547  24.459  1.00  0.00    -0.246 OA
BRANCH   6   8
ATOM      8  C   UNL A   1      31.533  27.813  25.337  1.00  0.00     0.060 A 
ATOM      9  C   UNL A   1      32.965  29.424  27.112  1.00  0.00     0.039 A 
ATOM     10  C   UNL A   1      33.001  29.696  25.743  1.00  0.00     0.027 A 
ATOM     11  C   UNL A   1      32.127  28.402  27.590  1.00  0.00     0.027 A 
ATOM     12  C   UNL A   1      32.298  28.883  24.855  1.00  0.00     0.018 A 
ATOM     13  C   UNL A   1      31.406  27.596  26.709  1.00  0.00     0.018 A 
BRANCH   9  14
ATOM     14  N   UNL A   1      33.936  29.992  27.955  1.00  0.00    -0.353 N 
ATOM     15  H   UNL A   1      34.423  29.386  28.557  1.00  0.00     0.167 HD
BRANCH  14  16
ATOM     16  C   UNL A   1      34.271  31.367  28.004  1.00  0.00     0.078 A 
ATOM     17  C   UNL A   1      33.626  33.718  28.183  1.00  0.00     0.121 A 
ATOM     18  C   UNL A   1      34.946  34.110  27.984  1.00  0.00     0.049 A 
ATOM     19  C   UNL A   1      33.301  32.361  28.206  1.00  0.00     0.075 A 
ATOM     20  C   UNL A   1      35.932  33.138  27.792  1.00  0.00     0.045 A 
ATOM     21  C   UNL A   1      35.589  31.785  27.795  1.00  0.00     0.146 A 
ATOM     22  F   UNL A   1      36.556  30.871  27.616  1.00  0.00    -0.205 F 
BRANCH  17  23
ATOM     23  O   UNL A   1      32.587  34.569  28.434  1.00  0.00    -0.497 OA
ATOM     24  C   UNL A   1      32.965  35.803  29.034  1.00  0.00     0.278 C 
ENDBRANCH  17  23
ENDBRANCH  14  16
ENDBRANCH   9  14
ENDBRANCH   6   8
ENDBRANCH   5   6
ENDBRANCH   4   5
ENDBRANCH   3   4
ENDBRANCH   2   3
ENDBRANCH   1   2
BRANCH   1  25
ATOM     25  C   UNL A   1      33.595  21.506  25.988  1.00  0.00     0.188 C 
BRANCH  25  26
ATOM     26  O   UNL A   1      34.748  20.887  25.455  1.00  0.00    -0.376 OA
BRANCH  26  27
ATOM     27  C   UNL A   1      35.582  21.601  24.557  1.00  0.00     0.202 C 
BRANCH  27  28
ATOM     28  C   UNL A   1      37.110  21.586  24.678  1.00  0.00     0.261 C 
BRANCH  28  29
ATOM     29  O   UNL A   1      37.622  21.969  25.959  1.00  0.00    -0.460 OA
BRANCH  29  30
ATOM     30  C   UNL A   1      38.951  21.764  26.129  1.00  0.00     0.338 C 
ATOM     31  O   UNL A   1      39.620  20.826  25.736  1.00  0.00    -0.246 OA
BRANCH  30  32
ATOM     32  C   UNL A   1      39.543  22.954  26.760  1.00  0.00     0.060 A 
ATOM     33  C   UNL A   1      39.131  24.225  26.331  1.00  0.00     0.016 A 
ATOM     34  C   UNL A   1      40.546  22.810  27.717  1.00  0.00     0.016 A 
ATOM     35  C   UNL A   1      39.742  25.365  26.850  1.00  0.00     0.010 A 
ATOM     36  C   UNL A   1      41.175  23.950  28.213  1.00  0.00     0.010 A 
ATOM     37  C   UNL A   1      40.796  25.228  27.761  1.00  0.00    -0.014 A 
BRANCH  37  38
ATOM     38  C   UNL A   1      41.654  26.383  28.108  1.00  0.00     0.031 A 
ATOM     39  C   UNL A   1      41.054  27.480  28.938  1.00  0.00     0.074 A 
ATOM     40  C   UNL A   1      42.912  26.482  27.650  1.00  0.00     0.049 A 
ATOM     41  N   UNL A   1      41.519  28.674  29.197  1.00  0.00    -0.248 NA
ATOM     42  C   UNL A   1      39.748  27.193  29.554  1.00  0.00     0.031 C 
ATOM     43  C   UNL A   1      43.619  25.452  26.895  1.00  0.00     0.029 A 
ATOM     44  N   UNL A   1      43.807  27.519  27.732  1.00  0.00    -0.354 N 
ATOM     45  C   UNL A   1      40.552  29.287  29.982  1.00  0.00     0.074 A 
ATOM     46  C   UNL A   1      39.471  28.341  30.151  1.00  0.00     0.031 C 
ATOM     47  C   UNL A   1      44.834  25.919  26.559  1.00  0.00     0.029 A 
ATOM     48  C   UNL A   1      44.964  27.298  27.029  1.00  0.00     0.049 A 
ATOM     49  H   UNL A   1      43.635  28.341  28.247  1.00  0.00     0.167 HD
ATOM     50  C   UNL A   1      40.570  30.532  30.509  1.00  0.00     0.037 A 
ATOM     51  C   UNL A   1      45.989  28.133  26.760  1.00  0.00     0.037 A 
ATOM     52  C   UNL A   1      41.651  31.463  30.337  1.00  0.00     0.049 A 
ATOM     53  C   UNL A   1      45.944  29.550  27.278  1.00  0.00     0.074 A 
ATOM     54  C   UNL A   1      41.772  32.744  30.842  1.00  0.00     0.029 A 
ATOM     55  N   UNL A   1      42.795  31.212  29.594  1.00  0.00    -0.354 N 
ATOM     56  N   UNL A   1      45.028  30.132  28.014  1.00  0.00    -0.248 NA
ATOM     57  C   UNL A   1      47.065  30.430  26.913  1.00  0.00     0.031 C 
ATOM     58  C   UNL A   1      42.964  33.289  30.362  1.00  0.00     0.029 A 
ATOM     59  C   UNL A   1      43.615  32.327  29.605  1.00  0.00     0.049 A 
ATOM     60  H   UNL A   1      42.993  30.368  29.128  1.00  0.00     0.167 HD
ATOM     61  C   UNL A   1      45.475  31.430  28.229  1.00  0.00     0.074 A 
ATOM     62  C   UNL A   1      46.743  31.555  27.542  1.00  0.00     0.031 C 
ATOM     63  C   UNL A   1      44.886  32.425  28.934  1.00  0.00     0.037 A 
BRANCH  50  64
ATOM     64  C   UNL A   1      39.376  30.975  31.300  1.00  0.00     0.064 A 
ATOM     65  C   UNL A   1      39.234  30.590  32.641  1.00  0.00     0.173 A 
ATOM     66  C   UNL A   1      38.344  31.725  30.718  1.00  0.00     0.173 A 
ATOM     67  F   UNL A   1      40.193  29.870  33.244  1.00  0.00    -0.203 F 
ATOM     68  C   UNL A   1      38.095  30.925  33.366  1.00  0.00     0.198 A 
ATOM     69  C   UNL A   1      37.218  32.084  31.455  1.00  0.00     0.198 A 
ATOM     70  F   UNL A   1      38.440  32.130  29.443  1.00  0.00    -0.203 F 
ATOM     71  F   UNL A   1      37.967  30.517  34.637  1.00  0.00    -0.200 F 
ATOM     72  C   UNL A   1      37.090  31.675  32.774  1.00  0.00     0.200 A 
ATOM     73  F   UNL A   1      36.259  32.828  30.889  1.00  0.00    -0.200 F 
ATOM     74  F   UNL A   1      35.998  32.005  33.476  1.00  0.00    -0.200 F 
ENDBRANCH  50  64
BRANCH  51  75
ATOM     75  C   UNL A   1      47.135  27.653  25.947  1.00  0.00     0.064 A 
ATOM     76  C   UNL A   1      47.137  27.760  24.548  1.00  0.00     0.173 A 
ATOM     77  C   UNL A   1      48.248  27.057  26.557  1.00  0.00     0.173 A 
ATOM     78  F   UNL A   1      46.100  28.327  23.915  1.00  0.00    -0.203 F 
ATOM     79  C   UNL A   1      48.198  27.268  23.789  1.00  0.00     0.198 A 
ATOM     80  C   UNL A   1      49.319  26.589  25.798  1.00  0.00     0.198 A 
ATOM     81  F   UNL A   1      48.305  26.958  27.892  1.00  0.00    -0.203 F 
ATOM     82  F   UNL A   1      48.160  27.354  22.452  1.00  0.00    -0.200 F 
ATOM     83  C   UNL A   1      49.289  26.686  24.415  1.00  0.00     0.200 A 
ATOM     84  F   UNL A   1      50.385  26.053  26.408  1.00  0.00    -0.200 F 
ATOM     85  F   UNL A   1      50.315  26.223  23.687  1.00  0.00    -0.200 F 
ENDBRANCH  51  75
BRANCH  63  86
ATOM     86  C   UNL A   1      45.607  33.737  29.053  1.00  0.00     0.064 A 
ATOM     87  C   UNL A   1      45.406  34.739  28.091  1.00  0.00     0.173 A 
ATOM     88  C   UNL A   1      46.596  33.943  30.023  1.00  0.00     0.173 A 
ATOM     89  F   UNL A   1      44.478  34.581  27.135  1.00  0.00    -0.203 F 
ATOM     90  C   UNL A   1      46.194  35.885  28.076  1.00  0.00     0.198 A 
ATOM     91  C   UNL A   1      47.365  35.104  30.021  1.00  0.00     0.198 A 
ATOM     92  F   UNL A   1      46.818  33.019  30.969  1.00  0.00    -0.203 F 
ATOM     93  F   UNL A   1      46.023  36.802  27.113  1.00  0.00    -0.200 F 
ATOM     94  C   UNL A   1      47.175  36.066  29.039  1.00  0.00     0.200 A 
ATOM     95  F   UNL A   1      48.303  35.287  30.961  1.00  0.00    -0.200 F 
ATOM     96  F   UNL A   1      47.943  37.164  29.016  1.00  0.00    -0.200 F 
ENDBRANCH  63  86
ENDBRANCH  37  38
ENDBRANCH  30  32
ENDBRANCH  29  30
ENDBRANCH  28  29
ENDBRANCH  27  28
ENDBRANCH  26  27
ENDBRANCH  25  26
ENDBRANCH   1  25
TORSDOF 20
ENDMDL
MODEL 3
REMARK VINA RESULT:     -10.6      4.623      6.626
REMARK SMILES COc1ccc(F)c(Nc2ccc(C(=O)OCCOCCOCCOC(=O)c3ccc(-c4c5nc(c(-c6c(F)c(F)c(F)c(F)c6F)c6ccc([nH]6)c(-c6c(F)c(F)c(F)c(F)c6F)c6nc(c(-c7c(F)c(F)c(F)c(F)c7F)c7ccc4[nH]7)C=C6)C=C5)cc3)cc2)c1
REMARK SMILES IDX 20 1 19 2 18 3 17 4 16 5 14 6 15 7 13 8 10 9 11 10 92 11
REMARK SMILES IDX 12 12 91 13 9 14 8 16 3 17 4 18 93 19 5 20 6 21 7 22 2 23
REMARK SMILES IDX 1 24 21 25 22 26 23 27 24 28 25 29 26 30 27 31 28 32 29 33
REMARK SMILES IDX 90 34 30 35 89 36 31 37 32 38 33 39 83 40 34 41 88 42 82 43
REMARK SMILES IDX 84 44 35 45 87 46 81 47 80 48 36 50 68 51 48 52 67 53 49 54
REMARK SMILES IDX 52 55 66 56 85 57 50 58 51 59 65 61 86 62 53 63 37 64 38 65
REMARK SMILES IDX 46 66 39 67 40 68 44 69 47 70 41 71 42 72 45 73 43 74 69 75
REMARK SMILES IDX 70 76 78 77 71 78 72 79 76 80 79 81 73 82 74 83 77 84 75 85
REMARK SMILES IDX 54 86 55 87 63 88 56 89 57 90 61 91 64 92 58 93 59 94 62 95
REMARK SMILES IDX 60 96
REMARK H PARENT 9 15 84 49 52 60
REMARK Flexibility Score: inf
ROOT
ATOM      1  C   UNL A   1      35.848  20.811  25.042  1.00  0.00     0.188 C 
ENDROOT
BRANCH   1   2
ATOM      2  O   UNL A   1      35.062  21.431  26.036  1.00  0.00    -0.376 OA
BRANCH   2   3
ATOM      3  C   UNL A   1      33.783  20.932  26.389  1.00  0.00     0.202 C 
BRANCH   3   4
ATOM      4  C   UNL A   1      32.958  19.961  25.533  1.00  0.00     0.261 C 
BRANCH   4   5
ATOM      5  O   UNL A   1      31.877  20.538  24.801  1.00  0.00    -0.460 OA
BRANCH   5   6
ATOM      6  C   UNL A   1      32.176  20.874  23.523  1.00  0.00     0.338 C 
ATOM      7  O   UNL A   1      32.146  20.142  22.545  1.00  0.00    -0.246 OA
BRANCH   6   8
ATOM      8  C   UNL A   1      32.370  22.333  23.417  1.00  0.00     0.060 A 
ATOM      9  C   UNL A   1      32.550  25.097  23.063  1.00  0.00     0.039 A 
ATOM     10  C   UNL A   1      31.402  24.542  23.634  1.00  0.00     0.027 A 
ATOM     11  C   UNL A   1      33.642  24.265  22.765  1.00  0.00     0.027 A 
ATOM     12  C   UNL A   1      31.306  23.161  23.796  1.00  0.00     0.018 A 
ATOM     13  C   UNL A   1      33.561  22.884  22.943  1.00  0.00     0.018 A 
BRANCH   9  14
ATOM     14  N   UNL A   1      32.508  26.412  22.567  1.00  0.00    -0.353 N 
ATOM     15  H   UNL A   1      32.749  26.547  21.623  1.00  0.00     0.167 HD
BRANCH  14  16
ATOM     16  C   UNL A   1      32.145  27.556  23.317  1.00  0.00     0.078 A 
ATOM     17  C   UNL A   1      32.578  29.164  25.106  1.00  0.00     0.121 A 
ATOM     18  C   UNL A   1      31.347  29.771  24.879  1.00  0.00     0.049 A 
ATOM     19  C   UNL A   1      32.972  28.079  24.322  1.00  0.00     0.075 A 
ATOM     20  C   UNL A   1      30.509  29.275  23.876  1.00  0.00     0.045 A 
ATOM     21  C   UNL A   1      30.907  28.175  23.114  1.00  0.00     0.146 A 
ATOM     22  F   UNL A   1      30.087  27.723  22.152  1.00  0.00    -0.205 F 
BRANCH  17  23
ATOM     23  O   UNL A   1      33.503  29.589  26.019  1.00  0.00    -0.497 OA
ATOM     24  C   UNL A   1      33.953  28.582  26.918  1.00  0.00     0.278 C 
ENDBRANCH  17  23
ENDBRANCH  14  16
ENDBRANCH   9  14
ENDBRANCH   6   8
ENDBRANCH   5   6
ENDBRANCH   4   5
ENDBRANCH   3   4
ENDBRANCH   2   3
ENDBRANCH   1   2
BRANCH   1  25
ATOM     25  C   UNL A   1      37.285  21.301  24.759  1.00  0.00     0.188 C 
BRANCH  25  26
ATOM     26  O   UNL A   1      38.083  21.857  25.784  1.00  0.00    -0.376 OA
BRANCH  26  27
ATOM     27  C   UNL A   1      39.381  21.340  26.027  1.00  0.00     0.202 C 
BRANCH  27  28
ATOM     28  C   UNL A   1      39.741  19.877  25.740  1.00  0.00     0.261 C 
BRANCH  28  29
ATOM     29  O   UNL A   1      40.691  19.296  26.640  1.00  0.00    -0.460 OA
BRANCH  29  30
ATOM     30  C   UNL A   1      41.972  19.293  26.197  1.00  0.00     0.338 C 
ATOM     31  O   UNL A   1      42.557  18.405  25.605  1.00  0.00    -0.246 OA
BRANCH  30  32
ATOM     32  C   UNL A   1      42.555  20.627  26.408  1.00  0.00     0.060 A 
ATOM     33  C   UNL A   1      42.584  21.157  27.707  1.00  0.00     0.016 A 
ATOM     34  C   UNL A   1      43.004  21.372  25.320  1.00  0.00     0.016 A 
ATOM     35  C   UNL A   1      43.049  22.455  27.918  1.00  0.00     0.010 A 
ATOM     36  C   UNL A   1      43.441  22.679  25.529  1.00  0.00     0.010 A 
ATOM     37  C   UNL A   1      43.438  23.234  26.823  1.00  0.00    -0.014 A 
BRANCH  37  38
ATOM     38  C   UNL A   1      43.656  24.690  26.967  1.00  0.00     0.031 A 
ATOM     39  C   UNL A   1      45.045  25.218  26.754  1.00  0.00     0.074 A 
ATOM     40  C   UNL A   1      42.660  25.513  27.333  1.00  0.00     0.049 A 
ATOM     41  N   UNL A   1      45.534  26.400  27.022  1.00  0.00    -0.248 NA
ATOM     42  C   UNL A   1      46.016  24.280  26.167  1.00  0.00     0.031 C 
ATOM     43  C   UNL A   1      41.263  25.125  27.501  1.00  0.00     0.029 A 
ATOM     44  N   UNL A   1      42.686  26.846  27.659  1.00  0.00    -0.354 N 
ATOM     45  C   UNL A   1      46.873  26.339  26.660  1.00  0.00     0.074 A 
ATOM     46  C   UNL A   1      47.124  25.004  26.163  1.00  0.00     0.031 C 
ATOM     47  C   UNL A   1      40.566  26.194  27.926  1.00  0.00     0.029 A 
ATOM     48  C   UNL A   1      41.480  27.321  28.110  1.00  0.00     0.049 A 
ATOM     49  H   UNL A   1      43.492  27.407  27.577  1.00  0.00     0.167 HD
ATOM     50  C   UNL A   1      47.806  27.314  26.741  1.00  0.00     0.037 A 
ATOM     51  C   UNL A   1      41.166  28.516  28.650  1.00  0.00     0.037 A 
ATOM     52  C   UNL A   1      47.544  28.638  27.235  1.00  0.00     0.049 A 
ATOM     53  C   UNL A   1      42.244  29.557  28.821  1.00  0.00     0.074 A 
ATOM     54  C   UNL A   1      48.417  29.704  27.344  1.00  0.00     0.029 A 
ATOM     55  N   UNL A   1      46.315  29.073  27.708  1.00  0.00    -0.354 N 
ATOM     56  N   UNL A   1      43.510  29.499  28.485  1.00  0.00    -0.248 NA
ATOM     57  C   UNL A   1      41.855  30.824  29.461  1.00  0.00     0.031 C 
ATOM     58  C   UNL A   1      47.732  30.768  27.934  1.00  0.00     0.029 A 
ATOM     59  C   UNL A   1      46.415  30.385  28.136  1.00  0.00     0.049 A 
ATOM     60  H   UNL A   1      45.494  28.530  27.735  1.00  0.00     0.167 HD
ATOM     61  C   UNL A   1      44.059  30.725  28.839  1.00  0.00     0.074 A 
ATOM     62  C   UNL A   1      42.991  31.510  29.422  1.00  0.00     0.031 C 
ATOM     63  C   UNL A   1      45.334  31.159  28.692  1.00  0.00     0.037 A 
BRANCH  50  64
ATOM     64  C   UNL A   1      49.204  26.983  26.314  1.00  0.00     0.064 A 
ATOM     65  C   UNL A   1      49.585  27.125  24.971  1.00  0.00     0.173 A 
ATOM     66  C   UNL A   1      50.148  26.470  27.215  1.00  0.00     0.173 A 
ATOM     67  F   UNL A   1      48.717  27.610  24.069  1.00  0.00    -0.203 F 
ATOM     68  C   UNL A   1      50.853  26.746  24.543  1.00  0.00     0.198 A 
ATOM     69  C   UNL A   1      51.426  26.121  26.789  1.00  0.00     0.198 A 
ATOM     70  F   UNL A   1      49.837  26.331  28.513  1.00  0.00    -0.203 F 
ATOM     71  F   UNL A   1      51.183  26.859  23.248  1.00  0.00    -0.200 F 
ATOM     72  C   UNL A   1      51.774  26.249  25.452  1.00  0.00     0.200 A 
ATOM     73  F   UNL A   1      52.323  25.662  27.672  1.00  0.00    -0.200 F 
ATOM     74  F   UNL A   1      52.999  25.895  25.040  1.00  0.00    -0.200 F 
ENDBRANCH  50  64
BRANCH  51  75
ATOM     75  C   UNL A   1      39.771  28.782  29.085  1.00  0.00     0.064 A 
ATOM     76  C   UNL A   1      38.836  29.377  28.224  1.00  0.00     0.173 A 
ATOM     77  C   UNL A   1      39.350  28.461  30.382  1.00  0.00     0.173 A 
ATOM     78  F   UNL A   1      39.186  29.698  26.970  1.00  0.00    -0.203 F 
ATOM     79  C   UNL A   1      37.540  29.663  28.653  1.00  0.00     0.198 A 
ATOM     80  C   UNL A   1      38.047  28.723  30.802  1.00  0.00     0.198 A 
ATOM     81  F   UNL A   1      40.199  27.866  31.232  1.00  0.00    -0.203 F 
ATOM     82  F   UNL A   1      36.677  30.261  27.821  1.00  0.00    -0.200 F 
ATOM     83  C   UNL A   1      37.146  29.332  29.940  1.00  0.00     0.200 A 
ATOM     84  F   UNL A   1      37.661  28.378  32.038  1.00  0.00    -0.200 F 
ATOM     85  F   UNL A   1      35.898  29.596  30.350  1.00  0.00    -0.200 F 
ENDBRANCH  51  75
BRANCH  63  86
ATOM     86  C   UNL A   1      45.664  32.560  29.120  1.00  0.00     0.064 A 
ATOM     87  C   UNL A   1      46.084  32.813  30.435  1.00  0.00     0.173 A 
ATOM     88  C   UNL A   1      45.423  33.656  28.282  1.00  0.00     0.173 A 
ATOM     89  F   UNL A   1      46.316  31.795  31.278  1.00  0.00    -0.203 F 
ATOM     90  C   UNL A   1      46.218  34.116  30.905  1.00  0.00     0.198 A 
ATOM     91  C   UNL A   1      45.583  34.959  28.748  1.00  0.00     0.198 A 
ATOM     92  F   UNL A   1      45.028  33.465  27.014  1.00  0.00    -0.203 F 
ATOM     93  F   UNL A   1      46.565  34.333  32.181  1.00  0.00    -0.200 F 
ATOM     94  C   UNL A   1      45.965  35.187  30.063  1.00  0.00     0.200 A 
ATOM     95  F   UNL A   1      45.354  35.995  27.930  1.00  0.00    -0.200 F 
ATOM     96  F   UNL A   1      46.081  36.442  30.520  1.00  0.00    -0.200 F 
ENDBRANCH  63  86
ENDBRANCH  37  38
ENDBRANCH  30  32
ENDBRANCH  29  30
ENDBRANCH  28  29
ENDBRANCH  27  28
ENDBRANCH  26  27
ENDBRANCH  25  26
ENDBRANCH   1  25
TORSDOF 20
ENDMDL
