MODEL 1
REMARK VINA RESULT:     -10.7      0.000      0.000
REMARK SMILES C[C@@H]1[C@H](C(=O)OCCOCCOCCOC(=O)c2ccc(-c3c4nc(c(-c5c(F)c(F)c(F)c(F)c5F)c5ccc([nH]5)c(-c5c(F)c(F)c(F)c(F)c5F)c5nc(c(-c6c(F)c(F)c(F)c(F)c6F)c6ccc3[nH]6)C=C5)C=C4)cc2)CCN1C(=O)COCc1ccccc1
REMARK SMILES IDX 9 1 8 2 7 3 6 4 4 5 5 6 3 7 1 8 2 9 83 10 81 11 82 12 84 13
REMARK SMILES IDX 85 14 86 15 87 16 88 17 89 18 90 19 94 20 91 21 93 22 92 23
REMARK SMILES IDX 10 24 11 25 12 26 13 27 14 28 15 29 16 30 17 31 18 32 19 33
REMARK SMILES IDX 80 34 20 35 79 36 21 37 22 38 23 39 73 40 24 41 78 42 72 43
REMARK SMILES IDX 74 44 25 45 77 46 71 47 70 48 26 50 58 51 38 52 57 53 39 54
REMARK SMILES IDX 42 55 56 56 75 57 40 58 41 59 55 61 76 62 43 63 27 64 28 65
REMARK SMILES IDX 36 66 29 67 30 68 34 69 37 70 31 71 32 72 35 73 33 74 59 75
REMARK SMILES IDX 60 76 68 77 61 78 62 79 66 80 69 81 63 82 64 83 67 84 65 85
REMARK SMILES IDX 44 86 45 87 53 88 46 89 47 90 51 91 54 92 48 93 49 94 52 95
REMARK SMILES IDX 50 96
REMARK H PARENT 74 49 42 60
REMARK Flexibility Score: inf
ROOT
ATOM      1  O   UNL A   1      33.892  34.227  29.067  1.00  0.00    -0.376 OA
ENDROOT
BRANCH   1   2
ATOM      2  C   UNL A   1      33.589  33.349  27.986  1.00  0.00     0.202 C 
BRANCH   2   3
ATOM      3  C   UNL A   1      34.055  31.884  28.030  1.00  0.00     0.261 C 
BRANCH   3   4
ATOM      4  O   UNL A   1      33.351  31.010  27.119  1.00  0.00    -0.463 OA
BRANCH   4   5
ATOM      5  C   UNL A   1      33.905  29.795  26.909  1.00  0.00     0.311 C 
ATOM      6  O   UNL A   1      34.905  29.395  27.498  1.00  0.00    -0.252 OA
BRANCH   5   7
ATOM      7  C   UNL A   1      33.138  28.881  25.970  1.00  0.00     0.123 C 
ATOM      8  C   UNL A   1      31.448  27.879  27.679  1.00  0.00     0.032 C 
ATOM      9  C   UNL A   1      32.256  27.691  26.399  1.00  0.00     0.096 C 
ATOM     10  N   UNL A   1      31.356  27.530  25.239  1.00  0.00    -0.337 N 
ATOM     11  C   UNL A   1      32.161  29.743  25.162  1.00  0.00     0.039 C 
ATOM     12  C   UNL A   1      31.313  28.731  24.425  1.00  0.00     0.121 C 
BRANCH  10  13
ATOM     13  C   UNL A   1      30.706  26.399  24.788  1.00  0.00     0.248 C 
ATOM     14  O   UNL A   1      29.566  26.126  25.175  1.00  0.00    -0.272 OA
BRANCH  13  15
ATOM     15  C   UNL A   1      31.397  25.522  23.736  1.00  0.00     0.260 C 
BRANCH  15  16
ATOM     16  O   UNL A   1      32.317  24.553  24.234  1.00  0.00    -0.367 OA
BRANCH  16  17
ATOM     17  C   UNL A   1      32.225  23.276  23.589  1.00  0.00     0.196 C 
BRANCH  17  18
ATOM     18  C   UNL A   1      33.230  22.263  24.081  1.00  0.00    -0.022 A 
ATOM     19  C   UNL A   1      34.574  22.628  24.248  1.00  0.00     0.006 A 
ATOM     20  C   UNL A   1      32.846  20.943  24.357  1.00  0.00     0.006 A 
ATOM     21  C   UNL A   1      35.520  21.685  24.650  1.00  0.00     0.000 A 
ATOM     22  C   UNL A   1      33.796  19.999  24.751  1.00  0.00     0.000 A 
ATOM     23  C   UNL A   1      35.133  20.369  24.893  1.00  0.00     0.000 A 
ENDBRANCH  17  18
ENDBRANCH  16  17
ENDBRANCH  15  16
ENDBRANCH  13  15
ENDBRANCH  10  13
ENDBRANCH   5   7
ENDBRANCH   4   5
ENDBRANCH   3   4
ENDBRANCH   2   3
ENDBRANCH   1   2
BRANCH   1  24
ATOM     24  C   UNL A   1      33.060  35.352  29.274  1.00  0.00     0.188 C 
BRANCH  24  25
ATOM     25  C   UNL A   1      33.104  36.070  30.627  1.00  0.00     0.188 C 
BRANCH  25  26
ATOM     26  O   UNL A   1      33.031  35.309  31.804  1.00  0.00    -0.376 OA
BRANCH  26  27
ATOM     27  C   UNL A   1      33.954  35.476  32.868  1.00  0.00     0.202 C 
BRANCH  27  28
ATOM     28  C   UNL A   1      35.315  34.768  33.029  1.00  0.00     0.261 C 
BRANCH  28  29
ATOM     29  O   UNL A   1      35.813  33.989  31.942  1.00  0.00    -0.460 OA
BRANCH  29  30
ATOM     30  C   UNL A   1      35.423  32.688  31.915  1.00  0.00     0.338 C 
ATOM     31  O   UNL A   1      34.308  32.247  32.098  1.00  0.00    -0.246 OA
BRANCH  30  32
ATOM     32  C   UNL A   1      36.557  31.913  31.362  1.00  0.00     0.060 A 
ATOM     33  C   UNL A   1      37.429  31.265  32.251  1.00  0.00     0.016 A 
ATOM     34  C   UNL A   1      36.724  31.782  29.983  1.00  0.00     0.016 A 
ATOM     35  C   UNL A   1      38.480  30.491  31.761  1.00  0.00     0.010 A 
ATOM     36  C   UNL A   1      37.796  31.035  29.493  1.00  0.00     0.010 A 
ATOM     37  C   UNL A   1      38.693  30.408  30.380  1.00  0.00    -0.014 A 
BRANCH  37  38
ATOM     38  C   UNL A   1      39.966  29.857  29.855  1.00  0.00     0.031 A 
ATOM     39  C   UNL A   1      41.145  30.785  29.759  1.00  0.00     0.074 A 
ATOM     40  C   UNL A   1      40.081  28.574  29.471  1.00  0.00     0.049 A 
ATOM     41  N   UNL A   1      42.328  30.581  29.236  1.00  0.00    -0.248 NA
ATOM     42  C   UNL A   1      40.959  32.130  30.325  1.00  0.00     0.031 C 
ATOM     43  C   UNL A   1      39.033  27.562  29.566  1.00  0.00     0.029 A 
ATOM     44  N   UNL A   1      41.142  27.909  28.906  1.00  0.00    -0.354 N 
ATOM     45  C   UNL A   1      43.020  31.773  29.404  1.00  0.00     0.074 A 
ATOM     46  C   UNL A   1      42.119  32.705  30.043  1.00  0.00     0.031 C 
ATOM     47  C   UNL A   1      39.497  26.406  29.058  1.00  0.00     0.029 A 
ATOM     48  C   UNL A   1      40.860  26.609  28.567  1.00  0.00     0.049 A 
ATOM     49  H   UNL A   1      42.021  28.327  28.757  1.00  0.00     0.167 HD
ATOM     50  C   UNL A   1      44.298  32.061  29.064  1.00  0.00     0.037 A 
ATOM     51  C   UNL A   1      41.608  25.703  27.906  1.00  0.00     0.037 A 
ATOM     52  C   UNL A   1      45.191  31.135  28.420  1.00  0.00     0.049 A 
ATOM     53  C   UNL A   1      42.995  26.084  27.444  1.00  0.00     0.074 A 
ATOM     54  C   UNL A   1      46.506  31.331  28.035  1.00  0.00     0.029 A 
ATOM     55  N   UNL A   1      44.857  29.838  28.061  1.00  0.00    -0.354 N 
ATOM     56  N   UNL A   1      43.652  27.206  27.615  1.00  0.00    -0.248 NA
ATOM     57  C   UNL A   1      43.746  25.065  26.692  1.00  0.00     0.031 C 
ATOM     58  C   UNL A   1      46.948  30.173  27.389  1.00  0.00     0.029 A 
ATOM     59  C   UNL A   1      45.933  29.231  27.434  1.00  0.00     0.049 A 
ATOM     60  H   UNL A   1      43.986  29.412  28.228  1.00  0.00     0.167 HD
ATOM     61  C   UNL A   1      44.900  27.014  27.033  1.00  0.00     0.074 A 
ATOM     62  C   UNL A   1      44.915  25.663  26.513  1.00  0.00     0.031 C 
ATOM     63  C   UNL A   1      45.942  27.878  26.940  1.00  0.00     0.037 A 
BRANCH  50  64
ATOM     64  C   UNL A   1      44.797  33.446  29.358  1.00  0.00     0.064 A 
ATOM     65  C   UNL A   1      44.622  34.501  28.449  1.00  0.00     0.173 A 
ATOM     66  C   UNL A   1      45.431  33.729  30.577  1.00  0.00     0.173 A 
ATOM     67  F   UNL A   1      44.038  34.280  27.262  1.00  0.00    -0.203 F 
ATOM     68  C   UNL A   1      45.085  35.782  28.740  1.00  0.00     0.198 A 
ATOM     69  C   UNL A   1      45.861  35.017  30.879  1.00  0.00     0.198 A 
ATOM     70  F   UNL A   1      45.623  32.756  31.481  1.00  0.00    -0.203 F 
ATOM     71  F   UNL A   1      44.952  36.762  27.836  1.00  0.00    -0.200 F 
ATOM     72  C   UNL A   1      45.695  36.040  29.957  1.00  0.00     0.200 A 
ATOM     73  F   UNL A   1      46.439  35.268  32.062  1.00  0.00    -0.200 F 
ATOM     74  F   UNL A   1      46.131  37.275  30.242  1.00  0.00    -0.200 F 
ENDBRANCH  50  64
BRANCH  51  75
ATOM     75  C   UNL A   1      41.067  24.346  27.616  1.00  0.00     0.064 A 
ATOM     76  C   UNL A   1      41.606  23.208  28.232  1.00  0.00     0.173 A 
ATOM     77  C   UNL A   1      40.042  24.153  26.678  1.00  0.00     0.173 A 
ATOM     78  F   UNL A   1      42.610  23.335  29.114  1.00  0.00    -0.203 F 
ATOM     79  C   UNL A   1      41.162  21.929  27.902  1.00  0.00     0.198 A 
ATOM     80  C   UNL A   1      39.574  22.877  26.374  1.00  0.00     0.198 A 
ATOM     81  F   UNL A   1      39.495  25.206  26.053  1.00  0.00    -0.203 F 
ATOM     82  F   UNL A   1      41.741  20.856  28.458  1.00  0.00    -0.200 F 
ATOM     83  C   UNL A   1      40.143  21.765  26.976  1.00  0.00     0.200 A 
ATOM     84  F   UNL A   1      38.581  22.723  25.487  1.00  0.00    -0.200 F 
ATOM     85  F   UNL A   1      39.718  20.535  26.655  1.00  0.00    -0.200 F 
ENDBRANCH  51  75
BRANCH  63  86
ATOM     86  C   UNL A   1      47.209  27.376  26.303  1.00  0.00     0.064 A 
ATOM     87  C   UNL A   1      47.426  27.449  24.920  1.00  0.00     0.173 A 
ATOM     88  C   UNL A   1      48.243  26.858  27.101  1.00  0.00     0.173 A 
ATOM     89  F   UNL A   1      46.468  27.924  24.110  1.00  0.00    -0.203 F 
ATOM     90  C   UNL A   1      48.617  26.994  24.356  1.00  0.00     0.198 A 
ATOM     91  C   UNL A   1      49.445  26.439  26.539  1.00  0.00     0.198 A 
ATOM     92  F   UNL A   1      48.093  26.775  28.432  1.00  0.00    -0.203 F 
ATOM     93  F   UNL A   1      48.780  27.025  23.026  1.00  0.00    -0.200 F 
ATOM     94  C   UNL A   1      49.628  26.499  25.166  1.00  0.00     0.200 A 
ATOM     95  F   UNL A   1      50.428  25.978  27.326  1.00  0.00    -0.200 F 
ATOM     96  F   UNL A   1      50.776  26.072  24.623  1.00  0.00    -0.200 F 
ENDBRANCH  63  86
ENDBRANCH  37  38
ENDBRANCH  30  32
ENDBRANCH  29  30
ENDBRANCH  28  29
ENDBRANCH  27  28
ENDBRANCH  26  27
ENDBRANCH  25  26
ENDBRANCH  24  25
ENDBRANCH   1  24
TORSDOF 22
ENDMDL
MODEL 2
REMARK VINA RESULT:     -10.3      0.828      2.165
REMARK SMILES C[C@@H]1[C@H](C(=O)OCCOCCOCCOC(=O)c2ccc(-c3c4nc(c(-c5c(F)c(F)c(F)c(F)c5F)c5ccc([nH]5)c(-c5c(F)c(F)c(F)c(F)c5F)c5nc(c(-c6c(F)c(F)c(F)c(F)c6F)c6ccc3[nH]6)C=C5)C=C4)cc2)CCN1C(=O)COCc1ccccc1
REMARK SMILES IDX 9 1 8 2 7 3 6 4 4 5 5 6 3 7 1 8 2 9 83 10 81 11 82 12 84 13
REMARK SMILES IDX 85 14 86 15 87 16 88 17 89 18 90 19 94 20 91 21 93 22 92 23
REMARK SMILES IDX 10 24 11 25 12 26 13 27 14 28 15 29 16 30 17 31 18 32 19 33
REMARK SMILES IDX 80 34 20 35 79 36 21 37 22 38 23 39 73 40 24 41 78 42 72 43
REMARK SMILES IDX 74 44 25 45 77 46 71 47 70 48 26 50 58 51 38 52 57 53 39 54
REMARK SMILES IDX 42 55 56 56 75 57 40 58 41 59 55 61 76 62 43 63 27 64 28 65
REMARK SMILES IDX 36 66 29 67 30 68 34 69 37 70 31 71 32 72 35 73 33 74 59 75
REMARK SMILES IDX 60 76 68 77 61 78 62 79 66 80 69 81 63 82 64 83 67 84 65 85
REMARK SMILES IDX 44 86 45 87 53 88 46 89 47 90 51 91 54 92 48 93 49 94 52 95
REMARK SMILES IDX 50 96
REMARK H PARENT 74 49 42 60
REMARK Flexibility Score: inf
ROOT
ATOM      1  O   UNL A   1      33.820  34.649  29.453  1.00  0.00    -0.376 OA
ENDROOT
BRANCH   1   2
ATOM      2  C   UNL A   1      33.298  33.788  28.445  1.00  0.00     0.202 C 
BRANCH   2   3
ATOM      3  C   UNL A   1      33.959  32.425  28.177  1.00  0.00     0.261 C 
BRANCH   3   4
ATOM      4  O   UNL A   1      33.182  31.544  27.334  1.00  0.00    -0.463 OA
BRANCH   4   5
ATOM      5  C   UNL A   1      33.697  30.313  27.123  1.00  0.00     0.311 C 
ATOM      6  O   UNL A   1      34.640  29.853  27.761  1.00  0.00    -0.252 OA
BRANCH   5   7
ATOM      7  C   UNL A   1      32.956  29.460  26.109  1.00  0.00     0.123 C 
ATOM      8  C   UNL A   1      31.556  28.008  27.756  1.00  0.00     0.032 C 
ATOM      9  C   UNL A   1      32.258  28.117  26.407  1.00  0.00     0.096 C 
ATOM     10  N   UNL A   1      31.279  28.019  25.305  1.00  0.00    -0.337 N 
ATOM     11  C   UNL A   1      31.817  30.302  25.523  1.00  0.00     0.039 C 
ATOM     12  C   UNL A   1      31.025  29.312  24.699  1.00  0.00     0.121 C 
BRANCH  10  13
ATOM     13  C   UNL A   1      30.723  26.895  24.729  1.00  0.00     0.248 C 
ATOM     14  O   UNL A   1      30.140  26.052  25.417  1.00  0.00    -0.272 OA
BRANCH  13  15
ATOM     15  C   UNL A   1      30.775  26.746  23.203  1.00  0.00     0.260 C 
BRANCH  15  16
ATOM     16  O   UNL A   1      31.978  26.199  22.667  1.00  0.00    -0.367 OA
BRANCH  16  17
ATOM     17  C   UNL A   1      32.073  24.773  22.785  1.00  0.00     0.196 C 
BRANCH  17  18
ATOM     18  C   UNL A   1      33.228  24.301  23.635  1.00  0.00    -0.022 A 
ATOM     19  C   UNL A   1      33.689  22.982  23.524  1.00  0.00     0.006 A 
ATOM     20  C   UNL A   1      33.841  25.160  24.558  1.00  0.00     0.006 A 
ATOM     21  C   UNL A   1      34.720  22.520  24.343  1.00  0.00     0.000 A 
ATOM     22  C   UNL A   1      34.866  24.694  25.382  1.00  0.00     0.000 A 
ATOM     23  C   UNL A   1      35.303  23.374  25.279  1.00  0.00     0.000 A 
ENDBRANCH  17  18
ENDBRANCH  16  17
ENDBRANCH  15  16
ENDBRANCH  13  15
ENDBRANCH  10  13
ENDBRANCH   5   7
ENDBRANCH   4   5
ENDBRANCH   3   4
ENDBRANCH   2   3
ENDBRANCH   1   2
BRANCH   1  24
ATOM     24  C   UNL A   1      33.045  35.761  29.856  1.00  0.00     0.188 C 
BRANCH  24  25
ATOM     25  C   UNL A   1      33.267  36.355  31.252  1.00  0.00     0.188 C 
BRANCH  25  26
ATOM     26  O   UNL A   1      33.410  35.488  32.345  1.00  0.00    -0.376 OA
BRANCH  26  27
ATOM     27  C   UNL A   1      34.589  35.459  33.135  1.00  0.00     0.202 C 
BRANCH  27  28
ATOM     28  C   UNL A   1      35.915  34.752  32.788  1.00  0.00     0.261 C 
BRANCH  28  29
ATOM     29  O   UNL A   1      36.011  34.049  31.550  1.00  0.00    -0.460 OA
BRANCH  29  30
ATOM     30  C   UNL A   1      35.600  32.755  31.567  1.00  0.00     0.338 C 
ATOM     31  O   UNL A   1      34.472  32.340  31.722  1.00  0.00    -0.246 OA
BRANCH  30  32
ATOM     32  C   UNL A   1      36.744  31.937  31.101  1.00  0.00     0.060 A 
ATOM     33  C   UNL A   1      37.488  31.215  32.047  1.00  0.00     0.016 A 
ATOM     34  C   UNL A   1      37.041  31.841  29.741  1.00  0.00     0.016 A 
ATOM     35  C   UNL A   1      38.542  30.401  31.635  1.00  0.00     0.010 A 
ATOM     36  C   UNL A   1      38.118  31.052  29.332  1.00  0.00     0.010 A 
ATOM     37  C   UNL A   1      38.889  30.350  30.279  1.00  0.00    -0.014 A 
BRANCH  37  38
ATOM     38  C   UNL A   1      40.178  29.748  29.863  1.00  0.00     0.031 A 
ATOM     39  C   UNL A   1      41.406  30.615  29.913  1.00  0.00     0.074 A 
ATOM     40  C   UNL A   1      40.267  28.472  29.449  1.00  0.00     0.049 A 
ATOM     41  N   UNL A   1      42.623  30.364  29.501  1.00  0.00    -0.248 NA
ATOM     42  C   UNL A   1      41.232  31.951  30.503  1.00  0.00     0.031 C 
ATOM     43  C   UNL A   1      39.166  27.514  29.408  1.00  0.00     0.029 A 
ATOM     44  N   UNL A   1      41.344  27.769  28.968  1.00  0.00    -0.354 N 
ATOM     45  C   UNL A   1      43.353  31.512  29.775  1.00  0.00     0.074 A 
ATOM     46  C   UNL A   1      42.441  32.472  30.355  1.00  0.00     0.031 C 
ATOM     47  C   UNL A   1      39.620  26.351  28.909  1.00  0.00     0.029 A 
ATOM     48  C   UNL A   1      41.033  26.495  28.560  1.00  0.00     0.049 A 
ATOM     49  H   UNL A   1      42.254  28.143  28.920  1.00  0.00     0.167 HD
ATOM     50  C   UNL A   1      44.672  31.742  29.571  1.00  0.00     0.037 A 
ATOM     51  C   UNL A   1      41.797  25.570  27.945  1.00  0.00     0.037 A 
ATOM     52  C   UNL A   1      45.577  30.789  28.987  1.00  0.00     0.049 A 
ATOM     53  C   UNL A   1      43.240  25.890  27.633  1.00  0.00     0.074 A 
ATOM     54  C   UNL A   1      46.931  30.926  28.738  1.00  0.00     0.029 A 
ATOM     55  N   UNL A   1      45.216  29.522  28.554  1.00  0.00    -0.354 N 
ATOM     56  N   UNL A   1      43.931  26.971  27.905  1.00  0.00    -0.248 NA
ATOM     57  C   UNL A   1      44.010  24.855  26.925  1.00  0.00     0.031 C 
ATOM     58  C   UNL A   1      47.377  29.766  28.100  1.00  0.00     0.029 A 
ATOM     59  C   UNL A   1      46.318  28.877  28.015  1.00  0.00     0.049 A 
ATOM     60  H   UNL A   1      44.313  29.138  28.621  1.00  0.00     0.167 HD
ATOM     61  C   UNL A   1      45.220  26.730  27.441  1.00  0.00     0.074 A 
ATOM     62  C   UNL A   1      45.219  25.396  26.880  1.00  0.00     0.031 C 
ATOM     63  C   UNL A   1      46.308  27.540  27.478  1.00  0.00     0.037 A 
BRANCH  50  64
ATOM     64  C   UNL A   1      45.208  33.090  29.958  1.00  0.00     0.064 A 
ATOM     65  C   UNL A   1      45.698  33.346  31.248  1.00  0.00     0.173 A 
ATOM     66  C   UNL A   1      45.262  34.129  29.018  1.00  0.00     0.173 A 
ATOM     67  F   UNL A   1      45.654  32.391  32.190  1.00  0.00    -0.203 F 
ATOM     68  C   UNL A   1      46.199  34.600  31.588  1.00  0.00     0.198 A 
ATOM     69  C   UNL A   1      45.794  35.371  29.352  1.00  0.00     0.198 A 
ATOM     70  F   UNL A   1      44.806  33.937  27.771  1.00  0.00    -0.203 F 
ATOM     71  F   UNL A   1      46.615  34.836  32.840  1.00  0.00    -0.200 F 
ATOM     72  C   UNL A   1      46.255  35.607  30.638  1.00  0.00     0.200 A 
ATOM     73  F   UNL A   1      45.861  36.339  28.428  1.00  0.00    -0.200 F 
ATOM     74  F   UNL A   1      46.747  36.811  30.963  1.00  0.00    -0.200 F 
ENDBRANCH  50  64
BRANCH  51  75
ATOM     75  C   UNL A   1      41.221  24.253  27.559  1.00  0.00     0.064 A 
ATOM     76  C   UNL A   1      40.182  24.166  26.621  1.00  0.00     0.173 A 
ATOM     77  C   UNL A   1      41.656  23.061  28.157  1.00  0.00     0.173 A 
ATOM     78  F   UNL A   1      39.708  25.280  26.042  1.00  0.00    -0.203 F 
ATOM     79  C   UNL A   1      39.582  22.946  26.319  1.00  0.00     0.198 A 
ATOM     80  C   UNL A   1      41.079  21.836  27.828  1.00  0.00     0.198 A 
ATOM     81  F   UNL A   1      42.642  23.086  29.066  1.00  0.00    -0.203 F 
ATOM     82  F   UNL A   1      38.547  22.902  25.468  1.00  0.00    -0.200 F 
ATOM     83  C   UNL A   1      40.034  21.781  26.919  1.00  0.00     0.200 A 
ATOM     84  F   UNL A   1      41.527  20.711  28.403  1.00  0.00    -0.200 F 
ATOM     85  F   UNL A   1      39.454  20.607  26.631  1.00  0.00    -0.200 F 
ENDBRANCH  51  75
BRANCH  63  86
ATOM     86  C   UNL A   1      47.605  26.990  26.952  1.00  0.00     0.064 A 
ATOM     87  C   UNL A   1      48.485  26.258  27.761  1.00  0.00     0.173 A 
ATOM     88  C   UNL A   1      47.947  27.160  25.600  1.00  0.00     0.173 A 
ATOM     89  F   UNL A   1      48.214  26.075  29.062  1.00  0.00    -0.203 F 
ATOM     90  C   UNL A   1      49.673  25.742  27.245  1.00  0.00     0.198 A 
ATOM     91  C   UNL A   1      49.115  26.612  25.079  1.00  0.00     0.198 A 
ATOM     92  F   UNL A   1      47.136  27.844  24.778  1.00  0.00    -0.203 F 
ATOM     93  F   UNL A   1      50.524  25.091  28.050  1.00  0.00    -0.200 F 
ATOM     94  C   UNL A   1      49.982  25.912  25.903  1.00  0.00     0.200 A 
ATOM     95  F   UNL A   1      49.403  26.762  23.778  1.00  0.00    -0.200 F 
ATOM     96  F   UNL A   1      51.119  25.406  25.407  1.00  0.00    -0.200 F 
ENDBRANCH  63  86
ENDBRANCH  37  38
ENDBRANCH  30  32
ENDBRANCH  29  30
ENDBRANCH  28  29
ENDBRANCH  27  28
ENDBRANCH  26  27
ENDBRANCH  25  26
ENDBRANCH  24  25
ENDBRANCH   1  24
TORSDOF 22
ENDMDL
MODEL 3
REMARK VINA RESULT:     -10.2      1.336      2.794
REMARK SMILES C[C@@H]1[C@H](C(=O)OCCOCCOCCOC(=O)c2ccc(-c3c4nc(c(-c5c(F)c(F)c(F)c(F)c5F)c5ccc([nH]5)c(-c5c(F)c(F)c(F)c(F)c5F)c5nc(c(-c6c(F)c(F)c(F)c(F)c6F)c6ccc3[nH]6)C=C5)C=C4)cc2)CCN1C(=O)COCc1ccccc1
REMARK SMILES IDX 9 1 8 2 7 3 6 4 4 5 5 6 3 7 1 8 2 9 83 10 81 11 82 12 84 13
REMARK SMILES IDX 85 14 86 15 87 16 88 17 89 18 90 19 94 20 91 21 93 22 92 23
REMARK SMILES IDX 10 24 11 25 12 26 13 27 14 28 15 29 16 30 17 31 18 32 19 33
REMARK SMILES IDX 80 34 20 35 79 36 21 37 22 38 23 39 73 40 24 41 78 42 72 43
REMARK SMILES IDX 74 44 25 45 77 46 71 47 70 48 26 50 58 51 38 52 57 53 39 54
REMARK SMILES IDX 42 55 56 56 75 57 40 58 41 59 55 61 76 62 43 63 27 64 28 65
REMARK SMILES IDX 36 66 29 67 30 68 34 69 37 70 31 71 32 72 35 73 33 74 59 75
REMARK SMILES IDX 60 76 68 77 61 78 62 79 66 80 69 81 63 82 64 83 67 84 65 85
REMARK SMILES IDX 44 86 45 87 53 88 46 89 47 90 51 91 54 92 48 93 49 94 52 95
REMARK SMILES IDX 50 96
REMARK H PARENT 74 49 42 60
REMARK Flexibility Score: inf
ROOT
ATOM      1  O   UNL A   1      32.913  30.525  25.905  1.00  0.00    -0.376 OA
ENDROOT
BRANCH   1   2
ATOM      2  C   UNL A   1      31.749  29.816  25.486  1.00  0.00     0.202 C 
BRANCH   2   3
ATOM      3  C   UNL A   1      31.869  28.680  24.455  1.00  0.00     0.261 C 
BRANCH   3   4
ATOM      4  O   UNL A   1      30.967  27.574  24.684  1.00  0.00    -0.463 OA
BRANCH   4   5
ATOM      5  C   UNL A   1      31.160  26.478  23.917  1.00  0.00     0.311 C 
ATOM      6  O   UNL A   1      31.104  26.489  22.690  1.00  0.00    -0.252 OA
BRANCH   5   7
ATOM      7  C   UNL A   1      31.577  25.223  24.664  1.00  0.00     0.123 C 
ATOM      8  C   UNL A   1      34.038  25.882  25.208  1.00  0.00     0.032 C 
ATOM      9  C   UNL A   1      33.030  24.774  24.919  1.00  0.00     0.096 C 
ATOM     10  N   UNL A   1      32.886  23.889  26.093  1.00  0.00    -0.337 N 
ATOM     11  C   UNL A   1      31.002  25.303  26.083  1.00  0.00     0.039 C 
ATOM     12  C   UNL A   1      31.641  24.133  26.796  1.00  0.00     0.121 C 
BRANCH  10  13
ATOM     13  C   UNL A   1      33.676  22.829  26.490  1.00  0.00     0.248 C 
ATOM     14  O   UNL A   1      33.231  21.948  27.230  1.00  0.00    -0.272 OA
BRANCH  13  15
ATOM     15  C   UNL A   1      35.102  22.725  25.933  1.00  0.00     0.260 C 
BRANCH  15  16
ATOM     16  O   UNL A   1      35.285  21.827  24.841  1.00  0.00    -0.367 OA
BRANCH  16  17
ATOM     17  C   UNL A   1      35.568  20.479  25.237  1.00  0.00     0.196 C 
BRANCH  17  18
ATOM     18  C   UNL A   1      34.650  19.450  24.621  1.00  0.00    -0.022 A 
ATOM     19  C   UNL A   1      33.391  19.831  24.137  1.00  0.00     0.006 A 
ATOM     20  C   UNL A   1      35.028  18.102  24.544  1.00  0.00     0.006 A 
ATOM     21  C   UNL A   1      32.514  18.879  23.616  1.00  0.00     0.000 A 
ATOM     22  C   UNL A   1      34.145  17.150  24.031  1.00  0.00     0.000 A 
ATOM     23  C   UNL A   1      32.887  17.538  23.572  1.00  0.00     0.000 A 
ENDBRANCH  17  18
ENDBRANCH  16  17
ENDBRANCH  15  16
ENDBRANCH  13  15
ENDBRANCH  10  13
ENDBRANCH   5   7
ENDBRANCH   4   5
ENDBRANCH   3   4
ENDBRANCH   2   3
ENDBRANCH   1   2
BRANCH   1  24
ATOM     24  C   UNL A   1      33.329  30.400  27.250  1.00  0.00     0.188 C 
BRANCH  24  25
ATOM     25  C   UNL A   1      33.916  31.623  27.963  1.00  0.00     0.188 C 
BRANCH  25  26
ATOM     26  O   UNL A   1      33.249  32.853  27.866  1.00  0.00    -0.376 OA
BRANCH  26  27
ATOM     27  C   UNL A   1      33.761  34.037  28.457  1.00  0.00     0.202 C 
BRANCH  27  28
ATOM     28  C   UNL A   1      34.082  34.260  29.949  1.00  0.00     0.261 C 
BRANCH  28  29
ATOM     29  O   UNL A   1      35.345  33.824  30.449  1.00  0.00    -0.460 OA
BRANCH  29  30
ATOM     30  C   UNL A   1      35.328  32.700  31.211  1.00  0.00     0.338 C 
ATOM     31  O   UNL A   1      34.443  32.322  31.950  1.00  0.00    -0.246 OA
BRANCH  30  32
ATOM     32  C   UNL A   1      36.482  31.876  30.784  1.00  0.00     0.060 A 
ATOM     33  C   UNL A   1      37.158  31.111  31.747  1.00  0.00     0.016 A 
ATOM     34  C   UNL A   1      36.854  31.816  29.441  1.00  0.00     0.016 A 
ATOM     35  C   UNL A   1      38.220  30.290  31.369  1.00  0.00     0.010 A 
ATOM     36  C   UNL A   1      37.938  31.020  29.069  1.00  0.00     0.010 A 
ATOM     37  C   UNL A   1      38.642  30.274  30.034  1.00  0.00    -0.014 A 
BRANCH  37  38
ATOM     38  C   UNL A   1      39.942  29.661  29.672  1.00  0.00     0.031 A 
ATOM     39  C   UNL A   1      41.166  30.534  29.714  1.00  0.00     0.074 A 
ATOM     40  C   UNL A   1      40.045  28.370  29.313  1.00  0.00     0.049 A 
ATOM     41  N   UNL A   1      42.393  30.271  29.340  1.00  0.00    -0.248 NA
ATOM     42  C   UNL A   1      40.975  31.893  30.245  1.00  0.00     0.031 C 
ATOM     43  C   UNL A   1      38.947  27.407  29.286  1.00  0.00     0.029 A 
ATOM     44  N   UNL A   1      41.134  27.652  28.885  1.00  0.00    -0.354 N 
ATOM     45  C   UNL A   1      43.113  31.433  29.584  1.00  0.00     0.074 A 
ATOM     46  C   UNL A   1      42.185  32.412  30.103  1.00  0.00     0.031 C 
ATOM     47  C   UNL A   1      39.416  26.225  28.846  1.00  0.00     0.029 A 
ATOM     48  C   UNL A   1      40.837  26.361  28.522  1.00  0.00     0.049 A 
ATOM     49  H   UNL A   1      42.043  28.027  28.842  1.00  0.00     0.167 HD
ATOM     50  C   UNL A   1      44.435  31.660  29.400  1.00  0.00     0.037 A 
ATOM     51  C   UNL A   1      41.617  25.415  27.963  1.00  0.00     0.037 A 
ATOM     52  C   UNL A   1      45.356  30.687  28.876  1.00  0.00     0.049 A 
ATOM     53  C   UNL A   1      43.066  25.728  27.671  1.00  0.00     0.074 A 
ATOM     54  C   UNL A   1      46.715  30.820  28.652  1.00  0.00     0.029 A 
ATOM     55  N   UNL A   1      45.009  29.402  28.487  1.00  0.00    -0.354 N 
ATOM     56  N   UNL A   1      43.747  26.821  27.914  1.00  0.00    -0.248 NA
ATOM     57  C   UNL A   1      43.855  24.668  27.023  1.00  0.00     0.031 C 
ATOM     58  C   UNL A   1      47.179  29.636  28.072  1.00  0.00     0.029 A 
ATOM     59  C   UNL A   1      46.124  28.740  28.000  1.00  0.00     0.049 A 
ATOM     60  H   UNL A   1      44.106  29.017  28.549  1.00  0.00     0.167 HD
ATOM     61  C   UNL A   1      45.047  26.567  27.490  1.00  0.00     0.074 A 
ATOM     62  C   UNL A   1      45.063  25.211  26.984  1.00  0.00     0.031 C 
ATOM     63  C   UNL A   1      46.131  27.382  27.518  1.00  0.00     0.037 A 
BRANCH  50  64
ATOM     64  C   UNL A   1      44.958  33.024  29.744  1.00  0.00     0.064 A 
ATOM     65  C   UNL A   1      45.017  34.053  28.791  1.00  0.00     0.173 A 
ATOM     66  C   UNL A   1      45.375  33.317  31.051  1.00  0.00     0.173 A 
ATOM     67  F   UNL A   1      44.646  33.820  27.522  1.00  0.00    -0.203 F 
ATOM     68  C   UNL A   1      45.498  35.315  29.128  1.00  0.00     0.198 A 
ATOM     69  C   UNL A   1      45.823  34.589  31.392  1.00  0.00     0.198 A 
ATOM     70  F   UNL A   1      45.339  32.369  32.000  1.00  0.00    -0.203 F 
ATOM     71  F   UNL A   1      45.593  36.267  28.190  1.00  0.00    -0.200 F 
ATOM     72  C   UNL A   1      45.892  35.584  30.429  1.00  0.00     0.200 A 
ATOM     73  F   UNL A   1      46.190  34.851  32.655  1.00  0.00    -0.200 F 
ATOM     74  F   UNL A   1      46.345  36.803  30.756  1.00  0.00    -0.200 F 
ENDBRANCH  50  64
BRANCH  51  75
ATOM     75  C   UNL A   1      41.054  24.080  27.618  1.00  0.00     0.064 A 
ATOM     76  C   UNL A   1      41.557  22.911  28.206  1.00  0.00     0.173 A 
ATOM     77  C   UNL A   1      40.042  23.940  26.656  1.00  0.00     0.173 A 
ATOM     78  F   UNL A   1      42.546  22.987  29.109  1.00  0.00    -0.203 F 
ATOM     79  C   UNL A   1      41.093  21.654  27.824  1.00  0.00     0.198 A 
ATOM     80  C   UNL A   1      39.554  22.685  26.301  1.00  0.00     0.198 A 
ATOM     81  F   UNL A   1      39.529  25.025  26.057  1.00  0.00    -0.203 F 
ATOM     82  F   UNL A   1      41.638  20.551  28.354  1.00  0.00    -0.200 F 
ATOM     83  C   UNL A   1      40.088  21.542  26.876  1.00  0.00     0.200 A 
ATOM     84  F   UNL A   1      38.575  22.582  25.391  1.00  0.00    -0.200 F 
ATOM     85  F   UNL A   1      39.644  20.333  26.506  1.00  0.00    -0.200 F 
ENDBRANCH  51  75
BRANCH  63  86
ATOM     86  C   UNL A   1      47.442  26.817  27.044  1.00  0.00     0.064 A 
ATOM     87  C   UNL A   1      48.256  26.032  27.872  1.00  0.00     0.173 A 
ATOM     88  C   UNL A   1      47.863  27.025  25.720  1.00  0.00     0.173 A 
ATOM     89  F   UNL A   1      47.908  25.810  29.149  1.00  0.00    -0.203 F 
ATOM     90  C   UNL A   1      49.458  25.503  27.403  1.00  0.00     0.198 A 
ATOM     91  C   UNL A   1      49.045  26.466  25.244  1.00  0.00     0.198 A 
ATOM     92  F   UNL A   1      47.117  27.760  24.880  1.00  0.00    -0.203 F 
ATOM     93  F   UNL A   1      50.245  24.801  28.229  1.00  0.00    -0.200 F 
ATOM     94  C   UNL A   1      49.846  25.713  26.088  1.00  0.00     0.200 A 
ATOM     95  F   UNL A   1      49.408  26.654  23.968  1.00  0.00    -0.200 F 
ATOM     96  F   UNL A   1      50.996  25.194  25.637  1.00  0.00    -0.200 F 
ENDBRANCH  63  86
ENDBRANCH  37  38
ENDBRANCH  30  32
ENDBRANCH  29  30
ENDBRANCH  28  29
ENDBRANCH  27  28
ENDBRANCH  26  27
ENDBRANCH  25  26
ENDBRANCH  24  25
ENDBRANCH   1  24
TORSDOF 22
ENDMDL
