MODEL 1
REMARK VINA RESULT:     -13.0      0.000      0.000
REMARK SMILES COc1ccc(NC(=O)[C@H]2[C@@H](C(=O)OCCOCCOCCOC(=O)c3ccc(-c4c5nc(c(-c6c(F)c(F)c(F)c(F)c6F)c6ccc([nH]6)c(-c6c(F)c(F)c(F)c(F)c6F)c6nc(c(-c7c(F)c(F)c(F)c(F)c7F)c7ccc4[nH]7)C=C6)C=C5)cc3)[C@H]3C=C[C@@H]2C3)c(C)c1
REMARK SMILES IDX 18 1 17 2 16 3 15 4 14 5 12 6 13 7 11 8 10 9 92 10 89 11
REMARK SMILES IDX 91 12 93 13 90 14 8 15 7 16 9 18 6 19 3 20 4 21 96 22 5 23
REMARK SMILES IDX 94 24 95 25 2 26 1 27 19 28 20 29 21 30 22 31 23 32 24 33
REMARK SMILES IDX 25 34 26 35 27 36 88 37 28 38 87 39 29 40 30 41 31 42 81 43
REMARK SMILES IDX 32 44 86 45 80 46 82 47 33 48 85 49 79 50 78 51 34 53 66 54
REMARK SMILES IDX 46 55 65 56 47 57 50 58 64 59 83 60 48 61 49 62 63 64 84 65
REMARK SMILES IDX 51 66 35 67 36 68 44 69 37 70 38 71 42 72 45 73 39 74 40 75
REMARK SMILES IDX 43 76 41 77 67 78 68 79 76 80 69 81 70 82 74 83 77 84 71 85
REMARK SMILES IDX 72 86 75 87 73 88 52 89 53 90 61 91 54 92 55 93 59 94 62 95
REMARK SMILES IDX 56 96 57 97 60 98 58 99
REMARK H PARENT 7 17 82 52 50 63
REMARK Flexibility Score: inf
ROOT
ATOM      1  C   UNL A   1      40.108  21.059  26.123  1.00  0.00     0.188 C 
ENDROOT
BRANCH   1   2
ATOM      2  O   UNL A   1      38.725  21.051  25.657  1.00  0.00    -0.376 OA
BRANCH   2   3
ATOM      3  C   UNL A   1      37.898  22.287  25.504  1.00  0.00     0.202 C 
BRANCH   3   4
ATOM      4  C   UNL A   1      36.698  22.661  24.145  1.00  0.00     0.261 C 
BRANCH   4   5
ATOM      5  O   UNL A   1      35.330  23.838  24.003  1.00  0.00    -0.463 OA
BRANCH   5   6
ATOM      6  C   UNL A   1      34.392  24.692  24.808  1.00  0.00     0.310 C 
ATOM      7  O   UNL A   1      33.956  24.422  25.925  1.00  0.00    -0.252 OA
BRANCH   6   8
ATOM      8  C   UNL A   1      33.779  25.969  24.241  1.00  0.00     0.119 C 
ATOM      9  C   UNL A   1      32.246  26.428  24.333  1.00  0.00     0.100 C 
ATOM     10  C   UNL A   1      31.992  27.116  22.949  1.00  0.00     0.025 C 
ATOM     11  C   UNL A   1      33.965  26.085  22.662  1.00  0.00     0.027 C 
ATOM     12  C   UNL A   1      31.762  26.069  21.913  1.00  0.00    -0.027 C 
ATOM     13  C   UNL A   1      33.394  27.501  22.472  1.00  0.00     0.017 C 
ATOM     14  C   UNL A   1      32.918  25.404  21.787  1.00  0.00    -0.027 C 
BRANCH   9  15
ATOM     15  C   UNL A   1      30.878  25.804  24.793  1.00  0.00     0.228 C 
ATOM     16  N   UNL A   1      30.361  24.549  24.598  1.00  0.00    -0.326 N 
ATOM     17  H   UNL A   1      29.380  24.503  24.521  1.00  0.00     0.169 HD
ATOM     18  O   UNL A   1      30.059  26.593  25.301  1.00  0.00    -0.274 OA
BRANCH  16  19
ATOM     19  C   UNL A   1      31.029  23.328  24.494  1.00  0.00     0.044 A 
ATOM     20  C   UNL A   1      32.927  21.363  24.396  1.00  0.00     0.119 A 
ATOM     21  C   UNL A   1      32.473  21.899  23.210  1.00  0.00     0.048 A 
ATOM     22  C   UNL A   1      32.167  21.539  25.540  1.00  0.00     0.052 A 
ATOM     23  C   UNL A   1      31.484  22.875  23.263  1.00  0.00     0.030 A 
ATOM     24  C   UNL A   1      31.137  22.488  25.585  1.00  0.00    -0.024 A 
ATOM     25  C   UNL A   1      30.165  22.604  26.710  1.00  0.00     0.047 C 
BRANCH  20  26
ATOM     26  O   UNL A   1      34.084  20.651  24.482  1.00  0.00    -0.497 OA
ATOM     27  C   UNL A   1      33.820  19.259  24.633  1.00  0.00     0.278 C 
ENDBRANCH  20  26
ENDBRANCH  16  19
ENDBRANCH   9  15
ENDBRANCH   6   8
ENDBRANCH   5   6
ENDBRANCH   4   5
ENDBRANCH   3   4
ENDBRANCH   2   3
ENDBRANCH   1   2
BRANCH   1  28
ATOM     28  C   UNL A   1      40.666  19.680  26.557  1.00  0.00     0.188 C 
BRANCH  28  29
ATOM     29  O   UNL A   1      41.553  19.163  25.617  1.00  0.00    -0.376 OA
BRANCH  29  30
ATOM     30  C   UNL A   1      42.695  18.460  26.047  1.00  0.00     0.202 C 
BRANCH  30  31
ATOM     31  C   UNL A   1      43.811  19.112  25.221  1.00  0.00     0.261 C 
BRANCH  31  32
ATOM     32  O   UNL A   1      43.555  20.544  25.069  1.00  0.00    -0.460 OA
BRANCH  32  33
ATOM     33  C   UNL A   1      44.631  21.313  24.640  1.00  0.00     0.338 C 
ATOM     34  O   UNL A   1      45.715  20.886  24.382  1.00  0.00    -0.246 OA
BRANCH  33  35
ATOM     35  C   UNL A   1      44.302  22.786  24.770  1.00  0.00     0.060 A 
ATOM     36  C   UNL A   1      45.217  23.754  25.148  1.00  0.00     0.016 A 
ATOM     37  C   UNL A   1      43.014  23.123  24.986  1.00  0.00     0.016 A 
ATOM     38  C   UNL A   1      44.809  24.907  25.941  1.00  0.00     0.010 A 
ATOM     39  C   UNL A   1      42.805  24.016  26.060  1.00  0.00     0.010 A 
ATOM     40  C   UNL A   1      43.615  25.059  26.651  1.00  0.00    -0.014 A 
BRANCH  40  41
ATOM     41  C   UNL A   1      43.122  26.321  27.867  1.00  0.00     0.031 A 
ATOM     42  C   UNL A   1      41.835  27.603  27.714  1.00  0.00     0.074 A 
ATOM     43  C   UNL A   1      43.668  26.452  29.154  1.00  0.00     0.049 A 
ATOM     44  N   UNL A   1      41.513  28.481  28.656  1.00  0.00    -0.248 NA
ATOM     45  C   UNL A   1      40.941  28.006  26.532  1.00  0.00     0.031 C 
ATOM     46  C   UNL A   1      43.014  27.104  30.309  1.00  0.00     0.029 A 
ATOM     47  N   UNL A   1      44.949  26.150  29.746  1.00  0.00    -0.354 N 
ATOM     48  C   UNL A   1      40.421  29.259  28.257  1.00  0.00     0.074 A 
ATOM     49  C   UNL A   1      40.215  29.043  26.889  1.00  0.00     0.031 C 
ATOM     50  C   UNL A   1      43.920  27.485  31.217  1.00  0.00     0.029 A 
ATOM     51  C   UNL A   1      45.239  27.165  30.720  1.00  0.00     0.049 A 
ATOM     52  H   UNL A   1      45.523  25.382  29.523  1.00  0.00     0.167 HD
ATOM     53  C   UNL A   1      39.657  30.057  29.045  1.00  0.00     0.037 A 
ATOM     54  C   UNL A   1      46.362  27.953  30.862  1.00  0.00     0.037 A 
ATOM     55  C   UNL A   1      40.439  30.509  30.157  1.00  0.00     0.049 A 
ATOM     56  C   UNL A   1      46.020  29.455  31.010  1.00  0.00     0.074 A 
ATOM     57  C   UNL A   1      40.707  30.019  31.412  1.00  0.00     0.029 A 
ATOM     58  N   UNL A   1      41.429  31.431  29.870  1.00  0.00    -0.354 N 
ATOM     59  N   UNL A   1      44.815  29.958  31.122  1.00  0.00    -0.248 NA
ATOM     60  C   UNL A   1      47.027  30.515  30.931  1.00  0.00     0.031 C 
ATOM     61  C   UNL A   1      41.978  30.546  31.794  1.00  0.00     0.029 A 
ATOM     62  C   UNL A   1      42.459  31.376  30.786  1.00  0.00     0.049 A 
ATOM     63  H   UNL A   1      41.402  32.052  29.106  1.00  0.00     0.167 HD
ATOM     64  C   UNL A   1      44.856  31.316  30.854  1.00  0.00     0.074 A 
ATOM     65  C   UNL A   1      46.271  31.620  30.860  1.00  0.00     0.031 C 
ATOM     66  C   UNL A   1      43.741  32.054  30.515  1.00  0.00     0.037 A 
BRANCH  53  67
ATOM     67  C   UNL A   1      38.221  30.449  28.693  1.00  0.00     0.064 A 
ATOM     68  C   UNL A   1      37.773  31.777  28.799  1.00  0.00     0.173 A 
ATOM     69  C   UNL A   1      37.197  29.514  28.365  1.00  0.00     0.173 A 
ATOM     70  F   UNL A   1      38.621  32.755  29.143  1.00  0.00    -0.203 F 
ATOM     71  C   UNL A   1      36.431  32.138  28.576  1.00  0.00     0.198 A 
ATOM     72  C   UNL A   1      35.882  29.886  28.064  1.00  0.00     0.198 A 
ATOM     73  F   UNL A   1      37.416  28.191  28.374  1.00  0.00    -0.203 F 
ATOM     74  F   UNL A   1      36.043  33.409  28.754  1.00  0.00    -0.200 F 
ATOM     75  C   UNL A   1      35.492  31.198  28.188  1.00  0.00     0.200 A 
ATOM     76  F   UNL A   1      34.995  28.953  27.683  1.00  0.00    -0.200 F 
ATOM     77  F   UNL A   1      34.216  31.547  27.968  1.00  0.00    -0.200 F 
ENDBRANCH  53  67
BRANCH  54  78
ATOM     78  C   UNL A   1      47.707  27.427  30.376  1.00  0.00     0.064 A 
ATOM     79  C   UNL A   1      48.396  26.505  31.201  1.00  0.00     0.173 A 
ATOM     80  C   UNL A   1      48.178  27.515  29.042  1.00  0.00     0.173 A 
ATOM     81  F   UNL A   1      48.069  26.393  32.498  1.00  0.00    -0.203 F 
ATOM     82  C   UNL A   1      49.321  25.586  30.681  1.00  0.00     0.198 A 
ATOM     83  C   UNL A   1      49.108  26.589  28.524  1.00  0.00     0.198 A 
ATOM     84  F   UNL A   1      47.591  28.322  28.150  1.00  0.00    -0.203 F 
ATOM     85  F   UNL A   1      49.808  24.615  31.468  1.00  0.00    -0.200 F 
ATOM     86  C   UNL A   1      49.635  25.596  29.333  1.00  0.00     0.200 A 
ATOM     87  F   UNL A   1      49.328  26.539  27.200  1.00  0.00    -0.200 F 
ATOM     88  F   UNL A   1      50.351  24.595  28.796  1.00  0.00    -0.200 F 
ENDBRANCH  54  78
BRANCH  66  89
ATOM     89  C   UNL A   1      43.798  33.450  29.838  1.00  0.00     0.064 A 
ATOM     90  C   UNL A   1      43.899  33.671  28.446  1.00  0.00     0.173 A 
ATOM     91  C   UNL A   1      43.638  34.649  30.580  1.00  0.00     0.173 A 
ATOM     92  F   UNL A   1      43.778  32.676  27.558  1.00  0.00    -0.203 F 
ATOM     93  C   UNL A   1      44.028  34.948  27.878  1.00  0.00     0.198 A 
ATOM     94  C   UNL A   1      43.654  35.925  29.998  1.00  0.00     0.198 A 
ATOM     95  F   UNL A   1      43.412  34.636  31.901  1.00  0.00    -0.203 F 
ATOM     96  F   UNL A   1      44.231  35.071  26.558  1.00  0.00    -0.200 F 
ATOM     97  C   UNL A   1      43.907  36.078  28.655  1.00  0.00     0.200 A 
ATOM     98  F   UNL A   1      43.397  37.004  30.752  1.00  0.00    -0.200 F 
ATOM     99  F   UNL A   1      43.988  37.298  28.108  1.00  0.00    -0.200 F 
ENDBRANCH  66  89
ENDBRANCH  40  41
ENDBRANCH  33  35
ENDBRANCH  32  33
ENDBRANCH  31  32
ENDBRANCH  30  31
ENDBRANCH  29  30
ENDBRANCH  28  29
ENDBRANCH   1  28
TORSDOF 20
ENDMDL
MODEL 2
REMARK VINA RESULT:     -12.9      4.599     10.089
REMARK SMILES COc1ccc(NC(=O)[C@H]2[C@@H](C(=O)OCCOCCOCCOC(=O)c3ccc(-c4c5nc(c(-c6c(F)c(F)c(F)c(F)c6F)c6ccc([nH]6)c(-c6c(F)c(F)c(F)c(F)c6F)c6nc(c(-c7c(F)c(F)c(F)c(F)c7F)c7ccc4[nH]7)C=C6)C=C5)cc3)[C@H]3C=C[C@@H]2C3)c(C)c1
REMARK SMILES IDX 18 1 17 2 16 3 15 4 14 5 12 6 13 7 11 8 10 9 92 10 89 11
REMARK SMILES IDX 91 12 93 13 90 14 8 15 7 16 9 18 6 19 3 20 4 21 96 22 5 23
REMARK SMILES IDX 94 24 95 25 2 26 1 27 19 28 20 29 21 30 22 31 23 32 24 33
REMARK SMILES IDX 25 34 26 35 27 36 88 37 28 38 87 39 29 40 30 41 31 42 81 43
REMARK SMILES IDX 32 44 86 45 80 46 82 47 33 48 85 49 79 50 78 51 34 53 66 54
REMARK SMILES IDX 46 55 65 56 47 57 50 58 64 59 83 60 48 61 49 62 63 64 84 65
REMARK SMILES IDX 51 66 35 67 36 68 44 69 37 70 38 71 42 72 45 73 39 74 40 75
REMARK SMILES IDX 43 76 41 77 67 78 68 79 76 80 69 81 70 82 74 83 77 84 71 85
REMARK SMILES IDX 72 86 75 87 73 88 52 89 53 90 61 91 54 92 55 93 59 94 62 95
REMARK SMILES IDX 56 96 57 97 60 98 58 99
REMARK H PARENT 7 17 82 52 50 63
REMARK Flexibility Score: inf
ROOT
ATOM      1  C   UNL A   1      35.039  32.012  28.268  1.00  0.00     0.188 C 
ENDROOT
BRANCH   1   2
ATOM      2  O   UNL A   1      35.415  30.962  27.327  1.00  0.00    -0.376 OA
BRANCH   2   3
ATOM      3  C   UNL A   1      35.149  29.509  27.562  1.00  0.00     0.202 C 
BRANCH   3   4
ATOM      4  C   UNL A   1      33.547  28.617  27.312  1.00  0.00     0.261 C 
BRANCH   4   5
ATOM      5  O   UNL A   1      33.129  27.033  26.542  1.00  0.00    -0.463 OA
BRANCH   5   6
ATOM      6  C   UNL A   1      31.974  26.175  26.111  1.00  0.00     0.310 C 
ATOM      7  O   UNL A   1      31.522  25.217  26.733  1.00  0.00    -0.252 OA
BRANCH   6   8
ATOM      8  C   UNL A   1      31.305  26.352  24.752  1.00  0.00     0.119 C 
ATOM      9  C   UNL A   1      31.922  25.986  23.318  1.00  0.00     0.100 C 
ATOM     10  C   UNL A   1      31.385  27.131  22.392  1.00  0.00     0.025 C 
ATOM     11  C   UNL A   1      30.910  27.867  24.459  1.00  0.00     0.027 C 
ATOM     12  C   UNL A   1      32.211  28.355  22.592  1.00  0.00    -0.027 C 
ATOM     13  C   UNL A   1      30.153  27.652  23.137  1.00  0.00     0.017 C 
ATOM     14  C   UNL A   1      31.986  28.760  23.848  1.00  0.00    -0.027 C 
BRANCH   9  15
ATOM     15  C   UNL A   1      33.314  25.543  22.737  1.00  0.00     0.228 C 
ATOM     16  N   UNL A   1      34.209  24.605  23.184  1.00  0.00    -0.326 N 
ATOM     17  H   UNL A   1      35.156  24.805  23.005  1.00  0.00     0.169 HD
ATOM     18  O   UNL A   1      33.760  26.230  21.798  1.00  0.00    -0.274 OA
BRANCH  16  19
ATOM     19  C   UNL A   1      33.964  23.407  23.858  1.00  0.00     0.044 A 
ATOM     20  C   UNL A   1      33.843  20.779  24.600  1.00  0.00     0.119 A 
ATOM     21  C   UNL A   1      32.762  21.328  23.946  1.00  0.00     0.048 A 
ATOM     22  C   UNL A   1      34.763  21.628  25.193  1.00  0.00     0.052 A 
ATOM     23  C   UNL A   1      32.814  22.674  23.598  1.00  0.00     0.030 A 
ATOM     24  C   UNL A   1      34.791  22.994  24.884  1.00  0.00    -0.024 A 
ATOM     25  C   UNL A   1      35.624  23.992  25.614  1.00  0.00     0.047 C 
BRANCH  20  26
ATOM     26  O   UNL A   1      34.031  19.435  24.704  1.00  0.00    -0.497 OA
ATOM     27  C   UNL A   1      32.884  18.796  25.258  1.00  0.00     0.278 C 
ENDBRANCH  20  26
ENDBRANCH  16  19
ENDBRANCH   9  15
ENDBRANCH   6   8
ENDBRANCH   5   6
ENDBRANCH   4   5
ENDBRANCH   3   4
ENDBRANCH   2   3
ENDBRANCH   1   2
BRANCH   1  28
ATOM     28  C   UNL A   1      33.585  32.530  28.133  1.00  0.00     0.188 C 
BRANCH  28  29
ATOM     29  O   UNL A   1      33.547  33.876  27.773  1.00  0.00    -0.376 OA
BRANCH  29  30
ATOM     30  C   UNL A   1      34.289  34.817  28.512  1.00  0.00     0.202 C 
BRANCH  30  31
ATOM     31  C   UNL A   1      33.200  35.778  29.004  1.00  0.00     0.261 C 
BRANCH  31  32
ATOM     32  O   UNL A   1      32.456  35.173  30.110  1.00  0.00    -0.460 OA
BRANCH  32  33
ATOM     33  C   UNL A   1      32.593  35.792  31.347  1.00  0.00     0.338 C 
ATOM     34  O   UNL A   1      32.064  36.815  31.659  1.00  0.00    -0.246 OA
BRANCH  33  35
ATOM     35  C   UNL A   1      33.681  35.112  32.152  1.00  0.00     0.060 A 
ATOM     36  C   UNL A   1      34.776  35.770  32.684  1.00  0.00     0.016 A 
ATOM     37  C   UNL A   1      33.862  33.789  31.966  1.00  0.00     0.016 A 
ATOM     38  C   UNL A   1      36.075  35.115  32.780  1.00  0.00     0.010 A 
ATOM     39  C   UNL A   1      35.198  33.400  31.724  1.00  0.00     0.010 A 
ATOM     40  C   UNL A   1      36.475  33.945  32.130  1.00  0.00    -0.014 A 
BRANCH  40  41
ATOM     41  C   UNL A   1      38.127  33.194  31.971  1.00  0.00     0.031 A 
ATOM     42  C   UNL A   1      38.569  31.556  31.303  1.00  0.00     0.074 A 
ATOM     43  C   UNL A   1      39.332  33.824  32.322  1.00  0.00     0.049 A 
ATOM     44  N   UNL A   1      39.805  31.081  31.198  1.00  0.00    -0.248 NA
ATOM     45  C   UNL A   1      37.697  30.389  30.820  1.00  0.00     0.031 C 
ATOM     46  C   UNL A   1      40.671  33.484  31.795  1.00  0.00     0.029 A 
ATOM     47  N   UNL A   1      39.704  34.830  33.287  1.00  0.00    -0.354 N 
ATOM     48  C   UNL A   1      39.804  29.838  30.555  1.00  0.00     0.074 A 
ATOM     49  C   UNL A   1      38.481  29.385  30.494  1.00  0.00     0.031 C 
ATOM     50  C   UNL A   1      41.631  33.904  32.628  1.00  0.00     0.029 A 
ATOM     51  C   UNL A   1      41.011  34.504  33.787  1.00  0.00     0.049 A 
ATOM     52  H   UNL A   1      39.159  35.604  33.556  1.00  0.00     0.167 HD
ATOM     53  C   UNL A   1      40.877  29.187  30.039  1.00  0.00     0.037 A 
ATOM     54  C   UNL A   1      41.447  34.370  35.089  1.00  0.00     0.037 A 
ATOM     55  C   UNL A   1      42.055  29.579  30.754  1.00  0.00     0.049 A 
ATOM     56  C   UNL A   1      42.232  33.057  35.321  1.00  0.00     0.074 A 
ATOM     57  C   UNL A   1      42.973  30.593  30.622  1.00  0.00     0.029 A 
ATOM     58  N   UNL A   1      42.165  29.110  32.051  1.00  0.00    -0.354 N 
ATOM     59  N   UNL A   1      42.579  32.198  34.394  1.00  0.00    -0.248 NA
ATOM     60  C   UNL A   1      42.587  32.564  36.653  1.00  0.00     0.031 C 
ATOM     61  C   UNL A   1      43.511  30.830  31.923  1.00  0.00     0.029 A 
ATOM     62  C   UNL A   1      42.942  29.941  32.830  1.00  0.00     0.049 A 
ATOM     63  H   UNL A   1      41.741  28.284  32.377  1.00  0.00     0.167 HD
ATOM     64  C   UNL A   1      42.916  30.992  34.986  1.00  0.00     0.074 A 
ATOM     65  C   UNL A   1      43.016  31.321  36.391  1.00  0.00     0.031 C 
ATOM     66  C   UNL A   1      42.955  29.797  34.298  1.00  0.00     0.037 A 
BRANCH  53  67
ATOM     67  C   UNL A   1      40.764  28.140  28.929  1.00  0.00     0.064 A 
ATOM     68  C   UNL A   1      41.247  28.386  27.633  1.00  0.00     0.173 A 
ATOM     69  C   UNL A   1      40.062  26.908  29.064  1.00  0.00     0.173 A 
ATOM     70  F   UNL A   1      41.891  29.527  27.352  1.00  0.00    -0.203 F 
ATOM     71  C   UNL A   1      41.063  27.475  26.576  1.00  0.00     0.198 A 
ATOM     72  C   UNL A   1      39.951  25.967  28.035  1.00  0.00     0.198 A 
ATOM     73  F   UNL A   1      39.405  26.586  30.189  1.00  0.00    -0.203 F 
ATOM     74  F   UNL A   1      41.486  27.788  25.343  1.00  0.00    -0.200 F 
ATOM     75  C   UNL A   1      40.434  26.258  26.782  1.00  0.00     0.200 A 
ATOM     76  F   UNL A   1      39.343  24.793  28.266  1.00  0.00    -0.200 F 
ATOM     77  F   UNL A   1      40.268  25.389  25.774  1.00  0.00    -0.200 F 
ENDBRANCH  53  67
BRANCH  54  78
ATOM     78  C   UNL A   1      40.748  35.155  36.192  1.00  0.00     0.064 A 
ATOM     79  C   UNL A   1      39.610  34.572  36.800  1.00  0.00     0.173 A 
ATOM     80  C   UNL A   1      41.312  36.252  36.890  1.00  0.00     0.173 A 
ATOM     81  F   UNL A   1      38.963  33.568  36.187  1.00  0.00    -0.203 F 
ATOM     82  C   UNL A   1      39.208  34.905  38.103  1.00  0.00     0.198 A 
ATOM     83  C   UNL A   1      40.905  36.584  38.199  1.00  0.00     0.198 A 
ATOM     84  F   UNL A   1      42.412  36.869  36.441  1.00  0.00    -0.203 F 
ATOM     85  F   UNL A   1      38.240  34.197  38.702  1.00  0.00    -0.200 F 
ATOM     86  C   UNL A   1      39.890  35.874  38.819  1.00  0.00     0.200 A 
ATOM     87  F   UNL A   1      41.635  37.448  38.922  1.00  0.00    -0.200 F 
ATOM     88  F   UNL A   1      39.646  36.047  40.128  1.00  0.00    -0.200 F 
ENDBRANCH  54  78
BRANCH  66  89
ATOM     89  C   UNL A   1      42.938  28.403  34.981  1.00  0.00     0.064 A 
ATOM     90  C   UNL A   1      43.985  27.456  34.915  1.00  0.00     0.173 A 
ATOM     91  C   UNL A   1      41.881  28.003  35.839  1.00  0.00     0.173 A 
ATOM     92  F   UNL A   1      45.180  27.754  34.391  1.00  0.00    -0.203 F 
ATOM     93  C   UNL A   1      43.898  26.174  35.480  1.00  0.00     0.198 A 
ATOM     94  C   UNL A   1      41.847  26.764  36.495  1.00  0.00     0.198 A 
ATOM     95  F   UNL A   1      40.854  28.816  36.120  1.00  0.00    -0.203 F 
ATOM     96  F   UNL A   1      44.888  25.292  35.280  1.00  0.00    -0.200 F 
ATOM     97  C   UNL A   1      42.826  25.826  36.270  1.00  0.00     0.200 A 
ATOM     98  F   UNL A   1      40.862  26.499  37.368  1.00  0.00    -0.200 F 
ATOM     99  F   UNL A   1      42.762  24.617  36.844  1.00  0.00    -0.200 F 
ENDBRANCH  66  89
ENDBRANCH  40  41
ENDBRANCH  33  35
ENDBRANCH  32  33
ENDBRANCH  31  32
ENDBRANCH  30  31
ENDBRANCH  29  30
ENDBRANCH  28  29
ENDBRANCH   1  28
TORSDOF 20
ENDMDL
MODEL 3
REMARK VINA RESULT:     -12.8      4.598     10.436
REMARK SMILES COc1ccc(NC(=O)[C@H]2[C@@H](C(=O)OCCOCCOCCOC(=O)c3ccc(-c4c5nc(c(-c6c(F)c(F)c(F)c(F)c6F)c6ccc([nH]6)c(-c6c(F)c(F)c(F)c(F)c6F)c6nc(c(-c7c(F)c(F)c(F)c(F)c7F)c7ccc4[nH]7)C=C6)C=C5)cc3)[C@H]3C=C[C@@H]2C3)c(C)c1
REMARK SMILES IDX 18 1 17 2 16 3 15 4 14 5 12 6 13 7 11 8 10 9 92 10 89 11
REMARK SMILES IDX 91 12 93 13 90 14 8 15 7 16 9 18 6 19 3 20 4 21 96 22 5 23
REMARK SMILES IDX 94 24 95 25 2 26 1 27 19 28 20 29 21 30 22 31 23 32 24 33
REMARK SMILES IDX 25 34 26 35 27 36 88 37 28 38 87 39 29 40 30 41 31 42 81 43
REMARK SMILES IDX 32 44 86 45 80 46 82 47 33 48 85 49 79 50 78 51 34 53 66 54
REMARK SMILES IDX 46 55 65 56 47 57 50 58 64 59 83 60 48 61 49 62 63 64 84 65
REMARK SMILES IDX 51 66 35 67 36 68 44 69 37 70 38 71 42 72 45 73 39 74 40 75
REMARK SMILES IDX 43 76 41 77 67 78 68 79 76 80 69 81 70 82 74 83 77 84 71 85
REMARK SMILES IDX 72 86 75 87 73 88 52 89 53 90 61 91 54 92 55 93 59 94 62 95
REMARK SMILES IDX 56 96 57 97 60 98 58 99
REMARK H PARENT 7 17 82 52 50 63
REMARK Flexibility Score: inf
ROOT
ATOM      1  C   UNL A   1      33.753  32.198  27.994  1.00  0.00     0.188 C 
ENDROOT
BRANCH   1   2
ATOM      2  O   UNL A   1      33.283  31.073  27.192  1.00  0.00    -0.376 OA
BRANCH   2   3
ATOM      3  C   UNL A   1      33.441  29.644  27.601  1.00  0.00     0.202 C 
BRANCH   3   4
ATOM      4  C   UNL A   1      34.211  28.282  26.612  1.00  0.00     0.261 C 
BRANCH   4   5
ATOM      5  O   UNL A   1      33.628  26.641  26.119  1.00  0.00    -0.463 OA
BRANCH   5   6
ATOM      6  C   UNL A   1      33.945  25.471  25.231  1.00  0.00     0.310 C 
ATOM      7  O   UNL A   1      34.403  25.538  24.093  1.00  0.00    -0.252 OA
BRANCH   6   8
ATOM      8  C   UNL A   1      33.603  24.040  25.635  1.00  0.00     0.119 C 
ATOM      9  C   UNL A   1      32.913  22.918  24.721  1.00  0.00     0.100 C 
ATOM     10  C   UNL A   1      31.991  22.150  25.728  1.00  0.00     0.025 C 
ATOM     11  C   UNL A   1      32.607  23.978  26.877  1.00  0.00     0.027 C 
ATOM     12  C   UNL A   1      30.743  22.935  25.950  1.00  0.00    -0.027 C 
ATOM     13  C   UNL A   1      32.611  22.454  27.093  1.00  0.00     0.017 C 
ATOM     14  C   UNL A   1      31.114  24.061  26.574  1.00  0.00    -0.027 C 
BRANCH   9  15
ATOM     15  C   UNL A   1      32.219  22.840  23.313  1.00  0.00     0.228 C 
ATOM     16  N   UNL A   1      31.248  23.628  22.753  1.00  0.00    -0.326 N 
ATOM     17  H   UNL A   1      30.636  23.170  22.132  1.00  0.00     0.169 HD
ATOM     18  O   UNL A   1      32.479  21.831  22.628  1.00  0.00    -0.274 OA
BRANCH  16  19
ATOM     19  C   UNL A   1      31.005  24.990  22.939  1.00  0.00     0.044 A 
ATOM     20  C   UNL A   1      30.956  27.552  23.893  1.00  0.00     0.119 A 
ATOM     21  C   UNL A   1      29.914  26.709  24.217  1.00  0.00     0.048 A 
ATOM     22  C   UNL A   1      31.766  27.225  22.818  1.00  0.00     0.052 A 
ATOM     23  C   UNL A   1      29.927  25.417  23.704  1.00  0.00     0.030 A 
ATOM     24  C   UNL A   1      31.749  25.938  22.265  1.00  0.00    -0.024 A 
ATOM     25  C   UNL A   1      32.452  25.570  21.002  1.00  0.00     0.047 C 
BRANCH  20  26
ATOM     26  O   UNL A   1      31.206  28.703  24.575  1.00  0.00    -0.497 OA
ATOM     27  C   UNL A   1      32.315  29.401  24.016  1.00  0.00     0.278 C 
ENDBRANCH  20  26
ENDBRANCH  16  19
ENDBRANCH   9  15
ENDBRANCH   6   8
ENDBRANCH   5   6
ENDBRANCH   4   5
ENDBRANCH   3   4
ENDBRANCH   2   3
ENDBRANCH   1   2
BRANCH   1  28
ATOM     28  C   UNL A   1      32.902  33.488  27.884  1.00  0.00     0.188 C 
BRANCH  28  29
ATOM     29  O   UNL A   1      33.086  34.325  28.982  1.00  0.00    -0.376 OA
BRANCH  29  30
ATOM     30  C   UNL A   1      33.437  35.674  28.781  1.00  0.00     0.202 C 
BRANCH  30  31
ATOM     31  C   UNL A   1      32.941  36.336  30.072  1.00  0.00     0.261 C 
BRANCH  31  32
ATOM     32  O   UNL A   1      32.703  35.322  31.100  1.00  0.00    -0.460 OA
BRANCH  32  33
ATOM     33  C   UNL A   1      33.061  35.673  32.397  1.00  0.00     0.338 C 
ATOM     34  O   UNL A   1      32.788  36.709  32.923  1.00  0.00    -0.246 OA
BRANCH  33  35
ATOM     35  C   UNL A   1      34.035  34.660  32.960  1.00  0.00     0.060 A 
ATOM     36  C   UNL A   1      35.082  34.979  33.807  1.00  0.00     0.016 A 
ATOM     37  C   UNL A   1      34.200  33.507  32.281  1.00  0.00     0.016 A 
ATOM     38  C   UNL A   1      36.344  34.252  33.751  1.00  0.00     0.010 A 
ATOM     39  C   UNL A   1      35.544  33.154  32.027  1.00  0.00     0.010 A 
ATOM     40  C   UNL A   1      36.783  33.407  32.728  1.00  0.00    -0.014 A 
BRANCH  40  41
ATOM     41  C   UNL A   1      38.421  32.668  32.434  1.00  0.00     0.031 A 
ATOM     42  C   UNL A   1      38.834  31.158  31.499  1.00  0.00     0.074 A 
ATOM     43  C   UNL A   1      39.638  33.212  32.878  1.00  0.00     0.049 A 
ATOM     44  N   UNL A   1      40.061  30.689  31.307  1.00  0.00    -0.248 NA
ATOM     45  C   UNL A   1      37.940  30.102  30.833  1.00  0.00     0.031 C 
ATOM     46  C   UNL A   1      40.968  32.945  32.292  1.00  0.00     0.029 A 
ATOM     47  N   UNL A   1      40.031  34.036  33.995  1.00  0.00    -0.354 N 
ATOM     48  C   UNL A   1      40.037  29.571  30.465  1.00  0.00     0.074 A 
ATOM     49  C   UNL A   1      38.706  29.155  30.339  1.00  0.00     0.031 C 
ATOM     50  C   UNL A   1      41.939  33.204  33.176  1.00  0.00     0.029 A 
ATOM     51  C   UNL A   1      41.334  33.611  34.424  1.00  0.00     0.049 A 
ATOM     52  H   UNL A   1      39.500  34.763  34.393  1.00  0.00     0.167 HD
ATOM     53  C   UNL A   1      41.097  29.000  29.839  1.00  0.00     0.037 A 
ATOM     54  C   UNL A   1      41.774  33.255  35.682  1.00  0.00     0.037 A 
ATOM     55  C   UNL A   1      42.284  29.248  30.602  1.00  0.00     0.049 A 
ATOM     56  C   UNL A   1      42.538  31.908  35.685  1.00  0.00     0.074 A 
ATOM     57  C   UNL A   1      43.218  30.256  30.634  1.00  0.00     0.029 A 
ATOM     58  N   UNL A   1      42.392  28.567  31.801  1.00  0.00    -0.354 N 
ATOM     59  N   UNL A   1      42.867  31.212  34.625  1.00  0.00    -0.248 NA
ATOM     60  C   UNL A   1      42.892  31.194  36.913  1.00  0.00     0.031 C 
ATOM     61  C   UNL A   1      43.766  30.263  31.953  1.00  0.00     0.029 A 
ATOM     62  C   UNL A   1      43.186  29.243  32.703  1.00  0.00     0.049 A 
ATOM     63  H   UNL A   1      41.956  27.704  31.987  1.00  0.00     0.167 HD
ATOM     64  C   UNL A   1      43.187  29.919  35.004  1.00  0.00     0.074 A 
ATOM     65  C   UNL A   1      43.298  30.007  36.444  1.00  0.00     0.031 C 
ATOM     66  C   UNL A   1      43.203  28.856  34.126  1.00  0.00     0.037 A 
BRANCH  53  67
ATOM     67  C   UNL A   1      40.962  28.155  28.571  1.00  0.00     0.064 A 
ATOM     68  C   UNL A   1      40.367  26.883  28.594  1.00  0.00     0.173 A 
ATOM     69  C   UNL A   1      41.530  28.510  27.313  1.00  0.00     0.173 A 
ATOM     70  F   UNL A   1      39.829  26.403  29.723  1.00  0.00    -0.203 F 
ATOM     71  C   UNL A   1      40.323  26.052  27.457  1.00  0.00     0.198 A 
ATOM     72  C   UNL A   1      41.414  27.718  26.165  1.00  0.00     0.198 A 
ATOM     73  F   UNL A   1      42.269  29.618  27.156  1.00  0.00    -0.203 F 
ATOM     74  F   UNL A   1      39.801  24.821  27.550  1.00  0.00    -0.200 F 
ATOM     75  C   UNL A   1      40.828  26.478  26.241  1.00  0.00     0.200 A 
ATOM     76  F   UNL A   1      41.906  28.161  24.997  1.00  0.00    -0.200 F 
ATOM     77  F   UNL A   1      40.777  25.687  25.158  1.00  0.00    -0.200 F 
ENDBRANCH  53  67
BRANCH  54  78
ATOM     78  C   UNL A   1      41.093  33.854  36.905  1.00  0.00     0.064 A 
ATOM     79  C   UNL A   1      41.610  35.066  37.425  1.00  0.00     0.173 A 
ATOM     80  C   UNL A   1      39.803  33.496  37.373  1.00  0.00     0.173 A 
ATOM     81  F   UNL A   1      42.849  35.461  37.095  1.00  0.00    -0.203 F 
ATOM     82  C   UNL A   1      40.818  35.957  38.166  1.00  0.00     0.198 A 
ATOM     83  C   UNL A   1      39.011  34.395  38.117  1.00  0.00     0.198 A 
ATOM     84  F   UNL A   1      39.187  32.393  36.932  1.00  0.00    -0.203 F 
ATOM     85  F   UNL A   1      41.296  37.170  38.477  1.00  0.00    -0.200 F 
ATOM     86  C   UNL A   1      39.503  35.642  38.465  1.00  0.00     0.200 A 
ATOM     87  F   UNL A   1      37.710  34.128  38.313  1.00  0.00    -0.200 F 
ATOM     88  F   UNL A   1      38.686  36.571  38.985  1.00  0.00    -0.200 F 
ENDBRANCH  54  78
BRANCH  66  89
ATOM     89  C   UNL A   1      43.167  27.368  34.566  1.00  0.00     0.064 A 
ATOM     90  C   UNL A   1      41.990  26.620  34.795  1.00  0.00     0.173 A 
ATOM     91  C   UNL A   1      44.349  26.588  34.669  1.00  0.00     0.173 A 
ATOM     92  F   UNL A   1      40.777  27.089  34.480  1.00  0.00    -0.203 F 
ATOM     93  C   UNL A   1      42.000  25.298  35.270  1.00  0.00     0.198 A 
ATOM     94  C   UNL A   1      44.350  25.234  35.034  1.00  0.00     0.198 A 
ATOM     95  F   UNL A   1      45.554  27.093  34.374  1.00  0.00    -0.203 F 
ATOM     96  F   UNL A   1      40.841  24.692  35.570  1.00  0.00    -0.200 F 
ATOM     97  C   UNL A   1      43.182  24.604  35.391  1.00  0.00     0.200 A 
ATOM     98  F   UNL A   1      45.499  24.540  35.013  1.00  0.00    -0.200 F 
ATOM     99  F   UNL A   1      43.188  23.330  35.804  1.00  0.00    -0.200 F 
ENDBRANCH  66  89
ENDBRANCH  40  41
ENDBRANCH  33  35
ENDBRANCH  32  33
ENDBRANCH  31  32
ENDBRANCH  30  31
ENDBRANCH  29  30
ENDBRANCH  28  29
ENDBRANCH   1  28
TORSDOF 20
ENDMDL
