MODEL 1
REMARK VINA RESULT:     -11.4      0.000      0.000
REMARK SMILES Cc1ccc2c(C[NH2+][C@H]3CCC[C@@H](C)[C@@H]3C)c(C(=O)OCCOCCOCCOC(=O)c3ccc(-c4c5nc(c(-c6c(F)c(F)c(F)c(F)c6F)c6ccc([nH]6)c(-c6c(F)c(F)c(F)c(F)c6F)c6nc(c(-c7c(F)c(F)c(F)c(F)c7F)c7ccc4[nH]7)C=C6)C=C5)cc3)n(C)c2c1
REMARK SMILES IDX 24 1 23 2 22 3 21 4 20 5 18 6 19 7 17 8 1 9 2 10 3 11 98 12
REMARK SMILES IDX 4 13 97 14 5 15 95 16 6 17 96 18 7 19 8 20 9 23 10 24 15 25
REMARK SMILES IDX 11 26 13 27 16 28 12 29 14 30 25 31 26 32 27 33 28 34 29 35
REMARK SMILES IDX 30 36 31 37 32 38 33 39 94 40 34 41 93 42 35 43 36 44 37 45
REMARK SMILES IDX 87 46 38 47 92 48 86 49 88 50 39 51 91 52 85 53 84 54 40 56
REMARK SMILES IDX 72 57 52 58 71 59 53 60 56 61 70 62 89 63 54 64 55 65 69 67
REMARK SMILES IDX 90 68 57 69 41 70 42 71 50 72 43 73 44 74 48 75 51 76 45 77
REMARK SMILES IDX 46 78 49 79 47 80 73 81 74 82 82 83 75 84 76 85 80 86 83 87
REMARK SMILES IDX 77 88 78 89 81 90 79 91 58 92 59 93 67 94 60 95 61 96 65 97
REMARK SMILES IDX 68 98 62 99 63 100 66 101 64 102
REMARK H PARENT 8 21 8 22 88 55 56 66
REMARK Flexibility Score: inf
ROOT
ATOM      1  C   UNL A   1      33.612  23.069  23.309  1.00  0.00     0.188 C 
ENDROOT
BRANCH   1   2
ATOM      2  O   UNL A   1      32.709  22.816  24.353  1.00  0.00    -0.376 OA
BRANCH   2   3
ATOM      3  C   UNL A   1      32.946  23.423  25.595  1.00  0.00     0.202 C 
BRANCH   3   4
ATOM      4  C   UNL A   1      32.620  24.908  25.825  1.00  0.00     0.261 C 
BRANCH   4   5
ATOM      5  O   UNL A   1      33.677  25.862  25.570  1.00  0.00    -0.459 OA
BRANCH   5   6
ATOM      6  C   UNL A   1      33.413  26.807  24.613  1.00  0.00     0.355 C 
ATOM      7  O   UNL A   1      33.990  26.827  23.536  1.00  0.00    -0.244 OA
BRANCH   6   8
ATOM      8  C   UNL A   1      32.382  27.781  24.988  1.00  0.00     0.137 A 
ATOM      9  C   UNL A   1      28.876  32.291  23.207  1.00  0.00     0.044 C 
ATOM     10  C   UNL A   1      29.693  31.417  24.113  1.00  0.00    -0.049 A 
ATOM     11  C   UNL A   1      30.332  31.916  25.254  1.00  0.00     0.004 A 
ATOM     12  C   UNL A   1      29.898  30.086  23.751  1.00  0.00     0.030 A 
ATOM     13  C   UNL A   1      31.237  31.133  26.005  1.00  0.00     0.011 A 
ATOM     14  C   UNL A   1      30.814  29.335  24.507  1.00  0.00     0.049 A 
ATOM     15  C   UNL A   1      31.533  29.825  25.586  1.00  0.00     0.009 A 
ATOM     16  N   UNL A   1      31.141  28.004  24.454  1.00  0.00    -0.338 N 
ATOM     17  C   UNL A   1      32.443  28.779  25.967  1.00  0.00     0.047 A 
ATOM     18  C   UNL A   1      30.130  27.038  24.170  1.00  0.00     0.150 C 
BRANCH  17  19
ATOM     19  C   UNL A   1      33.332  28.688  27.149  1.00  0.00     0.300 C 
BRANCH  19  20
ATOM     20  N   UNL A   1      34.318  29.716  26.859  1.00  0.00    -0.340 N 
ATOM     21  H   UNL A   1      33.800  30.548  26.576  1.00  0.00     0.346 HD
ATOM     22  H   UNL A   1      34.918  29.273  26.163  1.00  0.00     0.346 HD
BRANCH  20  23
ATOM     23  C   UNL A   1      35.255  30.138  27.878  1.00  0.00     0.185 C 
ATOM     24  C   UNL A   1      36.560  29.379  27.534  1.00  0.00     0.065 C 
ATOM     25  C   UNL A   1      35.562  31.664  27.889  1.00  0.00     0.047 C 
ATOM     26  C   UNL A   1      37.655  29.662  28.544  1.00  0.00     0.006 C 
ATOM     27  C   UNL A   1      36.661  31.971  28.940  1.00  0.00    -0.006 C 
ATOM     28  C   UNL A   1      34.322  32.547  28.058  1.00  0.00     0.014 C 
ATOM     29  C   UNL A   1      37.932  31.153  28.649  1.00  0.00     0.004 C 
ATOM     30  C   UNL A   1      37.038  33.456  28.985  1.00  0.00     0.008 C 
ENDBRANCH  20  23
ENDBRANCH  19  20
ENDBRANCH  17  19
ENDBRANCH   6   8
ENDBRANCH   5   6
ENDBRANCH   4   5
ENDBRANCH   3   4
ENDBRANCH   2   3
ENDBRANCH   1   2
BRANCH   1  31
ATOM     31  C   UNL A   1      35.085  22.990  23.762  1.00  0.00     0.188 C 
BRANCH  31  32
ATOM     32  O   UNL A   1      35.620  21.734  24.153  1.00  0.00    -0.376 OA
BRANCH  32  33
ATOM     33  C   UNL A   1      36.296  21.654  25.400  1.00  0.00     0.202 C 
BRANCH  33  34
ATOM     34  C   UNL A   1      37.813  21.431  25.330  1.00  0.00     0.261 C 
BRANCH  34  35
ATOM     35  O   UNL A   1      38.560  22.616  25.688  1.00  0.00    -0.460 OA
BRANCH  35  36
ATOM     36  C   UNL A   1      39.515  22.469  26.644  1.00  0.00     0.338 C 
ATOM     37  O   UNL A   1      40.112  21.440  26.912  1.00  0.00    -0.246 OA
BRANCH  36  38
ATOM     38  C   UNL A   1      39.990  23.823  27.071  1.00  0.00     0.060 A 
ATOM     39  C   UNL A   1      41.278  24.111  27.555  1.00  0.00     0.016 A 
ATOM     40  C   UNL A   1      39.000  24.785  27.200  1.00  0.00     0.016 A 
ATOM     41  C   UNL A   1      41.513  25.262  28.353  1.00  0.00     0.010 A 
ATOM     42  C   UNL A   1      39.256  25.935  27.944  1.00  0.00     0.010 A 
ATOM     43  C   UNL A   1      40.473  26.148  28.638  1.00  0.00    -0.014 A 
BRANCH  43  44
ATOM     44  C   UNL A   1      40.594  27.399  29.460  1.00  0.00     0.031 A 
ATOM     45  C   UNL A   1      41.567  28.308  28.846  1.00  0.00     0.074 A 
ATOM     46  C   UNL A   1      39.956  27.898  30.563  1.00  0.00     0.049 A 
ATOM     47  N   UNL A   1      42.801  28.368  29.216  1.00  0.00    -0.248 NA
ATOM     48  C   UNL A   1      41.243  29.075  27.638  1.00  0.00     0.031 C 
ATOM     49  C   UNL A   1      38.962  27.251  31.406  1.00  0.00     0.029 A 
ATOM     50  N   UNL A   1      39.988  29.173  31.127  1.00  0.00    -0.354 N 
ATOM     51  C   UNL A   1      43.332  29.374  28.450  1.00  0.00     0.074 A 
ATOM     52  C   UNL A   1      42.452  29.542  27.319  1.00  0.00     0.031 C 
ATOM     53  C   UNL A   1      38.286  28.167  32.148  1.00  0.00     0.029 A 
ATOM     54  C   UNL A   1      38.919  29.460  32.004  1.00  0.00     0.049 A 
ATOM     55  H   UNL A   1      40.701  29.823  30.930  1.00  0.00     0.167 HD
ATOM     56  C   UNL A   1      44.210  30.250  28.995  1.00  0.00     0.037 A 
ATOM     57  C   UNL A   1      38.647  30.596  32.716  1.00  0.00     0.037 A 
ATOM     58  C   UNL A   1      44.645  29.846  30.312  1.00  0.00     0.049 A 
ATOM     59  C   UNL A   1      39.971  31.120  33.081  1.00  0.00     0.074 A 
ATOM     60  C   UNL A   1      45.289  28.744  30.840  1.00  0.00     0.029 A 
ATOM     61  N   UNL A   1      44.033  30.480  31.363  1.00  0.00    -0.354 N 
ATOM     62  N   UNL A   1      40.747  30.548  33.955  1.00  0.00    -0.248 NA
ATOM     63  C   UNL A   1      40.572  32.189  32.298  1.00  0.00     0.031 C 
ATOM     64  C   UNL A   1      44.832  28.611  32.184  1.00  0.00     0.029 A 
ATOM     65  C   UNL A   1      43.947  29.650  32.455  1.00  0.00     0.049 A 
ATOM     66  H   UNL A   1      43.698  31.405  31.337  1.00  0.00     0.167 HD
ATOM     67  C   UNL A   1      42.005  30.805  33.464  1.00  0.00     0.074 A 
ATOM     68  C   UNL A   1      41.851  31.981  32.620  1.00  0.00     0.031 C 
ATOM     69  C   UNL A   1      42.947  29.820  33.487  1.00  0.00     0.037 A 
BRANCH  56  70
ATOM     70  C   UNL A   1      44.330  31.652  28.489  1.00  0.00     0.064 A 
ATOM     71  C   UNL A   1      45.508  32.061  27.856  1.00  0.00     0.173 A 
ATOM     72  C   UNL A   1      43.377  32.660  28.754  1.00  0.00     0.173 A 
ATOM     73  F   UNL A   1      46.507  31.189  27.657  1.00  0.00    -0.203 F 
ATOM     74  C   UNL A   1      45.693  33.386  27.461  1.00  0.00     0.198 A 
ATOM     75  C   UNL A   1      43.527  33.961  28.290  1.00  0.00     0.198 A 
ATOM     76  F   UNL A   1      42.315  32.435  29.541  1.00  0.00    -0.203 F 
ATOM     77  F   UNL A   1      46.861  33.761  26.923  1.00  0.00    -0.200 F 
ATOM     78  C   UNL A   1      44.692  34.327  27.651  1.00  0.00     0.200 A 
ATOM     79  F   UNL A   1      42.559  34.859  28.514  1.00  0.00    -0.200 F 
ATOM     80  F   UNL A   1      44.869  35.597  27.265  1.00  0.00    -0.200 F 
ENDBRANCH  56  70
BRANCH  57  81
ATOM     81  C   UNL A   1      37.425  31.304  33.236  1.00  0.00     0.064 A 
ATOM     82  C   UNL A   1      37.506  32.229  34.301  1.00  0.00     0.173 A 
ATOM     83  C   UNL A   1      36.254  31.390  32.476  1.00  0.00     0.173 A 
ATOM     84  F   UNL A   1      38.550  32.208  35.143  1.00  0.00    -0.203 F 
ATOM     85  C   UNL A   1      36.565  33.252  34.483  1.00  0.00     0.198 A 
ATOM     86  C   UNL A   1      35.328  32.434  32.627  1.00  0.00     0.198 A 
ATOM     87  F   UNL A   1      36.011  30.467  31.552  1.00  0.00    -0.203 F 
ATOM     88  F   UNL A   1      36.736  34.152  35.464  1.00  0.00    -0.200 F 
ATOM     89  C   UNL A   1      35.504  33.387  33.611  1.00  0.00     0.200 A 
ATOM     90  F   UNL A   1      34.294  32.554  31.780  1.00  0.00    -0.200 F 
ATOM     91  F   UNL A   1      34.669  34.432  33.709  1.00  0.00    -0.200 F 
ENDBRANCH  57  81
BRANCH  69  92
ATOM     92  C   UNL A   1      42.781  28.747  34.532  1.00  0.00     0.064 A 
ATOM     93  C   UNL A   1      41.986  27.596  34.384  1.00  0.00     0.173 A 
ATOM     94  C   UNL A   1      43.494  28.870  35.730  1.00  0.00     0.173 A 
ATOM     95  F   UNL A   1      41.334  27.356  33.245  1.00  0.00    -0.203 F 
ATOM     96  C   UNL A   1      41.875  26.644  35.397  1.00  0.00     0.198 A 
ATOM     97  C   UNL A   1      43.412  27.901  36.729  1.00  0.00     0.198 A 
ATOM     98  F   UNL A   1      44.296  29.928  35.926  1.00  0.00    -0.203 F 
ATOM     99  F   UNL A   1      41.090  25.569  35.229  1.00  0.00    -0.200 F 
ATOM    100  C   UNL A   1      42.594  26.794  36.568  1.00  0.00     0.200 A 
ATOM    101  F   UNL A   1      44.142  28.031  37.845  1.00  0.00    -0.200 F 
ATOM    102  F   UNL A   1      42.519  25.863  37.529  1.00  0.00    -0.200 F 
ENDBRANCH  69  92
ENDBRANCH  43  44
ENDBRANCH  36  38
ENDBRANCH  35  36
ENDBRANCH  34  35
ENDBRANCH  33  34
ENDBRANCH  32  33
ENDBRANCH  31  32
ENDBRANCH   1  31
TORSDOF 20
ENDMDL
MODEL 2
REMARK VINA RESULT:     -10.8      1.721      4.005
REMARK SMILES Cc1ccc2c(C[NH2+][C@H]3CCC[C@@H](C)[C@@H]3C)c(C(=O)OCCOCCOCCOC(=O)c3ccc(-c4c5nc(c(-c6c(F)c(F)c(F)c(F)c6F)c6ccc([nH]6)c(-c6c(F)c(F)c(F)c(F)c6F)c6nc(c(-c7c(F)c(F)c(F)c(F)c7F)c7ccc4[nH]7)C=C6)C=C5)cc3)n(C)c2c1
REMARK SMILES IDX 24 1 23 2 22 3 21 4 20 5 18 6 19 7 17 8 1 9 2 10 3 11 98 12
REMARK SMILES IDX 4 13 97 14 5 15 95 16 6 17 96 18 7 19 8 20 9 23 10 24 15 25
REMARK SMILES IDX 11 26 13 27 16 28 12 29 14 30 25 31 26 32 27 33 28 34 29 35
REMARK SMILES IDX 30 36 31 37 32 38 33 39 94 40 34 41 93 42 35 43 36 44 37 45
REMARK SMILES IDX 87 46 38 47 92 48 86 49 88 50 39 51 91 52 85 53 84 54 40 56
REMARK SMILES IDX 72 57 52 58 71 59 53 60 56 61 70 62 89 63 54 64 55 65 69 67
REMARK SMILES IDX 90 68 57 69 41 70 42 71 50 72 43 73 44 74 48 75 51 76 45 77
REMARK SMILES IDX 46 78 49 79 47 80 73 81 74 82 82 83 75 84 76 85 80 86 83 87
REMARK SMILES IDX 77 88 78 89 81 90 79 91 58 92 59 93 67 94 60 95 61 96 65 97
REMARK SMILES IDX 68 98 62 99 63 100 66 101 64 102
REMARK H PARENT 8 21 8 22 88 55 56 66
REMARK Flexibility Score: inf
ROOT
ATOM      1  C   UNL A   1      34.750  20.440  24.996  1.00  0.00     0.188 C 
ENDROOT
BRANCH   1   2
ATOM      2  O   UNL A   1      34.087  20.841  26.167  1.00  0.00    -0.376 OA
BRANCH   2   3
ATOM      3  C   UNL A   1      34.321  22.137  26.649  1.00  0.00     0.202 C 
BRANCH   3   4
ATOM      4  C   UNL A   1      33.336  22.809  27.620  1.00  0.00     0.261 C 
BRANCH   4   5
ATOM      5  O   UNL A   1      31.979  23.000  27.155  1.00  0.00    -0.459 OA
BRANCH   5   6
ATOM      6  C   UNL A   1      31.846  23.492  25.884  1.00  0.00     0.355 C 
ATOM      7  O   UNL A   1      31.591  22.775  24.927  1.00  0.00    -0.244 OA
BRANCH   6   8
ATOM      8  C   UNL A   1      32.027  24.944  25.771  1.00  0.00     0.137 A 
ATOM      9  C   UNL A   1      34.892  29.799  27.776  1.00  0.00     0.044 C 
ATOM     10  C   UNL A   1      33.811  28.953  27.168  1.00  0.00    -0.049 A 
ATOM     11  C   UNL A   1      32.458  29.304  27.245  1.00  0.00     0.004 A 
ATOM     12  C   UNL A   1      34.162  27.734  26.592  1.00  0.00     0.030 A 
ATOM     13  C   UNL A   1      31.434  28.424  26.826  1.00  0.00     0.011 A 
ATOM     14  C   UNL A   1      33.123  26.873  26.197  1.00  0.00     0.049 A 
ATOM     15  C   UNL A   1      31.773  27.148  26.344  1.00  0.00     0.009 A 
ATOM     16  N   UNL A   1      33.157  25.677  25.526  1.00  0.00    -0.338 N 
ATOM     17  C   UNL A   1      31.076  25.955  25.948  1.00  0.00     0.047 A 
ATOM     18  C   UNL A   1      34.119  25.474  24.492  1.00  0.00     0.150 C 
BRANCH  17  19
ATOM     19  C   UNL A   1      29.624  25.733  25.751  1.00  0.00     0.300 C 
BRANCH  19  20
ATOM     20  N   UNL A   1      29.548  25.527  24.314  1.00  0.00    -0.340 N 
ATOM     21  H   UNL A   1      29.005  24.676  24.168  1.00  0.00     0.346 HD
ATOM     22  H   UNL A   1      30.527  25.518  24.028  1.00  0.00     0.346 HD
BRANCH  20  23
ATOM     23  C   UNL A   1      28.967  26.540  23.460  1.00  0.00     0.185 C 
ATOM     24  C   UNL A   1      27.705  27.007  24.225  1.00  0.00     0.065 C 
ATOM     25  C   UNL A   1      29.876  27.779  23.208  1.00  0.00     0.047 C 
ATOM     26  C   UNL A   1      26.928  28.047  23.442  1.00  0.00     0.006 C 
ATOM     27  C   UNL A   1      29.102  28.839  22.382  1.00  0.00    -0.006 C 
ATOM     28  C   UNL A   1      31.239  27.436  22.599  1.00  0.00     0.014 C 
ATOM     29  C   UNL A   1      27.802  29.243  23.102  1.00  0.00     0.004 C 
ATOM     30  C   UNL A   1      29.927  30.104  22.121  1.00  0.00     0.008 C 
ENDBRANCH  20  23
ENDBRANCH  19  20
ENDBRANCH  17  19
ENDBRANCH   6   8
ENDBRANCH   5   6
ENDBRANCH   4   5
ENDBRANCH   3   4
ENDBRANCH   2   3
ENDBRANCH   1   2
BRANCH   1  31
ATOM     31  C   UNL A   1      36.273  20.682  25.060  1.00  0.00     0.188 C 
BRANCH  31  32
ATOM     32  O   UNL A   1      37.154  19.577  24.922  1.00  0.00    -0.376 OA
BRANCH  32  33
ATOM     33  C   UNL A   1      38.526  19.773  25.232  1.00  0.00     0.202 C 
BRANCH  33  34
ATOM     34  C   UNL A   1      38.910  21.173  25.732  1.00  0.00     0.261 C 
BRANCH  34  35
ATOM     35  O   UNL A   1      40.056  21.147  26.614  1.00  0.00    -0.460 OA
BRANCH  35  36
ATOM     36  C   UNL A   1      41.015  22.085  26.394  1.00  0.00     0.338 C 
ATOM     37  O   UNL A   1      41.804  22.102  25.465  1.00  0.00    -0.246 OA
BRANCH  36  38
ATOM     38  C   UNL A   1      40.729  23.283  27.245  1.00  0.00     0.060 A 
ATOM     39  C   UNL A   1      39.629  24.142  27.084  1.00  0.00     0.016 A 
ATOM     40  C   UNL A   1      41.759  23.671  28.089  1.00  0.00     0.016 A 
ATOM     41  C   UNL A   1      39.663  25.469  27.591  1.00  0.00     0.010 A 
ATOM     42  C   UNL A   1      41.758  24.958  28.622  1.00  0.00     0.010 A 
ATOM     43  C   UNL A   1      40.778  25.927  28.294  1.00  0.00    -0.014 A 
BRANCH  43  44
ATOM     44  C   UNL A   1      40.933  27.300  28.884  1.00  0.00     0.031 A 
ATOM     45  C   UNL A   1      42.029  28.009  28.219  1.00  0.00     0.074 A 
ATOM     46  C   UNL A   1      40.246  28.038  29.810  1.00  0.00     0.049 A 
ATOM     47  N   UNL A   1      43.227  28.054  28.695  1.00  0.00    -0.248 NA
ATOM     48  C   UNL A   1      41.878  28.557  26.866  1.00  0.00     0.031 C 
ATOM     49  C   UNL A   1      39.131  27.628  30.650  1.00  0.00     0.029 A 
ATOM     50  N   UNL A   1      40.337  29.391  30.135  1.00  0.00    -0.354 N 
ATOM     51  C   UNL A   1      43.907  28.861  27.818  1.00  0.00     0.074 A 
ATOM     52  C   UNL A   1      43.145  28.872  26.592  1.00  0.00     0.031 C 
ATOM     53  C   UNL A   1      38.473  28.711  31.142  1.00  0.00     0.029 A 
ATOM     54  C   UNL A   1      39.223  29.909  30.832  1.00  0.00     0.049 A 
ATOM     55  H   UNL A   1      41.117  29.943  29.897  1.00  0.00     0.167 HD
ATOM     56  C   UNL A   1      44.804  29.763  28.282  1.00  0.00     0.037 A 
ATOM     57  C   UNL A   1      38.987  31.174  31.297  1.00  0.00     0.037 A 
ATOM     58  C   UNL A   1      45.088  29.585  29.688  1.00  0.00     0.049 A 
ATOM     59  C   UNL A   1      40.314  31.666  31.694  1.00  0.00     0.074 A 
ATOM     60  C   UNL A   1      45.587  28.560  30.468  1.00  0.00     0.029 A 
ATOM     61  N   UNL A   1      44.441  30.444  30.539  1.00  0.00    -0.354 N 
ATOM     62  N   UNL A   1      40.961  31.218  32.731  1.00  0.00    -0.248 NA
ATOM     63  C   UNL A   1      41.070  32.526  30.795  1.00  0.00     0.031 C 
ATOM     64  C   UNL A   1      45.005  28.713  31.761  1.00  0.00     0.029 A 
ATOM     65  C   UNL A   1      44.191  29.841  31.749  1.00  0.00     0.049 A 
ATOM     66  H   UNL A   1      44.190  31.369  30.313  1.00  0.00     0.167 HD
ATOM     67  C   UNL A   1      42.274  31.293  32.331  1.00  0.00     0.074 A 
ATOM     68  C   UNL A   1      42.293  32.298  31.278  1.00  0.00     0.031 C 
ATOM     69  C   UNL A   1      43.123  30.269  32.626  1.00  0.00     0.037 A 
BRANCH  56  70
ATOM     70  C   UNL A   1      45.087  31.033  27.547  1.00  0.00     0.064 A 
ATOM     71  C   UNL A   1      46.385  31.304  27.103  1.00  0.00     0.173 A 
ATOM     72  C   UNL A   1      44.145  32.077  27.404  1.00  0.00     0.173 A 
ATOM     73  F   UNL A   1      47.364  30.407  27.291  1.00  0.00    -0.203 F 
ATOM     74  C   UNL A   1      46.705  32.522  26.502  1.00  0.00     0.198 A 
ATOM     75  C   UNL A   1      44.444  33.257  26.736  1.00  0.00     0.198 A 
ATOM     76  F   UNL A   1      42.938  32.018  27.984  1.00  0.00    -0.203 F 
ATOM     77  F   UNL A   1      47.973  32.777  26.155  1.00  0.00    -0.200 F 
ATOM     78  C   UNL A   1      45.729  33.484  26.292  1.00  0.00     0.200 A 
ATOM     79  F   UNL A   1      43.491  34.185  26.573  1.00  0.00    -0.200 F 
ATOM     80  F   UNL A   1      46.037  34.649  25.709  1.00  0.00    -0.200 F 
ENDBRANCH  56  70
BRANCH  57  81
ATOM     81  C   UNL A   1      37.790  32.047  31.554  1.00  0.00     0.064 A 
ATOM     82  C   UNL A   1      36.755  32.180  30.601  1.00  0.00     0.173 A 
ATOM     83  C   UNL A   1      37.446  32.451  32.849  1.00  0.00     0.173 A 
ATOM     84  F   UNL A   1      36.975  31.888  29.311  1.00  0.00    -0.203 F 
ATOM     85  C   UNL A   1      35.446  32.535  30.956  1.00  0.00     0.198 A 
ATOM     86  C   UNL A   1      36.130  32.768  33.219  1.00  0.00     0.198 A 
ATOM     87  F   UNL A   1      38.392  32.512  33.781  1.00  0.00    -0.203 F 
ATOM     88  F   UNL A   1      34.484  32.566  30.021  1.00  0.00    -0.200 F 
ATOM     89  C   UNL A   1      35.122  32.776  32.276  1.00  0.00     0.200 A 
ATOM     90  F   UNL A   1      35.824  33.009  34.503  1.00  0.00    -0.200 F 
ATOM     91  F   UNL A   1      33.850  32.998  32.637  1.00  0.00    -0.200 F 
ENDBRANCH  57  81
BRANCH  69  92
ATOM     92  C   UNL A   1      42.776  29.424  33.826  1.00  0.00     0.064 A 
ATOM     93  C   UNL A   1      43.045  29.774  35.161  1.00  0.00     0.173 A 
ATOM     94  C   UNL A   1      42.101  28.216  33.614  1.00  0.00     0.173 A 
ATOM     95  F   UNL A   1      43.612  30.944  35.461  1.00  0.00    -0.203 F 
ATOM     96  C   UNL A   1      42.699  28.939  36.224  1.00  0.00     0.198 A 
ATOM     97  C   UNL A   1      41.723  27.398  34.679  1.00  0.00     0.198 A 
ATOM     98  F   UNL A   1      41.785  27.834  32.368  1.00  0.00    -0.203 F 
ATOM     99  F   UNL A   1      42.991  29.297  37.484  1.00  0.00    -0.200 F 
ATOM    100  C   UNL A   1      42.031  27.754  35.981  1.00  0.00     0.200 A 
ATOM    101  F   UNL A   1      41.040  26.270  34.441  1.00  0.00    -0.200 F 
ATOM    102  F   UNL A   1      41.664  26.967  37.003  1.00  0.00    -0.200 F 
ENDBRANCH  69  92
ENDBRANCH  43  44
ENDBRANCH  36  38
ENDBRANCH  35  36
ENDBRANCH  34  35
ENDBRANCH  33  34
ENDBRANCH  32  33
ENDBRANCH  31  32
ENDBRANCH   1  31
TORSDOF 20
ENDMDL
MODEL 3
REMARK VINA RESULT:     -10.6      2.204      5.099
REMARK SMILES Cc1ccc2c(C[NH2+][C@H]3CCC[C@@H](C)[C@@H]3C)c(C(=O)OCCOCCOCCOC(=O)c3ccc(-c4c5nc(c(-c6c(F)c(F)c(F)c(F)c6F)c6ccc([nH]6)c(-c6c(F)c(F)c(F)c(F)c6F)c6nc(c(-c7c(F)c(F)c(F)c(F)c7F)c7ccc4[nH]7)C=C6)C=C5)cc3)n(C)c2c1
REMARK SMILES IDX 24 1 23 2 22 3 21 4 20 5 18 6 19 7 17 8 1 9 2 10 3 11 98 12
REMARK SMILES IDX 4 13 97 14 5 15 95 16 6 17 96 18 7 19 8 20 9 23 10 24 15 25
REMARK SMILES IDX 11 26 13 27 16 28 12 29 14 30 25 31 26 32 27 33 28 34 29 35
REMARK SMILES IDX 30 36 31 37 32 38 33 39 94 40 34 41 93 42 35 43 36 44 37 45
REMARK SMILES IDX 87 46 38 47 92 48 86 49 88 50 39 51 91 52 85 53 84 54 40 56
REMARK SMILES IDX 72 57 52 58 71 59 53 60 56 61 70 62 89 63 54 64 55 65 69 67
REMARK SMILES IDX 90 68 57 69 41 70 42 71 50 72 43 73 44 74 48 75 51 76 45 77
REMARK SMILES IDX 46 78 49 79 47 80 73 81 74 82 82 83 75 84 76 85 80 86 83 87
REMARK SMILES IDX 77 88 78 89 81 90 79 91 58 92 59 93 67 94 60 95 61 96 65 97
REMARK SMILES IDX 68 98 62 99 63 100 66 101 64 102
REMARK H PARENT 8 21 8 22 88 55 56 66
REMARK Flexibility Score: inf
ROOT
ATOM      1  C   UNL A   1      38.891  23.060  26.497  1.00  0.00     0.188 C 
ENDROOT
BRANCH   1   2
ATOM      2  O   UNL A   1      37.902  23.967  26.084  1.00  0.00    -0.376 OA
BRANCH   2   3
ATOM      3  C   UNL A   1      36.602  23.483  25.886  1.00  0.00     0.202 C 
BRANCH   3   4
ATOM      4  C   UNL A   1      35.942  23.537  24.497  1.00  0.00     0.261 C 
BRANCH   4   5
ATOM      5  O   UNL A   1      34.695  24.263  24.388  1.00  0.00    -0.459 OA
BRANCH   5   6
ATOM      6  C   UNL A   1      33.711  23.898  25.269  1.00  0.00     0.355 C 
ATOM      7  O   UNL A   1      33.302  24.649  26.142  1.00  0.00    -0.244 OA
BRANCH   6   8
ATOM      8  C   UNL A   1      33.190  22.540  25.071  1.00  0.00     0.137 A 
ATOM      9  C   UNL A   1      34.405  16.894  23.505  1.00  0.00     0.044 C 
ATOM     10  C   UNL A   1      33.627  18.160  23.714  1.00  0.00    -0.049 A 
ATOM     11  C   UNL A   1      32.538  18.508  22.906  1.00  0.00     0.004 A 
ATOM     12  C   UNL A   1      34.064  19.061  24.684  1.00  0.00     0.030 A 
ATOM     13  C   UNL A   1      31.918  19.775  22.993  1.00  0.00     0.011 A 
ATOM     14  C   UNL A   1      33.439  20.319  24.738  1.00  0.00     0.049 A 
ATOM     15  C   UNL A   1      32.421  20.730  23.893  1.00  0.00     0.009 A 
ATOM     16  N   UNL A   1      33.582  21.353  25.629  1.00  0.00    -0.338 N 
ATOM     17  C   UNL A   1      32.181  22.114  24.200  1.00  0.00     0.047 A 
ATOM     18  C   UNL A   1      33.801  21.071  27.010  1.00  0.00     0.150 C 
BRANCH  17  19
ATOM     19  C   UNL A   1      31.103  23.012  23.723  1.00  0.00     0.300 C 
BRANCH  19  20
ATOM     20  N   UNL A   1      31.844  23.960  22.907  1.00  0.00    -0.340 N 
ATOM     21  H   UNL A   1      31.908  23.555  21.973  1.00  0.00     0.346 HD
ATOM     22  H   UNL A   1      32.712  24.086  23.428  1.00  0.00     0.346 HD
BRANCH  20  23
ATOM     23  C   UNL A   1      31.363  25.314  22.740  1.00  0.00     0.185 C 
ATOM     24  C   UNL A   1      30.291  25.477  23.845  1.00  0.00     0.065 C 
ATOM     25  C   UNL A   1      32.443  26.418  22.936  1.00  0.00     0.047 C 
ATOM     26  C   UNL A   1      29.629  26.840  23.786  1.00  0.00     0.006 C 
ATOM     27  C   UNL A   1      31.783  27.820  22.850  1.00  0.00    -0.006 C 
ATOM     28  C   UNL A   1      33.652  26.277  22.007  1.00  0.00     0.014 C 
ATOM     29  C   UNL A   1      30.659  27.954  23.893  1.00  0.00     0.004 C 
ATOM     30  C   UNL A   1      32.785  28.959  23.065  1.00  0.00     0.008 C 
ENDBRANCH  20  23
ENDBRANCH  19  20
ENDBRANCH  17  19
ENDBRANCH   6   8
ENDBRANCH   5   6
ENDBRANCH   4   5
ENDBRANCH   3   4
ENDBRANCH   2   3
ENDBRANCH   1   2
BRANCH   1  31
ATOM     31  C   UNL A   1      38.785  21.697  25.783  1.00  0.00     0.188 C 
BRANCH  31  32
ATOM     32  O   UNL A   1      39.671  20.651  26.156  1.00  0.00    -0.376 OA
BRANCH  32  33
ATOM     33  C   UNL A   1      40.830  20.992  26.904  1.00  0.00     0.202 C 
BRANCH  33  34
ATOM     34  C   UNL A   1      42.156  20.981  26.131  1.00  0.00     0.261 C 
BRANCH  34  35
ATOM     35  O   UNL A   1      42.376  22.207  25.398  1.00  0.00    -0.460 OA
BRANCH  35  36
ATOM     36  C   UNL A   1      43.249  23.095  25.943  1.00  0.00     0.338 C 
ATOM     37  O   UNL A   1      44.453  23.128  25.754  1.00  0.00    -0.246 OA
BRANCH  36  38
ATOM     38  C   UNL A   1      42.481  24.247  26.512  1.00  0.00     0.060 A 
ATOM     39  C   UNL A   1      41.759  25.187  25.757  1.00  0.00     0.016 A 
ATOM     40  C   UNL A   1      42.706  24.504  27.856  1.00  0.00     0.016 A 
ATOM     41  C   UNL A   1      41.458  26.469  26.290  1.00  0.00     0.010 A 
ATOM     42  C   UNL A   1      42.361  25.748  28.381  1.00  0.00     0.010 A 
ATOM     43  C   UNL A   1      41.842  26.801  27.590  1.00  0.00    -0.014 A 
BRANCH  43  44
ATOM     44  C   UNL A   1      41.577  28.115  28.268  1.00  0.00     0.031 A 
ATOM     45  C   UNL A   1      42.558  29.111  27.828  1.00  0.00     0.074 A 
ATOM     46  C   UNL A   1      40.606  28.593  29.106  1.00  0.00     0.049 A 
ATOM     47  N   UNL A   1      43.628  29.385  28.495  1.00  0.00    -0.248 NA
ATOM     48  C   UNL A   1      42.480  29.727  26.499  1.00  0.00     0.031 C 
ATOM     49  C   UNL A   1      39.510  27.868  29.731  1.00  0.00     0.029 A 
ATOM     50  N   UNL A   1      40.323  29.897  29.511  1.00  0.00    -0.354 N 
ATOM     51  C   UNL A   1      44.216  30.399  27.783  1.00  0.00     0.074 A 
ATOM     52  C   UNL A   1      43.662  30.346  26.452  1.00  0.00     0.031 C 
ATOM     53  C   UNL A   1      38.548  28.725  30.165  1.00  0.00     0.029 A 
ATOM     54  C   UNL A   1      39.029  30.085  30.044  1.00  0.00     0.049 A 
ATOM     55  H   UNL A   1      40.976  30.630  29.433  1.00  0.00     0.167 HD
ATOM     56  C   UNL A   1      44.795  31.437  28.434  1.00  0.00     0.037 A 
ATOM     57  C   UNL A   1      38.433  31.217  30.529  1.00  0.00     0.037 A 
ATOM     58  C   UNL A   1      44.904  31.203  29.856  1.00  0.00     0.049 A 
ATOM     59  C   UNL A   1      39.532  31.960  31.162  1.00  0.00     0.074 A 
ATOM     60  C   UNL A   1      45.513  30.254  30.652  1.00  0.00     0.029 A 
ATOM     61  N   UNL A   1      43.954  31.815  30.634  1.00  0.00    -0.354 N 
ATOM     62  N   UNL A   1      40.107  31.580  32.266  1.00  0.00    -0.248 NA
ATOM     63  C   UNL A   1      40.184  33.046  30.445  1.00  0.00     0.031 C 
ATOM     64  C   UNL A   1      44.729  30.156  31.840  1.00  0.00     0.029 A 
ATOM     65  C   UNL A   1      43.680  31.066  31.754  1.00  0.00     0.049 A 
ATOM     66  H   UNL A   1      43.526  32.674  30.418  1.00  0.00     0.167 HD
ATOM     67  C   UNL A   1      41.409  31.986  32.090  1.00  0.00     0.074 A 
ATOM     68  C   UNL A   1      41.342  33.059  31.108  1.00  0.00     0.031 C 
ATOM     69  C   UNL A   1      42.424  31.160  32.466  1.00  0.00     0.037 A 
BRANCH  56  70
ATOM     70  C   UNL A   1      44.871  32.798  27.822  1.00  0.00     0.064 A 
ATOM     71  C   UNL A   1      46.095  33.274  27.340  1.00  0.00     0.173 A 
ATOM     72  C   UNL A   1      43.802  33.721  27.839  1.00  0.00     0.173 A 
ATOM     73  F   UNL A   1      47.186  32.496  27.381  1.00  0.00    -0.203 F 
ATOM     74  C   UNL A   1      46.224  34.575  26.853  1.00  0.00     0.198 A 
ATOM     75  C   UNL A   1      43.910  34.989  27.282  1.00  0.00     0.198 A 
ATOM     76  F   UNL A   1      42.652  33.452  28.473  1.00  0.00    -0.203 F 
ATOM     77  F   UNL A   1      47.425  35.023  26.467  1.00  0.00    -0.200 F 
ATOM     78  C   UNL A   1      45.126  35.421  26.797  1.00  0.00     0.200 A 
ATOM     79  F   UNL A   1      42.843  35.799  27.268  1.00  0.00    -0.200 F 
ATOM     80  F   UNL A   1      45.250  36.666  26.324  1.00  0.00    -0.200 F 
ENDBRANCH  56  70
BRANCH  57  81
ATOM     81  C   UNL A   1      37.038  31.769  30.633  1.00  0.00     0.064 A 
ATOM     82  C   UNL A   1      36.336  31.775  31.858  1.00  0.00     0.173 A 
ATOM     83  C   UNL A   1      36.521  32.632  29.660  1.00  0.00     0.173 A 
ATOM     84  F   UNL A   1      36.691  30.946  32.851  1.00  0.00    -0.203 F 
ATOM     85  C   UNL A   1      35.306  32.687  32.132  1.00  0.00     0.198 A 
ATOM     86  C   UNL A   1      35.519  33.574  29.938  1.00  0.00     0.198 A 
ATOM     87  F   UNL A   1      37.013  32.587  28.426  1.00  0.00    -0.203 F 
ATOM     88  F   UNL A   1      34.729  32.701  33.344  1.00  0.00    -0.200 F 
ATOM     89  C   UNL A   1      34.935  33.623  31.189  1.00  0.00     0.200 A 
ATOM     90  F   UNL A   1      35.157  34.477  29.014  1.00  0.00    -0.200 F 
ATOM     91  F   UNL A   1      34.035  34.572  31.487  1.00  0.00    -0.200 F 
ENDBRANCH  57  81
BRANCH  69  92
ATOM     92  C   UNL A   1      42.117  30.156  33.548  1.00  0.00     0.064 A 
ATOM     93  C   UNL A   1      41.709  28.829  33.321  1.00  0.00     0.173 A 
ATOM     94  C   UNL A   1      42.281  30.545  34.882  1.00  0.00     0.173 A 
ATOM     95  F   UNL A   1      41.604  28.348  32.081  1.00  0.00    -0.203 F 
ATOM     96  C   UNL A   1      41.436  27.954  34.372  1.00  0.00     0.198 A 
ATOM     97  C   UNL A   1      42.044  29.660  35.933  1.00  0.00     0.198 A 
ATOM     98  F   UNL A   1      42.698  31.788  35.170  1.00  0.00    -0.203 F 
ATOM     99  F   UNL A   1      41.029  26.701  34.117  1.00  0.00    -0.200 F 
ATOM    100  C   UNL A   1      41.611  28.369  35.679  1.00  0.00     0.200 A 
ATOM    101  F   UNL A   1      42.254  30.055  37.196  1.00  0.00    -0.200 F 
ATOM    102  F   UNL A   1      41.386  27.519  36.691  1.00  0.00    -0.200 F 
ENDBRANCH  69  92
ENDBRANCH  43  44
ENDBRANCH  36  38
ENDBRANCH  35  36
ENDBRANCH  34  35
ENDBRANCH  33  34
ENDBRANCH  32  33
ENDBRANCH  31  32
ENDBRANCH   1  31
TORSDOF 20
ENDMDL
