MODEL 1
REMARK VINA RESULT:     -11.1      0.000      0.000
REMARK SMILES C=C1c2ccccc2C(=O)N1[C@](C)(CC)C(=O)OCCOCCOCCOC(=O)c1ccc(-c2c3nc(c(-c4c(F)c(F)c(F)c(F)c4F)c4ccc([nH]4)c(-c4c(F)c(F)c(F)c(F)c4F)c4nc(c(-c5c(F)c(F)c(F)c(F)c5F)c5ccc2[nH]5)C=C4)C=C3)cc1
REMARK SMILES IDX 23 1 22 2 21 3 20 4 19 5 18 6 16 7 17 8 12 9 13 10 11 11
REMARK SMILES IDX 1 12 2 13 3 14 4 15 8 16 9 17 5 18 7 19 10 20 6 21 14 22
REMARK SMILES IDX 15 23 24 24 25 25 26 26 27 27 28 28 29 29 30 30 31 31 92 32
REMARK SMILES IDX 32 33 91 34 33 35 34 36 35 37 85 38 36 39 90 40 84 41 86 42
REMARK SMILES IDX 37 43 89 44 83 45 82 46 38 48 70 49 50 50 69 51 51 52 54 53
REMARK SMILES IDX 68 54 87 55 52 56 53 57 67 59 88 60 55 61 39 62 40 63 48 64
REMARK SMILES IDX 41 65 42 66 46 67 49 68 43 69 44 70 47 71 45 72 71 73 72 74
REMARK SMILES IDX 80 75 73 76 74 77 78 78 81 79 75 80 76 81 79 82 77 83 56 84
REMARK SMILES IDX 57 85 65 86 58 87 59 88 63 89 66 90 60 91 61 92 64 93 62 94
REMARK H PARENT 86 47 54 58
REMARK Flexibility Score: inf
ROOT
ATOM      1  C   UNL A   1      32.398  28.213  23.419  1.00  0.00     0.188 C 
ENDROOT
BRANCH   1   2
ATOM      2  C   UNL A   1      31.000  28.025  22.829  1.00  0.00     0.188 C 
BRANCH   2   3
ATOM      3  O   UNL A   1      30.648  26.762  22.282  1.00  0.00    -0.376 OA
BRANCH   3   4
ATOM      4  C   UNL A   1      30.577  25.619  23.128  1.00  0.00     0.202 C 
BRANCH   4   5
ATOM      5  C   UNL A   1      31.640  24.529  22.959  1.00  0.00     0.261 C 
BRANCH   5   6
ATOM      6  O   UNL A   1      32.810  24.628  23.806  1.00  0.00    -0.461 OA
BRANCH   6   7
ATOM      7  C   UNL A   1      33.816  23.728  23.575  1.00  0.00     0.332 C 
ATOM      8  O   UNL A   1      34.133  23.363  22.444  1.00  0.00    -0.249 OA
BRANCH   7   9
ATOM      9  C   UNL A   1      34.436  23.112  24.868  1.00  0.00     0.142 C 
ATOM     10  C   UNL A   1      35.939  23.505  24.765  1.00  0.00     0.048 C 
BRANCH   9  11
ATOM     11  N   UNL A   1      34.327  21.617  24.854  1.00  0.00    -0.292 N 
ATOM     12  C   UNL A   1      36.629  20.721  25.223  1.00  0.00     0.038 C 
ATOM     13  C   UNL A   1      35.331  20.647  24.920  1.00  0.00     0.046 C 
ATOM     14  C   UNL A   1      34.705  19.357  24.626  1.00  0.00     0.010 A 
ATOM     15  C   UNL A   1      35.226  18.079  24.492  1.00  0.00     0.011 A 
ATOM     16  C   UNL A   1      33.345  19.572  24.452  1.00  0.00     0.049 A 
ATOM     17  C   UNL A   1      33.089  21.004  24.601  1.00  0.00     0.259 C 
ATOM     18  C   UNL A   1      34.351  17.033  24.189  1.00  0.00     0.001 A 
ATOM     19  C   UNL A   1      32.456  18.557  24.149  1.00  0.00     0.014 A 
ATOM     20  O   UNL A   1      31.984  21.506  24.473  1.00  0.00    -0.269 OA
ATOM     21  C   UNL A   1      32.976  17.270  24.020  1.00  0.00     0.001 A 
ENDBRANCH   9  11
BRANCH   9  22
ATOM     22  C   UNL A   1      33.813  23.643  26.220  1.00  0.00     0.037 C 
ATOM     23  C   UNL A   1      34.019  22.854  27.523  1.00  0.00     0.007 C 
ENDBRANCH   9  22
ENDBRANCH   7   9
ENDBRANCH   6   7
ENDBRANCH   5   6
ENDBRANCH   4   5
ENDBRANCH   3   4
ENDBRANCH   2   3
ENDBRANCH   1   2
BRANCH   1  24
ATOM     24  O   UNL A   1      32.435  28.796  24.703  1.00  0.00    -0.376 OA
BRANCH  24  25
ATOM     25  C   UNL A   1      31.397  29.708  25.026  1.00  0.00     0.202 C 
BRANCH  25  26
ATOM     26  C   UNL A   1      31.736  30.736  26.115  1.00  0.00     0.261 C 
BRANCH  26  27
ATOM     27  O   UNL A   1      33.132  30.827  26.472  1.00  0.00    -0.460 OA
BRANCH  27  28
ATOM     28  C   UNL A   1      33.519  31.845  27.279  1.00  0.00     0.338 C 
ATOM     29  O   UNL A   1      32.851  32.803  27.622  1.00  0.00    -0.246 OA
BRANCH  28  30
ATOM     30  C   UNL A   1      34.809  31.453  27.902  1.00  0.00     0.060 A 
ATOM     31  C   UNL A   1      35.023  30.106  28.237  1.00  0.00     0.016 A 
ATOM     32  C   UNL A   1      35.818  32.393  28.106  1.00  0.00     0.016 A 
ATOM     33  C   UNL A   1      36.236  29.703  28.802  1.00  0.00     0.010 A 
ATOM     34  C   UNL A   1      37.022  31.995  28.696  1.00  0.00     0.010 A 
ATOM     35  C   UNL A   1      37.227  30.654  29.075  1.00  0.00    -0.014 A 
BRANCH  35  36
ATOM     36  C   UNL A   1      38.378  30.309  29.950  1.00  0.00     0.031 A 
ATOM     37  C   UNL A   1      39.393  29.330  29.422  1.00  0.00     0.074 A 
ATOM     38  C   UNL A   1      38.535  30.839  31.176  1.00  0.00     0.049 A 
ATOM     39  N   UNL A   1      40.420  28.784  30.022  1.00  0.00    -0.248 NA
ATOM     40  C   UNL A   1      39.222  28.907  28.023  1.00  0.00     0.031 C 
ATOM     41  C   UNL A   1      37.663  31.839  31.788  1.00  0.00     0.029 A 
ATOM     42  N   UNL A   1      39.489  30.592  32.136  1.00  0.00    -0.354 N 
ATOM     43  C   UNL A   1      41.002  27.944  29.082  1.00  0.00     0.074 A 
ATOM     44  C   UNL A   1      40.204  28.033  27.878  1.00  0.00     0.031 C 
ATOM     45  C   UNL A   1      38.111  32.107  33.028  1.00  0.00     0.029 A 
ATOM     46  C   UNL A   1      39.275  31.269  33.313  1.00  0.00     0.049 A 
ATOM     47  H   UNL A   1      40.251  29.986  31.994  1.00  0.00     0.167 HD
ATOM     48  C   UNL A   1      42.106  27.170  29.207  1.00  0.00     0.037 A 
ATOM     49  C   UNL A   1      39.929  31.195  34.491  1.00  0.00     0.037 A 
ATOM     50  C   UNL A   1      42.908  27.088  30.398  1.00  0.00     0.049 A 
ATOM     51  C   UNL A   1      41.109  30.261  34.630  1.00  0.00     0.074 A 
ATOM     52  C   UNL A   1      44.054  26.344  30.613  1.00  0.00     0.029 A 
ATOM     53  N   UNL A   1      42.643  27.768  31.577  1.00  0.00    -0.354 N 
ATOM     54  N   UNL A   1      41.663  29.481  33.733  1.00  0.00    -0.248 NA
ATOM     55  C   UNL A   1      41.756  30.198  35.950  1.00  0.00     0.031 C 
ATOM     56  C   UNL A   1      44.451  26.529  31.941  1.00  0.00     0.029 A 
ATOM     57  C   UNL A   1      43.590  27.439  32.533  1.00  0.00     0.049 A 
ATOM     58  H   UNL A   1      41.894  28.392  31.714  1.00  0.00     0.167 HD
ATOM     59  C   UNL A   1      42.739  28.868  34.368  1.00  0.00     0.074 A 
ATOM     60  C   UNL A   1      42.769  29.376  35.722  1.00  0.00     0.031 C 
ATOM     61  C   UNL A   1      43.622  27.966  33.872  1.00  0.00     0.037 A 
BRANCH  48  62
ATOM     62  C   UNL A   1      42.500  26.323  28.033  1.00  0.00     0.064 A 
ATOM     63  C   UNL A   1      41.975  25.037  27.838  1.00  0.00     0.173 A 
ATOM     64  C   UNL A   1      43.376  26.830  27.061  1.00  0.00     0.173 A 
ATOM     65  F   UNL A   1      41.147  24.500  28.748  1.00  0.00    -0.203 F 
ATOM     66  C   UNL A   1      42.329  24.282  26.724  1.00  0.00     0.198 A 
ATOM     67  C   UNL A   1      43.703  26.084  25.932  1.00  0.00     0.198 A 
ATOM     68  F   UNL A   1      43.904  28.055  27.199  1.00  0.00    -0.203 F 
ATOM     69  F   UNL A   1      41.849  23.039  26.579  1.00  0.00    -0.200 F 
ATOM     70  C   UNL A   1      43.183  24.810  25.766  1.00  0.00     0.200 A 
ATOM     71  F   UNL A   1      44.518  26.601  25.002  1.00  0.00    -0.200 F 
ATOM     72  F   UNL A   1      43.511  24.086  24.686  1.00  0.00    -0.200 F 
ENDBRANCH  48  62
BRANCH  49  73
ATOM     73  C   UNL A   1      39.474  32.000  35.659  1.00  0.00     0.064 A 
ATOM     74  C   UNL A   1      40.050  33.244  35.952  1.00  0.00     0.173 A 
ATOM     75  C   UNL A   1      38.500  31.511  36.544  1.00  0.00     0.173 A 
ATOM     76  F   UNL A   1      41.011  33.741  35.158  1.00  0.00    -0.203 F 
ATOM     77  C   UNL A   1      39.692  33.955  37.098  1.00  0.00     0.198 A 
ATOM     78  C   UNL A   1      38.118  32.238  37.671  1.00  0.00     0.198 A 
ATOM     79  F   UNL A   1      37.925  30.321  36.320  1.00  0.00    -0.203 F 
ATOM     80  F   UNL A   1      40.310  35.107  37.389  1.00  0.00    -0.200 F 
ATOM     81  C   UNL A   1      38.723  33.453  37.953  1.00  0.00     0.200 A 
ATOM     82  F   UNL A   1      37.177  31.752  38.491  1.00  0.00    -0.200 F 
ATOM     83  F   UNL A   1      38.386  34.131  39.059  1.00  0.00    -0.200 F 
ENDBRANCH  49  73
BRANCH  61  84
ATOM     84  C   UNL A   1      44.734  27.508  34.774  1.00  0.00     0.064 A 
ATOM     85  C   UNL A   1      45.947  28.207  34.871  1.00  0.00     0.173 A 
ATOM     86  C   UNL A   1      44.562  26.381  35.593  1.00  0.00     0.173 A 
ATOM     87  F   UNL A   1      46.167  29.285  34.104  1.00  0.00    -0.203 F 
ATOM     88  C   UNL A   1      46.955  27.776  35.730  1.00  0.00     0.198 A 
ATOM     89  C   UNL A   1      45.558  25.973  36.476  1.00  0.00     0.198 A 
ATOM     90  F   UNL A   1      43.417  25.682  35.550  1.00  0.00    -0.203 F 
ATOM     91  F   UNL A   1      48.124  28.431  35.768  1.00  0.00    -0.200 F 
ATOM     92  C   UNL A   1      46.757  26.666  36.538  1.00  0.00     0.200 A 
ATOM     93  F   UNL A   1      45.357  24.911  37.269  1.00  0.00    -0.200 F 
ATOM     94  F   UNL A   1      47.724  26.261  37.371  1.00  0.00    -0.200 F 
ENDBRANCH  61  84
ENDBRANCH  35  36
ENDBRANCH  28  30
ENDBRANCH  27  28
ENDBRANCH  26  27
ENDBRANCH  25  26
ENDBRANCH  24  25
ENDBRANCH   1  24
TORSDOF 19
ENDMDL
MODEL 2
REMARK VINA RESULT:     -10.9      2.934      8.896
REMARK SMILES C=C1c2ccccc2C(=O)N1[C@](C)(CC)C(=O)OCCOCCOCCOC(=O)c1ccc(-c2c3nc(c(-c4c(F)c(F)c(F)c(F)c4F)c4ccc([nH]4)c(-c4c(F)c(F)c(F)c(F)c4F)c4nc(c(-c5c(F)c(F)c(F)c(F)c5F)c5ccc2[nH]5)C=C4)C=C3)cc1
REMARK SMILES IDX 23 1 22 2 21 3 20 4 19 5 18 6 16 7 17 8 12 9 13 10 11 11
REMARK SMILES IDX 1 12 2 13 3 14 4 15 8 16 9 17 5 18 7 19 10 20 6 21 14 22
REMARK SMILES IDX 15 23 24 24 25 25 26 26 27 27 28 28 29 29 30 30 31 31 92 32
REMARK SMILES IDX 32 33 91 34 33 35 34 36 35 37 85 38 36 39 90 40 84 41 86 42
REMARK SMILES IDX 37 43 89 44 83 45 82 46 38 48 70 49 50 50 69 51 51 52 54 53
REMARK SMILES IDX 68 54 87 55 52 56 53 57 67 59 88 60 55 61 39 62 40 63 48 64
REMARK SMILES IDX 41 65 42 66 46 67 49 68 43 69 44 70 47 71 45 72 71 73 72 74
REMARK SMILES IDX 80 75 73 76 74 77 78 78 81 79 75 80 76 81 79 82 77 83 56 84
REMARK SMILES IDX 57 85 65 86 58 87 59 88 63 89 66 90 60 91 61 92 64 93 62 94
REMARK H PARENT 86 47 54 58
REMARK Flexibility Score: inf
ROOT
ATOM      1  C   UNL A   1      35.090  32.781  28.511  1.00  0.00     0.188 C 
ENDROOT
BRANCH   1   2
ATOM      2  C   UNL A   1      35.144  31.342  28.001  1.00  0.00     0.188 C 
BRANCH   2   3
ATOM      3  O   UNL A   1      33.995  30.790  27.375  1.00  0.00    -0.376 OA
BRANCH   3   4
ATOM      4  C   UNL A   1      34.083  29.532  26.715  1.00  0.00     0.202 C 
BRANCH   4   5
ATOM      5  C   UNL A   1      32.822  28.665  26.641  1.00  0.00     0.261 C 
BRANCH   5   6
ATOM      6  O   UNL A   1      33.021  27.249  26.416  1.00  0.00    -0.461 OA
BRANCH   6   7
ATOM      7  C   UNL A   1      31.903  26.503  26.157  1.00  0.00     0.332 C 
ATOM      8  O   UNL A   1      31.106  26.173  27.034  1.00  0.00    -0.249 OA
BRANCH   7   9
ATOM      9  C   UNL A   1      31.793  26.001  24.683  1.00  0.00     0.142 C 
ATOM     10  C   UNL A   1      33.273  25.982  24.200  1.00  0.00     0.048 C 
BRANCH   9  11
ATOM     11  N   UNL A   1      31.025  26.975  23.842  1.00  0.00    -0.292 N 
ATOM     12  C   UNL A   1      32.707  28.412  22.683  1.00  0.00     0.038 C 
ATOM     13  C   UNL A   1      31.484  28.051  23.075  1.00  0.00     0.046 C 
ATOM     14  C   UNL A   1      30.308  28.814  22.654  1.00  0.00     0.010 A 
ATOM     15  C   UNL A   1      30.171  29.995  21.940  1.00  0.00     0.011 A 
ATOM     16  C   UNL A   1      29.181  28.152  23.120  1.00  0.00     0.049 A 
ATOM     17  C   UNL A   1      29.621  26.977  23.872  1.00  0.00     0.259 C 
ATOM     18  C   UNL A   1      28.884  30.484  21.705  1.00  0.00     0.001 A 
ATOM     19  C   UNL A   1      27.895  28.614  22.905  1.00  0.00     0.014 A 
ATOM     20  O   UNL A   1      28.854  26.210  24.431  1.00  0.00    -0.269 OA
ATOM     21  C   UNL A   1      27.754  29.798  22.183  1.00  0.00     0.001 A 
ENDBRANCH   9  11
BRANCH   9  22
ATOM     22  C   UNL A   1      31.135  24.573  24.516  1.00  0.00     0.037 C 
ATOM     23  C   UNL A   1      31.624  23.627  23.409  1.00  0.00     0.007 C 
ENDBRANCH   9  22
ENDBRANCH   7   9
ENDBRANCH   6   7
ENDBRANCH   5   6
ENDBRANCH   4   5
ENDBRANCH   3   4
ENDBRANCH   2   3
ENDBRANCH   1   2
BRANCH   1  24
ATOM     24  O   UNL A   1      34.416  33.693  27.671  1.00  0.00    -0.376 OA
BRANCH  24  25
ATOM     25  C   UNL A   1      33.170  34.191  28.132  1.00  0.00     0.202 C 
BRANCH  25  26
ATOM     26  C   UNL A   1      33.253  35.278  29.214  1.00  0.00     0.261 C 
BRANCH  26  27
ATOM     27  O   UNL A   1      32.425  35.064  30.377  1.00  0.00    -0.460 OA
BRANCH  27  28
ATOM     28  C   UNL A   1      32.777  35.678  31.532  1.00  0.00     0.338 C 
ATOM     29  O   UNL A   1      32.148  36.531  32.131  1.00  0.00    -0.246 OA
BRANCH  28  30
ATOM     30  C   UNL A   1      33.931  34.934  32.097  1.00  0.00     0.060 A 
ATOM     31  C   UNL A   1      35.201  35.534  32.087  1.00  0.00     0.016 A 
ATOM     32  C   UNL A   1      33.757  33.678  32.679  1.00  0.00     0.016 A 
ATOM     33  C   UNL A   1      36.301  34.867  32.633  1.00  0.00     0.010 A 
ATOM     34  C   UNL A   1      34.862  33.001  33.202  1.00  0.00     0.010 A 
ATOM     35  C   UNL A   1      36.146  33.577  33.155  1.00  0.00    -0.014 A 
BRANCH  35  36
ATOM     36  C   UNL A   1      37.337  32.736  33.447  1.00  0.00     0.031 A 
ATOM     37  C   UNL A   1      38.084  32.997  34.728  1.00  0.00     0.074 A 
ATOM     38  C   UNL A   1      37.755  31.767  32.615  1.00  0.00     0.049 A 
ATOM     39  N   UNL A   1      39.206  32.483  35.162  1.00  0.00    -0.248 NA
ATOM     40  C   UNL A   1      37.479  33.977  35.645  1.00  0.00     0.031 C 
ATOM     41  C   UNL A   1      37.096  31.369  31.373  1.00  0.00     0.029 A 
ATOM     42  N   UNL A   1      38.856  30.945  32.689  1.00  0.00    -0.354 N 
ATOM     43  C   UNL A   1      39.449  33.090  36.388  1.00  0.00     0.074 A 
ATOM     44  C   UNL A   1      38.371  34.025  36.622  1.00  0.00     0.031 C 
ATOM     45  C   UNL A   1      37.815  30.392  30.792  1.00  0.00     0.029 A 
ATOM     46  C   UNL A   1      39.005  30.123  31.598  1.00  0.00     0.049 A 
ATOM     47  H   UNL A   1      39.478  30.946  33.452  1.00  0.00     0.167 HD
ATOM     48  C   UNL A   1      40.475  32.882  37.246  1.00  0.00     0.037 A 
ATOM     49  C   UNL A   1      40.006  29.276  31.276  1.00  0.00     0.037 A 
ATOM     50  C   UNL A   1      41.542  31.945  37.022  1.00  0.00     0.049 A 
ATOM     51  C   UNL A   1      41.182  29.124  32.213  1.00  0.00     0.074 A 
ATOM     52  C   UNL A   1      42.618  31.653  37.842  1.00  0.00     0.029 A 
ATOM     53  N   UNL A   1      41.673  31.151  35.892  1.00  0.00    -0.354 N 
ATOM     54  N   UNL A   1      41.397  29.689  33.377  1.00  0.00    -0.248 NA
ATOM     55  C   UNL A   1      42.257  28.213  31.789  1.00  0.00     0.031 C 
ATOM     56  C   UNL A   1      43.430  30.725  37.183  1.00  0.00     0.029 A 
ATOM     57  C   UNL A   1      42.827  30.390  35.982  1.00  0.00     0.049 A 
ATOM     58  H   UNL A   1      41.039  31.132  35.139  1.00  0.00     0.167 HD
ATOM     59  C   UNL A   1      42.606  29.175  33.836  1.00  0.00     0.074 A 
ATOM     60  C   UNL A   1      43.072  28.243  32.832  1.00  0.00     0.031 C 
ATOM     61  C   UNL A   1      43.270  29.450  34.985  1.00  0.00     0.037 A 
BRANCH  48  62
ATOM     62  C   UNL A   1      40.513  33.707  38.498  1.00  0.00     0.064 A 
ATOM     63  C   UNL A   1      41.259  34.892  38.583  1.00  0.00     0.173 A 
ATOM     64  C   UNL A   1      39.750  33.330  39.614  1.00  0.00     0.173 A 
ATOM     65  F   UNL A   1      42.019  35.287  37.550  1.00  0.00    -0.203 F 
ATOM     66  C   UNL A   1      41.253  35.659  39.745  1.00  0.00     0.198 A 
ATOM     67  C   UNL A   1      39.722  34.116  40.762  1.00  0.00     0.198 A 
ATOM     68  F   UNL A   1      39.018  32.206  39.584  1.00  0.00    -0.203 F 
ATOM     69  F   UNL A   1      42.004  36.766  39.818  1.00  0.00    -0.200 F 
ATOM     70  C   UNL A   1      40.476  35.276  40.829  1.00  0.00     0.200 A 
ATOM     71  F   UNL A   1      38.960  33.751  41.804  1.00  0.00    -0.200 F 
ATOM     72  F   UNL A   1      40.460  36.024  41.941  1.00  0.00    -0.200 F 
ENDBRANCH  48  62
BRANCH  49  73
ATOM     73  C   UNL A   1      39.971  28.520  29.993  1.00  0.00     0.064 A 
ATOM     74  C   UNL A   1      39.388  27.247  29.916  1.00  0.00     0.173 A 
ATOM     75  C   UNL A   1      40.579  29.026  28.835  1.00  0.00     0.173 A 
ATOM     76  F   UNL A   1      38.824  26.701  31.004  1.00  0.00    -0.203 F 
ATOM     77  C   UNL A   1      39.439  26.498  28.740  1.00  0.00     0.198 A 
ATOM     78  C   UNL A   1      40.600  28.291  27.650  1.00  0.00     0.198 A 
ATOM     79  F   UNL A   1      41.164  30.232  28.854  1.00  0.00    -0.203 F 
ATOM     80  F   UNL A   1      38.935  25.257  28.716  1.00  0.00    -0.200 F 
ATOM     81  C   UNL A   1      40.041  27.024  27.607  1.00  0.00     0.200 A 
ATOM     82  F   UNL A   1      41.178  28.805  26.556  1.00  0.00    -0.200 F 
ATOM     83  F   UNL A   1      40.099  26.300  26.480  1.00  0.00    -0.200 F 
ENDBRANCH  49  73
BRANCH  61  84
ATOM     84  C   UNL A   1      44.543  28.698  35.255  1.00  0.00     0.064 A 
ATOM     85  C   UNL A   1      44.549  27.467  35.930  1.00  0.00     0.173 A 
ATOM     86  C   UNL A   1      45.770  29.193  34.787  1.00  0.00     0.173 A 
ATOM     87  F   UNL A   1      43.406  26.954  36.407  1.00  0.00    -0.203 F 
ATOM     88  C   UNL A   1      45.738  26.777  36.149  1.00  0.00     0.198 A 
ATOM     89  C   UNL A   1      46.953  28.483  34.978  1.00  0.00     0.198 A 
ATOM     90  F   UNL A   1      45.821  30.359  34.125  1.00  0.00    -0.203 F 
ATOM     91  F   UNL A   1      45.725  25.628  36.840  1.00  0.00    -0.200 F 
ATOM     92  C   UNL A   1      46.937  27.280  35.666  1.00  0.00     0.200 A 
ATOM     93  F   UNL A   1      48.107  28.962  34.494  1.00  0.00    -0.200 F 
ATOM     94  F   UNL A   1      48.078  26.608  35.870  1.00  0.00    -0.200 F 
ENDBRANCH  61  84
ENDBRANCH  35  36
ENDBRANCH  28  30
ENDBRANCH  27  28
ENDBRANCH  26  27
ENDBRANCH  25  26
ENDBRANCH  24  25
ENDBRANCH   1  24
TORSDOF 19
ENDMDL
MODEL 3
REMARK VINA RESULT:     -10.9      4.271      8.104
REMARK SMILES C=C1c2ccccc2C(=O)N1[C@](C)(CC)C(=O)OCCOCCOCCOC(=O)c1ccc(-c2c3nc(c(-c4c(F)c(F)c(F)c(F)c4F)c4ccc([nH]4)c(-c4c(F)c(F)c(F)c(F)c4F)c4nc(c(-c5c(F)c(F)c(F)c(F)c5F)c5ccc2[nH]5)C=C4)C=C3)cc1
REMARK SMILES IDX 23 1 22 2 21 3 20 4 19 5 18 6 16 7 17 8 12 9 13 10 11 11
REMARK SMILES IDX 1 12 2 13 3 14 4 15 8 16 9 17 5 18 7 19 10 20 6 21 14 22
REMARK SMILES IDX 15 23 24 24 25 25 26 26 27 27 28 28 29 29 30 30 31 31 92 32
REMARK SMILES IDX 32 33 91 34 33 35 34 36 35 37 85 38 36 39 90 40 84 41 86 42
REMARK SMILES IDX 37 43 89 44 83 45 82 46 38 48 70 49 50 50 69 51 51 52 54 53
REMARK SMILES IDX 68 54 87 55 52 56 53 57 67 59 88 60 55 61 39 62 40 63 48 64
REMARK SMILES IDX 41 65 42 66 46 67 49 68 43 69 44 70 47 71 45 72 71 73 72 74
REMARK SMILES IDX 80 75 73 76 74 77 78 78 81 79 75 80 76 81 79 82 77 83 56 84
REMARK SMILES IDX 57 85 65 86 58 87 59 88 63 89 66 90 60 91 61 92 64 93 62 94
REMARK H PARENT 86 47 54 58
REMARK Flexibility Score: inf
ROOT
ATOM      1  C   UNL A   1      36.485  21.483  24.640  1.00  0.00     0.188 C 
ENDROOT
BRANCH   1   2
ATOM      2  C   UNL A   1      35.346  20.549  25.049  1.00  0.00     0.188 C 
BRANCH   2   3
ATOM      3  O   UNL A   1      34.479  20.941  26.103  1.00  0.00    -0.376 OA
BRANCH   3   4
ATOM      4  C   UNL A   1      34.329  22.321  26.420  1.00  0.00     0.202 C 
BRANCH   4   5
ATOM      5  C   UNL A   1      33.049  23.031  25.969  1.00  0.00     0.261 C 
BRANCH   5   6
ATOM      6  O   UNL A   1      32.918  23.292  24.551  1.00  0.00    -0.461 OA
BRANCH   6   7
ATOM      7  C   UNL A   1      31.941  24.174  24.174  1.00  0.00     0.332 C 
ATOM      8  O   UNL A   1      30.741  23.924  24.288  1.00  0.00    -0.249 OA
BRANCH   7   9
ATOM      9  C   UNL A   1      32.474  25.462  23.474  1.00  0.00     0.142 C 
ATOM     10  C   UNL A   1      33.976  25.139  23.226  1.00  0.00     0.048 C 
BRANCH   9  11
ATOM     11  N   UNL A   1      32.381  26.646  24.388  1.00  0.00    -0.292 N 
ATOM     12  C   UNL A   1      30.385  27.962  23.667  1.00  0.00     0.038 C 
ATOM     13  C   UNL A   1      31.507  27.736  24.354  1.00  0.00     0.046 C 
ATOM     14  C   UNL A   1      32.000  28.717  25.323  1.00  0.00     0.010 A 
ATOM     15  C   UNL A   1      31.571  29.991  25.658  1.00  0.00     0.011 A 
ATOM     16  C   UNL A   1      33.111  28.172  25.952  1.00  0.00     0.049 A 
ATOM     17  C   UNL A   1      33.361  26.853  25.373  1.00  0.00     0.259 C 
ATOM     18  C   UNL A   1      32.276  30.695  26.637  1.00  0.00     0.001 A 
ATOM     19  C   UNL A   1      33.829  28.846  26.923  1.00  0.00     0.014 A 
ATOM     20  O   UNL A   1      34.293  26.139  25.704  1.00  0.00    -0.269 OA
ATOM     21  C   UNL A   1      33.396  30.126  27.266  1.00  0.00     0.001 A 
ENDBRANCH   9  11
BRANCH   9  22
ATOM     22  C   UNL A   1      31.751  25.825  22.115  1.00  0.00     0.037 C 
ATOM     23  C   UNL A   1      32.479  25.616  20.778  1.00  0.00     0.007 C 
ENDBRANCH   9  22
ENDBRANCH   7   9
ENDBRANCH   6   7
ENDBRANCH   5   6
ENDBRANCH   4   5
ENDBRANCH   3   4
ENDBRANCH   2   3
ENDBRANCH   1   2
BRANCH   1  24
ATOM     24  O   UNL A   1      37.770  21.088  25.067  1.00  0.00    -0.376 OA
BRANCH  24  25
ATOM     25  C   UNL A   1      38.110  19.720  24.902  1.00  0.00     0.202 C 
BRANCH  25  26
ATOM     26  C   UNL A   1      39.366  19.257  25.654  1.00  0.00     0.261 C 
BRANCH  26  27
ATOM     27  O   UNL A   1      40.333  20.288  25.947  1.00  0.00    -0.460 OA
BRANCH  27  28
ATOM     28  C   UNL A   1      40.839  20.349  27.202  1.00  0.00     0.338 C 
ATOM     29  O   UNL A   1      41.264  19.423  27.868  1.00  0.00    -0.246 OA
BRANCH  28  30
ATOM     30  C   UNL A   1      41.050  21.783  27.527  1.00  0.00     0.060 A 
ATOM     31  C   UNL A   1      40.180  22.741  26.981  1.00  0.00     0.016 A 
ATOM     32  C   UNL A   1      42.061  22.177  28.403  1.00  0.00     0.016 A 
ATOM     33  C   UNL A   1      40.338  24.095  27.288  1.00  0.00     0.010 A 
ATOM     34  C   UNL A   1      42.236  23.534  28.690  1.00  0.00     0.010 A 
ATOM     35  C   UNL A   1      41.396  24.504  28.111  1.00  0.00    -0.014 A 
BRANCH  35  36
ATOM     36  C   UNL A   1      41.769  25.941  28.195  1.00  0.00     0.031 A 
ATOM     37  C   UNL A   1      43.098  26.356  27.621  1.00  0.00     0.074 A 
ATOM     38  C   UNL A   1      40.966  26.862  28.756  1.00  0.00     0.049 A 
ATOM     39  N   UNL A   1      43.702  27.516  27.664  1.00  0.00    -0.248 NA
ATOM     40  C   UNL A   1      43.850  25.314  26.902  1.00  0.00     0.031 C 
ATOM     41  C   UNL A   1      39.633  26.610  29.297  1.00  0.00     0.029 A 
ATOM     42  N   UNL A   1      41.170  28.204  28.976  1.00  0.00    -0.354 N 
ATOM     43  C   UNL A   1      44.907  27.337  26.996  1.00  0.00     0.074 A 
ATOM     44  C   UNL A   1      44.961  25.954  26.577  1.00  0.00     0.031 C 
ATOM     45  C   UNL A   1      39.145  27.757  29.804  1.00  0.00     0.029 A 
ATOM     46  C   UNL A   1      40.146  28.813  29.660  1.00  0.00     0.049 A 
ATOM     47  H   UNL A   1      41.976  28.682  28.673  1.00  0.00     0.167 HD
ATOM     48  C   UNL A   1      45.880  28.245  26.749  1.00  0.00     0.037 A 
ATOM     49  C   UNL A   1      40.047  30.071  30.140  1.00  0.00     0.037 A 
ATOM     50  C   UNL A   1      45.825  29.624  27.155  1.00  0.00     0.049 A 
ATOM     51  C   UNL A   1      41.183  31.043  29.923  1.00  0.00     0.074 A 
ATOM     52  C   UNL A   1      46.755  30.624  26.935  1.00  0.00     0.029 A 
ATOM     53  N   UNL A   1      44.783  30.195  27.869  1.00  0.00    -0.354 N 
ATOM     54  N   UNL A   1      42.313  30.871  29.278  1.00  0.00    -0.248 NA
ATOM     55  C   UNL A   1      41.030  32.387  30.502  1.00  0.00     0.031 C 
ATOM     56  C   UNL A   1      46.304  31.786  27.567  1.00  0.00     0.029 A 
ATOM     57  C   UNL A   1      45.062  31.528  28.123  1.00  0.00     0.049 A 
ATOM     58  H   UNL A   1      43.966  29.724  28.154  1.00  0.00     0.167 HD
ATOM     59  C   UNL A   1      42.981  32.090  29.343  1.00  0.00     0.074 A 
ATOM     60  C   UNL A   1      42.126  32.996  30.078  1.00  0.00     0.031 C 
ATOM     61  C   UNL A   1      44.193  32.427  28.839  1.00  0.00     0.037 A 
BRANCH  48  62
ATOM     62  C   UNL A   1      47.108  27.772  26.030  1.00  0.00     0.064 A 
ATOM     63  C   UNL A   1      47.191  27.769  24.629  1.00  0.00     0.173 A 
ATOM     64  C   UNL A   1      48.238  27.364  26.756  1.00  0.00     0.173 A 
ATOM     65  F   UNL A   1      46.133  28.133  23.889  1.00  0.00    -0.203 F 
ATOM     66  C   UNL A   1      48.354  27.357  23.983  1.00  0.00     0.198 A 
ATOM     67  C   UNL A   1      49.408  26.983  26.106  1.00  0.00     0.198 A 
ATOM     68  F   UNL A   1      48.210  27.350  28.097  1.00  0.00    -0.203 F 
ATOM     69  F   UNL A   1      48.398  27.323  22.644  1.00  0.00    -0.200 F 
ATOM     70  C   UNL A   1      49.464  26.975  24.722  1.00  0.00     0.200 A 
ATOM     71  F   UNL A   1      50.484  26.627  26.822  1.00  0.00    -0.200 F 
ATOM     72  F   UNL A   1      50.587  26.593  24.098  1.00  0.00    -0.200 F 
ENDBRANCH  48  62
BRANCH  49  73
ATOM     73  C   UNL A   1      38.842  30.492  30.909  1.00  0.00     0.064 A 
ATOM     74  C   UNL A   1      37.709  31.004  30.259  1.00  0.00     0.173 A 
ATOM     75  C   UNL A   1      38.824  30.455  32.311  1.00  0.00     0.173 A 
ATOM     76  F   UNL A   1      37.688  31.094  28.921  1.00  0.00    -0.203 F 
ATOM     77  C   UNL A   1      36.618  31.486  30.982  1.00  0.00     0.198 A 
ATOM     78  C   UNL A   1      37.719  30.906  33.032  1.00  0.00     0.198 A 
ATOM     79  F   UNL A   1      39.885  29.988  32.984  1.00  0.00    -0.203 F 
ATOM     80  F   UNL A   1      35.579  32.033  30.336  1.00  0.00    -0.200 F 
ATOM     81  C   UNL A   1      36.623  31.433  32.367  1.00  0.00     0.200 A 
ATOM     82  F   UNL A   1      37.726  30.847  34.370  1.00  0.00    -0.200 F 
ATOM     83  F   UNL A   1      35.578  31.906  33.061  1.00  0.00    -0.200 F 
ENDBRANCH  49  73
BRANCH  61  84
ATOM     84  C   UNL A   1      44.652  33.848  29.010  1.00  0.00     0.064 A 
ATOM     85  C   UNL A   1      45.410  34.255  30.118  1.00  0.00     0.173 A 
ATOM     86  C   UNL A   1      44.369  34.806  28.023  1.00  0.00     0.173 A 
ATOM     87  F   UNL A   1      45.700  33.383  31.095  1.00  0.00    -0.203 F 
ATOM     88  C   UNL A   1      45.843  35.573  30.244  1.00  0.00     0.198 A 
ATOM     89  C   UNL A   1      44.833  36.115  28.136  1.00  0.00     0.198 A 
ATOM     90  F   UNL A   1      43.657  34.469  26.937  1.00  0.00    -0.203 F 
ATOM     91  F   UNL A   1      46.523  35.951  31.336  1.00  0.00    -0.200 F 
ATOM     92  C   UNL A   1      45.562  36.499  29.250  1.00  0.00     0.200 A 
ATOM     93  F   UNL A   1      44.575  37.002  27.165  1.00  0.00    -0.200 F 
ATOM     94  F   UNL A   1      45.988  37.763  29.370  1.00  0.00    -0.200 F 
ENDBRANCH  61  84
ENDBRANCH  35  36
ENDBRANCH  28  30
ENDBRANCH  27  28
ENDBRANCH  26  27
ENDBRANCH  25  26
ENDBRANCH  24  25
ENDBRANCH   1  24
TORSDOF 19
ENDMDL
