MODEL 1
REMARK VINA RESULT:      -9.9      0.000      0.000
REMARK SMILES C[N@H+]1CC[C@H](C[N@@H+](CC(=O)OCCOCCOCCOC(=O)c2ccc(-c3c4nc(c(-c5c(F)c(F)c(F)c(F)c5F)c5ccc([nH]5)c(-c5c(F)c(F)c(F)c(F)c5F)c5nc(c(-c6c(F)c(F)c(F)c(F)c6F)c6ccc3[nH]6)C=C5)C=C4)cc2)C2CC2)C1
REMARK SMILES IDX 15 1 14 2 13 3 12 4 11 5 9 6 10 7 8 8 7 9 6 11 5 12 1 13
REMARK SMILES IDX 2 14 3 15 89 16 4 18 86 19 87 20 88 21 16 22 17 23 18 24
REMARK SMILES IDX 19 25 20 26 21 27 22 28 23 29 24 30 85 31 25 32 84 33 26 34
REMARK SMILES IDX 27 35 28 36 78 37 29 38 83 39 77 40 79 41 30 42 82 43 76 44
REMARK SMILES IDX 75 45 31 47 63 48 43 49 62 50 44 51 47 52 61 53 80 54 45 55
REMARK SMILES IDX 46 56 60 58 81 59 48 60 32 61 33 62 41 63 34 64 35 65 39 66
REMARK SMILES IDX 42 67 36 68 37 69 40 70 38 71 64 72 65 73 73 74 66 75 67 76
REMARK SMILES IDX 71 77 74 78 68 79 69 80 72 81 70 82 49 83 50 84 58 85 51 86
REMARK SMILES IDX 52 87 56 88 59 89 53 90 54 91 57 92 55 93
REMARK H PARENT 7 10 2 17 79 46 47 57
REMARK Flexibility Score: inf
ROOT
ATOM      1  C   UNL A   1      31.809  26.295  22.786  1.00  0.00     0.188 C 
ENDROOT
BRANCH   1   2
ATOM      2  O   UNL A   1      31.700  25.256  23.750  1.00  0.00    -0.376 OA
BRANCH   2   3
ATOM      3  C   UNL A   1      30.422  25.126  24.366  1.00  0.00     0.202 C 
BRANCH   3   4
ATOM      4  C   UNL A   1      30.337  25.597  25.824  1.00  0.00     0.261 C 
BRANCH   4   5
ATOM      5  O   UNL A   1      31.228  24.908  26.731  1.00  0.00    -0.459 OA
BRANCH   5   6
ATOM      6  C   UNL A   1      31.047  23.570  26.885  1.00  0.00     0.361 C 
ATOM      7  O   UNL A   1      29.997  23.077  27.296  1.00  0.00    -0.245 OA
BRANCH   6   8
ATOM      8  C   UNL A   1      32.237  22.666  26.523  1.00  0.00     0.386 C 
BRANCH   8   9
ATOM      9  N   UNL A   1      33.156  23.004  25.401  1.00  0.00    -0.323 N 
ATOM     10  H   UNL A   1      32.752  23.826  24.951  1.00  0.00     0.348 HD
BRANCH   9  11
ATOM     11  C   UNL A   1      33.147  22.015  24.319  1.00  0.00     0.272 C 
BRANCH  11  12
ATOM     12  C   UNL A   1      32.632  20.618  24.699  1.00  0.00     0.105 C 
ATOM     13  C   UNL A   1      34.992  17.807  24.657  1.00  0.00     0.332 C 
ATOM     14  N   UNL A   1      34.201  18.947  24.218  1.00  0.00    -0.337 N 
ATOM     15  C   UNL A   1      33.006  18.556  23.475  1.00  0.00     0.262 C 
ATOM     16  C   UNL A   1      33.694  19.729  25.346  1.00  0.00     0.271 C 
ATOM     17  H   UNL A   1      34.845  19.481  23.635  1.00  0.00     0.347 HD
ATOM     18  C   UNL A   1      32.191  19.840  23.448  1.00  0.00     0.076 C 
ENDBRANCH  11  12
ENDBRANCH   9  11
BRANCH   9  19
ATOM     19  C   UNL A   1      34.461  23.529  25.817  1.00  0.00     0.184 C 
ATOM     20  C   UNL A   1      35.651  23.583  24.889  1.00  0.00     0.071 C 
ATOM     21  C   UNL A   1      34.938  24.846  25.244  1.00  0.00     0.071 C 
ENDBRANCH   9  19
ENDBRANCH   8   9
ENDBRANCH   6   8
ENDBRANCH   5   6
ENDBRANCH   4   5
ENDBRANCH   3   4
ENDBRANCH   2   3
ENDBRANCH   1   2
BRANCH   1  22
ATOM     22  C   UNL A   1      32.153  27.668  23.353  1.00  0.00     0.188 C 
BRANCH  22  23
ATOM     23  O   UNL A   1      31.067  28.469  23.775  1.00  0.00    -0.376 OA
BRANCH  23  24
ATOM     24  C   UNL A   1      31.374  29.575  24.628  1.00  0.00     0.202 C 
BRANCH  24  25
ATOM     25  C   UNL A   1      32.737  29.763  25.357  1.00  0.00     0.261 C 
BRANCH  25  26
ATOM     26  O   UNL A   1      32.731  30.038  26.771  1.00  0.00    -0.460 OA
BRANCH  26  27
ATOM     27  C   UNL A   1      33.247  31.222  27.172  1.00  0.00     0.338 C 
ATOM     28  O   UNL A   1      32.635  32.276  27.269  1.00  0.00    -0.246 OA
BRANCH  27  29
ATOM     29  C   UNL A   1      34.607  31.000  27.745  1.00  0.00     0.060 A 
ATOM     30  C   UNL A   1      34.975  29.677  28.031  1.00  0.00     0.016 A 
ATOM     31  C   UNL A   1      35.529  32.021  27.973  1.00  0.00     0.016 A 
ATOM     32  C   UNL A   1      36.220  29.362  28.572  1.00  0.00     0.010 A 
ATOM     33  C   UNL A   1      36.774  31.712  28.554  1.00  0.00     0.010 A 
ATOM     34  C   UNL A   1      37.116  30.385  28.887  1.00  0.00    -0.014 A 
BRANCH  34  35
ATOM     35  C   UNL A   1      38.292  30.078  29.747  1.00  0.00     0.031 A 
ATOM     36  C   UNL A   1      39.351  29.158  29.200  1.00  0.00     0.074 A 
ATOM     37  C   UNL A   1      38.474  30.646  30.953  1.00  0.00     0.049 A 
ATOM     38  N   UNL A   1      40.408  28.653  29.787  1.00  0.00    -0.248 NA
ATOM     39  C   UNL A   1      39.198  28.759  27.792  1.00  0.00     0.031 C 
ATOM     40  C   UNL A   1      37.597  31.641  31.565  1.00  0.00     0.029 A 
ATOM     41  N   UNL A   1      39.469  30.459  31.885  1.00  0.00    -0.354 N 
ATOM     42  C   UNL A   1      41.025  27.856  28.831  1.00  0.00     0.074 A 
ATOM     43  C   UNL A   1      40.220  27.933  27.631  1.00  0.00     0.031 C 
ATOM     44  C   UNL A   1      38.080  31.960  32.779  1.00  0.00     0.029 A 
ATOM     45  C   UNL A   1      39.271  31.155  33.052  1.00  0.00     0.049 A 
ATOM     46  H   UNL A   1      40.251  29.879  31.729  1.00  0.00     0.167 HD
ATOM     47  C   UNL A   1      42.161  27.126  28.941  1.00  0.00     0.037 A 
ATOM     48  C   UNL A   1      39.947  31.115  34.220  1.00  0.00     0.037 A 
ATOM     49  C   UNL A   1      42.972  27.059  30.128  1.00  0.00     0.049 A 
ATOM     50  C   UNL A   1      41.144  30.205  34.358  1.00  0.00     0.074 A 
ATOM     51  C   UNL A   1      44.140  26.345  30.335  1.00  0.00     0.029 A 
ATOM     52  N   UNL A   1      42.700  27.729  31.312  1.00  0.00    -0.354 N 
ATOM     53  N   UNL A   1      41.709  29.431  33.464  1.00  0.00    -0.248 NA
ATOM     54  C   UNL A   1      41.795  30.159  35.678  1.00  0.00     0.031 C 
ATOM     55  C   UNL A   1      44.538  26.530  31.663  1.00  0.00     0.029 A 
ATOM     56  C   UNL A   1      43.660  27.416  32.263  1.00  0.00     0.049 A 
ATOM     57  H   UNL A   1      41.939  28.337  31.455  1.00  0.00     0.167 HD
ATOM     58  C   UNL A   1      42.792  28.833  34.100  1.00  0.00     0.074 A 
ATOM     59  C   UNL A   1      42.817  29.346  35.452  1.00  0.00     0.031 C 
ATOM     60  C   UNL A   1      43.684  27.937  33.607  1.00  0.00     0.037 A 
BRANCH  47  61
ATOM     61  C   UNL A   1      42.566  26.292  27.759  1.00  0.00     0.064 A 
ATOM     62  C   UNL A   1      43.541  26.716  26.845  1.00  0.00     0.173 A 
ATOM     63  C   UNL A   1      41.982  25.032  27.555  1.00  0.00     0.173 A 
ATOM     64  F   UNL A   1      44.119  27.920  26.984  1.00  0.00    -0.203 F 
ATOM     65  C   UNL A   1      43.894  25.925  25.754  1.00  0.00     0.198 A 
ATOM     66  C   UNL A   1      42.361  24.228  26.485  1.00  0.00     0.198 A 
ATOM     67  F   UNL A   1      41.046  24.575  28.402  1.00  0.00    -0.203 F 
ATOM     68  F   UNL A   1      44.787  26.375  24.863  1.00  0.00    -0.200 F 
ATOM     69  C   UNL A   1      43.310  24.679  25.580  1.00  0.00     0.200 A 
ATOM     70  F   UNL A   1      41.807  23.018  26.327  1.00  0.00    -0.200 F 
ATOM     71  F   UNL A   1      43.655  23.915  24.534  1.00  0.00    -0.200 F 
ENDBRANCH  47  61
BRANCH  48  72
ATOM     72  C   UNL A   1      39.482  31.922  35.383  1.00  0.00     0.064 A 
ATOM     73  C   UNL A   1      38.607  31.386  36.338  1.00  0.00     0.173 A 
ATOM     74  C   UNL A   1      39.866  33.264  35.536  1.00  0.00     0.173 A 
ATOM     75  F   UNL A   1      38.177  30.121  36.218  1.00  0.00    -0.203 F 
ATOM     76  C   UNL A   1      38.118  32.165  37.387  1.00  0.00     0.198 A 
ATOM     77  C   UNL A   1      39.405  34.030  36.604  1.00  0.00     0.198 A 
ATOM     78  F   UNL A   1      40.690  33.833  34.644  1.00  0.00    -0.203 F 
ATOM     79  F   UNL A   1      37.234  31.645  38.249  1.00  0.00    -0.200 F 
ATOM     80  C   UNL A   1      38.524  33.483  37.524  1.00  0.00     0.200 A 
ATOM     81  F   UNL A   1      39.805  35.303  36.734  1.00  0.00    -0.200 F 
ATOM     82  F   UNL A   1      38.053  34.232  38.531  1.00  0.00    -0.200 F 
ENDBRANCH  48  72
BRANCH  60  83
ATOM     83  C   UNL A   1      44.792  27.482  34.516  1.00  0.00     0.064 A 
ATOM     84  C   UNL A   1      45.996  28.193  34.631  1.00  0.00     0.173 A 
ATOM     85  C   UNL A   1      44.628  26.342  35.320  1.00  0.00     0.173 A 
ATOM     86  F   UNL A   1      46.210  29.283  33.878  1.00  0.00    -0.203 F 
ATOM     87  C   UNL A   1      47.004  27.765  35.492  1.00  0.00     0.198 A 
ATOM     88  C   UNL A   1      45.623  25.937  36.206  1.00  0.00     0.198 A 
ATOM     89  F   UNL A   1      43.494  25.629  35.260  1.00  0.00    -0.203 F 
ATOM     90  F   UNL A   1      48.165  28.431  35.545  1.00  0.00    -0.200 F 
ATOM     91  C   UNL A   1      46.814  26.643  36.285  1.00  0.00     0.200 A 
ATOM     92  F   UNL A   1      45.429  24.864  36.985  1.00  0.00    -0.200 F 
ATOM     93  F   UNL A   1      47.781  26.238  37.120  1.00  0.00    -0.200 F 
ENDBRANCH  60  83
ENDBRANCH  34  35
ENDBRANCH  27  29
ENDBRANCH  26  27
ENDBRANCH  25  26
ENDBRANCH  24  25
ENDBRANCH  23  24
ENDBRANCH  22  23
ENDBRANCH   1  22
TORSDOF 21
ENDMDL
MODEL 2
REMARK VINA RESULT:      -9.6      4.959      8.732
REMARK SMILES C[N@H+]1CC[C@H](C[N@@H+](CC(=O)OCCOCCOCCOC(=O)c2ccc(-c3c4nc(c(-c5c(F)c(F)c(F)c(F)c5F)c5ccc([nH]5)c(-c5c(F)c(F)c(F)c(F)c5F)c5nc(c(-c6c(F)c(F)c(F)c(F)c6F)c6ccc3[nH]6)C=C5)C=C4)cc2)C2CC2)C1
REMARK SMILES IDX 15 1 14 2 13 3 12 4 11 5 9 6 10 7 8 8 7 9 6 11 5 12 1 13
REMARK SMILES IDX 2 14 3 15 89 16 4 18 86 19 87 20 88 21 16 22 17 23 18 24
REMARK SMILES IDX 19 25 20 26 21 27 22 28 23 29 24 30 85 31 25 32 84 33 26 34
REMARK SMILES IDX 27 35 28 36 78 37 29 38 83 39 77 40 79 41 30 42 82 43 76 44
REMARK SMILES IDX 75 45 31 47 63 48 43 49 62 50 44 51 47 52 61 53 80 54 45 55
REMARK SMILES IDX 46 56 60 58 81 59 48 60 32 61 33 62 41 63 34 64 35 65 39 66
REMARK SMILES IDX 42 67 36 68 37 69 40 70 38 71 64 72 65 73 73 74 66 75 67 76
REMARK SMILES IDX 71 77 74 78 68 79 69 80 72 81 70 82 49 83 50 84 58 85 51 86
REMARK SMILES IDX 52 87 56 88 59 89 53 90 54 91 57 92 55 93
REMARK H PARENT 7 10 2 17 79 46 47 57
REMARK Flexibility Score: inf
ROOT
ATOM      1  C   UNL A   1      36.469  23.290  24.040  1.00  0.00     0.188 C 
ENDROOT
BRANCH   1   2
ATOM      2  O   UNL A   1      35.159  23.770  24.315  1.00  0.00    -0.376 OA
BRANCH   2   3
ATOM      3  C   UNL A   1      34.096  22.980  23.789  1.00  0.00     0.202 C 
BRANCH   3   4
ATOM      4  C   UNL A   1      33.382  23.562  22.562  1.00  0.00     0.261 C 
BRANCH   4   5
ATOM      5  O   UNL A   1      33.930  24.811  22.083  1.00  0.00    -0.459 OA
BRANCH   5   6
ATOM      6  C   UNL A   1      33.054  25.732  21.601  1.00  0.00     0.361 C 
ATOM      7  O   UNL A   1      32.462  25.599  20.530  1.00  0.00    -0.245 OA
BRANCH   6   8
ATOM      8  C   UNL A   1      32.825  26.984  22.463  1.00  0.00     0.386 C 
BRANCH   8   9
ATOM      9  N   UNL A   1      31.695  27.067  23.428  1.00  0.00    -0.323 N 
ATOM     10  H   UNL A   1      30.959  26.472  23.045  1.00  0.00     0.348 HD
BRANCH   9  11
ATOM     11  C   UNL A   1      31.050  28.383  23.464  1.00  0.00     0.272 C 
BRANCH  11  12
ATOM     12  C   UNL A   1      29.881  28.578  22.486  1.00  0.00     0.105 C 
ATOM     13  C   UNL A   1      27.941  31.688  22.668  1.00  0.00     0.332 C 
ATOM     14  N   UNL A   1      28.567  30.433  23.052  1.00  0.00    -0.337 N 
ATOM     15  C   UNL A   1      27.635  29.308  23.046  1.00  0.00     0.262 C 
ATOM     16  C   UNL A   1      29.624  30.040  22.120  1.00  0.00     0.271 C 
ATOM     17  H   UNL A   1      28.925  30.615  23.990  1.00  0.00     0.347 HD
ATOM     18  C   UNL A   1      28.560  28.103  23.115  1.00  0.00     0.076 C 
ENDBRANCH  11  12
ENDBRANCH   9  11
BRANCH   9  19
ATOM     19  C   UNL A   1      31.941  26.407  24.716  1.00  0.00     0.184 C 
ATOM     20  C   UNL A   1      31.012  26.553  25.897  1.00  0.00     0.071 C 
ATOM     21  C   UNL A   1      31.041  25.268  25.140  1.00  0.00     0.071 C 
ENDBRANCH   9  19
ENDBRANCH   8   9
ENDBRANCH   6   8
ENDBRANCH   5   6
ENDBRANCH   4   5
ENDBRANCH   3   4
ENDBRANCH   2   3
ENDBRANCH   1   2
BRANCH   1  22
ATOM     22  C   UNL A   1      37.264  22.847  25.262  1.00  0.00     0.188 C 
BRANCH  22  23
ATOM     23  O   UNL A   1      37.572  21.469  25.352  1.00  0.00    -0.376 OA
BRANCH  23  24
ATOM     24  C   UNL A   1      38.904  21.129  25.743  1.00  0.00     0.202 C 
BRANCH  24  25
ATOM     25  C   UNL A   1      39.565  19.744  25.478  1.00  0.00     0.261 C 
BRANCH  25  26
ATOM     26  O   UNL A   1      40.412  19.177  26.497  1.00  0.00    -0.460 OA
BRANCH  26  27
ATOM     27  C   UNL A   1      41.739  19.133  26.242  1.00  0.00     0.338 C 
ATOM     28  O   UNL A   1      42.340  18.200  25.729  1.00  0.00    -0.246 OA
BRANCH  27  29
ATOM     29  C   UNL A   1      42.323  20.495  26.420  1.00  0.00     0.060 A 
ATOM     30  C   UNL A   1      42.256  21.059  27.701  1.00  0.00     0.016 A 
ATOM     31  C   UNL A   1      42.955  21.206  25.401  1.00  0.00     0.016 A 
ATOM     32  C   UNL A   1      42.768  22.327  27.973  1.00  0.00     0.010 A 
ATOM     33  C   UNL A   1      43.441  22.502  25.661  1.00  0.00     0.010 A 
ATOM     34  C   UNL A   1      43.322  23.084  26.940  1.00  0.00    -0.014 A 
BRANCH  34  35
ATOM     35  C   UNL A   1      43.570  24.536  27.159  1.00  0.00     0.031 A 
ATOM     36  C   UNL A   1      44.945  25.075  26.862  1.00  0.00     0.074 A 
ATOM     37  C   UNL A   1      42.599  25.386  27.539  1.00  0.00     0.049 A 
ATOM     38  N   UNL A   1      45.440  26.269  27.071  1.00  0.00    -0.248 NA
ATOM     39  C   UNL A   1      45.887  24.135  26.234  1.00  0.00     0.031 C 
ATOM     40  C   UNL A   1      41.197  25.035  27.753  1.00  0.00     0.029 A 
ATOM     41  N   UNL A   1      42.653  26.733  27.817  1.00  0.00    -0.354 N 
ATOM     42  C   UNL A   1      46.757  26.212  26.629  1.00  0.00     0.074 A 
ATOM     43  C   UNL A   1      46.987  24.866  26.153  1.00  0.00     0.031 C 
ATOM     44  C   UNL A   1      40.529  26.133  28.150  1.00  0.00     0.029 A 
ATOM     45  C   UNL A   1      41.464  27.252  28.268  1.00  0.00     0.049 A 
ATOM     46  H   UNL A   1      43.469  27.274  27.703  1.00  0.00     0.167 HD
ATOM     47  C   UNL A   1      47.690  27.194  26.620  1.00  0.00     0.037 A 
ATOM     48  C   UNL A   1      41.174  28.475  28.760  1.00  0.00     0.037 A 
ATOM     49  C   UNL A   1      47.460  28.539  27.079  1.00  0.00     0.049 A 
ATOM     50  C   UNL A   1      42.260  29.520  28.849  1.00  0.00     0.074 A 
ATOM     51  C   UNL A   1      48.346  29.603  27.110  1.00  0.00     0.029 A 
ATOM     52  N   UNL A   1      46.259  29.006  27.591  1.00  0.00    -0.354 N 
ATOM     53  N   UNL A   1      43.510  29.457  28.458  1.00  0.00    -0.248 NA
ATOM     54  C   UNL A   1      41.894  30.810  29.456  1.00  0.00     0.031 C 
ATOM     55  C   UNL A   1      47.700  30.693  27.701  1.00  0.00     0.029 A 
ATOM     56  C   UNL A   1      46.391  30.333  27.972  1.00  0.00     0.049 A 
ATOM     57  H   UNL A   1      45.434  28.475  27.671  1.00  0.00     0.167 HD
ATOM     58  C   UNL A   1      44.066  30.699  28.744  1.00  0.00     0.074 A 
ATOM     59  C   UNL A   1      43.015  31.504  29.325  1.00  0.00     0.031 C 
ATOM     60  C   UNL A   1      45.337  31.133  28.544  1.00  0.00     0.037 A 
BRANCH  47  61
ATOM     61  C   UNL A   1      49.070  26.834  26.147  1.00  0.00     0.064 A 
ATOM     62  C   UNL A   1      49.995  26.181  26.974  1.00  0.00     0.173 A 
ATOM     63  C   UNL A   1      49.460  27.129  24.832  1.00  0.00     0.173 A 
ATOM     64  F   UNL A   1      49.679  25.891  28.246  1.00  0.00    -0.203 F 
ATOM     65  C   UNL A   1      51.271  25.864  26.511  1.00  0.00     0.198 A 
ATOM     66  C   UNL A   1      50.723  26.779  24.361  1.00  0.00     0.198 A 
ATOM     67  F   UNL A   1      48.613  27.750  23.997  1.00  0.00    -0.203 F 
ATOM     68  F   UNL A   1      52.158  25.289  27.335  1.00  0.00    -0.200 F 
ATOM     69  C   UNL A   1      51.630  26.155  25.203  1.00  0.00     0.200 A 
ATOM     70  F   UNL A   1      51.061  27.048  23.092  1.00  0.00    -0.200 F 
ATOM     71  F   UNL A   1      52.854  25.844  24.757  1.00  0.00    -0.200 F 
ENDBRANCH  47  61
BRANCH  48  72
ATOM     72  C   UNL A   1      39.804  28.775  29.264  1.00  0.00     0.064 A 
ATOM     73  C   UNL A   1      39.429  28.471  30.580  1.00  0.00     0.173 A 
ATOM     74  C   UNL A   1      38.825  29.327  28.422  1.00  0.00     0.173 A 
ATOM     75  F   UNL A   1      40.314  27.905  31.415  1.00  0.00    -0.203 F 
ATOM     76  C   UNL A   1      38.126  28.688  31.028  1.00  0.00     0.198 A 
ATOM     77  C   UNL A   1      37.534  29.577  28.882  1.00  0.00     0.198 A 
ATOM     78  F   UNL A   1      39.124  29.624  27.149  1.00  0.00    -0.203 F 
ATOM     79  F   UNL A   1      37.780  28.331  32.272  1.00  0.00    -0.200 F 
ATOM     80  C   UNL A   1      37.183  29.248  30.182  1.00  0.00     0.200 A 
ATOM     81  F   UNL A   1      36.628  30.123  28.060  1.00  0.00    -0.200 F 
ATOM     82  F   UNL A   1      35.930  29.455  30.612  1.00  0.00    -0.200 F 
ENDBRANCH  48  72
BRANCH  60  83
ATOM     83  C   UNL A   1      45.657  32.555  28.914  1.00  0.00     0.064 A 
ATOM     84  C   UNL A   1      46.207  32.890  30.160  1.00  0.00     0.173 A 
ATOM     85  C   UNL A   1      45.452  33.592  27.990  1.00  0.00     0.173 A 
ATOM     86  F   UNL A   1      46.413  31.940  31.084  1.00  0.00    -0.203 F 
ATOM     87  C   UNL A   1      46.512  34.212  30.478  1.00  0.00     0.198 A 
ATOM     88  C   UNL A   1      45.791  34.908  28.298  1.00  0.00     0.198 A 
ATOM     89  F   UNL A   1      44.938  33.329  26.779  1.00  0.00    -0.203 F 
ATOM     90  F   UNL A   1      46.988  34.514  31.694  1.00  0.00    -0.200 F 
ATOM     91  C   UNL A   1      46.312  35.218  29.545  1.00  0.00     0.200 A 
ATOM     92  F   UNL A   1      45.615  35.875  27.387  1.00  0.00    -0.200 F 
ATOM     93  F   UNL A   1      46.616  36.487  29.849  1.00  0.00    -0.200 F 
ENDBRANCH  60  83
ENDBRANCH  34  35
ENDBRANCH  27  29
ENDBRANCH  26  27
ENDBRANCH  25  26
ENDBRANCH  24  25
ENDBRANCH  23  24
ENDBRANCH  22  23
ENDBRANCH   1  22
TORSDOF 21
ENDMDL
MODEL 3
REMARK VINA RESULT:      -9.6      4.382      9.849
REMARK SMILES C[N@H+]1CC[C@H](C[N@@H+](CC(=O)OCCOCCOCCOC(=O)c2ccc(-c3c4nc(c(-c5c(F)c(F)c(F)c(F)c5F)c5ccc([nH]5)c(-c5c(F)c(F)c(F)c(F)c5F)c5nc(c(-c6c(F)c(F)c(F)c(F)c6F)c6ccc3[nH]6)C=C5)C=C4)cc2)C2CC2)C1
REMARK SMILES IDX 15 1 14 2 13 3 12 4 11 5 9 6 10 7 8 8 7 9 6 11 5 12 1 13
REMARK SMILES IDX 2 14 3 15 89 16 4 18 86 19 87 20 88 21 16 22 17 23 18 24
REMARK SMILES IDX 19 25 20 26 21 27 22 28 23 29 24 30 85 31 25 32 84 33 26 34
REMARK SMILES IDX 27 35 28 36 78 37 29 38 83 39 77 40 79 41 30 42 82 43 76 44
REMARK SMILES IDX 75 45 31 47 63 48 43 49 62 50 44 51 47 52 61 53 80 54 45 55
REMARK SMILES IDX 46 56 60 58 81 59 48 60 32 61 33 62 41 63 34 64 35 65 39 66
REMARK SMILES IDX 42 67 36 68 37 69 40 70 38 71 64 72 65 73 73 74 66 75 67 76
REMARK SMILES IDX 71 77 74 78 68 79 69 80 72 81 70 82 49 83 50 84 58 85 51 86
REMARK SMILES IDX 52 87 56 88 59 89 53 90 54 91 57 92 55 93
REMARK H PARENT 7 10 2 17 79 46 47 57
REMARK Flexibility Score: inf
ROOT
ATOM      1  C   UNL A   1      32.399  20.715  23.783  1.00  0.00     0.188 C 
ENDROOT
BRANCH   1   2
ATOM      2  O   UNL A   1      31.901  21.825  24.518  1.00  0.00    -0.376 OA
BRANCH   2   3
ATOM      3  C   UNL A   1      31.582  22.978  23.743  1.00  0.00     0.202 C 
BRANCH   3   4
ATOM      4  C   UNL A   1      32.695  23.481  22.813  1.00  0.00     0.261 C 
BRANCH   4   5
ATOM      5  O   UNL A   1      32.258  24.425  21.810  1.00  0.00    -0.459 OA
BRANCH   5   6
ATOM      6  C   UNL A   1      32.871  25.639  21.788  1.00  0.00     0.361 C 
ATOM      7  O   UNL A   1      33.328  26.141  20.762  1.00  0.00    -0.245 OA
BRANCH   6   8
ATOM      8  C   UNL A   1      32.981  26.382  23.129  1.00  0.00     0.386 C 
BRANCH   8   9
ATOM      9  N   UNL A   1      31.909  27.304  23.596  1.00  0.00    -0.323 N 
ATOM     10  H   UNL A   1      32.329  28.233  23.607  1.00  0.00     0.348 HD
BRANCH   9  11
ATOM     11  C   UNL A   1      31.540  27.108  25.002  1.00  0.00     0.272 C 
BRANCH  11  12
ATOM     12  C   UNL A   1      31.584  28.366  25.883  1.00  0.00     0.105 C 
ATOM     13  C   UNL A   1      34.854  29.650  26.946  1.00  0.00     0.332 C 
ATOM     14  N   UNL A   1      33.726  28.754  26.749  1.00  0.00    -0.337 N 
ATOM     15  C   UNL A   1      32.864  28.659  27.924  1.00  0.00     0.262 C 
ATOM     16  C   UNL A   1      32.840  29.213  25.679  1.00  0.00     0.271 C 
ATOM     17  H   UNL A   1      34.161  27.857  26.532  1.00  0.00     0.347 HD
ATOM     18  C   UNL A   1      31.615  27.988  27.373  1.00  0.00     0.076 C 
ENDBRANCH  11  12
ENDBRANCH   9  11
BRANCH   9  19
ATOM     19  C   UNL A   1      30.815  27.505  22.640  1.00  0.00     0.184 C 
ATOM     20  C   UNL A   1      29.568  28.285  22.980  1.00  0.00     0.071 C 
ATOM     21  C   UNL A   1      30.585  28.887  22.069  1.00  0.00     0.071 C 
ENDBRANCH   9  19
ENDBRANCH   8   9
ENDBRANCH   6   8
ENDBRANCH   5   6
ENDBRANCH   4   5
ENDBRANCH   3   4
ENDBRANCH   2   3
ENDBRANCH   1   2
BRANCH   1  22
ATOM     22  C   UNL A   1      33.260  19.745  24.583  1.00  0.00     0.188 C 
BRANCH  22  23
ATOM     23  O   UNL A   1      34.176  20.316  25.497  1.00  0.00    -0.376 OA
BRANCH  23  24
ATOM     24  C   UNL A   1      35.415  20.786  24.961  1.00  0.00     0.202 C 
BRANCH  24  25
ATOM     25  C   UNL A   1      36.512  21.506  25.800  1.00  0.00     0.261 C 
BRANCH  25  26
ATOM     26  O   UNL A   1      37.810  21.710  25.209  1.00  0.00    -0.460 OA
BRANCH  26  27
ATOM     27  C   UNL A   1      38.885  21.324  25.933  1.00  0.00     0.338 C 
ATOM     28  O   UNL A   1      39.398  20.214  25.921  1.00  0.00    -0.246 OA
BRANCH  27  29
ATOM     29  C   UNL A   1      39.529  22.525  26.541  1.00  0.00     0.060 A 
ATOM     30  C   UNL A   1      39.066  23.781  26.125  1.00  0.00     0.016 A 
ATOM     31  C   UNL A   1      40.526  22.462  27.514  1.00  0.00     0.016 A 
ATOM     32  C   UNL A   1      39.602  24.965  26.628  1.00  0.00     0.010 A 
ATOM     33  C   UNL A   1      41.097  23.654  27.999  1.00  0.00     0.010 A 
ATOM     34  C   UNL A   1      40.661  24.913  27.535  1.00  0.00    -0.014 A 
BRANCH  34  35
ATOM     35  C   UNL A   1      41.433  26.154  27.820  1.00  0.00     0.031 A 
ATOM     36  C   UNL A   1      40.755  27.250  28.600  1.00  0.00     0.074 A 
ATOM     37  C   UNL A   1      42.725  26.299  27.471  1.00  0.00     0.049 A 
ATOM     38  N   UNL A   1      41.171  28.460  28.881  1.00  0.00    -0.248 NA
ATOM     39  C   UNL A   1      39.426  26.930  29.144  1.00  0.00     0.031 C 
ATOM     40  C   UNL A   1      43.547  25.285  26.816  1.00  0.00     0.029 A 
ATOM     41  N   UNL A   1      43.573  27.372  27.621  1.00  0.00    -0.354 N 
ATOM     42  C   UNL A   1      40.144  29.052  29.605  1.00  0.00     0.074 A 
ATOM     43  C   UNL A   1      39.081  28.075  29.711  1.00  0.00     0.031 C 
ATOM     44  C   UNL A   1      44.775  25.791  26.600  1.00  0.00     0.029 A 
ATOM     45  C   UNL A   1      44.810  27.182  27.054  1.00  0.00     0.049 A 
ATOM     46  H   UNL A   1      43.317  28.200  28.090  1.00  0.00     0.167 HD
ATOM     47  C   UNL A   1      40.090  30.297  30.136  1.00  0.00     0.037 A 
ATOM     48  C   UNL A   1      45.836  28.043  26.884  1.00  0.00     0.037 A 
ATOM     49  C   UNL A   1      41.151  31.266  30.046  1.00  0.00     0.049 A 
ATOM     50  C   UNL A   1      45.709  29.463  27.382  1.00  0.00     0.074 A 
ATOM     51  C   UNL A   1      41.187  32.554  30.552  1.00  0.00     0.029 A 
ATOM     52  N   UNL A   1      42.363  31.056  29.406  1.00  0.00    -0.354 N 
ATOM     53  N   UNL A   1      44.727  30.029  28.041  1.00  0.00    -0.248 NA
ATOM     54  C   UNL A   1      46.837  30.367  27.105  1.00  0.00     0.031 C 
ATOM     55  C   UNL A   1      42.393  33.145  30.162  1.00  0.00     0.029 A 
ATOM     56  C   UNL A   1      43.139  32.202  29.475  1.00  0.00     0.049 A 
ATOM     57  H   UNL A   1      42.632  30.216  28.968  1.00  0.00     0.167 HD
ATOM     58  C   UNL A   1      45.129  31.338  28.281  1.00  0.00     0.074 A 
ATOM     59  C   UNL A   1      46.452  31.480  27.713  1.00  0.00     0.031 C 
ATOM     60  C   UNL A   1      44.460  32.335  28.914  1.00  0.00     0.037 A 
BRANCH  47  61
ATOM     61  C   UNL A   1      38.814  30.705  30.817  1.00  0.00     0.064 A 
ATOM     62  C   UNL A   1      38.666  30.661  32.211  1.00  0.00     0.173 A 
ATOM     63  C   UNL A   1      37.731  31.172  30.058  1.00  0.00     0.173 A 
ATOM     64  F   UNL A   1      39.665  30.207  32.984  1.00  0.00    -0.203 F 
ATOM     65  C   UNL A   1      37.469  31.040  32.816  1.00  0.00     0.198 A 
ATOM     66  C   UNL A   1      36.549  31.584  30.667  1.00  0.00     0.198 A 
ATOM     67  F   UNL A   1      37.820  31.239  28.720  1.00  0.00    -0.203 F 
ATOM     68  F   UNL A   1      37.330  30.938  34.145  1.00  0.00    -0.200 F 
ATOM     69  C   UNL A   1      36.416  31.509  32.045  1.00  0.00     0.200 A 
ATOM     70  F   UNL A   1      35.539  32.051  29.920  1.00  0.00    -0.200 F 
ATOM     71  F   UNL A   1      35.268  31.880  32.629  1.00  0.00    -0.200 F 
ENDBRANCH  47  61
BRANCH  48  72
ATOM     72  C   UNL A   1      47.065  27.610  26.159  1.00  0.00     0.064 A 
ATOM     73  C   UNL A   1      47.146  27.675  24.761  1.00  0.00     0.173 A 
ATOM     74  C   UNL A   1      48.165  27.078  26.849  1.00  0.00     0.173 A 
ATOM     75  F   UNL A   1      46.107  28.139  24.050  1.00  0.00    -0.203 F 
ATOM     76  C   UNL A   1      48.269  27.205  24.081  1.00  0.00     0.198 A 
ATOM     77  C   UNL A   1      49.301  26.641  26.170  1.00  0.00     0.198 A 
ATOM     78  F   UNL A   1      48.136  26.978  28.186  1.00  0.00    -0.203 F 
ATOM     79  F   UNL A   1      48.294  27.221  22.741  1.00  0.00    -0.200 F 
ATOM     80  C   UNL A   1      49.348  26.696  24.786  1.00  0.00     0.200 A 
ATOM     81  F   UNL A   1      50.343  26.156  26.859  1.00  0.00    -0.200 F 
ATOM     82  F   UNL A   1      50.427  26.243  24.132  1.00  0.00    -0.200 F 
ENDBRANCH  48  72
BRANCH  60  83
ATOM     83  C   UNL A   1      45.159  33.658  29.067  1.00  0.00     0.064 A 
ATOM     84  C   UNL A   1      46.004  33.928  30.154  1.00  0.00     0.173 A 
ATOM     85  C   UNL A   1      45.016  34.654  28.088  1.00  0.00     0.173 A 
ATOM     86  F   UNL A   1      46.168  33.016  31.124  1.00  0.00    -0.203 F 
ATOM     87  C   UNL A   1      46.656  35.154  30.269  1.00  0.00     0.198 A 
ATOM     88  C   UNL A   1      45.697  35.865  28.188  1.00  0.00     0.198 A 
ATOM     89  F   UNL A   1      44.228  34.449  27.022  1.00  0.00    -0.203 F 
ATOM     90  F   UNL A   1      47.417  35.407  31.343  1.00  0.00    -0.200 F 
ATOM     91  C   UNL A   1      46.509  36.117  29.283  1.00  0.00     0.200 A 
ATOM     92  F   UNL A   1      45.568  36.787  27.225  1.00  0.00    -0.200 F 
ATOM     93  F   UNL A   1      47.145  37.292  29.391  1.00  0.00    -0.200 F 
ENDBRANCH  60  83
ENDBRANCH  34  35
ENDBRANCH  27  29
ENDBRANCH  26  27
ENDBRANCH  25  26
ENDBRANCH  24  25
ENDBRANCH  23  24
ENDBRANCH  22  23
ENDBRANCH   1  22
TORSDOF 21
ENDMDL
