MODEL 1
REMARK VINA RESULT:     -11.4      0.000      0.000
REMARK SMILES O=C(CSc1ccc(NC(=O)c2cccc3ccccc23)cc1)OCCOCCOCCOC(=O)c1ccc(-c2c3nc(c(-c4c(F)c(F)c(F)c(F)c4F)c4ccc([nH]4)c(-c4c(F)c(F)c(F)c(F)c4F)c4nc(c(-c5c(F)c(F)c(F)c(F)c5F)c5ccc2[nH]5)C=C4)C=C3)cc1
REMARK SMILES IDX 28 1 27 2 26 3 25 4 24 5 2 6 1 7 3 8 4 9 5 10 6 11 23 12
REMARK SMILES IDX 7 13 22 14 8 15 9 16 10 17 11 19 12 20 13 21 21 22 14 23
REMARK SMILES IDX 16 24 20 25 15 26 17 27 19 28 18 29 29 30 30 31 31 32 32 33
REMARK SMILES IDX 33 34 34 35 35 36 36 37 37 38 98 39 38 40 97 41 39 42 40 43
REMARK SMILES IDX 41 44 91 45 42 46 96 47 90 48 92 49 43 50 95 51 89 52 88 53
REMARK SMILES IDX 44 55 76 56 56 57 75 58 57 59 60 60 74 61 93 62 58 63 59 64
REMARK SMILES IDX 73 66 94 67 61 68 45 69 46 70 54 71 47 72 48 73 52 74 55 75
REMARK SMILES IDX 49 76 50 77 53 78 51 79 77 80 78 81 86 82 79 83 80 84 84 85
REMARK SMILES IDX 87 86 81 87 82 88 85 89 83 90 62 91 63 92 71 93 64 94 65 95
REMARK SMILES IDX 69 96 72 97 66 98 67 99 70 100 68 101
REMARK H PARENT 9 18 92 54 60 65
REMARK Flexibility Score: inf
ROOT
ATOM      1  C   UNL A   1      32.632  36.339  31.261  1.00  0.00     0.188 C 
ENDROOT
BRANCH   1   2
ATOM      2  O   UNL A   1      32.583  36.337  29.839  1.00  0.00    -0.376 OA
BRANCH   2   3
ATOM      3  C   UNL A   1      33.597  35.662  29.096  1.00  0.00     0.202 C 
BRANCH   3   4
ATOM      4  C   UNL A   1      33.246  34.455  28.222  1.00  0.00     0.261 C 
BRANCH   4   5
ATOM      5  O   UNL A   1      33.674  33.147  28.667  1.00  0.00    -0.463 OA
BRANCH   5   6
ATOM      6  C   UNL A   1      34.717  32.416  28.221  1.00  0.00     0.316 C 
ATOM      7  O   UNL A   1      35.865  32.756  28.515  1.00  0.00    -0.251 OA
BRANCH   6   8
ATOM      8  C   UNL A   1      34.476  31.193  27.371  1.00  0.00     0.197 C 
BRANCH   8   9
ATOM      9  S   UNL A   1      32.732  30.703  27.384  1.00  0.00    -0.114 SA
BRANCH   9  10
ATOM     10  C   UNL A   1      32.795  29.549  26.027  1.00  0.00     0.008 A 
ATOM     11  C   UNL A   1      31.722  29.479  25.138  1.00  0.00     0.017 A 
ATOM     12  C   UNL A   1      33.881  28.682  25.875  1.00  0.00     0.017 A 
ATOM     13  C   UNL A   1      31.802  28.646  24.024  1.00  0.00     0.027 A 
ATOM     14  C   UNL A   1      33.948  27.832  24.778  1.00  0.00     0.027 A 
ATOM     15  C   UNL A   1      32.970  27.925  23.789  1.00  0.00     0.041 A 
BRANCH  15  16
ATOM     16  N   UNL A   1      33.344  27.437  22.534  1.00  0.00    -0.322 N 
ATOM     17  C   UNL A   1      33.166  26.185  21.989  1.00  0.00     0.256 C 
ATOM     18  H   UNL A   1      33.802  28.086  21.953  1.00  0.00     0.170 HD
ATOM     19  O   UNL A   1      33.453  26.022  20.800  1.00  0.00    -0.269 OA
BRANCH  17  20
ATOM     20  C   UNL A   1      32.664  25.010  22.746  1.00  0.00     0.048 A 
ATOM     21  C   UNL A   1      31.261  24.944  22.789  1.00  0.00     0.014 A 
ATOM     22  C   UNL A   1      33.462  24.033  23.419  1.00  0.00    -0.006 A 
ATOM     23  C   UNL A   1      30.623  23.914  23.466  1.00  0.00     0.001 A 
ATOM     24  C   UNL A   1      32.784  22.965  24.065  1.00  0.00    -0.018 A 
ATOM     25  C   UNL A   1      34.880  24.016  23.486  1.00  0.00     0.009 A 
ATOM     26  C   UNL A   1      31.382  22.931  24.092  1.00  0.00     0.009 A 
ATOM     27  C   UNL A   1      33.506  21.924  24.675  1.00  0.00     0.009 A 
ATOM     28  C   UNL A   1      35.587  22.947  24.053  1.00  0.00     0.001 A 
ATOM     29  C   UNL A   1      34.898  21.899  24.646  1.00  0.00     0.001 A 
ENDBRANCH  17  20
ENDBRANCH  15  16
ENDBRANCH   9  10
ENDBRANCH   8   9
ENDBRANCH   6   8
ENDBRANCH   5   6
ENDBRANCH   4   5
ENDBRANCH   3   4
ENDBRANCH   2   3
ENDBRANCH   1   2
BRANCH   1  30
ATOM     30  C   UNL A   1      33.752  35.477  31.839  1.00  0.00     0.188 C 
BRANCH  30  31
ATOM     31  O   UNL A   1      33.352  34.195  32.303  1.00  0.00    -0.376 OA
BRANCH  31  32
ATOM     32  C   UNL A   1      34.321  33.152  32.208  1.00  0.00     0.202 C 
BRANCH  32  33
ATOM     33  C   UNL A   1      35.153  32.868  33.467  1.00  0.00     0.261 C 
BRANCH  33  34
ATOM     34  O   UNL A   1      36.586  33.029  33.296  1.00  0.00    -0.460 OA
BRANCH  34  35
ATOM     35  C   UNL A   1      37.355  32.077  33.843  1.00  0.00     0.338 C 
ATOM     36  O   UNL A   1      37.427  31.764  35.040  1.00  0.00    -0.246 OA
BRANCH  35  37
ATOM     37  C   UNL A   1      38.117  31.333  32.829  1.00  0.00     0.060 A 
ATOM     38  C   UNL A   1      39.157  30.480  33.234  1.00  0.00     0.016 A 
ATOM     39  C   UNL A   1      37.954  31.650  31.476  1.00  0.00     0.016 A 
ATOM     40  C   UNL A   1      40.064  29.985  32.291  1.00  0.00     0.010 A 
ATOM     41  C   UNL A   1      38.868  31.154  30.540  1.00  0.00     0.010 A 
ATOM     42  C   UNL A   1      39.953  30.354  30.944  1.00  0.00    -0.014 A 
BRANCH  42  43
ATOM     43  C   UNL A   1      41.037  30.048  29.973  1.00  0.00     0.031 A 
ATOM     44  C   UNL A   1      41.088  28.687  29.330  1.00  0.00     0.074 A 
ATOM     45  C   UNL A   1      41.992  30.951  29.687  1.00  0.00     0.049 A 
ATOM     46  N   UNL A   1      42.010  28.161  28.562  1.00  0.00    -0.248 NA
ATOM     47  C   UNL A   1      39.948  27.797  29.598  1.00  0.00     0.031 C 
ATOM     48  C   UNL A   1      42.047  32.313  30.207  1.00  0.00     0.029 A 
ATOM     49  N   UNL A   1      43.117  30.840  28.906  1.00  0.00    -0.354 N 
ATOM     50  C   UNL A   1      41.569  26.876  28.267  1.00  0.00     0.074 A 
ATOM     51  C   UNL A   1      40.307  26.696  28.954  1.00  0.00     0.031 C 
ATOM     52  C   UNL A   1      43.168  32.904  29.758  1.00  0.00     0.029 A 
ATOM     53  C   UNL A   1      43.925  31.948  28.949  1.00  0.00     0.049 A 
ATOM     54  H   UNL A   1      43.325  30.041  28.369  1.00  0.00     0.167 HD
ATOM     55  C   UNL A   1      42.161  25.933  27.494  1.00  0.00     0.037 A 
ATOM     56  C   UNL A   1      45.150  32.157  28.427  1.00  0.00     0.037 A 
ATOM     57  C   UNL A   1      43.413  26.108  26.806  1.00  0.00     0.049 A 
ATOM     58  C   UNL A   1      45.822  31.071  27.626  1.00  0.00     0.074 A 
ATOM     59  C   UNL A   1      44.069  25.221  25.969  1.00  0.00     0.029 A 
ATOM     60  N   UNL A   1      44.205  27.243  26.882  1.00  0.00    -0.354 N 
ATOM     61  N   UNL A   1      45.386  29.872  27.328  1.00  0.00    -0.248 NA
ATOM     62  C   UNL A   1      47.161  31.368  27.092  1.00  0.00     0.031 C 
ATOM     63  C   UNL A   1      45.283  25.800  25.581  1.00  0.00     0.029 A 
ATOM     64  C   UNL A   1      45.358  27.068  26.133  1.00  0.00     0.049 A 
ATOM     65  H   UNL A   1      43.981  28.055  27.392  1.00  0.00     0.167 HD
ATOM     66  C   UNL A   1      46.378  29.283  26.552  1.00  0.00     0.074 A 
ATOM     67  C   UNL A   1      47.439  30.260  26.419  1.00  0.00     0.031 C 
ATOM     68  C   UNL A   1      46.406  28.047  25.999  1.00  0.00     0.037 A 
BRANCH  55  69
ATOM     69  C   UNL A   1      41.472  24.606  27.374  1.00  0.00     0.064 A 
ATOM     70  C   UNL A   1      40.305  24.445  26.614  1.00  0.00     0.173 A 
ATOM     71  C   UNL A   1      42.012  23.471  27.998  1.00  0.00     0.173 A 
ATOM     72  F   UNL A   1      39.746  25.502  26.006  1.00  0.00    -0.203 F 
ATOM     73  C   UNL A   1      39.686  23.202  26.508  1.00  0.00     0.198 A 
ATOM     74  C   UNL A   1      41.406  22.224  27.868  1.00  0.00     0.198 A 
ATOM     75  F   UNL A   1      43.132  23.568  28.731  1.00  0.00    -0.203 F 
ATOM     76  F   UNL A   1      38.546  23.080  25.813  1.00  0.00    -0.200 F 
ATOM     77  C   UNL A   1      40.240  22.092  27.129  1.00  0.00     0.200 A 
ATOM     78  F   UNL A   1      41.951  21.151  28.457  1.00  0.00    -0.200 F 
ATOM     79  F   UNL A   1      39.647  20.896  27.020  1.00  0.00    -0.200 F 
ENDBRANCH  55  69
BRANCH  56  80
ATOM     80  C   UNL A   1      45.844  33.449  28.671  1.00  0.00     0.064 A 
ATOM     81  C   UNL A   1      46.658  33.632  29.796  1.00  0.00     0.173 A 
ATOM     82  C   UNL A   1      45.692  34.530  27.790  1.00  0.00     0.173 A 
ATOM     83  F   UNL A   1      46.809  32.637  30.682  1.00  0.00    -0.203 F 
ATOM     84  C   UNL A   1      47.283  34.853  30.040  1.00  0.00     0.198 A 
ATOM     85  C   UNL A   1      46.340  35.741  28.020  1.00  0.00     0.198 A 
ATOM     86  F   UNL A   1      44.920  34.406  26.700  1.00  0.00    -0.203 F 
ATOM     87  F   UNL A   1      48.022  35.016  31.145  1.00  0.00    -0.200 F 
ATOM     88  C   UNL A   1      47.130  35.905  29.148  1.00  0.00     0.200 A 
ATOM     89  F   UNL A   1      46.198  36.750  27.149  1.00  0.00    -0.200 F 
ATOM     90  F   UNL A   1      47.736  37.076  29.378  1.00  0.00    -0.200 F 
ENDBRANCH  56  80
BRANCH  68  91
ATOM     91  C   UNL A   1      47.602  27.680  25.166  1.00  0.00     0.064 A 
ATOM     92  C   UNL A   1      48.757  27.131  25.739  1.00  0.00     0.173 A 
ATOM     93  C   UNL A   1      47.567  27.827  23.771  1.00  0.00     0.173 A 
ATOM     94  F   UNL A   1      48.847  26.983  27.069  1.00  0.00    -0.203 F 
ATOM     95  C   UNL A   1      49.842  26.758  24.948  1.00  0.00     0.198 A 
ATOM     96  C   UNL A   1      48.641  27.429  22.981  1.00  0.00     0.198 A 
ATOM     97  F   UNL A   1      46.483  28.342  23.172  1.00  0.00    -0.203 F 
ATOM     98  F   UNL A   1      50.950  26.269  25.520  1.00  0.00    -0.200 F 
ATOM     99  C   UNL A   1      49.780  26.899  23.569  1.00  0.00     0.200 A 
ATOM    100  F   UNL A   1      48.574  27.555  21.648  1.00  0.00    -0.200 F 
ATOM    101  F   UNL A   1      50.819  26.529  22.808  1.00  0.00    -0.200 F 
ENDBRANCH  68  91
ENDBRANCH  42  43
ENDBRANCH  35  37
ENDBRANCH  34  35
ENDBRANCH  33  34
ENDBRANCH  32  33
ENDBRANCH  31  32
ENDBRANCH  30  31
ENDBRANCH   1  30
TORSDOF 21
ENDMDL
MODEL 2
REMARK VINA RESULT:     -10.7      4.492      6.520
REMARK SMILES O=C(CSc1ccc(NC(=O)c2cccc3ccccc23)cc1)OCCOCCOCCOC(=O)c1ccc(-c2c3nc(c(-c4c(F)c(F)c(F)c(F)c4F)c4ccc([nH]4)c(-c4c(F)c(F)c(F)c(F)c4F)c4nc(c(-c5c(F)c(F)c(F)c(F)c5F)c5ccc2[nH]5)C=C4)C=C3)cc1
REMARK SMILES IDX 28 1 27 2 26 3 25 4 24 5 2 6 1 7 3 8 4 9 5 10 6 11 23 12
REMARK SMILES IDX 7 13 22 14 8 15 9 16 10 17 11 19 12 20 13 21 21 22 14 23
REMARK SMILES IDX 16 24 20 25 15 26 17 27 19 28 18 29 29 30 30 31 31 32 32 33
REMARK SMILES IDX 33 34 34 35 35 36 36 37 37 38 98 39 38 40 97 41 39 42 40 43
REMARK SMILES IDX 41 44 91 45 42 46 96 47 90 48 92 49 43 50 95 51 89 52 88 53
REMARK SMILES IDX 44 55 76 56 56 57 75 58 57 59 60 60 74 61 93 62 58 63 59 64
REMARK SMILES IDX 73 66 94 67 61 68 45 69 46 70 54 71 47 72 48 73 52 74 55 75
REMARK SMILES IDX 49 76 50 77 53 78 51 79 77 80 78 81 86 82 79 83 80 84 84 85
REMARK SMILES IDX 87 86 81 87 82 88 85 89 83 90 62 91 63 92 71 93 64 94 65 95
REMARK SMILES IDX 69 96 72 97 66 98 67 99 70 100 68 101
REMARK H PARENT 9 18 92 54 60 65
REMARK Flexibility Score: inf
ROOT
ATOM      1  C   UNL A   1      33.212  35.483  30.179  1.00  0.00     0.188 C 
ENDROOT
BRANCH   1   2
ATOM      2  O   UNL A   1      33.886  35.228  28.953  1.00  0.00    -0.376 OA
BRANCH   2   3
ATOM      3  C   UNL A   1      34.020  33.886  28.484  1.00  0.00     0.202 C 
BRANCH   3   4
ATOM      4  C   UNL A   1      35.358  33.388  27.931  1.00  0.00     0.261 C 
BRANCH   4   5
ATOM      5  O   UNL A   1      36.086  32.401  28.699  1.00  0.00    -0.463 OA
BRANCH   5   6
ATOM      6  C   UNL A   1      37.302  32.522  29.269  1.00  0.00     0.316 C 
ATOM      7  O   UNL A   1      37.656  33.615  29.716  1.00  0.00    -0.251 OA
BRANCH   6   8
ATOM      8  C   UNL A   1      38.218  31.326  29.359  1.00  0.00     0.197 C 
BRANCH   8   9
ATOM      9  S   UNL A   1      37.648  29.966  28.308  1.00  0.00    -0.114 SA
BRANCH   9  10
ATOM     10  C   UNL A   1      39.071  28.908  28.487  1.00  0.00     0.008 A 
ATOM     11  C   UNL A   1      40.252  29.230  27.817  1.00  0.00     0.017 A 
ATOM     12  C   UNL A   1      39.001  27.737  29.248  1.00  0.00     0.017 A 
ATOM     13  C   UNL A   1      41.395  28.460  28.024  1.00  0.00     0.027 A 
ATOM     14  C   UNL A   1      40.134  26.955  29.432  1.00  0.00     0.027 A 
ATOM     15  C   UNL A   1      41.355  27.403  28.930  1.00  0.00     0.041 A 
BRANCH  15  16
ATOM     16  N   UNL A   1      42.487  26.867  29.549  1.00  0.00    -0.322 N 
ATOM     17  C   UNL A   1      43.448  26.019  29.043  1.00  0.00     0.256 C 
ATOM     18  H   UNL A   1      42.617  27.135  30.487  1.00  0.00     0.170 HD
ATOM     19  O   UNL A   1      44.442  25.789  29.736  1.00  0.00    -0.269 OA
BRANCH  17  20
ATOM     20  C   UNL A   1      43.355  25.351  27.720  1.00  0.00     0.048 A 
ATOM     21  C   UNL A   1      44.039  26.043  26.707  1.00  0.00     0.014 A 
ATOM     22  C   UNL A   1      42.634  24.151  27.427  1.00  0.00    -0.006 A 
ATOM     23  C   UNL A   1      44.046  25.563  25.405  1.00  0.00     0.001 A 
ATOM     24  C   UNL A   1      42.697  23.658  26.096  1.00  0.00    -0.018 A 
ATOM     25  C   UNL A   1      41.872  23.388  28.350  1.00  0.00     0.009 A 
ATOM     26  C   UNL A   1      43.385  24.377  25.107  1.00  0.00     0.009 A 
ATOM     27  C   UNL A   1      42.082  22.441  25.755  1.00  0.00     0.009 A 
ATOM     28  C   UNL A   1      41.307  22.152  28.009  1.00  0.00     0.001 A 
ATOM     29  C   UNL A   1      41.415  21.678  26.710  1.00  0.00     0.001 A 
ENDBRANCH  17  20
ENDBRANCH  15  16
ENDBRANCH   9  10
ENDBRANCH   8   9
ENDBRANCH   6   8
ENDBRANCH   5   6
ENDBRANCH   4   5
ENDBRANCH   3   4
ENDBRANCH   2   3
ENDBRANCH   1   2
BRANCH   1  30
ATOM     30  C   UNL A   1      34.033  35.132  31.417  1.00  0.00     0.188 C 
BRANCH  30  31
ATOM     31  O   UNL A   1      33.684  33.909  32.050  1.00  0.00    -0.376 OA
BRANCH  31  32
ATOM     32  C   UNL A   1      34.618  32.837  31.924  1.00  0.00     0.202 C 
BRANCH  32  33
ATOM     33  C   UNL A   1      35.897  32.937  32.768  1.00  0.00     0.261 C 
BRANCH  33  34
ATOM     34  O   UNL A   1      36.430  31.662  33.214  1.00  0.00    -0.460 OA
BRANCH  34  35
ATOM     35  C   UNL A   1      37.313  31.713  34.222  1.00  0.00     0.338 C 
ATOM     36  O   UNL A   1      37.179  32.287  35.311  1.00  0.00    -0.246 OA
BRANCH  35  37
ATOM     37  C   UNL A   1      38.517  30.918  33.940  1.00  0.00     0.060 A 
ATOM     38  C   UNL A   1      39.751  31.317  34.482  1.00  0.00     0.016 A 
ATOM     39  C   UNL A   1      38.470  29.919  32.961  1.00  0.00     0.016 A 
ATOM     40  C   UNL A   1      40.939  30.749  34.010  1.00  0.00     0.010 A 
ATOM     41  C   UNL A   1      39.664  29.360  32.492  1.00  0.00     0.010 A 
ATOM     42  C   UNL A   1      40.908  29.800  32.981  1.00  0.00    -0.014 A 
BRANCH  42  43
ATOM     43  C   UNL A   1      42.156  29.371  32.295  1.00  0.00     0.031 A 
ATOM     44  C   UNL A   1      42.925  28.193  32.833  1.00  0.00     0.074 A 
ATOM     45  C   UNL A   1      42.629  30.037  31.226  1.00  0.00     0.049 A 
ATOM     46  N   UNL A   1      44.097  27.729  32.477  1.00  0.00    -0.248 NA
ATOM     47  C   UNL A   1      42.287  27.444  33.926  1.00  0.00     0.031 C 
ATOM     48  C   UNL A   1      41.973  31.169  30.580  1.00  0.00     0.029 A 
ATOM     49  N   UNL A   1      43.793  29.869  30.516  1.00  0.00    -0.354 N 
ATOM     50  C   UNL A   1      44.343  26.644  33.311  1.00  0.00     0.074 A 
ATOM     51  C   UNL A   1      43.208  26.531  34.202  1.00  0.00     0.031 C 
ATOM     52  C   UNL A   1      42.759  31.617  29.586  1.00  0.00     0.029 A 
ATOM     53  C   UNL A   1      43.990  30.825  29.551  1.00  0.00     0.049 A 
ATOM     54  H   UNL A   1      44.426  29.133  30.682  1.00  0.00     0.167 HD
ATOM     55  C   UNL A   1      45.418  25.818  33.331  1.00  0.00     0.037 A 
ATOM     56  C   UNL A   1      45.053  31.060  28.757  1.00  0.00     0.037 A 
ATOM     57  C   UNL A   1      46.547  25.922  32.446  1.00  0.00     0.049 A 
ATOM     58  C   UNL A   1      46.266  30.169  28.843  1.00  0.00     0.074 A 
ATOM     59  C   UNL A   1      47.662  25.105  32.369  1.00  0.00     0.029 A 
ATOM     60  N   UNL A   1      46.712  26.911  31.489  1.00  0.00    -0.354 N 
ATOM     61  N   UNL A   1      46.479  29.130  29.611  1.00  0.00    -0.248 NA
ATOM     62  C   UNL A   1      47.391  30.489  27.949  1.00  0.00     0.031 C 
ATOM     63  C   UNL A   1      48.526  25.630  31.401  1.00  0.00     0.029 A 
ATOM     64  C   UNL A   1      47.925  26.744  30.839  1.00  0.00     0.049 A 
ATOM     65  H   UNL A   1      46.064  27.628  31.299  1.00  0.00     0.167 HD
ATOM     66  C   UNL A   1      47.742  28.656  29.278  1.00  0.00     0.074 A 
ATOM     67  C   UNL A   1      48.249  29.518  28.231  1.00  0.00     0.031 C 
ATOM     68  C   UNL A   1      48.419  27.601  29.792  1.00  0.00     0.037 A 
BRANCH  55  69
ATOM     69  C   UNL A   1      45.437  24.736  34.372  1.00  0.00     0.064 A 
ATOM     70  C   UNL A   1      45.898  24.974  35.675  1.00  0.00     0.173 A 
ATOM     71  C   UNL A   1      44.951  23.455  34.069  1.00  0.00     0.173 A 
ATOM     72  F   UNL A   1      46.381  26.179  36.010  1.00  0.00    -0.203 F 
ATOM     73  C   UNL A   1      45.899  23.959  36.629  1.00  0.00     0.198 A 
ATOM     74  C   UNL A   1      44.928  22.451  35.033  1.00  0.00     0.198 A 
ATOM     75  F   UNL A   1      44.492  23.178  32.840  1.00  0.00    -0.203 F 
ATOM     76  F   UNL A   1      46.386  24.195  37.855  1.00  0.00    -0.200 F 
ATOM     77  C   UNL A   1      45.409  22.701  36.310  1.00  0.00     0.200 A 
ATOM     78  F   UNL A   1      44.442  21.241  34.726  1.00  0.00    -0.200 F 
ATOM     79  F   UNL A   1      45.405  21.728  37.231  1.00  0.00    -0.200 F 
ENDBRANCH  55  69
BRANCH  56  80
ATOM     80  C   UNL A   1      45.033  32.215  27.822  1.00  0.00     0.064 A 
ATOM     81  C   UNL A   1      44.335  32.152  26.609  1.00  0.00     0.173 A 
ATOM     82  C   UNL A   1      45.725  33.399  28.118  1.00  0.00     0.173 A 
ATOM     83  F   UNL A   1      43.684  31.031  26.269  1.00  0.00    -0.203 F 
ATOM     84  C   UNL A   1      44.342  33.226  25.720  1.00  0.00     0.198 A 
ATOM     85  C   UNL A   1      45.708  34.481  27.242  1.00  0.00     0.198 A 
ATOM     86  F   UNL A   1      46.411  33.507  29.267  1.00  0.00    -0.203 F 
ATOM     87  F   UNL A   1      43.702  33.124  24.548  1.00  0.00    -0.200 F 
ATOM     88  C   UNL A   1      45.022  34.392  26.040  1.00  0.00     0.200 A 
ATOM     89  F   UNL A   1      46.357  35.609  27.561  1.00  0.00    -0.200 F 
ATOM     90  F   UNL A   1      45.022  35.425  25.189  1.00  0.00    -0.200 F 
ENDBRANCH  56  80
BRANCH  68  91
ATOM     91  C   UNL A   1      49.770  27.287  29.213  1.00  0.00     0.064 A 
ATOM     92  C   UNL A   1      50.943  27.851  29.733  1.00  0.00     0.173 A 
ATOM     93  C   UNL A   1      49.895  26.367  28.160  1.00  0.00     0.173 A 
ATOM     94  F   UNL A   1      50.878  28.748  30.729  1.00  0.00    -0.203 F 
ATOM     95  C   UNL A   1      52.191  27.518  29.211  1.00  0.00     0.198 A 
ATOM     96  C   UNL A   1      51.144  26.016  27.659  1.00  0.00     0.198 A 
ATOM     97  F   UNL A   1      48.804  25.794  27.631  1.00  0.00    -0.203 F 
ATOM     98  F   UNL A   1      53.297  28.096  29.699  1.00  0.00    -0.200 F 
ATOM     99  C   UNL A   1      52.292  26.594  28.180  1.00  0.00     0.200 A 
ATOM    100  F   UNL A   1      51.240  25.114  26.672  1.00  0.00    -0.200 F 
ATOM    101  F   UNL A   1      53.493  26.266  27.686  1.00  0.00    -0.200 F 
ENDBRANCH  68  91
ENDBRANCH  42  43
ENDBRANCH  35  37
ENDBRANCH  34  35
ENDBRANCH  33  34
ENDBRANCH  32  33
ENDBRANCH  31  32
ENDBRANCH  30  31
ENDBRANCH   1  30
TORSDOF 21
ENDMDL
MODEL 3
REMARK VINA RESULT:     -10.6      1.307      2.814
REMARK SMILES O=C(CSc1ccc(NC(=O)c2cccc3ccccc23)cc1)OCCOCCOCCOC(=O)c1ccc(-c2c3nc(c(-c4c(F)c(F)c(F)c(F)c4F)c4ccc([nH]4)c(-c4c(F)c(F)c(F)c(F)c4F)c4nc(c(-c5c(F)c(F)c(F)c(F)c5F)c5ccc2[nH]5)C=C4)C=C3)cc1
REMARK SMILES IDX 28 1 27 2 26 3 25 4 24 5 2 6 1 7 3 8 4 9 5 10 6 11 23 12
REMARK SMILES IDX 7 13 22 14 8 15 9 16 10 17 11 19 12 20 13 21 21 22 14 23
REMARK SMILES IDX 16 24 20 25 15 26 17 27 19 28 18 29 29 30 30 31 31 32 32 33
REMARK SMILES IDX 33 34 34 35 35 36 36 37 37 38 98 39 38 40 97 41 39 42 40 43
REMARK SMILES IDX 41 44 91 45 42 46 96 47 90 48 92 49 43 50 95 51 89 52 88 53
REMARK SMILES IDX 44 55 76 56 56 57 75 58 57 59 60 60 74 61 93 62 58 63 59 64
REMARK SMILES IDX 73 66 94 67 61 68 45 69 46 70 54 71 47 72 48 73 52 74 55 75
REMARK SMILES IDX 49 76 50 77 53 78 51 79 77 80 78 81 86 82 79 83 80 84 84 85
REMARK SMILES IDX 87 86 81 87 82 88 85 89 83 90 62 91 63 92 71 93 64 94 65 95
REMARK SMILES IDX 69 96 72 97 66 98 67 99 70 100 68 101
REMARK H PARENT 9 18 92 54 60 65
REMARK Flexibility Score: inf
ROOT
ATOM      1  C   UNL A   1      36.868  33.507  29.121  1.00  0.00     0.188 C 
ENDROOT
BRANCH   1   2
ATOM      2  O   UNL A   1      36.253  32.994  27.945  1.00  0.00    -0.376 OA
BRANCH   2   3
ATOM      3  C   UNL A   1      34.881  32.604  27.975  1.00  0.00     0.202 C 
BRANCH   3   4
ATOM      4  C   UNL A   1      34.496  31.122  27.972  1.00  0.00     0.261 C 
BRANCH   4   5
ATOM      5  O   UNL A   1      33.744  30.618  26.843  1.00  0.00    -0.463 OA
BRANCH   5   6
ATOM      6  C   UNL A   1      32.410  30.667  26.643  1.00  0.00     0.316 C 
ATOM      7  O   UNL A   1      31.816  31.738  26.782  1.00  0.00    -0.251 OA
BRANCH   6   8
ATOM      8  C   UNL A   1      31.658  29.421  26.249  1.00  0.00     0.197 C 
BRANCH   8   9
ATOM      9  S   UNL A   1      31.088  29.497  24.531  1.00  0.00    -0.114 SA
BRANCH   9  10
ATOM     10  C   UNL A   1      31.297  27.773  24.130  1.00  0.00     0.008 A 
ATOM     11  C   UNL A   1      30.178  26.942  24.079  1.00  0.00     0.017 A 
ATOM     12  C   UNL A   1      32.571  27.238  23.916  1.00  0.00     0.017 A 
ATOM     13  C   UNL A   1      30.321  25.615  23.678  1.00  0.00     0.027 A 
ATOM     14  C   UNL A   1      32.716  25.909  23.542  1.00  0.00     0.027 A 
ATOM     15  C   UNL A   1      31.575  25.147  23.291  1.00  0.00     0.041 A 
BRANCH  15  16
ATOM     16  N   UNL A   1      31.770  24.034  22.469  1.00  0.00    -0.322 N 
ATOM     17  C   UNL A   1      32.606  22.952  22.637  1.00  0.00     0.256 C 
ATOM     18  H   UNL A   1      31.229  24.022  21.647  1.00  0.00     0.170 HD
ATOM     19  O   UNL A   1      32.506  22.012  21.845  1.00  0.00    -0.269 OA
BRANCH  17  20
ATOM     20  C   UNL A   1      33.634  22.852  23.704  1.00  0.00     0.048 A 
ATOM     21  C   UNL A   1      34.948  22.911  23.208  1.00  0.00     0.014 A 
ATOM     22  C   UNL A   1      33.388  22.674  25.102  1.00  0.00    -0.006 A 
ATOM     23  C   UNL A   1      36.032  22.821  24.069  1.00  0.00     0.001 A 
ATOM     24  C   UNL A   1      34.516  22.632  25.965  1.00  0.00    -0.018 A 
ATOM     25  C   UNL A   1      32.114  22.556  25.717  1.00  0.00     0.009 A 
ATOM     26  C   UNL A   1      35.814  22.689  25.436  1.00  0.00     0.009 A 
ATOM     27  C   UNL A   1      34.347  22.542  27.358  1.00  0.00     0.009 A 
ATOM     28  C   UNL A   1      31.959  22.519  27.109  1.00  0.00     0.001 A 
ATOM     29  C   UNL A   1      33.078  22.515  27.929  1.00  0.00     0.001 A 
ENDBRANCH  17  20
ENDBRANCH  15  16
ENDBRANCH   9  10
ENDBRANCH   8   9
ENDBRANCH   6   8
ENDBRANCH   5   6
ENDBRANCH   4   5
ENDBRANCH   3   4
ENDBRANCH   2   3
ENDBRANCH   1   2
BRANCH   1  30
ATOM     30  C   UNL A   1      35.904  34.245  30.047  1.00  0.00     0.188 C 
BRANCH  30  31
ATOM     31  O   UNL A   1      36.217  34.172  31.430  1.00  0.00    -0.376 OA
BRANCH  31  32
ATOM     32  C   UNL A   1      35.121  33.975  32.323  1.00  0.00     0.202 C 
BRANCH  32  33
ATOM     33  C   UNL A   1      35.279  32.866  33.374  1.00  0.00     0.261 C 
BRANCH  33  34
ATOM     34  O   UNL A   1      35.946  31.669  32.896  1.00  0.00    -0.460 OA
BRANCH  34  35
ATOM     35  C   UNL A   1      37.130  31.390  33.457  1.00  0.00     0.338 C 
ATOM     36  O   UNL A   1      37.494  31.647  34.613  1.00  0.00    -0.246 OA
BRANCH  35  37
ATOM     37  C   UNL A   1      38.010  30.642  32.547  1.00  0.00     0.060 A 
ATOM     38  C   UNL A   1      39.235  30.144  33.022  1.00  0.00     0.016 A 
ATOM     39  C   UNL A   1      37.731  30.629  31.176  1.00  0.00     0.016 A 
ATOM     40  C   UNL A   1      40.199  29.680  32.122  1.00  0.00     0.010 A 
ATOM     41  C   UNL A   1      38.703  30.166  30.282  1.00  0.00     0.010 A 
ATOM     42  C   UNL A   1      39.958  29.729  30.743  1.00  0.00    -0.014 A 
BRANCH  42  43
ATOM     43  C   UNL A   1      41.049  29.478  29.764  1.00  0.00     0.031 A 
ATOM     44  C   UNL A   1      41.174  28.117  29.131  1.00  0.00     0.074 A 
ATOM     45  C   UNL A   1      41.948  30.433  29.462  1.00  0.00     0.049 A 
ATOM     46  N   UNL A   1      42.118  27.640  28.358  1.00  0.00    -0.248 NA
ATOM     47  C   UNL A   1      40.090  27.166  29.416  1.00  0.00     0.031 C 
ATOM     48  C   UNL A   1      41.929  31.801  29.971  1.00  0.00     0.029 A 
ATOM     49  N   UNL A   1      43.071  30.381  28.672  1.00  0.00    -0.354 N 
ATOM     50  C   UNL A   1      41.750  26.329  28.077  1.00  0.00     0.074 A 
ATOM     51  C   UNL A   1      40.507  26.082  28.777  1.00  0.00     0.031 C 
ATOM     52  C   UNL A   1      43.009  32.452  29.507  1.00  0.00     0.029 A 
ATOM     53  C   UNL A   1      43.813  31.535  28.698  1.00  0.00     0.049 A 
ATOM     54  H   UNL A   1      43.319  29.592  28.138  1.00  0.00     0.167 HD
ATOM     55  C   UNL A   1      42.389  25.416  27.306  1.00  0.00     0.037 A 
ATOM     56  C   UNL A   1      45.020  31.809  28.163  1.00  0.00     0.037 A 
ATOM     57  C   UNL A   1      43.622  25.657  26.604  1.00  0.00     0.049 A 
ATOM     58  C   UNL A   1      45.746  30.758  27.365  1.00  0.00     0.074 A 
ATOM     59  C   UNL A   1      44.321  24.803  25.768  1.00  0.00     0.029 A 
ATOM     60  N   UNL A   1      44.348  26.837  26.664  1.00  0.00    -0.354 N 
ATOM     61  N   UNL A   1      45.378  29.533  27.079  1.00  0.00    -0.248 NA
ATOM     62  C   UNL A   1      47.061  31.127  26.816  1.00  0.00     0.031 C 
ATOM     63  C   UNL A   1      45.496  25.448  25.364  1.00  0.00     0.029 A 
ATOM     64  C   UNL A   1      45.502  26.722  25.906  1.00  0.00     0.049 A 
ATOM     65  H   UNL A   1      44.081  27.639  27.171  1.00  0.00     0.167 HD
ATOM     66  C   UNL A   1      46.396  28.997  26.299  1.00  0.00     0.074 A 
ATOM     67  C   UNL A   1      47.396  30.032  26.148  1.00  0.00     0.031 C 
ATOM     68  C   UNL A   1      46.490  27.759  25.755  1.00  0.00     0.037 A 
BRANCH  55  69
ATOM     69  C   UNL A   1      41.777  24.050  27.202  1.00  0.00     0.064 A 
ATOM     70  C   UNL A   1      42.348  22.935  27.833  1.00  0.00     0.173 A 
ATOM     71  C   UNL A   1      40.580  23.863  26.494  1.00  0.00     0.173 A 
ATOM     72  F   UNL A   1      43.497  23.061  28.514  1.00  0.00    -0.203 F 
ATOM     73  C   UNL A   1      41.759  21.677  27.733  1.00  0.00     0.198 A 
ATOM     74  C   UNL A   1      39.979  22.609  26.419  1.00  0.00     0.198 A 
ATOM     75  F   UNL A   1      39.988  24.898  25.880  1.00  0.00    -0.203 F 
ATOM     76  F   UNL A   1      42.347  20.617  28.305  1.00  0.00    -0.200 F 
ATOM     77  C   UNL A   1      40.573  21.516  27.032  1.00  0.00     0.200 A 
ATOM     78  F   UNL A   1      38.826  22.459  25.754  1.00  0.00    -0.200 F 
ATOM     79  F   UNL A   1      40.005  20.306  26.942  1.00  0.00    -0.200 F 
ENDBRANCH  55  69
BRANCH  56  80
ATOM     80  C   UNL A   1      45.639  33.142  28.391  1.00  0.00     0.064 A 
ATOM     81  C   UNL A   1      45.426  34.200  27.498  1.00  0.00     0.173 A 
ATOM     82  C   UNL A   1      46.469  33.375  29.497  1.00  0.00     0.173 A 
ATOM     83  F   UNL A   1      44.665  34.016  26.410  1.00  0.00    -0.203 F 
ATOM     84  C   UNL A   1      46.031  35.440  27.697  1.00  0.00     0.198 A 
ATOM     85  C   UNL A   1      47.051  34.623  29.709  1.00  0.00     0.198 A 
ATOM     86  F   UNL A   1      46.707  32.392  30.379  1.00  0.00    -0.203 F 
ATOM     87  F   UNL A   1      45.846  36.423  26.806  1.00  0.00    -0.200 F 
ATOM     88  C   UNL A   1      46.838  35.652  28.806  1.00  0.00     0.200 A 
ATOM     89  F   UNL A   1      47.819  34.826  30.788  1.00  0.00    -0.200 F 
ATOM     90  F   UNL A   1      47.413  36.845  29.000  1.00  0.00    -0.200 F 
ENDBRANCH  56  80
BRANCH  68  91
ATOM     91  C   UNL A   1      47.698  27.456  24.913  1.00  0.00     0.064 A 
ATOM     92  C   UNL A   1      47.737  27.759  23.545  1.00  0.00     0.173 A 
ATOM     93  C   UNL A   1      48.849  26.905  25.497  1.00  0.00     0.173 A 
ATOM     94  F   UNL A   1      46.657  28.272  22.936  1.00  0.00    -0.203 F 
ATOM     95  C   UNL A   1      48.879  27.509  22.788  1.00  0.00     0.198 A 
ATOM     96  C   UNL A   1      49.998  26.681  24.744  1.00  0.00     0.198 A 
ATOM     97  F   UNL A   1      48.866  26.602  26.804  1.00  0.00    -0.203 F 
ATOM     98  F   UNL A   1      48.883  27.773  21.475  1.00  0.00    -0.200 F 
ATOM     99  C   UNL A   1      50.012  26.978  23.390  1.00  0.00     0.200 A 
ATOM    100  F   UNL A   1      51.095  26.180  25.330  1.00  0.00    -0.200 F 
ATOM    101  F   UNL A   1      51.114  26.748  22.663  1.00  0.00    -0.200 F 
ENDBRANCH  68  91
ENDBRANCH  42  43
ENDBRANCH  35  37
ENDBRANCH  34  35
ENDBRANCH  33  34
ENDBRANCH  32  33
ENDBRANCH  31  32
ENDBRANCH  30  31
ENDBRANCH   1  30
TORSDOF 21
ENDMDL
