MODEL 1
REMARK VINA RESULT:     -14.1      0.000      0.000
REMARK SMILES CCc1cccc(C)c1Nc1ccccc1CC(=O)OCCOCCOCCOC(=O)c1ccc(-c2c3nc(c(-c4c(F)c(F)c(F)c(F)c4F)c4ccc([nH]4)c(-c4c(F)c(F)c(F)c(F)c4F)c4nc(c(-c5c(F)c(F)c(F)c(F)c5F)c5ccc2[nH]5)C=C4)C=C3)cc1
REMARK SMILES IDX 24 1 23 2 22 3 21 4 20 5 18 6 19 7 17 8 16 9 11 10 12 11
REMARK SMILES IDX 13 12 15 13 14 14 10 15 9 17 3 18 4 19 5 20 7 21 6 22 8 23
REMARK SMILES IDX 2 24 1 25 25 26 26 27 27 28 28 29 29 30 30 31 31 32 32 33
REMARK SMILES IDX 33 34 94 35 34 36 93 37 35 38 36 39 37 40 87 41 38 42 92 43
REMARK SMILES IDX 86 44 88 45 39 46 91 47 85 48 84 49 40 51 72 52 52 53 71 54
REMARK SMILES IDX 53 55 56 56 70 57 89 58 54 59 55 60 69 62 90 63 57 64 41 65
REMARK SMILES IDX 42 66 50 67 43 68 44 69 48 70 51 71 45 72 46 73 49 74 47 75
REMARK SMILES IDX 73 76 74 77 82 78 75 79 76 80 80 81 83 82 77 83 78 84 81 85
REMARK SMILES IDX 79 86 58 87 59 88 67 89 60 90 61 91 65 92 68 93 62 94 63 95
REMARK SMILES IDX 66 96 64 97
REMARK H PARENT 10 16 88 50 56 61
REMARK Flexibility Score: inf
ROOT
ATOM      1  C   UNL A   1      42.115  19.881  26.070  1.00  0.00     0.188 C 
ENDROOT
BRANCH   1   2
ATOM      2  O   UNL A   1      41.041  20.856  25.628  1.00  0.00    -0.376 OA
BRANCH   2   3
ATOM      3  C   UNL A   1      39.704  21.169  26.200  1.00  0.00     0.202 C 
BRANCH   3   4
ATOM      4  C   UNL A   1      39.036  22.776  26.512  1.00  0.00     0.261 C 
BRANCH   4   5
ATOM      5  O   UNL A   1      37.684  23.661  25.936  1.00  0.00    -0.463 OA
BRANCH   5   6
ATOM      6  C   UNL A   1      36.208  23.734  25.600  1.00  0.00     0.310 C 
ATOM      7  O   UNL A   1      35.750  24.249  24.573  1.00  0.00    -0.252 OA
BRANCH   6   8
ATOM      8  C   UNL A   1      35.134  22.973  26.559  1.00  0.00     0.160 C 
BRANCH   8   9
ATOM      9  C   UNL A   1      34.130  22.267  25.675  1.00  0.00    -0.013 A 
ATOM     10  C   UNL A   1      32.947  22.761  24.913  1.00  0.00     0.042 A 
ATOM     11  C   UNL A   1      32.191  21.492  24.501  1.00  0.00     0.026 A 
ATOM     12  C   UNL A   1      32.750  20.188  24.362  1.00  0.00     0.002 A 
ATOM     13  C   UNL A   1      34.630  20.910  25.528  1.00  0.00     0.006 A 
ATOM     14  C   UNL A   1      34.022  19.931  24.786  1.00  0.00     0.000 A 
BRANCH  10  15
ATOM     15  N   UNL A   1      32.690  24.555  23.932  1.00  0.00    -0.355 N 
ATOM     16  H   UNL A   1      32.136  24.279  23.168  1.00  0.00     0.167 HD
BRANCH  15  17
ATOM     17  C   UNL A   1      32.841  26.089  23.666  1.00  0.00     0.045 A 
ATOM     18  C   UNL A   1      32.599  27.068  24.724  1.00  0.00    -0.024 A 
ATOM     19  C   UNL A   1      32.925  28.428  24.473  1.00  0.00     0.006 A 
ATOM     20  C   UNL A   1      33.558  28.807  23.321  1.00  0.00     0.001 A 
ATOM     21  C   UNL A   1      33.108  26.593  22.405  1.00  0.00    -0.027 A 
ATOM     22  C   UNL A   1      33.698  27.863  22.327  1.00  0.00     0.005 A 
ATOM     23  C   UNL A   1      32.435  25.908  21.253  1.00  0.00     0.046 C 
BRANCH  18  24
ATOM     24  C   UNL A   1      31.784  26.978  26.015  1.00  0.00     0.034 C 
ATOM     25  C   UNL A   1      31.655  28.083  27.034  1.00  0.00     0.009 C 
ENDBRANCH  18  24
ENDBRANCH  15  17
ENDBRANCH  10  15
ENDBRANCH   8   9
ENDBRANCH   6   8
ENDBRANCH   5   6
ENDBRANCH   4   5
ENDBRANCH   3   4
ENDBRANCH   2   3
ENDBRANCH   1   2
BRANCH   1  26
ATOM     26  C   UNL A   1      43.675  19.701  25.434  1.00  0.00     0.188 C 
BRANCH  26  27
ATOM     27  O   UNL A   1      43.968  20.588  24.331  1.00  0.00    -0.376 OA
BRANCH  27  28
ATOM     28  C   UNL A   1      44.892  21.683  24.523  1.00  0.00     0.202 C 
BRANCH  28  29
ATOM     29  C   UNL A   1      44.444  23.195  24.632  1.00  0.00     0.261 C 
BRANCH  29  30
ATOM     30  O   UNL A   1      43.066  23.413  25.056  1.00  0.00    -0.460 OA
BRANCH  30  31
ATOM     31  C   UNL A   1      42.732  23.994  26.273  1.00  0.00     0.338 C 
ATOM     32  O   UNL A   1      42.406  23.393  27.279  1.00  0.00    -0.246 OA
BRANCH  31  33
ATOM     33  C   UNL A   1      42.571  25.520  26.067  1.00  0.00     0.060 A 
ATOM     34  C   UNL A   1      43.730  26.838  26.774  1.00  0.00     0.016 A 
ATOM     35  C   UNL A   1      40.807  25.784  26.281  1.00  0.00     0.016 A 
ATOM     36  C   UNL A   1      43.073  28.119  27.990  1.00  0.00     0.010 A 
ATOM     37  C   UNL A   1      40.207  27.067  27.408  1.00  0.00     0.010 A 
ATOM     38  C   UNL A   1      41.277  28.204  28.444  1.00  0.00    -0.014 A 
BRANCH  38  39
ATOM     39  C   UNL A   1      40.568  29.172  29.817  1.00  0.00     0.031 A 
ATOM     40  C   UNL A   1      39.510  30.633  29.937  1.00  0.00     0.074 A 
ATOM     41  C   UNL A   1      40.613  28.668  31.082  1.00  0.00     0.049 A 
ATOM     42  N   UNL A   1      39.561  31.626  30.840  1.00  0.00    -0.248 NA
ATOM     43  C   UNL A   1      38.329  31.071  29.098  1.00  0.00     0.031 C 
ATOM     44  C   UNL A   1      39.537  28.904  32.070  1.00  0.00     0.029 A 
ATOM     45  N   UNL A   1      41.439  27.770  31.747  1.00  0.00    -0.354 N 
ATOM     46  C   UNL A   1      38.493  32.527  30.473  1.00  0.00     0.074 A 
ATOM     47  C   UNL A   1      38.447  32.389  29.087  1.00  0.00     0.031 C 
ATOM     48  C   UNL A   1      39.756  28.178  33.169  1.00  0.00     0.029 A 
ATOM     49  C   UNL A   1      41.120  27.717  33.107  1.00  0.00     0.049 A 
ATOM     50  H   UNL A   1      42.150  27.243  31.318  1.00  0.00     0.167 HD
ATOM     51  C   UNL A   1      37.336  32.851  31.175  1.00  0.00     0.037 A 
ATOM     52  C   UNL A   1      41.960  27.831  34.168  1.00  0.00     0.037 A 
ATOM     53  C   UNL A   1      37.488  32.378  32.525  1.00  0.00     0.049 A 
ATOM     54  C   UNL A   1      41.703  29.119  34.948  1.00  0.00     0.074 A 
ATOM     55  C   UNL A   1      36.887  31.429  33.325  1.00  0.00     0.029 A 
ATOM     56  N   UNL A   1      38.666  32.727  33.138  1.00  0.00    -0.354 N 
ATOM     57  N   UNL A   1      40.727  29.944  34.657  1.00  0.00    -0.248 NA
ATOM     58  C   UNL A   1      42.509  29.642  36.049  1.00  0.00     0.031 C 
ATOM     59  C   UNL A   1      37.808  31.144  34.385  1.00  0.00     0.029 A 
ATOM     60  C   UNL A   1      38.906  31.983  34.260  1.00  0.00     0.049 A 
ATOM     61  H   UNL A   1      39.269  33.432  32.808  1.00  0.00     0.167 HD
ATOM     62  C   UNL A   1      40.873  31.124  35.322  1.00  0.00     0.074 A 
ATOM     63  C   UNL A   1      41.965  30.861  36.233  1.00  0.00     0.031 C 
ATOM     64  C   UNL A   1      40.153  32.233  34.976  1.00  0.00     0.037 A 
BRANCH  51  65
ATOM     65  C   UNL A   1      35.960  33.449  30.602  1.00  0.00     0.064 A 
ATOM     66  C   UNL A   1      35.342  34.552  31.248  1.00  0.00     0.173 A 
ATOM     67  C   UNL A   1      35.189  33.008  29.480  1.00  0.00     0.173 A 
ATOM     68  F   UNL A   1      35.883  35.084  32.353  1.00  0.00    -0.203 F 
ATOM     69  C   UNL A   1      34.140  35.158  30.798  1.00  0.00     0.198 A 
ATOM     70  C   UNL A   1      34.024  33.644  29.001  1.00  0.00     0.198 A 
ATOM     71  F   UNL A   1      35.436  31.881  28.809  1.00  0.00    -0.203 F 
ATOM     72  F   UNL A   1      33.605  36.179  31.484  1.00  0.00    -0.200 F 
ATOM     73  C   UNL A   1      33.494  34.719  29.660  1.00  0.00     0.200 A 
ATOM     74  F   UNL A   1      33.411  33.170  27.903  1.00  0.00    -0.200 F 
ATOM     75  F   UNL A   1      32.366  35.299  29.225  1.00  0.00    -0.200 F 
ENDBRANCH  51  65
BRANCH  52  76
ATOM     76  C   UNL A   1      43.146  26.952  34.102  1.00  0.00     0.064 A 
ATOM     77  C   UNL A   1      42.963  25.606  34.484  1.00  0.00     0.173 A 
ATOM     78  C   UNL A   1      44.213  27.232  33.240  1.00  0.00     0.173 A 
ATOM     79  F   UNL A   1      41.949  25.272  35.298  1.00  0.00    -0.203 F 
ATOM     80  C   UNL A   1      43.733  24.581  33.933  1.00  0.00     0.198 A 
ATOM     81  C   UNL A   1      44.966  26.201  32.671  1.00  0.00     0.198 A 
ATOM     82  F   UNL A   1      44.416  28.486  32.813  1.00  0.00    -0.203 F 
ATOM     83  F   UNL A   1      43.452  23.300  34.218  1.00  0.00    -0.200 F 
ATOM     84  C   UNL A   1      44.709  24.877  32.997  1.00  0.00     0.200 A 
ATOM     85  F   UNL A   1      45.867  26.483  31.719  1.00  0.00    -0.200 F 
ATOM     86  F   UNL A   1      45.351  23.888  32.357  1.00  0.00    -0.200 F 
ENDBRANCH  52  76
BRANCH  64  87
ATOM     87  C   UNL A   1      40.608  33.672  35.214  1.00  0.00     0.064 A 
ATOM     88  C   UNL A   1      41.502  34.344  34.363  1.00  0.00     0.173 A 
ATOM     89  C   UNL A   1      40.015  34.494  36.212  1.00  0.00     0.173 A 
ATOM     90  F   UNL A   1      41.999  33.763  33.264  1.00  0.00    -0.203 F 
ATOM     91  C   UNL A   1      41.876  35.675  34.573  1.00  0.00     0.198 A 
ATOM     92  C   UNL A   1      40.308  35.852  36.347  1.00  0.00     0.198 A 
ATOM     93  F   UNL A   1      39.098  34.021  37.069  1.00  0.00    -0.203 F 
ATOM     94  F   UNL A   1      42.813  36.226  33.790  1.00  0.00    -0.200 F 
ATOM     95  C   UNL A   1      41.275  36.431  35.559  1.00  0.00     0.200 A 
ATOM     96  F   UNL A   1      39.634  36.594  37.239  1.00  0.00    -0.200 F 
ATOM     97  F   UNL A   1      41.615  37.713  35.735  1.00  0.00    -0.200 F 
ENDBRANCH  64  87
ENDBRANCH  38  39
ENDBRANCH  31  33
ENDBRANCH  30  31
ENDBRANCH  29  30
ENDBRANCH  28  29
ENDBRANCH  27  28
ENDBRANCH  26  27
ENDBRANCH   1  26
TORSDOF 21
ENDMDL
MODEL 2
REMARK VINA RESULT:     -13.4      1.380      2.171
REMARK SMILES CCc1cccc(C)c1Nc1ccccc1CC(=O)OCCOCCOCCOC(=O)c1ccc(-c2c3nc(c(-c4c(F)c(F)c(F)c(F)c4F)c4ccc([nH]4)c(-c4c(F)c(F)c(F)c(F)c4F)c4nc(c(-c5c(F)c(F)c(F)c(F)c5F)c5ccc2[nH]5)C=C4)C=C3)cc1
REMARK SMILES IDX 24 1 23 2 22 3 21 4 20 5 18 6 19 7 17 8 16 9 11 10 12 11
REMARK SMILES IDX 13 12 15 13 14 14 10 15 9 17 3 18 4 19 5 20 7 21 6 22 8 23
REMARK SMILES IDX 2 24 1 25 25 26 26 27 27 28 28 29 29 30 30 31 31 32 32 33
REMARK SMILES IDX 33 34 94 35 34 36 93 37 35 38 36 39 37 40 87 41 38 42 92 43
REMARK SMILES IDX 86 44 88 45 39 46 91 47 85 48 84 49 40 51 72 52 52 53 71 54
REMARK SMILES IDX 53 55 56 56 70 57 89 58 54 59 55 60 69 62 90 63 57 64 41 65
REMARK SMILES IDX 42 66 50 67 43 68 44 69 48 70 51 71 45 72 46 73 49 74 47 75
REMARK SMILES IDX 73 76 74 77 82 78 75 79 76 80 80 81 83 82 77 83 78 84 81 85
REMARK SMILES IDX 79 86 58 87 59 88 67 89 60 90 61 91 65 92 68 93 62 94 63 95
REMARK SMILES IDX 66 96 64 97
REMARK H PARENT 10 16 88 50 56 61
REMARK Flexibility Score: inf
ROOT
ATOM      1  C   UNL A   1      40.704  19.432  26.440  1.00  0.00     0.188 C 
ENDROOT
BRANCH   1   2
ATOM      2  O   UNL A   1      39.699  19.878  25.396  1.00  0.00    -0.376 OA
BRANCH   2   3
ATOM      3  C   UNL A   1      38.407  20.604  25.524  1.00  0.00     0.202 C 
BRANCH   3   4
ATOM      4  C   UNL A   1      38.180  22.357  25.590  1.00  0.00     0.261 C 
BRANCH   4   5
ATOM      5  O   UNL A   1      36.891  23.397  26.034  1.00  0.00    -0.463 OA
BRANCH   5   6
ATOM      6  C   UNL A   1      35.447  23.834  25.891  1.00  0.00     0.310 C 
ATOM      7  O   UNL A   1      35.086  24.885  25.347  1.00  0.00    -0.252 OA
BRANCH   6   8
ATOM      8  C   UNL A   1      34.258  22.818  26.345  1.00  0.00     0.160 C 
BRANCH   8   9
ATOM      9  C   UNL A   1      33.239  22.756  25.228  1.00  0.00    -0.013 A 
ATOM     10  C   UNL A   1      32.051  23.600  24.912  1.00  0.00     0.042 A 
ATOM     11  C   UNL A   1      31.281  22.806  23.848  1.00  0.00     0.026 A 
ATOM     12  C   UNL A   1      31.829  21.827  22.971  1.00  0.00     0.002 A 
ATOM     13  C   UNL A   1      33.727  21.738  24.314  1.00  0.00     0.006 A 
ATOM     14  C   UNL A   1      33.104  21.371  23.150  1.00  0.00     0.000 A 
BRANCH  10  15
ATOM     15  N   UNL A   1      31.796  25.630  25.159  1.00  0.00    -0.355 N 
ATOM     16  H   UNL A   1      32.330  25.795  25.968  1.00  0.00     0.167 HD
BRANCH  15  17
ATOM     17  C   UNL A   1      31.268  27.068  24.840  1.00  0.00     0.045 A 
ATOM     18  C   UNL A   1      31.847  28.246  25.485  1.00  0.00    -0.024 A 
ATOM     19  C   UNL A   1      31.452  29.530  25.024  1.00  0.00     0.006 A 
ATOM     20  C   UNL A   1      30.645  29.676  23.930  1.00  0.00     0.001 A 
ATOM     21  C   UNL A   1      30.176  27.286  24.020  1.00  0.00    -0.027 A 
ATOM     22  C   UNL A   1      30.068  28.541  23.403  1.00  0.00     0.005 A 
ATOM     23  C   UNL A   1      29.043  26.310  24.140  1.00  0.00     0.046 C 
BRANCH  18  24
ATOM     24  C   UNL A   1      32.626  28.400  26.792  1.00  0.00     0.034 C 
ATOM     25  C   UNL A   1      34.072  28.821  26.891  1.00  0.00     0.009 C 
ENDBRANCH  18  24
ENDBRANCH  15  17
ENDBRANCH  10  15
ENDBRANCH   8   9
ENDBRANCH   6   8
ENDBRANCH   5   6
ENDBRANCH   4   5
ENDBRANCH   3   4
ENDBRANCH   2   3
ENDBRANCH   1   2
BRANCH   1  26
ATOM     26  C   UNL A   1      42.335  19.872  26.564  1.00  0.00     0.188 C 
BRANCH  26  27
ATOM     27  O   UNL A   1      42.946  20.230  25.303  1.00  0.00    -0.376 OA
BRANCH  27  28
ATOM     28  C   UNL A   1      44.175  20.991  25.297  1.00  0.00     0.202 C 
BRANCH  28  29
ATOM     29  C   UNL A   1      44.270  22.494  24.815  1.00  0.00     0.261 C 
BRANCH  29  30
ATOM     30  O   UNL A   1      43.007  23.220  24.772  1.00  0.00    -0.460 OA
BRANCH  30  31
ATOM     31  C   UNL A   1      42.379  23.714  25.908  1.00  0.00     0.338 C 
ATOM     32  O   UNL A   1      41.420  23.212  26.462  1.00  0.00    -0.246 OA
BRANCH  31  33
ATOM     33  C   UNL A   1      42.914  25.139  26.191  1.00  0.00     0.060 A 
ATOM     34  C   UNL A   1      43.956  25.628  27.693  1.00  0.00     0.016 A 
ATOM     35  C   UNL A   1      41.517  26.194  25.788  1.00  0.00     0.016 A 
ATOM     36  C   UNL A   1      43.304  26.900  28.921  1.00  0.00     0.010 A 
ATOM     37  C   UNL A   1      40.954  27.451  26.962  1.00  0.00     0.010 A 
ATOM     38  C   UNL A   1      41.696  27.785  28.650  1.00  0.00    -0.014 A 
BRANCH  38  39
ATOM     39  C   UNL A   1      40.811  28.790  29.887  1.00  0.00     0.031 A 
ATOM     40  C   UNL A   1      39.670  30.191  29.814  1.00  0.00     0.074 A 
ATOM     41  C   UNL A   1      40.762  28.367  31.181  1.00  0.00     0.049 A 
ATOM     42  N   UNL A   1      39.583  31.238  30.652  1.00  0.00    -0.248 NA
ATOM     43  C   UNL A   1      38.552  30.507  28.844  1.00  0.00     0.031 C 
ATOM     44  C   UNL A   1      39.586  28.597  32.049  1.00  0.00     0.029 A 
ATOM     45  N   UNL A   1      41.567  27.561  31.975  1.00  0.00    -0.354 N 
ATOM     46  C   UNL A   1      38.508  32.050  30.130  1.00  0.00     0.074 A 
ATOM     47  C   UNL A   1      38.601  31.827  28.758  1.00  0.00     0.031 C 
ATOM     48  C   UNL A   1      39.738  27.953  33.209  1.00  0.00     0.029 A 
ATOM     49  C   UNL A   1      41.124  27.571  33.301  1.00  0.00     0.049 A 
ATOM     50  H   UNL A   1      42.343  27.051  31.649  1.00  0.00     0.167 HD
ATOM     51  C   UNL A   1      37.273  32.347  30.702  1.00  0.00     0.037 A 
ATOM     52  C   UNL A   1      41.853  27.796  34.425  1.00  0.00     0.037 A 
ATOM     53  C   UNL A   1      37.322  31.966  32.088  1.00  0.00     0.049 A 
ATOM     54  C   UNL A   1      41.455  29.112  35.093  1.00  0.00     0.074 A 
ATOM     55  C   UNL A   1      36.699  31.034  32.890  1.00  0.00     0.029 A 
ATOM     56  N   UNL A   1      38.417  32.420  32.782  1.00  0.00    -0.354 N 
ATOM     57  N   UNL A   1      40.468  29.859  34.660  1.00  0.00    -0.248 NA
ATOM     58  C   UNL A   1      42.124  29.747  36.226  1.00  0.00     0.031 C 
ATOM     59  C   UNL A   1      37.529  30.867  34.046  1.00  0.00     0.029 A 
ATOM     60  C   UNL A   1      38.588  31.760  33.967  1.00  0.00     0.049 A 
ATOM     61  H   UNL A   1      39.009  33.138  32.463  1.00  0.00     0.167 HD
ATOM     62  C   UNL A   1      40.489  31.083  35.258  1.00  0.00     0.074 A 
ATOM     63  C   UNL A   1      41.501  30.940  36.279  1.00  0.00     0.031 C 
ATOM     64  C   UNL A   1      39.747  32.126  34.776  1.00  0.00     0.037 A 
BRANCH  51  65
ATOM     65  C   UNL A   1      35.929  32.828  29.968  1.00  0.00     0.064 A 
ATOM     66  C   UNL A   1      35.316  34.053  30.340  1.00  0.00     0.173 A 
ATOM     67  C   UNL A   1      35.182  32.167  28.941  1.00  0.00     0.173 A 
ATOM     68  F   UNL A   1      35.835  34.802  31.322  1.00  0.00    -0.203 F 
ATOM     69  C   UNL A   1      34.140  34.565  29.731  1.00  0.00     0.198 A 
ATOM     70  C   UNL A   1      34.045  32.702  28.298  1.00  0.00     0.198 A 
ATOM     71  F   UNL A   1      35.424  30.919  28.537  1.00  0.00    -0.203 F 
ATOM     72  F   UNL A   1      33.608  35.718  30.163  1.00  0.00    -0.200 F 
ATOM     73  C   UNL A   1      33.519  33.902  28.693  1.00  0.00     0.200 A 
ATOM     74  F   UNL A   1      33.455  32.011  27.308  1.00  0.00    -0.200 F 
ATOM     75  F   UNL A   1      32.417  34.390  28.106  1.00  0.00    -0.200 F 
ENDBRANCH  51  65
BRANCH  52  76
ATOM     76  C   UNL A   1      43.085  26.986  34.525  1.00  0.00     0.064 A 
ATOM     77  C   UNL A   1      44.309  27.670  34.377  1.00  0.00     0.173 A 
ATOM     78  C   UNL A   1      43.107  25.781  35.235  1.00  0.00     0.173 A 
ATOM     79  F   UNL A   1      44.350  28.839  33.717  1.00  0.00    -0.203 F 
ATOM     80  C   UNL A   1      45.472  27.231  35.013  1.00  0.00     0.198 A 
ATOM     81  C   UNL A   1      44.267  25.356  35.891  1.00  0.00     0.198 A 
ATOM     82  F   UNL A   1      41.970  25.103  35.441  1.00  0.00    -0.203 F 
ATOM     83  F   UNL A   1      46.590  27.971  34.958  1.00  0.00    -0.200 F 
ATOM     84  C   UNL A   1      45.438  26.093  35.801  1.00  0.00     0.200 A 
ATOM     85  F   UNL A   1      44.218  24.291  36.704  1.00  0.00    -0.200 F 
ATOM     86  F   UNL A   1      46.511  25.748  36.530  1.00  0.00    -0.200 F 
ENDBRANCH  52  76
BRANCH  64  87
ATOM     87  C   UNL A   1      40.101  33.600  34.960  1.00  0.00     0.064 A 
ATOM     88  C   UNL A   1      39.657  34.365  36.052  1.00  0.00     0.173 A 
ATOM     89  C   UNL A   1      41.057  34.254  34.134  1.00  0.00     0.173 A 
ATOM     90  F   UNL A   1      38.904  33.833  37.023  1.00  0.00    -0.203 F 
ATOM     91  C   UNL A   1      40.024  35.703  36.227  1.00  0.00     0.198 A 
ATOM     92  C   UNL A   1      41.506  35.552  34.377  1.00  0.00     0.198 A 
ATOM     93  F   UNL A   1      41.623  33.644  33.083  1.00  0.00    -0.203 F 
ATOM     94  F   UNL A   1      39.483  36.407  37.229  1.00  0.00    -0.200 F 
ATOM     95  C   UNL A   1      40.953  36.295  35.395  1.00  0.00     0.200 A 
ATOM     96  F   UNL A   1      42.488  36.071  33.625  1.00  0.00    -0.200 F 
ATOM     97  F   UNL A   1      41.325  37.566  35.586  1.00  0.00    -0.200 F 
ENDBRANCH  64  87
ENDBRANCH  38  39
ENDBRANCH  31  33
ENDBRANCH  30  31
ENDBRANCH  29  30
ENDBRANCH  28  29
ENDBRANCH  27  28
ENDBRANCH  26  27
ENDBRANCH   1  26
TORSDOF 21
ENDMDL
MODEL 3
REMARK VINA RESULT:     -13.2      2.184      3.335
REMARK SMILES CCc1cccc(C)c1Nc1ccccc1CC(=O)OCCOCCOCCOC(=O)c1ccc(-c2c3nc(c(-c4c(F)c(F)c(F)c(F)c4F)c4ccc([nH]4)c(-c4c(F)c(F)c(F)c(F)c4F)c4nc(c(-c5c(F)c(F)c(F)c(F)c5F)c5ccc2[nH]5)C=C4)C=C3)cc1
REMARK SMILES IDX 24 1 23 2 22 3 21 4 20 5 18 6 19 7 17 8 16 9 11 10 12 11
REMARK SMILES IDX 13 12 15 13 14 14 10 15 9 17 3 18 4 19 5 20 7 21 6 22 8 23
REMARK SMILES IDX 2 24 1 25 25 26 26 27 27 28 28 29 29 30 30 31 31 32 32 33
REMARK SMILES IDX 33 34 94 35 34 36 93 37 35 38 36 39 37 40 87 41 38 42 92 43
REMARK SMILES IDX 86 44 88 45 39 46 91 47 85 48 84 49 40 51 72 52 52 53 71 54
REMARK SMILES IDX 53 55 56 56 70 57 89 58 54 59 55 60 69 62 90 63 57 64 41 65
REMARK SMILES IDX 42 66 50 67 43 68 44 69 48 70 51 71 45 72 46 73 49 74 47 75
REMARK SMILES IDX 73 76 74 77 82 78 75 79 76 80 80 81 83 82 77 83 78 84 81 85
REMARK SMILES IDX 79 86 58 87 59 88 67 89 60 90 61 91 65 92 68 93 62 94 63 95
REMARK SMILES IDX 66 96 64 97
REMARK H PARENT 10 16 88 50 56 61
REMARK Flexibility Score: inf
ROOT
ATOM      1  C   UNL A   1      41.363  27.602  26.228  1.00  0.00     0.188 C 
ENDROOT
BRANCH   1   2
ATOM      2  O   UNL A   1      40.911  26.346  26.946  1.00  0.00    -0.376 OA
BRANCH   2   3
ATOM      3  C   UNL A   1      40.400  25.049  26.428  1.00  0.00     0.202 C 
BRANCH   3   4
ATOM      4  C   UNL A   1      38.963  24.180  26.982  1.00  0.00     0.261 C 
BRANCH   4   5
ATOM      5  O   UNL A   1      37.559  23.550  26.225  1.00  0.00    -0.463 OA
BRANCH   5   6
ATOM      6  C   UNL A   1      36.106  23.698  25.822  1.00  0.00     0.310 C 
ATOM      7  O   UNL A   1      35.723  24.229  24.772  1.00  0.00    -0.252 OA
BRANCH   6   8
ATOM      8  C   UNL A   1      34.950  23.003  26.735  1.00  0.00     0.160 C 
BRANCH   8   9
ATOM      9  C   UNL A   1      33.929  22.380  25.809  1.00  0.00    -0.013 A 
ATOM     10  C   UNL A   1      32.767  22.954  25.071  1.00  0.00     0.042 A 
ATOM     11  C   UNL A   1      31.972  21.734  24.586  1.00  0.00     0.026 A 
ATOM     12  C   UNL A   1      32.490  20.423  24.376  1.00  0.00     0.002 A 
ATOM     13  C   UNL A   1      34.385  21.017  25.588  1.00  0.00     0.006 A 
ATOM     14  C   UNL A   1      33.751  20.102  24.791  1.00  0.00     0.000 A 
BRANCH  10  15
ATOM     15  N   UNL A   1      32.573  24.806  24.191  1.00  0.00    -0.355 N 
ATOM     16  H   UNL A   1      31.701  24.718  23.745  1.00  0.00     0.167 HD
BRANCH  15  17
ATOM     17  C   UNL A   1      32.971  26.268  23.801  1.00  0.00     0.045 A 
ATOM     18  C   UNL A   1      33.253  27.274  24.824  1.00  0.00    -0.024 A 
ATOM     19  C   UNL A   1      33.783  28.526  24.412  1.00  0.00     0.006 A 
ATOM     20  C   UNL A   1      34.134  28.757  23.110  1.00  0.00     0.001 A 
ATOM     21  C   UNL A   1      32.977  26.703  22.488  1.00  0.00    -0.027 A 
ATOM     22  C   UNL A   1      33.781  27.809  22.174  1.00  0.00     0.005 A 
ATOM     23  C   UNL A   1      31.876  26.190  21.608  1.00  0.00     0.046 C 
BRANCH  18  24
ATOM     24  C   UNL A   1      32.834  27.366  26.292  1.00  0.00     0.034 C 
ATOM     25  C   UNL A   1      32.046  28.502  26.896  1.00  0.00     0.009 C 
ENDBRANCH  18  24
ENDBRANCH  15  17
ENDBRANCH  10  15
ENDBRANCH   8   9
ENDBRANCH   6   8
ENDBRANCH   5   6
ENDBRANCH   4   5
ENDBRANCH   3   4
ENDBRANCH   2   3
ENDBRANCH   1   2
BRANCH   1  26
ATOM     26  C   UNL A   1      42.532  27.734  25.009  1.00  0.00     0.188 C 
BRANCH  26  27
ATOM     27  O   UNL A   1      43.893  27.765  25.497  1.00  0.00    -0.376 OA
BRANCH  27  28
ATOM     28  C   UNL A   1      44.723  26.589  25.370  1.00  0.00     0.202 C 
BRANCH  28  29
ATOM     29  C   UNL A   1      44.147  25.124  25.227  1.00  0.00     0.261 C 
BRANCH  29  30
ATOM     30  O   UNL A   1      44.591  24.173  26.238  1.00  0.00    -0.460 OA
BRANCH  30  31
ATOM     31  C   UNL A   1      45.920  24.033  26.615  1.00  0.00     0.338 C 
ATOM     32  O   UNL A   1      46.827  23.670  25.890  1.00  0.00    -0.246 OA
BRANCH  31  33
ATOM     33  C   UNL A   1      46.014  24.143  28.156  1.00  0.00     0.060 A 
ATOM     34  C   UNL A   1      44.768  23.404  29.373  1.00  0.00     0.016 A 
ATOM     35  C   UNL A   1      46.500  25.851  28.421  1.00  0.00     0.016 A 
ATOM     36  C   UNL A   1      43.792  24.531  30.526  1.00  0.00     0.010 A 
ATOM     37  C   UNL A   1      45.583  26.891  29.585  1.00  0.00     0.010 A 
ATOM     38  C   UNL A   1      44.092  26.360  30.589  1.00  0.00    -0.014 A 
BRANCH  38  39
ATOM     39  C   UNL A   1      43.028  27.588  31.415  1.00  0.00     0.031 A 
ATOM     40  C   UNL A   1      41.809  28.803  30.858  1.00  0.00     0.074 A 
ATOM     41  C   UNL A   1      42.883  27.544  32.769  1.00  0.00     0.049 A 
ATOM     42  N   UNL A   1      41.573  30.031  31.349  1.00  0.00    -0.248 NA
ATOM     43  C   UNL A   1      40.771  28.730  29.759  1.00  0.00     0.031 C 
ATOM     44  C   UNL A   1      41.617  27.903  33.445  1.00  0.00     0.029 A 
ATOM     45  N   UNL A   1      43.660  27.071  33.819  1.00  0.00    -0.354 N 
ATOM     46  C   UNL A   1      40.502  30.562  30.538  1.00  0.00     0.074 A 
ATOM     47  C   UNL A   1      40.741  29.971  29.300  1.00  0.00     0.031 C 
ATOM     48  C   UNL A   1      41.698  27.628  34.749  1.00  0.00     0.029 A 
ATOM     49  C   UNL A   1      43.092  27.414  35.049  1.00  0.00     0.049 A 
ATOM     50  H   UNL A   1      44.495  26.563  33.711  1.00  0.00     0.167 HD
ATOM     51  C   UNL A   1      39.202  30.895  30.908  1.00  0.00     0.037 A 
ATOM     52  C   UNL A   1      43.692  28.012  36.110  1.00  0.00     0.037 A 
ATOM     53  C   UNL A   1      39.142  30.926  32.345  1.00  0.00     0.049 A 
ATOM     54  C   UNL A   1      43.147  29.421  36.339  1.00  0.00     0.074 A 
ATOM     55  C   UNL A   1      38.507  30.205  33.334  1.00  0.00     0.029 A 
ATOM     56  N   UNL A   1      40.133  31.654  32.957  1.00  0.00    -0.354 N 
ATOM     57  N   UNL A   1      42.159  29.923  35.638  1.00  0.00    -0.248 NA
ATOM     58  C   UNL A   1      43.661  30.407  37.287  1.00  0.00     0.031 C 
ATOM     59  C   UNL A   1      39.232  30.446  34.546  1.00  0.00     0.029 A 
ATOM     60  C   UNL A   1      40.233  31.374  34.290  1.00  0.00     0.049 A 
ATOM     61  H   UNL A   1      40.705  32.304  32.488  1.00  0.00     0.167 HD
ATOM     62  C   UNL A   1      42.041  31.263  35.858  1.00  0.00     0.074 A 
ATOM     63  C   UNL A   1      42.958  31.506  36.948  1.00  0.00     0.031 C 
ATOM     64  C   UNL A   1      41.282  32.055  35.042  1.00  0.00     0.037 A 
BRANCH  51  65
ATOM     65  C   UNL A   1      37.905  31.026  29.971  1.00  0.00     0.064 A 
ATOM     66  C   UNL A   1      37.488  32.302  29.509  1.00  0.00     0.173 A 
ATOM     67  C   UNL A   1      37.025  29.996  29.508  1.00  0.00     0.173 A 
ATOM     68  F   UNL A   1      38.153  33.407  29.872  1.00  0.00    -0.203 F 
ATOM     69  C   UNL A   1      36.369  32.508  28.660  1.00  0.00     0.198 A 
ATOM     70  C   UNL A   1      35.946  30.194  28.620  1.00  0.00     0.198 A 
ATOM     71  F   UNL A   1      37.071  28.735  29.941  1.00  0.00    -0.203 F 
ATOM     72  F   UNL A   1      36.024  33.751  28.293  1.00  0.00    -0.200 F 
ATOM     73  C   UNL A   1      35.613  31.452  28.196  1.00  0.00     0.200 A 
ATOM     74  F   UNL A   1      35.219  29.141  28.212  1.00  0.00    -0.200 F 
ATOM     75  F   UNL A   1      34.564  31.641  27.383  1.00  0.00    -0.200 F 
ENDBRANCH  51  65
BRANCH  52  76
ATOM     76  C   UNL A   1      44.960  27.378  36.529  1.00  0.00     0.064 A 
ATOM     77  C   UNL A   1      44.859  26.221  37.329  1.00  0.00     0.173 A 
ATOM     78  C   UNL A   1      46.136  27.542  35.787  1.00  0.00     0.173 A 
ATOM     79  F   UNL A   1      43.749  26.001  38.053  1.00  0.00    -0.203 F 
ATOM     80  C   UNL A   1      45.832  25.221  37.291  1.00  0.00     0.198 A 
ATOM     81  C   UNL A   1      47.097  26.528  35.732  1.00  0.00     0.198 A 
ATOM     82  F   UNL A   1      46.277  28.603  34.981  1.00  0.00    -0.203 F 
ATOM     83  F   UNL A   1      45.646  24.075  37.964  1.00  0.00    -0.200 F 
ATOM     84  C   UNL A   1      46.931  25.359  36.462  1.00  0.00     0.200 A 
ATOM     85  F   UNL A   1      48.128  26.635  34.883  1.00  0.00    -0.200 F 
ATOM     86  F   UNL A   1      47.793  24.342  36.311  1.00  0.00    -0.200 F 
ENDBRANCH  52  76
BRANCH  64  87
ATOM     87  C   UNL A   1      41.518  33.548  34.818  1.00  0.00     0.064 A 
ATOM     88  C   UNL A   1      40.753  34.548  35.442  1.00  0.00     0.173 A 
ATOM     89  C   UNL A   1      42.651  34.032  34.107  1.00  0.00     0.173 A 
ATOM     90  F   UNL A   1      39.769  34.248  36.299  1.00  0.00    -0.203 F 
ATOM     91  C   UNL A   1      41.009  35.910  35.258  1.00  0.00     0.198 A 
ATOM     92  C   UNL A   1      42.967  35.389  34.019  1.00  0.00     0.198 A 
ATOM     93  F   UNL A   1      43.517  33.206  33.502  1.00  0.00    -0.203 F 
ATOM     94  F   UNL A   1      40.178  36.813  35.793  1.00  0.00    -0.200 F 
ATOM     95  C   UNL A   1      42.119  36.331  34.554  1.00  0.00     0.200 A 
ATOM     96  F   UNL A   1      44.107  35.771  33.425  1.00  0.00    -0.200 F 
ATOM     97  F   UNL A   1      42.377  37.636  34.408  1.00  0.00    -0.200 F 
ENDBRANCH  64  87
ENDBRANCH  38  39
ENDBRANCH  31  33
ENDBRANCH  30  31
ENDBRANCH  29  30
ENDBRANCH  28  29
ENDBRANCH  27  28
ENDBRANCH  26  27
ENDBRANCH   1  26
TORSDOF 21
ENDMDL
