MODEL 1
REMARK VINA RESULT:     -11.1      0.000      0.000
REMARK SMILES Nc1ccccc1C(=O)NCc1ccc(C(=O)OCCOCCOCCOC(=O)c2ccc(-c3c4nc(c(-c5c(F)c(F)c(F)c(F)c5F)c5ccc([nH]5)c(-c5c(F)c(F)c(F)c(F)c5F)c5nc(c(-c6c(F)c(F)c(F)c(F)c6F)c6ccc3[nH]6)C=C5)C=C4)cc2)o1
REMARK SMILES IDX 22 1 21 2 20 3 19 4 18 5 16 6 17 7 15 8 12 9 13 10 93 11
REMARK SMILES IDX 14 12 11 13 10 14 8 15 9 16 7 18 2 19 3 20 4 21 6 22 5 23
REMARK SMILES IDX 1 24 23 27 24 28 25 29 26 30 27 31 28 32 29 33 30 34 31 35
REMARK SMILES IDX 92 36 32 37 91 38 33 39 34 40 35 41 85 42 36 43 90 44 84 45
REMARK SMILES IDX 86 46 37 47 89 48 83 49 82 50 38 52 70 53 50 54 69 55 51 56
REMARK SMILES IDX 54 57 68 58 87 59 52 60 53 61 67 63 88 64 55 65 39 66 40 67
REMARK SMILES IDX 48 68 41 69 42 70 46 71 49 72 43 73 44 74 47 75 45 76 71 77
REMARK SMILES IDX 72 78 80 79 73 80 74 81 78 82 81 83 75 84 76 85 79 86 77 87
REMARK SMILES IDX 56 88 57 89 65 90 58 91 59 92 63 93 66 94 60 95 61 96 64 97
REMARK SMILES IDX 62 98
REMARK H PARENT 10 17 1 25 1 26 86 51 54 62
REMARK Flexibility Score: inf
ROOT
ATOM      1  C   UNL A   1      34.802  24.615  24.715  1.00  0.00     0.188 C 
ENDROOT
BRANCH   1   2
ATOM      2  O   UNL A   1      34.365  25.968  24.645  1.00  0.00    -0.376 OA
BRANCH   2   3
ATOM      3  C   UNL A   1      33.935  26.613  25.844  1.00  0.00     0.202 C 
BRANCH   3   4
ATOM      4  C   UNL A   1      32.866  27.697  25.688  1.00  0.00     0.261 C 
BRANCH   4   5
ATOM      5  O   UNL A   1      31.550  27.162  25.912  1.00  0.00    -0.457 OA
BRANCH   5   6
ATOM      6  C   UNL A   1      30.798  26.995  24.785  1.00  0.00     0.374 C 
ATOM      7  O   UNL A   1      30.266  27.906  24.162  1.00  0.00    -0.242 OA
BRANCH   6   8
ATOM      8  C   UNL A   1      30.887  25.624  24.349  1.00  0.00     0.211 A 
ATOM      9  C   UNL A   1      30.969  23.455  24.762  1.00  0.00     0.124 A 
ATOM     10  C   UNL A   1      30.777  23.582  23.401  1.00  0.00     0.048 A 
ATOM     11  O   UNL A   1      31.084  24.689  25.323  1.00  0.00    -0.452 OA
ATOM     12  C   UNL A   1      30.708  24.979  23.138  1.00  0.00     0.058 A 
BRANCH   9  13
ATOM     13  C   UNL A   1      30.964  22.340  25.738  1.00  0.00     0.191 C 
BRANCH  13  14
ATOM     14  N   UNL A   1      32.271  22.100  26.301  1.00  0.00    -0.345 N 
ATOM     15  C   UNL A   1      33.172  21.122  25.957  1.00  0.00     0.253 C 
ATOM     16  O   UNL A   1      34.266  21.085  26.518  1.00  0.00    -0.269 OA
ATOM     17  H   UNL A   1      32.550  22.710  27.021  1.00  0.00     0.164 HD
BRANCH  15  18
ATOM     18  C   UNL A   1      32.821  20.061  24.979  1.00  0.00     0.062 A 
ATOM     19  C   UNL A   1      32.661  18.699  25.303  1.00  0.00     0.044 A 
ATOM     20  C   UNL A   1      32.462  17.793  24.250  1.00  0.00     0.026 A 
ATOM     21  C   UNL A   1      32.291  18.235  22.934  1.00  0.00     0.002 A 
ATOM     22  C   UNL A   1      32.612  20.505  23.661  1.00  0.00     0.016 A 
ATOM     23  C   UNL A   1      32.339  19.594  22.643  1.00  0.00     0.001 A 
BRANCH  19  24
ATOM     24  N   UNL A   1      32.826  18.188  26.592  1.00  0.00    -0.398 N 
ATOM     25  H   UNL A   1      32.958  17.222  26.726  1.00  0.00     0.156 HD
ATOM     26  H   UNL A   1      32.809  18.794  27.369  1.00  0.00     0.156 HD
ENDBRANCH  19  24
ENDBRANCH  15  18
ENDBRANCH  13  14
ENDBRANCH   9  13
ENDBRANCH   6   8
ENDBRANCH   5   6
ENDBRANCH   4   5
ENDBRANCH   3   4
ENDBRANCH   2   3
ENDBRANCH   1   2
BRANCH   1  27
ATOM     27  C   UNL A   1      34.550  23.690  23.510  1.00  0.00     0.188 C 
BRANCH  27  28
ATOM     28  O   UNL A   1      35.345  22.514  23.481  1.00  0.00    -0.376 OA
BRANCH  28  29
ATOM     29  C   UNL A   1      36.736  22.708  23.716  1.00  0.00     0.202 C 
BRANCH  29  30
ATOM     30  C   UNL A   1      37.399  21.514  24.412  1.00  0.00     0.261 C 
BRANCH  30  31
ATOM     31  O   UNL A   1      37.734  21.757  25.789  1.00  0.00    -0.460 OA
BRANCH  31  32
ATOM     32  C   UNL A   1      39.037  21.619  26.112  1.00  0.00     0.338 C 
ATOM     33  O   UNL A   1      39.787  20.711  25.803  1.00  0.00    -0.246 OA
BRANCH  32  34
ATOM     34  C   UNL A   1      39.478  22.842  26.802  1.00  0.00     0.060 A 
ATOM     35  C   UNL A   1      38.799  24.036  26.537  1.00  0.00     0.016 A 
ATOM     36  C   UNL A   1      40.588  22.822  27.652  1.00  0.00     0.016 A 
ATOM     37  C   UNL A   1      39.263  25.229  27.086  1.00  0.00     0.010 A 
ATOM     38  C   UNL A   1      41.060  24.021  28.190  1.00  0.00     0.010 A 
ATOM     39  C   UNL A   1      40.422  25.233  27.875  1.00  0.00    -0.014 A 
BRANCH  39  40
ATOM     40  C   UNL A   1      41.069  26.522  28.204  1.00  0.00     0.031 A 
ATOM     41  C   UNL A   1      42.501  26.729  27.794  1.00  0.00     0.074 A 
ATOM     42  C   UNL A   1      40.395  27.500  28.829  1.00  0.00     0.049 A 
ATOM     43  N   UNL A   1      43.258  27.788  27.923  1.00  0.00    -0.248 NA
ATOM     44  C   UNL A   1      43.169  25.586  27.151  1.00  0.00     0.031 C 
ATOM     45  C   UNL A   1      39.006  27.422  29.276  1.00  0.00     0.029 A 
ATOM     46  N   UNL A   1      40.800  28.759  29.199  1.00  0.00    -0.354 N 
ATOM     47  C   UNL A   1      44.481  27.445  27.363  1.00  0.00     0.074 A 
ATOM     48  C   UNL A   1      44.381  26.070  26.928  1.00  0.00     0.031 C 
ATOM     49  C   UNL A   1      38.677  28.581  29.873  1.00  0.00     0.029 A 
ATOM     50  C   UNL A   1      39.831  29.478  29.851  1.00  0.00     0.049 A 
ATOM     51  H   UNL A   1      41.700  29.110  29.013  1.00  0.00     0.167 HD
ATOM     52  C   UNL A   1      45.586  28.212  27.213  1.00  0.00     0.037 A 
ATOM     53  C   UNL A   1      39.880  30.719  30.372  1.00  0.00     0.037 A 
ATOM     54  C   UNL A   1      45.700  29.572  27.662  1.00  0.00     0.049 A 
ATOM     55  C   UNL A   1      41.136  31.538  30.230  1.00  0.00     0.074 A 
ATOM     56  C   UNL A   1      46.777  30.434  27.550  1.00  0.00     0.029 A 
ATOM     57  N   UNL A   1      44.698  30.266  28.322  1.00  0.00    -0.354 N 
ATOM     58  N   UNL A   1      42.268  31.226  29.647  1.00  0.00    -0.248 NA
ATOM     59  C   UNL A   1      41.114  32.890  30.808  1.00  0.00     0.031 C 
ATOM     60  C   UNL A   1      46.437  31.640  28.170  1.00  0.00     0.029 A 
ATOM     61  C   UNL A   1      45.136  31.541  28.637  1.00  0.00     0.049 A 
ATOM     62  H   UNL A   1      43.807  29.905  28.535  1.00  0.00     0.167 HD
ATOM     63  C   UNL A   1      43.079  32.348  29.761  1.00  0.00     0.074 A 
ATOM     64  C   UNL A   1      42.308  33.352  30.464  1.00  0.00     0.031 C 
ATOM     65  C   UNL A   1      44.348  32.532  29.322  1.00  0.00     0.037 A 
BRANCH  52  66
ATOM     66  C   UNL A   1      46.764  27.583  26.537  1.00  0.00     0.064 A 
ATOM     67  C   UNL A   1      46.905  27.614  25.142  1.00  0.00     0.173 A 
ATOM     68  C   UNL A   1      47.768  26.955  27.289  1.00  0.00     0.173 A 
ATOM     69  F   UNL A   1      45.961  28.186  24.381  1.00  0.00    -0.203 F 
ATOM     70  C   UNL A   1      48.000  27.020  24.521  1.00  0.00     0.198 A 
ATOM     71  C   UNL A   1      48.871  26.380  26.666  1.00  0.00     0.198 A 
ATOM     72  F   UNL A   1      47.675  26.898  28.626  1.00  0.00    -0.203 F 
ATOM     73  F   UNL A   1      48.096  27.027  23.185  1.00  0.00    -0.200 F 
ATOM     74  C   UNL A   1      48.984  26.408  25.284  1.00  0.00     0.200 A 
ATOM     75  F   UNL A   1      49.824  25.791  27.403  1.00  0.00    -0.200 F 
ATOM     76  F   UNL A   1      50.038  25.836  24.685  1.00  0.00    -0.200 F 
ENDBRANCH  52  66
BRANCH  53  77
ATOM     77  C   UNL A   1      38.692  31.279  31.061  1.00  0.00     0.064 A 
ATOM     78  C   UNL A   1      37.726  32.006  30.353  1.00  0.00     0.173 A 
ATOM     79  C   UNL A   1      38.512  31.117  32.441  1.00  0.00     0.173 A 
ATOM     80  F   UNL A   1      37.870  32.202  29.034  1.00  0.00    -0.203 F 
ATOM     81  C   UNL A   1      36.632  32.569  31.005  1.00  0.00     0.198 A 
ATOM     82  C   UNL A   1      37.406  31.664  33.089  1.00  0.00     0.198 A 
ATOM     83  F   UNL A   1      39.411  30.430  33.159  1.00  0.00    -0.203 F 
ATOM     84  F   UNL A   1      35.743  33.295  30.313  1.00  0.00    -0.200 F 
ATOM     85  C   UNL A   1      36.471  32.395  32.372  1.00  0.00     0.200 A 
ATOM     86  F   UNL A   1      37.251  31.489  34.408  1.00  0.00    -0.200 F 
ATOM     87  F   UNL A   1      35.420  32.941  33.000  1.00  0.00    -0.200 F 
ENDBRANCH  53  77
BRANCH  65  88
ATOM     88  C   UNL A   1      44.969  33.877  29.550  1.00  0.00     0.064 A 
ATOM     89  C   UNL A   1      45.765  34.137  30.674  1.00  0.00     0.173 A 
ATOM     90  C   UNL A   1      44.800  34.904  28.610  1.00  0.00     0.173 A 
ATOM     91  F   UNL A   1      45.945  33.190  31.608  1.00  0.00    -0.203 F 
ATOM     92  C   UNL A   1      46.354  35.385  30.859  1.00  0.00     0.198 A 
ATOM     93  C   UNL A   1      45.408  36.143  28.787  1.00  0.00     0.198 A 
ATOM     94  F   UNL A   1      44.051  34.702  27.515  1.00  0.00    -0.203 F 
ATOM     95  F   UNL A   1      47.081  35.625  31.959  1.00  0.00    -0.200 F 
ATOM     96  C   UNL A   1      46.180  36.385  29.913  1.00  0.00     0.200 A 
ATOM     97  F   UNL A   1      45.246  37.105  27.867  1.00  0.00    -0.200 F 
ATOM     98  F   UNL A   1      46.752  37.584  30.090  1.00  0.00    -0.200 F 
ENDBRANCH  65  88
ENDBRANCH  39  40
ENDBRANCH  32  34
ENDBRANCH  31  32
ENDBRANCH  30  31
ENDBRANCH  29  30
ENDBRANCH  28  29
ENDBRANCH  27  28
ENDBRANCH   1  27
TORSDOF 21
ENDMDL
MODEL 2
REMARK VINA RESULT:     -10.9      0.557      7.237
REMARK SMILES Nc1ccccc1C(=O)NCc1ccc(C(=O)OCCOCCOCCOC(=O)c2ccc(-c3c4nc(c(-c5c(F)c(F)c(F)c(F)c5F)c5ccc([nH]5)c(-c5c(F)c(F)c(F)c(F)c5F)c5nc(c(-c6c(F)c(F)c(F)c(F)c6F)c6ccc3[nH]6)C=C5)C=C4)cc2)o1
REMARK SMILES IDX 22 1 21 2 20 3 19 4 18 5 16 6 17 7 15 8 12 9 13 10 93 11
REMARK SMILES IDX 14 12 11 13 10 14 8 15 9 16 7 18 2 19 3 20 4 21 6 22 5 23
REMARK SMILES IDX 1 24 23 27 24 28 25 29 26 30 27 31 28 32 29 33 30 34 31 35
REMARK SMILES IDX 92 36 32 37 91 38 33 39 34 40 35 41 85 42 36 43 90 44 84 45
REMARK SMILES IDX 86 46 37 47 89 48 83 49 82 50 38 52 70 53 50 54 69 55 51 56
REMARK SMILES IDX 54 57 68 58 87 59 52 60 53 61 67 63 88 64 55 65 39 66 40 67
REMARK SMILES IDX 48 68 41 69 42 70 46 71 49 72 43 73 44 74 47 75 45 76 71 77
REMARK SMILES IDX 72 78 80 79 73 80 74 81 78 82 81 83 75 84 76 85 79 86 77 87
REMARK SMILES IDX 56 88 57 89 65 90 58 91 59 92 63 93 66 94 60 95 61 96 64 97
REMARK SMILES IDX 62 98
REMARK H PARENT 10 17 1 25 1 26 86 51 54 62
REMARK Flexibility Score: inf
ROOT
ATOM      1  C   UNL A   1      34.626  24.954  24.669  1.00  0.00     0.188 C 
ENDROOT
BRANCH   1   2
ATOM      2  O   UNL A   1      34.072  26.265  24.659  1.00  0.00    -0.376 OA
BRANCH   2   3
ATOM      3  C   UNL A   1      33.559  26.802  25.877  1.00  0.00     0.202 C 
BRANCH   3   4
ATOM      4  C   UNL A   1      32.409  27.805  25.748  1.00  0.00     0.261 C 
BRANCH   4   5
ATOM      5  O   UNL A   1      31.136  27.156  25.909  1.00  0.00    -0.457 OA
BRANCH   5   6
ATOM      6  C   UNL A   1      30.462  26.918  24.745  1.00  0.00     0.374 C 
ATOM      7  O   UNL A   1      29.905  27.779  24.076  1.00  0.00    -0.242 OA
BRANCH   6   8
ATOM      8  C   UNL A   1      30.670  25.550  24.342  1.00  0.00     0.211 A 
ATOM      9  C   UNL A   1      30.890  23.400  24.803  1.00  0.00     0.124 A 
ATOM     10  C   UNL A   1      30.752  23.489  23.433  1.00  0.00     0.048 A 
ATOM     11  O   UNL A   1      30.889  24.649  25.343  1.00  0.00    -0.452 OA
ATOM     12  C   UNL A   1      30.594  24.872  23.138  1.00  0.00     0.058 A 
BRANCH   9  13
ATOM     13  C   UNL A   1      30.919  22.304  25.800  1.00  0.00     0.191 C 
BRANCH  13  14
ATOM     14  N   UNL A   1      32.242  22.089  26.337  1.00  0.00    -0.345 N 
ATOM     15  C   UNL A   1      33.162  21.139  25.960  1.00  0.00     0.253 C 
ATOM     16  O   UNL A   1      34.266  21.122  26.501  1.00  0.00    -0.269 OA
ATOM     17  H   UNL A   1      32.519  22.695  27.060  1.00  0.00     0.164 HD
BRANCH  15  18
ATOM     18  C   UNL A   1      32.819  20.086  24.972  1.00  0.00     0.062 A 
ATOM     19  C   UNL A   1      32.661  18.721  25.285  1.00  0.00     0.044 A 
ATOM     20  C   UNL A   1      32.470  17.822  24.223  1.00  0.00     0.026 A 
ATOM     21  C   UNL A   1      32.306  18.274  22.910  1.00  0.00     0.002 A 
ATOM     22  C   UNL A   1      32.617  20.539  23.657  1.00  0.00     0.016 A 
ATOM     23  C   UNL A   1      32.353  19.635  22.630  1.00  0.00     0.001 A 
BRANCH  19  24
ATOM     24  N   UNL A   1      32.819  18.199  26.571  1.00  0.00    -0.398 N 
ATOM     25  H   UNL A   1      33.254  17.326  26.698  1.00  0.00     0.156 HD
ATOM     26  H   UNL A   1      32.493  18.706  27.351  1.00  0.00     0.156 HD
ENDBRANCH  19  24
ENDBRANCH  15  18
ENDBRANCH  13  14
ENDBRANCH   9  13
ENDBRANCH   6   8
ENDBRANCH   5   6
ENDBRANCH   4   5
ENDBRANCH   3   4
ENDBRANCH   2   3
ENDBRANCH   1   2
BRANCH   1  27
ATOM     27  C   UNL A   1      34.294  23.998  23.507  1.00  0.00     0.188 C 
BRANCH  27  28
ATOM     28  O   UNL A   1      35.131  22.855  23.413  1.00  0.00    -0.376 OA
BRANCH  28  29
ATOM     29  C   UNL A   1      36.460  23.027  23.896  1.00  0.00     0.202 C 
BRANCH  29  30
ATOM     30  C   UNL A   1      37.092  21.723  24.394  1.00  0.00     0.261 C 
BRANCH  30  31
ATOM     31  O   UNL A   1      37.478  21.756  25.779  1.00  0.00    -0.460 OA
BRANCH  31  32
ATOM     32  C   UNL A   1      38.782  21.520  26.033  1.00  0.00     0.338 C 
ATOM     33  O   UNL A   1      39.433  20.538  25.726  1.00  0.00    -0.246 OA
BRANCH  32  34
ATOM     34  C   UNL A   1      39.365  22.730  26.636  1.00  0.00     0.060 A 
ATOM     35  C   UNL A   1      38.762  23.963  26.366  1.00  0.00     0.016 A 
ATOM     36  C   UNL A   1      40.528  22.653  27.407  1.00  0.00     0.016 A 
ATOM     37  C   UNL A   1      39.356  25.136  26.828  1.00  0.00     0.010 A 
ATOM     38  C   UNL A   1      41.129  23.830  27.858  1.00  0.00     0.010 A 
ATOM     39  C   UNL A   1      40.565  25.076  27.535  1.00  0.00    -0.014 A 
BRANCH  39  40
ATOM     40  C   UNL A   1      41.332  26.321  27.760  1.00  0.00     0.031 A 
ATOM     41  C   UNL A   1      40.663  27.452  28.491  1.00  0.00     0.074 A 
ATOM     42  C   UNL A   1      42.606  26.438  27.351  1.00  0.00     0.049 A 
ATOM     43  N   UNL A   1      41.148  28.612  28.852  1.00  0.00    -0.248 NA
ATOM     44  C   UNL A   1      39.254  27.246  28.864  1.00  0.00     0.031 C 
ATOM     45  C   UNL A   1      43.364  25.416  26.635  1.00  0.00     0.029 A 
ATOM     46  N   UNL A   1      43.485  27.484  27.480  1.00  0.00    -0.354 N 
ATOM     47  C   UNL A   1      40.113  29.264  29.507  1.00  0.00     0.074 A 
ATOM     48  C   UNL A   1      38.962  28.390  29.463  1.00  0.00     0.031 C 
ATOM     49  C   UNL A   1      44.596  25.890  26.377  1.00  0.00     0.029 A 
ATOM     50  C   UNL A   1      44.708  27.249  26.906  1.00  0.00     0.049 A 
ATOM     51  H   UNL A   1      43.258  28.324  27.941  1.00  0.00     0.167 HD
ATOM     52  C   UNL A   1      40.124  30.478  30.106  1.00  0.00     0.037 A 
ATOM     53  C   UNL A   1      45.790  28.045  26.819  1.00  0.00     0.037 A 
ATOM     54  C   UNL A   1      41.258  31.360  30.136  1.00  0.00     0.049 A 
ATOM     55  C   UNL A   1      45.763  29.410  27.456  1.00  0.00     0.074 A 
ATOM     56  C   UNL A   1      41.368  32.609  30.723  1.00  0.00     0.029 A 
ATOM     57  N   UNL A   1      42.479  31.088  29.540  1.00  0.00    -0.354 N 
ATOM     58  N   UNL A   1      44.800  29.995  28.126  1.00  0.00    -0.248 NA
ATOM     59  C   UNL A   1      46.985  30.221  27.336  1.00  0.00     0.031 C 
ATOM     60  C   UNL A   1      42.648  33.105  30.455  1.00  0.00     0.029 A 
ATOM     61  C   UNL A   1      43.345  32.151  29.732  1.00  0.00     0.049 A 
ATOM     62  H   UNL A   1      42.697  30.261  29.052  1.00  0.00     0.167 HD
ATOM     63  C   UNL A   1      45.305  31.224  28.530  1.00  0.00     0.074 A 
ATOM     64  C   UNL A   1      46.664  31.299  28.037  1.00  0.00     0.031 C 
ATOM     65  C   UNL A   1      44.700  32.201  29.247  1.00  0.00     0.037 A 
BRANCH  52  66
ATOM     66  C   UNL A   1      38.858  30.919  30.772  1.00  0.00     0.064 A 
ATOM     67  C   UNL A   1      38.698  30.830  32.162  1.00  0.00     0.173 A 
ATOM     68  C   UNL A   1      37.801  31.449  30.017  1.00  0.00     0.173 A 
ATOM     69  F   UNL A   1      39.674  30.312  32.922  1.00  0.00    -0.203 F 
ATOM     70  C   UNL A   1      37.515  31.236  32.772  1.00  0.00     0.198 A 
ATOM     71  C   UNL A   1      36.628  31.873  30.633  1.00  0.00     0.198 A 
ATOM     72  F   UNL A   1      37.908  31.552  28.684  1.00  0.00    -0.203 F 
ATOM     73  F   UNL A   1      37.367  31.106  34.098  1.00  0.00    -0.200 F 
ATOM     74  C   UNL A   1      36.483  31.762  32.008  1.00  0.00     0.200 A 
ATOM     75  F   UNL A   1      35.632  32.384  29.895  1.00  0.00    -0.200 F 
ATOM     76  F   UNL A   1      35.343  32.152  32.597  1.00  0.00    -0.200 F 
ENDBRANCH  52  66
BRANCH  53  77
ATOM     77  C   UNL A   1      47.006  27.567  26.118  1.00  0.00     0.064 A 
ATOM     78  C   UNL A   1      48.081  27.022  26.831  1.00  0.00     0.173 A 
ATOM     79  C   UNL A   1      47.126  27.669  24.725  1.00  0.00     0.173 A 
ATOM     80  F   UNL A   1      48.016  26.925  28.167  1.00  0.00    -0.203 F 
ATOM     81  C   UNL A   1      49.241  26.612  26.179  1.00  0.00     0.198 A 
ATOM     82  C   UNL A   1      48.279  27.239  24.071  1.00  0.00     0.198 A 
ATOM     83  F   UNL A   1      46.123  28.185  24.001  1.00  0.00    -0.203 F 
ATOM     84  F   UNL A   1      50.271  26.130  26.888  1.00  0.00    -0.200 F 
ATOM     85  C   UNL A   1      49.338  26.718  24.799  1.00  0.00     0.200 A 
ATOM     86  F   UNL A   1      48.367  27.338  22.738  1.00  0.00    -0.200 F 
ATOM     87  F   UNL A   1      50.456  26.327  24.172  1.00  0.00    -0.200 F 
ENDBRANCH  53  77
BRANCH  65  88
ATOM     88  C   UNL A   1      45.511  33.417  29.579  1.00  0.00     0.064 A 
ATOM     89  C   UNL A   1      46.265  33.497  30.757  1.00  0.00     0.173 A 
ATOM     90  C   UNL A   1      45.569  34.496  28.684  1.00  0.00     0.173 A 
ATOM     91  F   UNL A   1      46.232  32.497  31.650  1.00  0.00    -0.203 F 
ATOM     92  C   UNL A   1      47.033  34.625  31.039  1.00  0.00     0.198 A 
ATOM     93  C   UNL A   1      46.354  35.612  28.957  1.00  0.00     0.198 A 
ATOM     94  F   UNL A   1      44.869  34.463  27.539  1.00  0.00    -0.203 F 
ATOM     95  F   UNL A   1      47.717  34.698  32.189  1.00  0.00    -0.200 F 
ATOM     96  C   UNL A   1      47.081  35.678  30.136  1.00  0.00     0.200 A 
ATOM     97  F   UNL A   1      46.407  36.624  28.080  1.00  0.00    -0.200 F 
ATOM     98  F   UNL A   1      47.824  36.760  30.406  1.00  0.00    -0.200 F 
ENDBRANCH  65  88
ENDBRANCH  39  40
ENDBRANCH  32  34
ENDBRANCH  31  32
ENDBRANCH  30  31
ENDBRANCH  29  30
ENDBRANCH  28  29
ENDBRANCH  27  28
ENDBRANCH   1  27
TORSDOF 21
ENDMDL
MODEL 3
REMARK VINA RESULT:     -10.8      4.006      9.314
REMARK SMILES Nc1ccccc1C(=O)NCc1ccc(C(=O)OCCOCCOCCOC(=O)c2ccc(-c3c4nc(c(-c5c(F)c(F)c(F)c(F)c5F)c5ccc([nH]5)c(-c5c(F)c(F)c(F)c(F)c5F)c5nc(c(-c6c(F)c(F)c(F)c(F)c6F)c6ccc3[nH]6)C=C5)C=C4)cc2)o1
REMARK SMILES IDX 22 1 21 2 20 3 19 4 18 5 16 6 17 7 15 8 12 9 13 10 93 11
REMARK SMILES IDX 14 12 11 13 10 14 8 15 9 16 7 18 2 19 3 20 4 21 6 22 5 23
REMARK SMILES IDX 1 24 23 27 24 28 25 29 26 30 27 31 28 32 29 33 30 34 31 35
REMARK SMILES IDX 92 36 32 37 91 38 33 39 34 40 35 41 85 42 36 43 90 44 84 45
REMARK SMILES IDX 86 46 37 47 89 48 83 49 82 50 38 52 70 53 50 54 69 55 51 56
REMARK SMILES IDX 54 57 68 58 87 59 52 60 53 61 67 63 88 64 55 65 39 66 40 67
REMARK SMILES IDX 48 68 41 69 42 70 46 71 49 72 43 73 44 74 47 75 45 76 71 77
REMARK SMILES IDX 72 78 80 79 73 80 74 81 78 82 81 83 75 84 76 85 79 86 77 87
REMARK SMILES IDX 56 88 57 89 65 90 58 91 59 92 63 93 66 94 60 95 61 96 64 97
REMARK SMILES IDX 62 98
REMARK H PARENT 10 17 1 25 1 26 86 51 54 62
REMARK Flexibility Score: inf
ROOT
ATOM      1  C   UNL A   1      31.527  27.864  22.753  1.00  0.00     0.188 C 
ENDROOT
BRANCH   1   2
ATOM      2  O   UNL A   1      31.919  26.500  22.855  1.00  0.00    -0.376 OA
BRANCH   2   3
ATOM      3  C   UNL A   1      31.073  25.593  23.561  1.00  0.00     0.202 C 
BRANCH   3   4
ATOM      4  C   UNL A   1      31.720  24.802  24.700  1.00  0.00     0.261 C 
BRANCH   4   5
ATOM      5  O   UNL A   1      30.869  23.728  25.134  1.00  0.00    -0.457 OA
BRANCH   5   6
ATOM      6  C   UNL A   1      30.868  23.504  26.481  1.00  0.00     0.374 C 
ATOM      7  O   UNL A   1      29.922  23.733  27.224  1.00  0.00    -0.242 OA
BRANCH   6   8
ATOM      8  C   UNL A   1      32.068  22.794  26.849  1.00  0.00     0.211 A 
ATOM      9  C   UNL A   1      33.820  21.546  26.344  1.00  0.00     0.124 A 
ATOM     10  C   UNL A   1      34.021  21.989  27.635  1.00  0.00     0.048 A 
ATOM     11  O   UNL A   1      32.618  21.994  25.891  1.00  0.00    -0.452 OA
ATOM     12  C   UNL A   1      32.900  22.806  27.954  1.00  0.00     0.058 A 
BRANCH   9  13
ATOM     13  C   UNL A   1      34.624  20.824  25.330  1.00  0.00     0.191 C 
BRANCH  13  14
ATOM     14  N   UNL A   1      34.850  21.618  24.146  1.00  0.00    -0.345 N 
ATOM     15  C   UNL A   1      35.962  22.360  23.826  1.00  0.00     0.253 C 
ATOM     16  O   UNL A   1      36.003  22.950  22.748  1.00  0.00    -0.269 OA
ATOM     17  H   UNL A   1      34.119  21.630  23.487  1.00  0.00     0.164 HD
BRANCH  15  18
ATOM     18  C   UNL A   1      37.077  22.529  24.791  1.00  0.00     0.062 A 
ATOM     19  C   UNL A   1      37.987  21.512  25.143  1.00  0.00     0.044 A 
ATOM     20  C   UNL A   1      38.906  21.781  26.170  1.00  0.00     0.026 A 
ATOM     21  C   UNL A   1      39.011  23.056  26.736  1.00  0.00     0.002 A 
ATOM     22  C   UNL A   1      37.210  23.818  25.336  1.00  0.00     0.016 A 
ATOM     23  C   UNL A   1      38.181  24.082  26.300  1.00  0.00     0.001 A 
BRANCH  19  24
ATOM     24  N   UNL A   1      37.936  20.217  24.625  1.00  0.00    -0.398 N 
ATOM     25  H   UNL A   1      37.473  20.044  23.774  1.00  0.00     0.156 HD
ATOM     26  H   UNL A   1      38.363  19.474  25.112  1.00  0.00     0.156 HD
ENDBRANCH  19  24
ENDBRANCH  15  18
ENDBRANCH  13  14
ENDBRANCH   9  13
ENDBRANCH   6   8
ENDBRANCH   5   6
ENDBRANCH   4   5
ENDBRANCH   3   4
ENDBRANCH   2   3
ENDBRANCH   1   2
BRANCH   1  27
ATOM     27  C   UNL A   1      31.907  28.833  23.889  1.00  0.00     0.188 C 
BRANCH  27  28
ATOM     28  O   UNL A   1      30.845  29.651  24.358  1.00  0.00    -0.376 OA
BRANCH  28  29
ATOM     29  C   UNL A   1      31.168  30.511  25.446  1.00  0.00     0.202 C 
BRANCH  29  30
ATOM     30  C   UNL A   1      32.617  30.358  25.921  1.00  0.00     0.261 C 
BRANCH  30  31
ATOM     31  O   UNL A   1      32.806  30.657  27.316  1.00  0.00    -0.460 OA
BRANCH  31  32
ATOM     32  C   UNL A   1      33.603  31.711  27.589  1.00  0.00     0.338 C 
ATOM     33  O   UNL A   1      33.287  32.885  27.653  1.00  0.00    -0.246 OA
BRANCH  32  34
ATOM     34  C   UNL A   1      34.937  31.204  27.951  1.00  0.00     0.060 A 
ATOM     35  C   UNL A   1      35.074  29.842  28.240  1.00  0.00     0.016 A 
ATOM     36  C   UNL A   1      36.024  32.075  28.065  1.00  0.00     0.016 A 
ATOM     37  C   UNL A   1      36.297  29.355  28.696  1.00  0.00     0.010 A 
ATOM     38  C   UNL A   1      37.246  31.587  28.535  1.00  0.00     0.010 A 
ATOM     39  C   UNL A   1      37.373  30.233  28.889  1.00  0.00    -0.014 A 
BRANCH  39  40
ATOM     40  C   UNL A   1      38.558  29.770  29.643  1.00  0.00     0.031 A 
ATOM     41  C   UNL A   1      38.790  30.321  31.023  1.00  0.00     0.074 A 
ATOM     42  C   UNL A   1      39.398  28.857  29.128  1.00  0.00     0.049 A 
ATOM     43  N   UNL A   1      39.722  30.025  31.891  1.00  0.00    -0.248 NA
ATOM     44  C   UNL A   1      37.838  31.345  31.486  1.00  0.00     0.031 C 
ATOM     45  C   UNL A   1      39.282  28.249  27.806  1.00  0.00     0.029 A 
ATOM     46  N   UNL A   1      40.525  28.288  29.666  1.00  0.00    -0.354 N 
ATOM     47  C   UNL A   1      39.461  30.811  33.005  1.00  0.00     0.074 A 
ATOM     48  C   UNL A   1      38.307  31.624  32.692  1.00  0.00     0.031 C 
ATOM     49  C   UNL A   1      40.307  27.396  27.629  1.00  0.00     0.029 A 
ATOM     50  C   UNL A   1      41.150  27.405  28.824  1.00  0.00     0.049 A 
ATOM     51  H   UNL A   1      40.854  28.496  30.571  1.00  0.00     0.167 HD
ATOM     52  C   UNL A   1      40.116  30.844  34.189  1.00  0.00     0.037 A 
ATOM     53  C   UNL A   1      42.276  26.688  29.003  1.00  0.00     0.037 A 
ATOM     54  C   UNL A   1      41.276  30.054  34.498  1.00  0.00     0.049 A 
ATOM     55  C   UNL A   1      43.013  26.774  30.314  1.00  0.00     0.074 A 
ATOM     56  C   UNL A   1      42.007  30.013  35.673  1.00  0.00     0.029 A 
ATOM     57  N   UNL A   1      41.882  29.173  33.618  1.00  0.00    -0.354 N 
ATOM     58  N   UNL A   1      42.724  27.475  31.384  1.00  0.00    -0.248 NA
ATOM     59  C   UNL A   1      44.226  25.953  30.447  1.00  0.00     0.031 C 
ATOM     60  C   UNL A   1      43.074  29.127  35.492  1.00  0.00     0.029 A 
ATOM     61  C   UNL A   1      42.987  28.592  34.217  1.00  0.00     0.049 A 
ATOM     62  H   UNL A   1      41.573  28.987  32.702  1.00  0.00     0.167 HD
ATOM     63  C   UNL A   1      43.699  27.160  32.322  1.00  0.00     0.074 A 
ATOM     64  C   UNL A   1      44.584  26.199  31.699  1.00  0.00     0.031 C 
ATOM     65  C   UNL A   1      43.846  27.624  33.587  1.00  0.00     0.037 A 
BRANCH  52  66
ATOM     66  C   UNL A   1      39.588  31.776  35.233  1.00  0.00     0.064 A 
ATOM     67  C   UNL A   1      38.663  31.343  36.195  1.00  0.00     0.173 A 
ATOM     68  C   UNL A   1      40.018  33.110  35.284  1.00  0.00     0.173 A 
ATOM     69  F   UNL A   1      38.209  30.082  36.174  1.00  0.00    -0.203 F 
ATOM     70  C   UNL A   1      38.172  32.219  37.159  1.00  0.00     0.198 A 
ATOM     71  C   UNL A   1      39.539  33.977  36.261  1.00  0.00     0.198 A 
ATOM     72  F   UNL A   1      40.899  33.571  34.383  1.00  0.00    -0.203 F 
ATOM     73  F   UNL A   1      37.259  31.795  38.044  1.00  0.00    -0.200 F 
ATOM     74  C   UNL A   1      38.614  33.534  37.194  1.00  0.00     0.200 A 
ATOM     75  F   UNL A   1      39.969  35.247  36.297  1.00  0.00    -0.200 F 
ATOM     76  F   UNL A   1      38.139  34.376  38.122  1.00  0.00    -0.200 F 
ENDBRANCH  52  66
BRANCH  53  77
ATOM     77  C   UNL A   1      42.772  25.805  27.919  1.00  0.00     0.064 A 
ATOM     78  C   UNL A   1      43.683  26.277  26.966  1.00  0.00     0.173 A 
ATOM     79  C   UNL A   1      42.325  24.482  27.803  1.00  0.00     0.173 A 
ATOM     80  F   UNL A   1      44.120  27.544  27.029  1.00  0.00    -0.203 F 
ATOM     81  C   UNL A   1      44.116  25.463  25.923  1.00  0.00     0.198 A 
ATOM     82  C   UNL A   1      42.775  23.662  26.770  1.00  0.00     0.198 A 
ATOM     83  F   UNL A   1      41.452  23.987  28.691  1.00  0.00    -0.203 F 
ATOM     84  F   UNL A   1      44.958  25.951  25.000  1.00  0.00    -0.200 F 
ATOM     85  C   UNL A   1      43.665  24.155  25.827  1.00  0.00     0.200 A 
ATOM     86  F   UNL A   1      42.342  22.397  26.685  1.00  0.00    -0.200 F 
ATOM     87  F   UNL A   1      44.080  23.373  24.821  1.00  0.00    -0.200 F 
ENDBRANCH  53  77
BRANCH  65  88
ATOM     88  C   UNL A   1      44.980  27.070  34.397  1.00  0.00     0.064 A 
ATOM     89  C   UNL A   1      44.829  25.914  35.175  1.00  0.00     0.173 A 
ATOM     90  C   UNL A   1      46.243  27.679  34.358  1.00  0.00     0.173 A 
ATOM     91  F   UNL A   1      43.637  25.305  35.255  1.00  0.00    -0.203 F 
ATOM     92  C   UNL A   1      45.899  25.399  35.903  1.00  0.00     0.198 A 
ATOM     93  C   UNL A   1      47.315  27.148  35.068  1.00  0.00     0.198 A 
ATOM     94  F   UNL A   1      46.438  28.783  33.621  1.00  0.00    -0.203 F 
ATOM     95  F   UNL A   1      45.724  24.314  36.671  1.00  0.00    -0.200 F 
ATOM     96  C   UNL A   1      47.141  26.013  35.845  1.00  0.00     0.200 A 
ATOM     97  F   UNL A   1      48.518  27.738  35.003  1.00  0.00    -0.200 F 
ATOM     98  F   UNL A   1      48.171  25.513  36.542  1.00  0.00    -0.200 F 
ENDBRANCH  65  88
ENDBRANCH  39  40
ENDBRANCH  32  34
ENDBRANCH  31  32
ENDBRANCH  30  31
ENDBRANCH  29  30
ENDBRANCH  28  29
ENDBRANCH  27  28
ENDBRANCH   1  27
TORSDOF 21
ENDMDL
