MODEL 1
REMARK VINA RESULT:     -12.6      0.000      0.000
REMARK SMILES COc1cccc([C@@H]2[NH2+][C@@](C)(C(=O)OCCOCCOCCOC(=O)c3ccc(-c4c5nc(c(-c6c(F)c(F)c(F)c(F)c6F)c6ccc([nH]6)c(-c6c(F)c(F)c(F)c(F)c6F)c6nc(c(-c7c(F)c(F)c(F)c(F)c7F)c7ccc4[nH]7)C=C6)C=C5)cc3)[C@@H]3C(=O)N(C)C(=O)[C@@H]32)c1O
REMARK SMILES IDX 18 1 17 2 16 3 15 4 14 5 12 6 13 7 10 8 8 9 9 10 96 11 89 14
REMARK SMILES IDX 94 15 11 16 90 17 92 18 95 19 91 20 93 21 7 22 3 23 4 24
REMARK SMILES IDX 97 25 5 26 6 27 2 28 1 29 98 30 19 32 20 33 21 34 22 35
REMARK SMILES IDX 23 36 24 37 25 38 26 39 27 40 88 41 28 42 87 43 29 44 30 45
REMARK SMILES IDX 31 46 81 47 32 48 86 49 80 50 82 51 33 52 85 53 79 54 78 55
REMARK SMILES IDX 34 57 66 58 46 59 65 60 47 61 50 62 64 63 83 64 48 65 49 66
REMARK SMILES IDX 63 68 84 69 51 70 35 71 36 72 44 73 37 74 38 75 42 76 45 77
REMARK SMILES IDX 39 78 40 79 43 80 41 81 67 82 68 83 76 84 69 85 70 86 74 87
REMARK SMILES IDX 77 88 71 89 72 90 75 91 73 92 52 93 53 94 61 95 54 96 55 97
REMARK SMILES IDX 59 98 62 99 56 100 57 101 60 102 58 103
REMARK H PARENT 9 12 9 13 98 31 82 56 50 67
REMARK Flexibility Score: inf
ROOT
ATOM      1  C   UNL A   1      39.029  22.191  26.080  1.00  0.00     0.188 C 
ENDROOT
BRANCH   1   2
ATOM      2  O   UNL A   1      37.963  21.611  25.334  1.00  0.00    -0.376 OA
BRANCH   2   3
ATOM      3  C   UNL A   1      36.636  22.070  25.540  1.00  0.00     0.202 C 
BRANCH   3   4
ATOM      4  C   UNL A   1      35.920  22.765  24.373  1.00  0.00     0.261 C 
BRANCH   4   5
ATOM      5  O   UNL A   1      34.580  23.242  24.627  1.00  0.00    -0.459 OA
BRANCH   5   6
ATOM      6  C   UNL A   1      33.935  23.782  23.560  1.00  0.00     0.368 C 
ATOM      7  O   UNL A   1      34.365  23.703  22.409  1.00  0.00    -0.245 OA
BRANCH   6   8
ATOM      8  C   UNL A   1      32.622  24.571  23.880  1.00  0.00     0.204 C 
ATOM      9  C   UNL A   1      32.154  26.801  22.988  1.00  0.00     0.232 C 
ATOM     10  N   UNL A   1      32.042  25.342  22.728  1.00  0.00    -0.325 N 
ATOM     11  C   UNL A   1      33.092  26.944  24.180  1.00  0.00     0.161 C 
ATOM     12  H   UNL A   1      32.552  25.111  21.876  1.00  0.00     0.347 HD
ATOM     13  H   UNL A   1      31.059  25.096  22.619  1.00  0.00     0.347 HD
ATOM     14  C   UNL A   1      33.026  25.617  24.919  1.00  0.00     0.170 C 
ATOM     15  C   UNL A   1      32.719  27.943  25.235  1.00  0.00     0.239 C 
ATOM     16  C   UNL A   1      31.656  23.458  24.308  1.00  0.00     0.093 C 
ATOM     17  C   UNL A   1      32.145  25.920  26.102  1.00  0.00     0.240 C 
ATOM     18  N   UNL A   1      32.197  27.274  26.303  1.00  0.00    -0.285 N 
ATOM     19  O   UNL A   1      32.841  29.153  25.121  1.00  0.00    -0.274 OA
ATOM     20  O   UNL A   1      31.555  25.106  26.793  1.00  0.00    -0.274 OA
ATOM     21  C   UNL A   1      31.686  27.958  27.464  1.00  0.00     0.156 C 
BRANCH   9  22
ATOM     22  C   UNL A   1      30.855  27.600  23.085  1.00  0.00     0.056 A 
ATOM     23  C   UNL A   1      29.430  29.465  22.377  1.00  0.00     0.161 A 
ATOM     24  C   UNL A   1      28.312  28.794  22.877  1.00  0.00     0.050 A 
ATOM     25  C   UNL A   1      30.696  28.884  22.533  1.00  0.00     0.166 A 
ATOM     26  C   UNL A   1      28.450  27.556  23.502  1.00  0.00     0.005 A 
ATOM     27  C   UNL A   1      29.708  26.959  23.596  1.00  0.00     0.014 A 
BRANCH  23  28
ATOM     28  O   UNL A   1      29.159  30.694  21.837  1.00  0.00    -0.493 OA
ATOM     29  C   UNL A   1      28.030  30.799  20.977  1.00  0.00     0.278 C 
ENDBRANCH  23  28
BRANCH  25  30
ATOM     30  O   UNL A   1      31.848  29.513  22.181  1.00  0.00    -0.504 OA
ATOM     31  H   UNL A   1      32.463  29.766  22.841  1.00  0.00     0.293 HD
ENDBRANCH  25  30
ENDBRANCH   9  22
ENDBRANCH   6   8
ENDBRANCH   5   6
ENDBRANCH   4   5
ENDBRANCH   3   4
ENDBRANCH   2   3
ENDBRANCH   1   2
BRANCH   1  32
ATOM     32  C   UNL A   1      40.034  21.292  26.826  1.00  0.00     0.188 C 
BRANCH  32  33
ATOM     33  O   UNL A   1      40.895  20.620  25.936  1.00  0.00    -0.376 OA
BRANCH  33  34
ATOM     34  C   UNL A   1      42.259  20.541  26.269  1.00  0.00     0.202 C 
BRANCH  34  35
ATOM     35  C   UNL A   1      43.207  21.509  25.546  1.00  0.00     0.261 C 
BRANCH  35  36
ATOM     36  O   UNL A   1      42.634  22.725  25.033  1.00  0.00    -0.460 OA
BRANCH  36  37
ATOM     37  C   UNL A   1      43.416  23.833  25.049  1.00  0.00     0.338 C 
ATOM     38  O   UNL A   1      44.357  24.074  24.325  1.00  0.00    -0.246 OA
BRANCH  37  39
ATOM     39  C   UNL A   1      42.818  24.815  25.988  1.00  0.00     0.060 A 
ATOM     40  C   UNL A   1      43.281  26.135  25.964  1.00  0.00     0.016 A 
ATOM     41  C   UNL A   1      41.840  24.437  26.910  1.00  0.00     0.016 A 
ATOM     42  C   UNL A   1      42.767  27.077  26.860  1.00  0.00     0.010 A 
ATOM     43  C   UNL A   1      41.346  25.380  27.824  1.00  0.00     0.010 A 
ATOM     44  C   UNL A   1      41.814  26.705  27.813  1.00  0.00    -0.014 A 
BRANCH  44  45
ATOM     45  C   UNL A   1      41.452  27.648  28.906  1.00  0.00     0.031 A 
ATOM     46  C   UNL A   1      42.234  27.591  30.189  1.00  0.00     0.074 A 
ATOM     47  C   UNL A   1      40.468  28.557  28.771  1.00  0.00     0.049 A 
ATOM     48  N   UNL A   1      42.007  28.183  31.334  1.00  0.00    -0.248 NA
ATOM     49  C   UNL A   1      43.441  26.749  30.173  1.00  0.00     0.031 C 
ATOM     50  C   UNL A   1      39.698  28.802  27.555  1.00  0.00     0.029 A 
ATOM     51  N   UNL A   1      39.935  29.436  29.688  1.00  0.00    -0.354 N 
ATOM     52  C   UNL A   1      43.021  27.759  32.183  1.00  0.00     0.074 A 
ATOM     53  C   UNL A   1      43.866  26.864  31.421  1.00  0.00     0.031 C 
ATOM     54  C   UNL A   1      38.769  29.742  27.809  1.00  0.00     0.029 A 
ATOM     55  C   UNL A   1      38.842  30.124  29.219  1.00  0.00     0.049 A 
ATOM     56  H   UNL A   1      40.302  29.559  30.593  1.00  0.00     0.167 HD
ATOM     57  C   UNL A   1      43.221  28.079  33.483  1.00  0.00     0.037 A 
ATOM     58  C   UNL A   1      37.970  30.925  29.867  1.00  0.00     0.037 A 
ATOM     59  C   UNL A   1      42.391  28.984  34.233  1.00  0.00     0.049 A 
ATOM     60  C   UNL A   1      38.153  31.186  31.345  1.00  0.00     0.074 A 
ATOM     61  C   UNL A   1      42.526  29.381  35.553  1.00  0.00     0.029 A 
ATOM     62  N   UNL A   1      41.268  29.627  33.735  1.00  0.00    -0.354 N 
ATOM     63  N   UNL A   1      39.102  30.772  32.151  1.00  0.00    -0.248 NA
ATOM     64  C   UNL A   1      37.137  32.019  32.008  1.00  0.00     0.031 C 
ATOM     65  C   UNL A   1      41.444  30.207  35.873  1.00  0.00     0.029 A 
ATOM     66  C   UNL A   1      40.680  30.386  34.732  1.00  0.00     0.049 A 
ATOM     67  H   UNL A   1      40.940  29.554  32.810  1.00  0.00     0.167 HD
ATOM     68  C   UNL A   1      38.816  31.321  33.397  1.00  0.00     0.074 A 
ATOM     69  C   UNL A   1      37.613  32.107  33.242  1.00  0.00     0.031 C 
ATOM     70  C   UNL A   1      39.493  31.186  34.564  1.00  0.00     0.037 A 
BRANCH  57  71
ATOM     71  C   UNL A   1      44.346  27.397  34.204  1.00  0.00     0.064 A 
ATOM     72  C   UNL A   1      45.640  27.934  34.254  1.00  0.00     0.173 A 
ATOM     73  C   UNL A   1      44.103  26.203  34.901  1.00  0.00     0.173 A 
ATOM     74  F   UNL A   1      45.927  29.066  33.593  1.00  0.00    -0.203 F 
ATOM     75  C   UNL A   1      46.654  27.289  34.956  1.00  0.00     0.198 A 
ATOM     76  C   UNL A   1      45.111  25.579  35.629  1.00  0.00     0.198 A 
ATOM     77  F   UNL A   1      42.881  25.648  34.888  1.00  0.00    -0.203 F 
ATOM     78  F   UNL A   1      47.895  27.797  34.955  1.00  0.00    -0.200 F 
ATOM     79  C   UNL A   1      46.387  26.119  35.651  1.00  0.00     0.200 A 
ATOM     80  F   UNL A   1      44.845  24.456  36.313  1.00  0.00    -0.200 F 
ATOM     81  F   UNL A   1      47.361  25.508  36.339  1.00  0.00    -0.200 F 
ENDBRANCH  57  71
BRANCH  58  82
ATOM     82  C   UNL A   1      36.791  31.492  29.153  1.00  0.00     0.064 A 
ATOM     83  C   UNL A   1      36.713  32.858  28.845  1.00  0.00     0.173 A 
ATOM     84  C   UNL A   1      35.686  30.691  28.825  1.00  0.00     0.173 A 
ATOM     85  F   UNL A   1      37.726  33.676  29.166  1.00  0.00    -0.203 F 
ATOM     86  C   UNL A   1      35.566  33.404  28.267  1.00  0.00     0.198 A 
ATOM     87  C   UNL A   1      34.556  31.230  28.214  1.00  0.00     0.198 A 
ATOM     88  F   UNL A   1      35.699  29.380  29.108  1.00  0.00    -0.203 F 
ATOM     89  F   UNL A   1      35.492  34.724  28.051  1.00  0.00    -0.200 F 
ATOM     90  C   UNL A   1      34.491  32.588  27.948  1.00  0.00     0.200 A 
ATOM     91  F   UNL A   1      33.523  30.435  27.900  1.00  0.00    -0.200 F 
ATOM     92  F   UNL A   1      33.388  33.115  27.400  1.00  0.00    -0.200 F 
ENDBRANCH  58  82
BRANCH  70  93
ATOM     93  C   UNL A   1      38.992  31.946  35.762  1.00  0.00     0.064 A 
ATOM     94  C   UNL A   1      38.188  31.346  36.742  1.00  0.00     0.173 A 
ATOM     95  C   UNL A   1      39.381  33.280  35.962  1.00  0.00     0.173 A 
ATOM     96  F   UNL A   1      37.777  30.077  36.594  1.00  0.00    -0.203 F 
ATOM     97  C   UNL A   1      37.776  32.058  37.866  1.00  0.00     0.198 A 
ATOM     98  C   UNL A   1      38.996  33.978  37.104  1.00  0.00     0.198 A 
ATOM     99  F   UNL A   1      40.157  33.902  35.062  1.00  0.00    -0.203 F 
ATOM    100  F   UNL A   1      36.972  31.477  38.768  1.00  0.00    -0.200 F 
ATOM    101  C   UNL A   1      38.188  33.369  38.051  1.00  0.00     0.200 A 
ATOM    102  F   UNL A   1      39.414  35.239  37.290  1.00  0.00    -0.200 F 
ATOM    103  F   UNL A   1      37.805  34.047  39.142  1.00  0.00    -0.200 F 
ENDBRANCH  70  93
ENDBRANCH  44  45
ENDBRANCH  37  39
ENDBRANCH  36  37
ENDBRANCH  35  36
ENDBRANCH  34  35
ENDBRANCH  33  34
ENDBRANCH  32  33
ENDBRANCH   1  32
TORSDOF 20
ENDMDL
MODEL 2
REMARK VINA RESULT:     -11.7      3.050      8.771
REMARK SMILES COc1cccc([C@@H]2[NH2+][C@@](C)(C(=O)OCCOCCOCCOC(=O)c3ccc(-c4c5nc(c(-c6c(F)c(F)c(F)c(F)c6F)c6ccc([nH]6)c(-c6c(F)c(F)c(F)c(F)c6F)c6nc(c(-c7c(F)c(F)c(F)c(F)c7F)c7ccc4[nH]7)C=C6)C=C5)cc3)[C@@H]3C(=O)N(C)C(=O)[C@@H]32)c1O
REMARK SMILES IDX 18 1 17 2 16 3 15 4 14 5 12 6 13 7 10 8 8 9 9 10 96 11 89 14
REMARK SMILES IDX 94 15 11 16 90 17 92 18 95 19 91 20 93 21 7 22 3 23 4 24
REMARK SMILES IDX 97 25 5 26 6 27 2 28 1 29 98 30 19 32 20 33 21 34 22 35
REMARK SMILES IDX 23 36 24 37 25 38 26 39 27 40 88 41 28 42 87 43 29 44 30 45
REMARK SMILES IDX 31 46 81 47 32 48 86 49 80 50 82 51 33 52 85 53 79 54 78 55
REMARK SMILES IDX 34 57 66 58 46 59 65 60 47 61 50 62 64 63 83 64 48 65 49 66
REMARK SMILES IDX 63 68 84 69 51 70 35 71 36 72 44 73 37 74 38 75 42 76 45 77
REMARK SMILES IDX 39 78 40 79 43 80 41 81 67 82 68 83 76 84 69 85 70 86 74 87
REMARK SMILES IDX 77 88 71 89 72 90 75 91 73 92 52 93 53 94 61 95 54 96 55 97
REMARK SMILES IDX 59 98 62 99 56 100 57 101 60 102 58 103
REMARK H PARENT 9 12 9 13 98 31 82 56 50 67
REMARK Flexibility Score: inf
ROOT
ATOM      1  C   UNL A   1      33.609  29.426  26.888  1.00  0.00     0.188 C 
ENDROOT
BRANCH   1   2
ATOM      2  O   UNL A   1      33.920  28.552  25.807  1.00  0.00    -0.376 OA
BRANCH   2   3
ATOM      3  C   UNL A   1      32.894  28.167  24.905  1.00  0.00     0.202 C 
BRANCH   3   4
ATOM      4  C   UNL A   1      31.504  27.852  25.478  1.00  0.00     0.261 C 
BRANCH   4   5
ATOM      5  O   UNL A   1      30.831  26.692  24.942  1.00  0.00    -0.459 OA
BRANCH   5   6
ATOM      6  C   UNL A   1      31.086  25.518  25.578  1.00  0.00     0.368 C 
ATOM      7  O   UNL A   1      31.001  25.387  26.799  1.00  0.00    -0.245 OA
BRANCH   6   8
ATOM      8  C   UNL A   1      31.554  24.333  24.668  1.00  0.00     0.204 C 
ATOM      9  C   UNL A   1      32.161  22.133  25.551  1.00  0.00     0.232 C 
ATOM     10  N   UNL A   1      31.039  22.979  25.067  1.00  0.00    -0.325 N 
ATOM     11  C   UNL A   1      33.343  23.074  25.744  1.00  0.00     0.161 C 
ATOM     12  H   UNL A   1      30.350  23.085  25.811  1.00  0.00     0.347 HD
ATOM     13  H   UNL A   1      30.607  22.532  24.259  1.00  0.00     0.347 HD
ATOM     14  C   UNL A   1      33.072  24.269  24.844  1.00  0.00     0.170 C 
ATOM     15  C   UNL A   1      34.687  22.595  25.283  1.00  0.00     0.239 C 
ATOM     16  C   UNL A   1      30.998  24.724  23.293  1.00  0.00     0.093 C 
ATOM     17  C   UNL A   1      33.981  24.033  23.667  1.00  0.00     0.240 C 
ATOM     18  N   UNL A   1      34.982  23.201  24.097  1.00  0.00    -0.285 N 
ATOM     19  O   UNL A   1      35.373  21.774  25.873  1.00  0.00    -0.274 OA
ATOM     20  O   UNL A   1      33.885  24.544  22.564  1.00  0.00    -0.274 OA
ATOM     21  C   UNL A   1      36.184  22.905  23.359  1.00  0.00     0.156 C 
BRANCH   9  22
ATOM     22  C   UNL A   1      32.468  20.857  24.768  1.00  0.00     0.056 A 
ATOM     23  C   UNL A   1      32.796  18.429  24.674  1.00  0.00     0.161 A 
ATOM     24  C   UNL A   1      32.538  18.453  23.301  1.00  0.00     0.050 A 
ATOM     25  C   UNL A   1      32.809  19.638  25.382  1.00  0.00     0.166 A 
ATOM     26  C   UNL A   1      32.276  19.657  22.650  1.00  0.00     0.005 A 
ATOM     27  C   UNL A   1      32.231  20.847  23.379  1.00  0.00     0.014 A 
BRANCH  23  28
ATOM     28  O   UNL A   1      33.089  17.189  25.174  1.00  0.00    -0.493 OA
ATOM     29  C   UNL A   1      33.574  16.211  24.261  1.00  0.00     0.278 C 
ENDBRANCH  23  28
BRANCH  25  30
ATOM     30  O   UNL A   1      33.160  19.725  26.692  1.00  0.00    -0.504 OA
ATOM     31  H   UNL A   1      33.623  19.020  27.100  1.00  0.00     0.293 HD
ENDBRANCH  25  30
ENDBRANCH   9  22
ENDBRANCH   6   8
ENDBRANCH   5   6
ENDBRANCH   4   5
ENDBRANCH   3   4
ENDBRANCH   2   3
ENDBRANCH   1   2
BRANCH   1  32
ATOM     32  C   UNL A   1      34.712  30.291  27.528  1.00  0.00     0.188 C 
BRANCH  32  33
ATOM     33  O   UNL A   1      34.212  31.528  27.980  1.00  0.00    -0.376 OA
BRANCH  33  34
ATOM     34  C   UNL A   1      32.953  31.943  27.513  1.00  0.00     0.202 C 
BRANCH  34  35
ATOM     35  C   UNL A   1      32.762  33.447  27.272  1.00  0.00     0.261 C 
BRANCH  35  36
ATOM     36  O   UNL A   1      32.341  34.242  28.397  1.00  0.00    -0.460 OA
BRANCH  36  37
ATOM     37  C   UNL A   1      33.194  35.204  28.829  1.00  0.00     0.338 C 
ATOM     38  O   UNL A   1      33.045  36.403  28.744  1.00  0.00    -0.246 OA
BRANCH  37  39
ATOM     39  C   UNL A   1      34.278  34.555  29.607  1.00  0.00     0.060 A 
ATOM     40  C   UNL A   1      35.584  34.606  29.110  1.00  0.00     0.016 A 
ATOM     41  C   UNL A   1      34.011  33.869  30.794  1.00  0.00     0.016 A 
ATOM     42  C   UNL A   1      36.624  33.973  29.796  1.00  0.00     0.010 A 
ATOM     43  C   UNL A   1      35.054  33.214  31.467  1.00  0.00     0.010 A 
ATOM     44  C   UNL A   1      36.367  33.251  30.966  1.00  0.00    -0.014 A 
BRANCH  44  45
ATOM     45  C   UNL A   1      37.429  32.391  31.555  1.00  0.00     0.031 A 
ATOM     46  C   UNL A   1      37.941  32.726  32.929  1.00  0.00     0.074 A 
ATOM     47  C   UNL A   1      37.926  31.321  30.907  1.00  0.00     0.049 A 
ATOM     48  N   UNL A   1      38.965  32.239  33.582  1.00  0.00    -0.248 NA
ATOM     49  C   UNL A   1      37.187  33.752  33.667  1.00  0.00     0.031 C 
ATOM     50  C   UNL A   1      37.455  30.812  29.622  1.00  0.00     0.029 A 
ATOM     51  N   UNL A   1      38.959  30.475  31.245  1.00  0.00    -0.354 N 
ATOM     52  C   UNL A   1      39.000  32.923  34.790  1.00  0.00     0.074 A 
ATOM     53  C   UNL A   1      37.892  33.854  34.782  1.00  0.00     0.031 C 
ATOM     54  C   UNL A   1      38.219  29.764  29.262  1.00  0.00     0.029 A 
ATOM     55  C   UNL A   1      39.267  29.564  30.263  1.00  0.00     0.049 A 
ATOM     56  H   UNL A   1      39.433  30.520  32.107  1.00  0.00     0.167 HD
ATOM     57  C   UNL A   1      39.883  32.791  35.808  1.00  0.00     0.037 A 
ATOM     58  C   UNL A   1      40.304  28.707  30.161  1.00  0.00     0.037 A 
ATOM     59  C   UNL A   1      40.972  31.851  35.822  1.00  0.00     0.049 A 
ATOM     60  C   UNL A   1      41.337  28.651  31.264  1.00  0.00     0.074 A 
ATOM     61  C   UNL A   1      41.909  31.636  36.818  1.00  0.00     0.029 A 
ATOM     62  N   UNL A   1      41.276  30.975  34.791  1.00  0.00    -0.354 N 
ATOM     63  N   UNL A   1      41.378  29.308  32.399  1.00  0.00    -0.248 NA
ATOM     64  C   UNL A   1      42.477  27.740  31.067  1.00  0.00     0.031 C 
ATOM     65  C   UNL A   1      42.822  30.682  36.359  1.00  0.00     0.029 A 
ATOM     66  C   UNL A   1      42.409  30.247  35.111  1.00  0.00     0.049 A 
ATOM     67  H   UNL A   1      40.761  30.886  33.956  1.00  0.00     0.167 HD
ATOM     68  C   UNL A   1      42.520  28.865  33.060  1.00  0.00     0.074 A 
ATOM     69  C   UNL A   1      43.139  27.875  32.208  1.00  0.00     0.031 C 
ATOM     70  C   UNL A   1      43.007  29.245  34.266  1.00  0.00     0.037 A 
BRANCH  57  71
ATOM     71  C   UNL A   1      39.752  33.731  36.970  1.00  0.00     0.064 A 
ATOM     72  C   UNL A   1      40.396  34.975  37.005  1.00  0.00     0.173 A 
ATOM     73  C   UNL A   1      38.920  33.391  38.049  1.00  0.00     0.173 A 
ATOM     74  F   UNL A   1      41.213  35.341  36.006  1.00  0.00    -0.203 F 
ATOM     75  C   UNL A   1      40.230  35.835  38.087  1.00  0.00     0.198 A 
ATOM     76  C   UNL A   1      38.730  34.267  39.113  1.00  0.00     0.198 A 
ATOM     77  F   UNL A   1      38.277  32.212  38.063  1.00  0.00    -0.203 F 
ATOM     78  F   UNL A   1      40.890  37.002  38.121  1.00  0.00    -0.200 F 
ATOM     79  C   UNL A   1      39.390  35.485  39.134  1.00  0.00     0.200 A 
ATOM     80  F   UNL A   1      37.905  33.932  40.115  1.00  0.00    -0.200 F 
ATOM     81  F   UNL A   1      39.219  36.321  40.168  1.00  0.00    -0.200 F 
ENDBRANCH  57  71
BRANCH  58  82
ATOM     82  C   UNL A   1      40.476  27.871  28.939  1.00  0.00     0.064 A 
ATOM     83  C   UNL A   1      41.240  28.318  27.851  1.00  0.00     0.173 A 
ATOM     84  C   UNL A   1      39.821  26.637  28.806  1.00  0.00     0.173 A 
ATOM     85  F   UNL A   1      41.860  29.505  27.910  1.00  0.00    -0.203 F 
ATOM     86  C   UNL A   1      41.316  27.579  26.670  1.00  0.00     0.198 A 
ATOM     87  C   UNL A   1      39.927  25.882  27.640  1.00  0.00     0.198 A 
ATOM     88  F   UNL A   1      39.065  26.165  29.809  1.00  0.00    -0.203 F 
ATOM     89  F   UNL A   1      41.994  28.065  25.621  1.00  0.00    -0.200 F 
ATOM     90  C   UNL A   1      40.664  26.359  26.568  1.00  0.00     0.200 A 
ATOM     91  F   UNL A   1      39.302  24.700  27.550  1.00  0.00    -0.200 F 
ATOM     92  F   UNL A   1      40.732  25.654  25.431  1.00  0.00    -0.200 F 
ENDBRANCH  58  82
BRANCH  70  93
ATOM     93  C   UNL A   1      44.242  28.553  34.777  1.00  0.00     0.064 A 
ATOM     94  C   UNL A   1      44.177  27.352  35.499  1.00  0.00     0.173 A 
ATOM     95  C   UNL A   1      45.513  29.069  34.479  1.00  0.00     0.173 A 
ATOM     96  F   UNL A   1      42.988  26.821  35.821  1.00  0.00    -0.203 F 
ATOM     97  C   UNL A   1      45.336  26.705  35.920  1.00  0.00     0.198 A 
ATOM     98  C   UNL A   1      46.671  28.402  34.872  1.00  0.00     0.198 A 
ATOM     99  F   UNL A   1      45.635  30.210  33.785  1.00  0.00    -0.203 F 
ATOM    100  F   UNL A   1      45.249  25.581  36.646  1.00  0.00    -0.200 F 
ATOM    101  C   UNL A   1      46.582  27.225  35.598  1.00  0.00     0.200 A 
ATOM    102  F   UNL A   1      47.873  28.896  34.542  1.00  0.00    -0.200 F 
ATOM    103  F   UNL A   1      47.696  26.592  35.990  1.00  0.00    -0.200 F 
ENDBRANCH  70  93
ENDBRANCH  44  45
ENDBRANCH  37  39
ENDBRANCH  36  37
ENDBRANCH  35  36
ENDBRANCH  34  35
ENDBRANCH  33  34
ENDBRANCH  32  33
ENDBRANCH   1  32
TORSDOF 20
ENDMDL
MODEL 3
REMARK VINA RESULT:     -11.7      3.147      9.163
REMARK SMILES COc1cccc([C@@H]2[NH2+][C@@](C)(C(=O)OCCOCCOCCOC(=O)c3ccc(-c4c5nc(c(-c6c(F)c(F)c(F)c(F)c6F)c6ccc([nH]6)c(-c6c(F)c(F)c(F)c(F)c6F)c6nc(c(-c7c(F)c(F)c(F)c(F)c7F)c7ccc4[nH]7)C=C6)C=C5)cc3)[C@@H]3C(=O)N(C)C(=O)[C@@H]32)c1O
REMARK SMILES IDX 18 1 17 2 16 3 15 4 14 5 12 6 13 7 10 8 8 9 9 10 96 11 89 14
REMARK SMILES IDX 94 15 11 16 90 17 92 18 95 19 91 20 93 21 7 22 3 23 4 24
REMARK SMILES IDX 97 25 5 26 6 27 2 28 1 29 98 30 19 32 20 33 21 34 22 35
REMARK SMILES IDX 23 36 24 37 25 38 26 39 27 40 88 41 28 42 87 43 29 44 30 45
REMARK SMILES IDX 31 46 81 47 32 48 86 49 80 50 82 51 33 52 85 53 79 54 78 55
REMARK SMILES IDX 34 57 66 58 46 59 65 60 47 61 50 62 64 63 83 64 48 65 49 66
REMARK SMILES IDX 63 68 84 69 51 70 35 71 36 72 44 73 37 74 38 75 42 76 45 77
REMARK SMILES IDX 39 78 40 79 43 80 41 81 67 82 68 83 76 84 69 85 70 86 74 87
REMARK SMILES IDX 77 88 71 89 72 90 75 91 73 92 52 93 53 94 61 95 54 96 55 97
REMARK SMILES IDX 59 98 62 99 56 100 57 101 60 102 58 103
REMARK H PARENT 9 12 9 13 98 31 82 56 50 67
REMARK Flexibility Score: inf
ROOT
ATOM      1  C   UNL A   1      34.028  28.904  26.940  1.00  0.00     0.188 C 
ENDROOT
BRANCH   1   2
ATOM      2  O   UNL A   1      34.276  28.538  25.586  1.00  0.00    -0.376 OA
BRANCH   2   3
ATOM      3  C   UNL A   1      33.193  28.132  24.763  1.00  0.00     0.202 C 
BRANCH   3   4
ATOM      4  C   UNL A   1      31.843  27.839  25.433  1.00  0.00     0.261 C 
BRANCH   4   5
ATOM      5  O   UNL A   1      31.090  26.723  24.910  1.00  0.00    -0.459 OA
BRANCH   5   6
ATOM      6  C   UNL A   1      31.248  25.545  25.569  1.00  0.00     0.368 C 
ATOM      7  O   UNL A   1      31.105  25.437  26.787  1.00  0.00    -0.245 OA
BRANCH   6   8
ATOM      8  C   UNL A   1      31.682  24.322  24.694  1.00  0.00     0.204 C 
ATOM      9  C   UNL A   1      32.285  22.149  25.644  1.00  0.00     0.232 C 
ATOM     10  N   UNL A   1      31.161  22.990  25.153  1.00  0.00    -0.325 N 
ATOM     11  C   UNL A   1      33.481  23.082  25.775  1.00  0.00     0.161 C 
ATOM     12  H   UNL A   1      30.491  23.131  25.909  1.00  0.00     0.347 HD
ATOM     13  H   UNL A   1      30.707  22.518  24.372  1.00  0.00     0.347 HD
ATOM     14  C   UNL A   1      33.203  24.246  24.838  1.00  0.00     0.170 C 
ATOM     15  C   UNL A   1      34.809  22.571  25.302  1.00  0.00     0.239 C 
ATOM     16  C   UNL A   1      31.100  24.669  23.318  1.00  0.00     0.093 C 
ATOM     17  C   UNL A   1      34.082  23.956  23.650  1.00  0.00     0.240 C 
ATOM     18  N   UNL A   1      35.083  23.129  24.088  1.00  0.00    -0.285 N 
ATOM     19  O   UNL A   1      35.500  21.764  25.906  1.00  0.00    -0.274 OA
ATOM     20  O   UNL A   1      33.967  24.428  22.532  1.00  0.00    -0.274 OA
ATOM     21  C   UNL A   1      36.266  22.792  23.335  1.00  0.00     0.156 C 
BRANCH   9  22
ATOM     22  C   UNL A   1      32.560  20.841  24.902  1.00  0.00     0.056 A 
ATOM     23  C   UNL A   1      32.854  18.407  24.889  1.00  0.00     0.161 A 
ATOM     24  C   UNL A   1      32.570  18.386  23.521  1.00  0.00     0.050 A 
ATOM     25  C   UNL A   1      32.897  19.641  25.553  1.00  0.00     0.166 A 
ATOM     26  C   UNL A   1      32.311  19.569  22.833  1.00  0.00     0.005 A 
ATOM     27  C   UNL A   1      32.296  20.785  23.518  1.00  0.00     0.014 A 
BRANCH  23  28
ATOM     28  O   UNL A   1      33.141  17.182  25.427  1.00  0.00    -0.493 OA
ATOM     29  C   UNL A   1      33.236  16.078  24.535  1.00  0.00     0.278 C 
ENDBRANCH  23  28
BRANCH  25  30
ATOM     30  O   UNL A   1      33.274  19.770  26.852  1.00  0.00    -0.504 OA
ATOM     31  H   UNL A   1      33.430  19.006  27.372  1.00  0.00     0.293 HD
ENDBRANCH  25  30
ENDBRANCH   9  22
ENDBRANCH   6   8
ENDBRANCH   5   6
ENDBRANCH   4   5
ENDBRANCH   3   4
ENDBRANCH   2   3
ENDBRANCH   1   2
BRANCH   1  32
ATOM     32  C   UNL A   1      34.897  29.975  27.626  1.00  0.00     0.188 C 
BRANCH  32  33
ATOM     33  O   UNL A   1      34.149  31.122  27.960  1.00  0.00    -0.376 OA
BRANCH  33  34
ATOM     34  C   UNL A   1      32.975  31.381  27.232  1.00  0.00     0.202 C 
BRANCH  34  35
ATOM     35  C   UNL A   1      32.450  32.824  27.252  1.00  0.00     0.261 C 
BRANCH  35  36
ATOM     36  O   UNL A   1      32.383  33.479  28.532  1.00  0.00    -0.460 OA
BRANCH  36  37
ATOM     37  C   UNL A   1      33.140  34.591  28.699  1.00  0.00     0.338 C 
ATOM     38  O   UNL A   1      32.844  35.728  28.403  1.00  0.00    -0.246 OA
BRANCH  37  39
ATOM     39  C   UNL A   1      34.342  34.225  29.490  1.00  0.00     0.060 A 
ATOM     40  C   UNL A   1      35.606  34.509  28.961  1.00  0.00     0.016 A 
ATOM     41  C   UNL A   1      34.233  33.575  30.721  1.00  0.00     0.016 A 
ATOM     42  C   UNL A   1      36.760  34.144  29.660  1.00  0.00     0.010 A 
ATOM     43  C   UNL A   1      35.394  33.188  31.407  1.00  0.00     0.010 A 
ATOM     44  C   UNL A   1      36.667  33.460  30.876  1.00  0.00    -0.014 A 
BRANCH  44  45
ATOM     45  C   UNL A   1      37.888  32.872  31.490  1.00  0.00     0.031 A 
ATOM     46  C   UNL A   1      38.538  31.699  30.810  1.00  0.00     0.074 A 
ATOM     47  C   UNL A   1      38.435  33.369  32.615  1.00  0.00     0.049 A 
ATOM     48  N   UNL A   1      39.498  30.915  31.228  1.00  0.00    -0.248 NA
ATOM     49  C   UNL A   1      38.031  31.369  29.468  1.00  0.00     0.031 C 
ATOM     50  C   UNL A   1      37.982  34.563  33.324  1.00  0.00     0.029 A 
ATOM     51  N   UNL A   1      39.491  32.910  33.371  1.00  0.00    -0.354 N 
ATOM     52  C   UNL A   1      39.686  29.980  30.219  1.00  0.00     0.074 A 
ATOM     53  C   UNL A   1      38.745  30.296  29.166  1.00  0.00     0.031 C 
ATOM     54  C   UNL A   1      38.733  34.723  34.430  1.00  0.00     0.029 A 
ATOM     55  C   UNL A   1      39.680  33.614  34.536  1.00  0.00     0.049 A 
ATOM     56  H   UNL A   1      40.056  32.150  33.102  1.00  0.00     0.167 HD
ATOM     57  C   UNL A   1      40.559  28.945  30.181  1.00  0.00     0.037 A 
ATOM     58  C   UNL A   1      40.485  33.359  35.590  1.00  0.00     0.037 A 
ATOM     59  C   UNL A   1      41.507  28.644  31.220  1.00  0.00     0.049 A 
ATOM     60  C   UNL A   1      41.376  32.138  35.569  1.00  0.00     0.074 A 
ATOM     61  C   UNL A   1      42.442  27.623  31.261  1.00  0.00     0.029 A 
ATOM     62  N   UNL A   1      41.638  29.354  32.403  1.00  0.00    -0.354 N 
ATOM     63  N   UNL A   1      41.543  31.246  34.622  1.00  0.00    -0.248 NA
ATOM     64  C   UNL A   1      42.187  31.882  36.771  1.00  0.00     0.031 C 
ATOM     65  C   UNL A   1      43.088  27.673  32.500  1.00  0.00     0.029 A 
ATOM     66  C   UNL A   1      42.611  28.770  33.197  1.00  0.00     0.049 A 
ATOM     67  H   UNL A   1      41.116  30.154  32.642  1.00  0.00     0.167 HD
ATOM     68  C   UNL A   1      42.496  30.351  35.099  1.00  0.00     0.074 A 
ATOM     69  C   UNL A   1      42.882  30.812  36.414  1.00  0.00     0.031 C 
ATOM     70  C   UNL A   1      43.006  29.248  34.498  1.00  0.00     0.037 A 
BRANCH  57  71
ATOM     71  C   UNL A   1      40.488  28.017  29.004  1.00  0.00     0.064 A 
ATOM     72  C   UNL A   1      39.672  26.877  28.996  1.00  0.00     0.173 A 
ATOM     73  C   UNL A   1      41.220  28.309  27.843  1.00  0.00     0.173 A 
ATOM     74  F   UNL A   1      38.964  26.545  30.086  1.00  0.00    -0.203 F 
ATOM     75  C   UNL A   1      39.609  26.053  27.876  1.00  0.00     0.198 A 
ATOM     76  C   UNL A   1      41.129  27.501  26.713  1.00  0.00     0.198 A 
ATOM     77  F   UNL A   1      42.014  29.391  27.797  1.00  0.00    -0.203 F 
ATOM     78  F   UNL A   1      38.856  24.943  27.904  1.00  0.00    -0.200 F 
ATOM     79  C   UNL A   1      40.328  26.370  26.733  1.00  0.00     0.200 A 
ATOM     80  F   UNL A   1      41.813  27.821  25.606  1.00  0.00    -0.200 F 
ATOM     81  F   UNL A   1      40.255  25.583  25.651  1.00  0.00    -0.200 F 
ENDBRANCH  57  71
BRANCH  58  82
ATOM     82  C   UNL A   1      40.446  34.232  36.797  1.00  0.00     0.064 A 
ATOM     83  C   UNL A   1      39.502  34.028  37.814  1.00  0.00     0.173 A 
ATOM     84  C   UNL A   1      41.309  35.331  36.926  1.00  0.00     0.173 A 
ATOM     85  F   UNL A   1      38.630  33.013  37.726  1.00  0.00    -0.203 F 
ATOM     86  C   UNL A   1      39.403  34.907  38.894  1.00  0.00     0.198 A 
ATOM     87  C   UNL A   1      41.233  36.187  38.023  1.00  0.00     0.198 A 
ATOM     88  F   UNL A   1      42.223  35.583  35.977  1.00  0.00    -0.203 F 
ATOM     89  F   UNL A   1      38.444  34.729  39.812  1.00  0.00    -0.200 F 
ATOM     90  C   UNL A   1      40.272  35.982  39.000  1.00  0.00     0.200 A 
ATOM     91  F   UNL A   1      42.082  37.219  38.124  1.00  0.00    -0.200 F 
ATOM     92  F   UNL A   1      40.171  36.829  40.033  1.00  0.00    -0.200 F 
ENDBRANCH  58  82
BRANCH  70  93
ATOM     93  C   UNL A   1      44.082  28.485  35.221  1.00  0.00     0.064 A 
ATOM     94  C   UNL A   1      45.440  28.817  35.099  1.00  0.00     0.173 A 
ATOM     95  C   UNL A   1      43.739  27.447  36.102  1.00  0.00     0.173 A 
ATOM     96  F   UNL A   1      45.824  29.792  34.262  1.00  0.00    -0.203 F 
ATOM     97  C   UNL A   1      46.413  28.126  35.815  1.00  0.00     0.198 A 
ATOM     98  C   UNL A   1      44.712  26.781  36.843  1.00  0.00     0.198 A 
ATOM     99  F   UNL A   1      42.456  27.094  36.264  1.00  0.00    -0.203 F 
ATOM    100  F   UNL A   1      47.709  28.430  35.650  1.00  0.00    -0.200 F 
ATOM    101  C   UNL A   1      46.049  27.116  36.694  1.00  0.00     0.200 A 
ATOM    102  F   UNL A   1      44.354  25.820  37.707  1.00  0.00    -0.200 F 
ATOM    103  F   UNL A   1      46.986  26.463  37.395  1.00  0.00    -0.200 F 
ENDBRANCH  70  93
ENDBRANCH  44  45
ENDBRANCH  37  39
ENDBRANCH  36  37
ENDBRANCH  35  36
ENDBRANCH  34  35
ENDBRANCH  33  34
ENDBRANCH  32  33
ENDBRANCH   1  32
TORSDOF 20
ENDMDL
