MODEL 1
REMARK VINA RESULT:     -10.8      0.000      0.000
REMARK SMILES C[C@H](NC(=O)OCc1ccccc1)C(=O)NCC(=O)N1CCC[C@H]1C(=O)OCCOCCOCCOC(=O)c1ccc(-c2c3nc(c(-c4c(F)c(F)c(F)c(F)c4F)c4ccc([nH]4)c(-c4c(F)c(F)c(F)c(F)c4F)c4nc(c(-c5c(F)c(F)c(F)c(F)c5F)c5ccc2[nH]5)C=C4)C=C3)cc1
REMARK SMILES IDX 28 1 27 2 25 3 26 4 24 5 20 6 21 7 22 8 23 9 18 10 19 11
REMARK SMILES IDX 17 12 16 13 14 14 15 15 2 17 1 18 3 19 4 20 5 22 6 23 7 24
REMARK SMILES IDX 8 25 9 26 13 27 10 28 12 29 11 30 29 31 30 32 31 33 32 34
REMARK SMILES IDX 33 35 34 36 35 37 36 38 37 39 38 40 39 41 40 42 101 43 41 44
REMARK SMILES IDX 100 45 42 46 43 47 44 48 94 49 45 50 99 51 93 52 95 53 46 54
REMARK SMILES IDX 98 55 92 56 91 57 47 59 79 60 59 61 78 62 60 63 63 64 77 65
REMARK SMILES IDX 96 66 61 67 62 68 76 70 97 71 64 72 48 73 49 74 57 75 50 76
REMARK SMILES IDX 51 77 55 78 58 79 52 80 53 81 56 82 54 83 80 84 81 85 89 86
REMARK SMILES IDX 82 87 83 88 87 89 90 90 84 91 85 92 88 93 86 94 65 95 66 96
REMARK SMILES IDX 74 97 67 98 68 99 72 100 75 101 69 102 70 103 73 104 71 105
REMARK H PARENT 16 16 3 21 95 58 63 69
REMARK Flexibility Score: inf
ROOT
ATOM      1  C   UNL A   1      33.473  25.178  22.788  1.00  0.00     0.261 C 
ENDROOT
BRANCH   1   2
ATOM      2  O   UNL A   1      33.406  26.545  23.192  1.00  0.00    -0.462 OA
BRANCH   2   3
ATOM      3  C   UNL A   1      32.158  27.077  23.329  1.00  0.00     0.328 C 
ATOM      4  O   UNL A   1      31.169  26.722  22.697  1.00  0.00    -0.250 OA
BRANCH   3   5
ATOM      5  C   UNL A   1      32.133  28.111  24.470  1.00  0.00     0.195 C 
ATOM      6  N   UNL A   1      32.339  27.407  25.729  1.00  0.00    -0.327 N 
ATOM      7  C   UNL A   1      33.752  27.479  26.080  1.00  0.00     0.120 C 
ATOM      8  C   UNL A   1      34.149  28.870  25.622  1.00  0.00     0.024 C 
ATOM      9  C   UNL A   1      33.308  29.100  24.374  1.00  0.00     0.039 C 
BRANCH   6  10
ATOM     10  C   UNL A   1      31.278  26.683  26.220  1.00  0.00     0.242 C 
ATOM     11  O   UNL A   1      30.652  27.100  27.204  1.00  0.00    -0.273 OA
BRANCH  10  12
ATOM     12  C   UNL A   1      30.963  25.271  25.731  1.00  0.00     0.216 C 
BRANCH  12  13
ATOM     13  N   UNL A   1      30.109  24.422  26.525  1.00  0.00    -0.345 N 
ATOM     14  C   UNL A   1      30.245  23.099  26.837  1.00  0.00     0.242 C 
ATOM     15  O   UNL A   1      29.389  22.598  27.570  1.00  0.00    -0.273 OA
ATOM     16  H   UNL A   1      29.309  24.860  26.896  1.00  0.00     0.164 HD
BRANCH  14  17
ATOM     17  C   UNL A   1      31.456  22.279  26.346  1.00  0.00     0.171 C 
ATOM     18  C   UNL A   1      32.708  22.673  27.127  1.00  0.00     0.042 C 
BRANCH  17  19
ATOM     19  N   UNL A   1      31.625  22.392  24.901  1.00  0.00    -0.310 N 
ATOM     20  C   UNL A   1      32.082  21.444  24.040  1.00  0.00     0.408 C 
ATOM     21  H   UNL A   1      31.380  23.258  24.502  1.00  0.00     0.167 HD
ATOM     22  O   UNL A   1      32.171  21.675  22.846  1.00  0.00    -0.225 OA
BRANCH  20  23
ATOM     23  O   UNL A   1      32.442  20.301  24.666  1.00  0.00    -0.445 OA
BRANCH  23  24
ATOM     24  C   UNL A   1      33.430  19.522  23.979  1.00  0.00     0.270 C 
BRANCH  24  25
ATOM     25  C   UNL A   1      33.538  18.107  24.492  1.00  0.00    -0.011 A 
ATOM     26  C   UNL A   1      32.443  17.444  25.062  1.00  0.00     0.007 A 
ATOM     27  C   UNL A   1      34.779  17.455  24.451  1.00  0.00     0.007 A 
ATOM     28  C   UNL A   1      32.581  16.144  25.553  1.00  0.00     0.000 A 
ATOM     29  C   UNL A   1      34.917  16.159  24.947  1.00  0.00     0.000 A 
ATOM     30  C   UNL A   1      33.817  15.503  25.495  1.00  0.00     0.000 A 
ENDBRANCH  24  25
ENDBRANCH  23  24
ENDBRANCH  20  23
ENDBRANCH  17  19
ENDBRANCH  14  17
ENDBRANCH  12  13
ENDBRANCH  10  12
ENDBRANCH   6  10
ENDBRANCH   3   5
ENDBRANCH   2   3
ENDBRANCH   1   2
BRANCH   1  31
ATOM     31  C   UNL A   1      34.503  24.284  23.506  1.00  0.00     0.202 C 
BRANCH  31  32
ATOM     32  O   UNL A   1      35.315  23.297  22.889  1.00  0.00    -0.376 OA
BRANCH  32  33
ATOM     33  C   UNL A   1      36.426  22.761  23.564  1.00  0.00     0.188 C 
BRANCH  33  34
ATOM     34  C   UNL A   1      36.288  22.494  25.079  1.00  0.00     0.188 C 
BRANCH  34  35
ATOM     35  O   UNL A   1      37.110  21.539  25.709  1.00  0.00    -0.376 OA
BRANCH  35  36
ATOM     36  C   UNL A   1      37.608  20.449  24.957  1.00  0.00     0.202 C 
BRANCH  36  37
ATOM     37  C   UNL A   1      38.904  19.697  25.322  1.00  0.00     0.261 C 
BRANCH  37  38
ATOM     38  O   UNL A   1      39.471  19.937  26.621  1.00  0.00    -0.460 OA
BRANCH  38  39
ATOM     39  C   UNL A   1      40.802  20.209  26.649  1.00  0.00     0.338 C 
ATOM     40  O   UNL A   1      41.711  19.484  26.289  1.00  0.00    -0.246 OA
BRANCH  39  41
ATOM     41  C   UNL A   1      41.010  21.628  27.020  1.00  0.00     0.060 A 
ATOM     42  C   UNL A   1      40.416  22.631  26.238  1.00  0.00     0.016 A 
ATOM     43  C   UNL A   1      41.819  21.971  28.103  1.00  0.00     0.016 A 
ATOM     44  C   UNL A   1      40.642  23.979  26.529  1.00  0.00     0.010 A 
ATOM     45  C   UNL A   1      42.066  23.323  28.375  1.00  0.00     0.010 A 
ATOM     46  C   UNL A   1      41.497  24.335  27.578  1.00  0.00    -0.014 A 
BRANCH  46  47
ATOM     47  C   UNL A   1      41.922  25.750  27.756  1.00  0.00     0.031 A 
ATOM     48  C   UNL A   1      43.273  26.172  27.245  1.00  0.00     0.074 A 
ATOM     49  C   UNL A   1      41.125  26.650  28.359  1.00  0.00     0.049 A 
ATOM     50  N   UNL A   1      43.893  27.318  27.373  1.00  0.00    -0.248 NA
ATOM     51  C   UNL A   1      44.028  25.162  26.486  1.00  0.00     0.031 C 
ATOM     52  C   UNL A   1      39.777  26.388  28.857  1.00  0.00     0.029 A 
ATOM     53  N   UNL A   1      41.349  27.970  28.673  1.00  0.00    -0.354 N 
ATOM     54  C   UNL A   1      45.110  27.166  26.720  1.00  0.00     0.074 A 
ATOM     55  C   UNL A   1      45.154  25.808  26.221  1.00  0.00     0.031 C 
ATOM     56  C   UNL A   1      39.301  27.507  29.433  1.00  0.00     0.029 A 
ATOM     57  C   UNL A   1      40.325  28.550  29.382  1.00  0.00     0.049 A 
ATOM     58  H   UNL A   1      42.166  28.455  28.413  1.00  0.00     0.167 HD
ATOM     59  C   UNL A   1      46.097  28.077  26.545  1.00  0.00     0.037 A 
ATOM     60  C   UNL A   1      40.241  29.768  29.956  1.00  0.00     0.037 A 
ATOM     61  C   UNL A   1      46.057  29.427  27.046  1.00  0.00     0.049 A 
ATOM     62  C   UNL A   1      41.396  30.731  29.829  1.00  0.00     0.074 A 
ATOM     63  C   UNL A   1      47.006  30.425  26.910  1.00  0.00     0.029 A 
ATOM     64  N   UNL A   1      45.015  29.965  27.786  1.00  0.00    -0.354 N 
ATOM     65  N   UNL A   1      42.534  30.588  29.192  1.00  0.00    -0.248 NA
ATOM     66  C   UNL A   1      41.255  32.031  30.505  1.00  0.00     0.031 C 
ATOM     67  C   UNL A   1      46.569  31.547  27.621  1.00  0.00     0.029 A 
ATOM     68  C   UNL A   1      45.314  31.273  28.140  1.00  0.00     0.049 A 
ATOM     69  H   UNL A   1      44.187  29.490  28.025  1.00  0.00     0.167 HD
ATOM     70  C   UNL A   1      43.222  31.785  29.360  1.00  0.00     0.074 A 
ATOM     71  C   UNL A   1      42.368  32.651  30.142  1.00  0.00     0.031 C 
ATOM     72  C   UNL A   1      44.451  32.134  28.907  1.00  0.00     0.037 A 
BRANCH  59  73
ATOM     73  C   UNL A   1      47.325  27.642  25.798  1.00  0.00     0.064 A 
ATOM     74  C   UNL A   1      48.447  27.124  26.461  1.00  0.00     0.173 A 
ATOM     75  C   UNL A   1      47.355  27.688  24.395  1.00  0.00     0.173 A 
ATOM     76  F   UNL A   1      48.474  27.069  27.802  1.00  0.00    -0.203 F 
ATOM     77  C   UNL A   1      49.561  26.685  25.749  1.00  0.00     0.198 A 
ATOM     78  C   UNL A   1      48.457  27.219  23.686  1.00  0.00     0.198 A 
ATOM     79  F   UNL A   1      46.306  28.167  23.711  1.00  0.00    -0.203 F 
ATOM     80  F   UNL A   1      50.638  26.232  26.406  1.00  0.00    -0.200 F 
ATOM     81  C   UNL A   1      49.561  26.724  24.363  1.00  0.00     0.200 A 
ATOM     82  F   UNL A   1      48.447  27.240  22.346  1.00  0.00    -0.200 F 
ATOM     83  F   UNL A   1      50.627  26.287  23.679  1.00  0.00    -0.200 F 
ENDBRANCH  59  73
BRANCH  60  84
ATOM     84  C   UNL A   1      39.032  30.149  30.739  1.00  0.00     0.064 A 
ATOM     85  C   UNL A   1      37.949  30.799  30.131  1.00  0.00     0.173 A 
ATOM     86  C   UNL A   1      38.962  29.928  32.123  1.00  0.00     0.173 A 
ATOM     87  F   UNL A   1      37.978  31.063  28.817  1.00  0.00    -0.203 F 
ATOM     88  C   UNL A   1      36.859  31.243  30.880  1.00  0.00     0.198 A 
ATOM     89  C   UNL A   1      37.856  30.337  32.865  1.00  0.00     0.198 A 
ATOM     90  F   UNL A   1      39.972  29.316  32.759  1.00  0.00    -0.203 F 
ATOM     91  F   UNL A   1      35.872  31.925  30.284  1.00  0.00    -0.200 F 
ATOM     92  C   UNL A   1      36.812  31.007  32.246  1.00  0.00     0.200 A 
ATOM     93  F   UNL A   1      37.809  30.097  34.183  1.00  0.00    -0.200 F 
ATOM     94  F   UNL A   1      35.768  31.438  32.967  1.00  0.00    -0.200 F 
ENDBRANCH  60  84
BRANCH  72  95
ATOM     95  C   UNL A   1      44.934  33.528  29.200  1.00  0.00     0.064 A 
ATOM     96  C   UNL A   1      45.742  33.817  30.310  1.00  0.00     0.173 A 
ATOM     97  C   UNL A   1      44.615  34.586  28.332  1.00  0.00     0.173 A 
ATOM     98  F   UNL A   1      46.067  32.847  31.178  1.00  0.00    -0.203 F 
ATOM     99  C   UNL A   1      46.187  35.113  30.557  1.00  0.00     0.198 A 
ATOM    100  C   UNL A   1      45.092  35.875  28.563  1.00  0.00     0.198 A 
ATOM    101  F   UNL A   1      43.854  34.368  27.250  1.00  0.00    -0.203 F 
ATOM    102  F   UNL A   1      46.912  35.373  31.654  1.00  0.00    -0.200 F 
ATOM    103  C   UNL A   1      45.868  36.139  29.680  1.00  0.00     0.200 A 
ATOM    104  F   UNL A   1      44.799  36.859  27.702  1.00  0.00    -0.200 F 
ATOM    105  F   UNL A   1      46.306  37.384  29.914  1.00  0.00    -0.200 F 
ENDBRANCH  72  95
ENDBRANCH  46  47
ENDBRANCH  39  41
ENDBRANCH  38  39
ENDBRANCH  37  38
ENDBRANCH  36  37
ENDBRANCH  35  36
ENDBRANCH  34  35
ENDBRANCH  33  34
ENDBRANCH  32  33
ENDBRANCH  31  32
ENDBRANCH   1  31
TORSDOF 25
ENDMDL
MODEL 2
REMARK VINA RESULT:     -10.8      4.179      8.924
REMARK SMILES C[C@H](NC(=O)OCc1ccccc1)C(=O)NCC(=O)N1CCC[C@H]1C(=O)OCCOCCOCCOC(=O)c1ccc(-c2c3nc(c(-c4c(F)c(F)c(F)c(F)c4F)c4ccc([nH]4)c(-c4c(F)c(F)c(F)c(F)c4F)c4nc(c(-c5c(F)c(F)c(F)c(F)c5F)c5ccc2[nH]5)C=C4)C=C3)cc1
REMARK SMILES IDX 28 1 27 2 25 3 26 4 24 5 20 6 21 7 22 8 23 9 18 10 19 11
REMARK SMILES IDX 17 12 16 13 14 14 15 15 2 17 1 18 3 19 4 20 5 22 6 23 7 24
REMARK SMILES IDX 8 25 9 26 13 27 10 28 12 29 11 30 29 31 30 32 31 33 32 34
REMARK SMILES IDX 33 35 34 36 35 37 36 38 37 39 38 40 39 41 40 42 101 43 41 44
REMARK SMILES IDX 100 45 42 46 43 47 44 48 94 49 45 50 99 51 93 52 95 53 46 54
REMARK SMILES IDX 98 55 92 56 91 57 47 59 79 60 59 61 78 62 60 63 63 64 77 65
REMARK SMILES IDX 96 66 61 67 62 68 76 70 97 71 64 72 48 73 49 74 57 75 50 76
REMARK SMILES IDX 51 77 55 78 58 79 52 80 53 81 56 82 54 83 80 84 81 85 89 86
REMARK SMILES IDX 82 87 83 88 87 89 90 90 84 91 85 92 88 93 86 94 65 95 66 96
REMARK SMILES IDX 74 97 67 98 68 99 72 100 75 101 69 102 70 103 73 104 71 105
REMARK H PARENT 16 16 3 21 95 58 63 69
REMARK Flexibility Score: inf
ROOT
ATOM      1  C   UNL A   1      36.171  22.742  24.994  1.00  0.00     0.261 C 
ENDROOT
BRANCH   1   2
ATOM      2  O   UNL A   1      35.111  22.042  25.645  1.00  0.00    -0.462 OA
BRANCH   2   3
ATOM      3  C   UNL A   1      34.839  20.788  25.185  1.00  0.00     0.328 C 
ATOM      4  O   UNL A   1      35.681  19.974  24.821  1.00  0.00    -0.250 OA
BRANCH   3   5
ATOM      5  C   UNL A   1      33.332  20.487  25.292  1.00  0.00     0.195 C 
ATOM      6  N   UNL A   1      32.746  20.606  23.963  1.00  0.00    -0.327 N 
ATOM      7  C   UNL A   1      32.678  19.281  23.361  1.00  0.00     0.120 C 
ATOM      8  C   UNL A   1      32.339  18.386  24.538  1.00  0.00     0.024 C 
ATOM      9  C   UNL A   1      33.067  19.030  25.710  1.00  0.00     0.039 C 
BRANCH   6  10
ATOM     10  C   UNL A   1      32.565  21.878  23.474  1.00  0.00     0.242 C 
ATOM     11  O   UNL A   1      33.456  22.409  22.797  1.00  0.00    -0.273 OA
BRANCH  10  12
ATOM     12  C   UNL A   1      31.390  22.754  23.904  1.00  0.00     0.216 C 
BRANCH  12  13
ATOM     13  N   UNL A   1      30.994  22.775  25.291  1.00  0.00    -0.345 N 
ATOM     14  C   UNL A   1      30.727  23.840  26.104  1.00  0.00     0.242 C 
ATOM     15  O   UNL A   1      30.369  23.597  27.258  1.00  0.00    -0.273 OA
ATOM     16  H   UNL A   1      30.904  21.892  25.716  1.00  0.00     0.164 HD
BRANCH  14  17
ATOM     17  C   UNL A   1      30.804  25.289  25.580  1.00  0.00     0.171 C 
ATOM     18  C   UNL A   1      31.539  26.173  26.586  1.00  0.00     0.042 C 
BRANCH  17  19
ATOM     19  N   UNL A   1      29.482  25.800  25.230  1.00  0.00    -0.310 N 
ATOM     20  C   UNL A   1      29.084  26.337  24.046  1.00  0.00     0.408 C 
ATOM     21  H   UNL A   1      28.797  25.750  25.936  1.00  0.00     0.167 HD
ATOM     22  O   UNL A   1      27.939  26.725  23.890  1.00  0.00    -0.225 OA
BRANCH  20  23
ATOM     23  O   UNL A   1      30.089  26.415  23.145  1.00  0.00    -0.445 OA
BRANCH  23  24
ATOM     24  C   UNL A   1      30.445  27.747  22.752  1.00  0.00     0.270 C 
BRANCH  24  25
ATOM     25  C   UNL A   1      31.392  28.420  23.713  1.00  0.00    -0.011 A 
ATOM     26  C   UNL A   1      30.968  29.444  24.571  1.00  0.00     0.007 A 
ATOM     27  C   UNL A   1      32.746  28.054  23.713  1.00  0.00     0.007 A 
ATOM     28  C   UNL A   1      31.876  30.068  25.431  1.00  0.00     0.000 A 
ATOM     29  C   UNL A   1      33.652  28.682  24.567  1.00  0.00     0.000 A 
ATOM     30  C   UNL A   1      33.215  29.686  25.428  1.00  0.00     0.000 A 
ENDBRANCH  24  25
ENDBRANCH  23  24
ENDBRANCH  20  23
ENDBRANCH  17  19
ENDBRANCH  14  17
ENDBRANCH  12  13
ENDBRANCH  10  12
ENDBRANCH   6  10
ENDBRANCH   3   5
ENDBRANCH   2   3
ENDBRANCH   1   2
BRANCH   1  31
ATOM     31  C   UNL A   1      37.392  23.122  25.854  1.00  0.00     0.202 C 
BRANCH  31  32
ATOM     32  O   UNL A   1      38.586  22.366  25.978  1.00  0.00    -0.376 OA
BRANCH  32  33
ATOM     33  C   UNL A   1      39.592  22.758  26.880  1.00  0.00     0.188 C 
BRANCH  33  34
ATOM     34  C   UNL A   1      40.808  21.821  27.054  1.00  0.00     0.188 C 
BRANCH  34  35
ATOM     35  O   UNL A   1      41.511  21.356  25.925  1.00  0.00    -0.376 OA
BRANCH  35  36
ATOM     36  C   UNL A   1      42.886  21.658  25.792  1.00  0.00     0.202 C 
BRANCH  36  37
ATOM     37  C   UNL A   1      43.420  22.751  24.843  1.00  0.00     0.261 C 
BRANCH  37  38
ATOM     38  O   UNL A   1      43.047  24.112  25.116  1.00  0.00    -0.460 OA
BRANCH  38  39
ATOM     39  C   UNL A   1      44.063  24.957  25.429  1.00  0.00     0.338 C 
ATOM     40  O   UNL A   1      45.011  25.263  24.728  1.00  0.00    -0.246 OA
BRANCH  39  41
ATOM     41  C   UNL A   1      43.770  25.631  26.715  1.00  0.00     0.060 A 
ATOM     42  C   UNL A   1      42.906  25.007  27.629  1.00  0.00     0.016 A 
ATOM     43  C   UNL A   1      44.303  26.886  27.001  1.00  0.00     0.016 A 
ATOM     44  C   UNL A   1      42.565  25.644  28.826  1.00  0.00     0.010 A 
ATOM     45  C   UNL A   1      43.938  27.535  28.188  1.00  0.00     0.010 A 
ATOM     46  C   UNL A   1      43.050  26.928  29.098  1.00  0.00    -0.014 A 
BRANCH  46  47
ATOM     47  C   UNL A   1      42.519  27.705  30.250  1.00  0.00     0.031 A 
ATOM     48  C   UNL A   1      41.267  28.519  30.064  1.00  0.00     0.074 A 
ATOM     49  C   UNL A   1      43.133  27.690  31.447  1.00  0.00     0.049 A 
ATOM     50  N   UNL A   1      40.679  29.347  30.890  1.00  0.00    -0.248 NA
ATOM     51  C   UNL A   1      40.587  28.381  28.766  1.00  0.00     0.031 C 
ATOM     52  C   UNL A   1      44.323  26.910  31.779  1.00  0.00     0.029 A 
ATOM     53  N   UNL A   1      42.847  28.374  32.605  1.00  0.00    -0.354 N 
ATOM     54  C   UNL A   1      39.567  29.832  30.212  1.00  0.00     0.074 A 
ATOM     55  C   UNL A   1      39.579  29.229  28.896  1.00  0.00     0.031 C 
ATOM     56  C   UNL A   1      44.677  27.175  33.049  1.00  0.00     0.029 A 
ATOM     57  C   UNL A   1      43.766  28.173  33.606  1.00  0.00     0.049 A 
ATOM     58  H   UNL A   1      42.056  28.952  32.707  1.00  0.00     0.167 HD
ATOM     59  C   UNL A   1      38.620  30.696  30.649  1.00  0.00     0.037 A 
ATOM     60  C   UNL A   1      43.879  28.757  34.817  1.00  0.00     0.037 A 
ATOM     61  C   UNL A   1      38.610  31.301  31.956  1.00  0.00     0.049 A 
ATOM     62  C   UNL A   1      42.863  29.790  35.243  1.00  0.00     0.074 A 
ATOM     63  C   UNL A   1      37.686  32.181  32.493  1.00  0.00     0.029 A 
ATOM     64  N   UNL A   1      39.576  31.096  32.930  1.00  0.00    -0.354 N 
ATOM     65  N   UNL A   1      41.803  30.228  34.606  1.00  0.00    -0.248 NA
ATOM     66  C   UNL A   1      43.061  30.412  36.561  1.00  0.00     0.031 C 
ATOM     67  C   UNL A   1      38.124  32.557  33.765  1.00  0.00     0.029 A 
ATOM     68  C   UNL A   1      39.285  31.857  34.052  1.00  0.00     0.049 A 
ATOM     69  H   UNL A   1      40.353  30.498  32.838  1.00  0.00     0.167 HD
ATOM     70  C   UNL A   1      41.194  31.143  35.457  1.00  0.00     0.074 A 
ATOM     71  C   UNL A   1      41.990  31.186  36.664  1.00  0.00     0.031 C 
ATOM     72  C   UNL A   1      40.075  31.882  35.256  1.00  0.00     0.037 A 
BRANCH  59  73
ATOM     73  C   UNL A   1      37.517  31.064  29.698  1.00  0.00     0.064 A 
ATOM     74  C   UNL A   1      36.454  30.190  29.428  1.00  0.00     0.173 A 
ATOM     75  C   UNL A   1      37.493  32.333  29.098  1.00  0.00     0.173 A 
ATOM     76  F   UNL A   1      36.435  28.962  29.967  1.00  0.00    -0.203 F 
ATOM     77  C   UNL A   1      35.417  30.565  28.576  1.00  0.00     0.198 A 
ATOM     78  C   UNL A   1      36.439  32.716  28.273  1.00  0.00     0.198 A 
ATOM     79  F   UNL A   1      38.481  33.210  29.328  1.00  0.00    -0.203 F 
ATOM     80  F   UNL A   1      34.433  29.699  28.301  1.00  0.00    -0.200 F 
ATOM     81  C   UNL A   1      35.405  31.831  28.008  1.00  0.00     0.200 A 
ATOM     82  F   UNL A   1      36.421  33.945  27.740  1.00  0.00    -0.200 F 
ATOM     83  F   UNL A   1      34.399  32.195  27.203  1.00  0.00    -0.200 F 
ENDBRANCH  59  73
BRANCH  60  84
ATOM     84  C   UNL A   1      45.017  28.413  35.716  1.00  0.00     0.064 A 
ATOM     85  C   UNL A   1      46.275  29.008  35.553  1.00  0.00     0.173 A 
ATOM     86  C   UNL A   1      44.885  27.437  36.716  1.00  0.00     0.173 A 
ATOM     87  F   UNL A   1      46.464  29.924  34.592  1.00  0.00    -0.203 F 
ATOM     88  C   UNL A   1      47.365  28.618  36.331  1.00  0.00     0.198 A 
ATOM     89  C   UNL A   1      45.965  27.075  37.518  1.00  0.00     0.198 A 
ATOM     90  F   UNL A   1      43.705  26.830  36.912  1.00  0.00    -0.203 F 
ATOM     91  F   UNL A   1      48.573  29.152  36.103  1.00  0.00    -0.200 F 
ATOM     92  C   UNL A   1      47.207  27.654  37.315  1.00  0.00     0.200 A 
ATOM     93  F   UNL A   1      45.804  26.151  38.477  1.00  0.00    -0.200 F 
ATOM     94  F   UNL A   1      48.256  27.275  38.059  1.00  0.00    -0.200 F 
ENDBRANCH  60  84
BRANCH  72  95
ATOM     95  C   UNL A   1      39.611  32.768  36.380  1.00  0.00     0.064 A 
ATOM     96  C   UNL A   1      38.629  32.355  37.294  1.00  0.00     0.173 A 
ATOM     97  C   UNL A   1      40.188  34.035  36.569  1.00  0.00     0.173 A 
ATOM     98  F   UNL A   1      38.036  31.160  37.153  1.00  0.00    -0.203 F 
ATOM     99  C   UNL A   1      38.223  33.187  38.334  1.00  0.00     0.198 A 
ATOM    100  C   UNL A   1      39.804  34.849  37.633  1.00  0.00     0.198 A 
ATOM    101  F   UNL A   1      41.138  34.478  35.733  1.00  0.00    -0.203 F 
ATOM    102  F   UNL A   1      37.244  32.793  39.161  1.00  0.00    -0.200 F 
ATOM    103  C   UNL A   1      38.815  34.429  38.507  1.00  0.00     0.200 A 
ATOM    104  F   UNL A   1      40.394  36.040  37.808  1.00  0.00    -0.200 F 
ATOM    105  F   UNL A   1      38.428  35.223  39.515  1.00  0.00    -0.200 F 
ENDBRANCH  72  95
ENDBRANCH  46  47
ENDBRANCH  39  41
ENDBRANCH  38  39
ENDBRANCH  37  38
ENDBRANCH  36  37
ENDBRANCH  35  36
ENDBRANCH  34  35
ENDBRANCH  33  34
ENDBRANCH  32  33
ENDBRANCH  31  32
ENDBRANCH   1  31
TORSDOF 25
ENDMDL
MODEL 3
REMARK VINA RESULT:     -10.7      0.899      6.975
REMARK SMILES C[C@H](NC(=O)OCc1ccccc1)C(=O)NCC(=O)N1CCC[C@H]1C(=O)OCCOCCOCCOC(=O)c1ccc(-c2c3nc(c(-c4c(F)c(F)c(F)c(F)c4F)c4ccc([nH]4)c(-c4c(F)c(F)c(F)c(F)c4F)c4nc(c(-c5c(F)c(F)c(F)c(F)c5F)c5ccc2[nH]5)C=C4)C=C3)cc1
REMARK SMILES IDX 28 1 27 2 25 3 26 4 24 5 20 6 21 7 22 8 23 9 18 10 19 11
REMARK SMILES IDX 17 12 16 13 14 14 15 15 2 17 1 18 3 19 4 20 5 22 6 23 7 24
REMARK SMILES IDX 8 25 9 26 13 27 10 28 12 29 11 30 29 31 30 32 31 33 32 34
REMARK SMILES IDX 33 35 34 36 35 37 36 38 37 39 38 40 39 41 40 42 101 43 41 44
REMARK SMILES IDX 100 45 42 46 43 47 44 48 94 49 45 50 99 51 93 52 95 53 46 54
REMARK SMILES IDX 98 55 92 56 91 57 47 59 79 60 59 61 78 62 60 63 63 64 77 65
REMARK SMILES IDX 96 66 61 67 62 68 76 70 97 71 64 72 48 73 49 74 57 75 50 76
REMARK SMILES IDX 51 77 55 78 58 79 52 80 53 81 56 82 54 83 80 84 81 85 89 86
REMARK SMILES IDX 82 87 83 88 87 89 90 90 84 91 85 92 88 93 86 94 65 95 66 96
REMARK SMILES IDX 74 97 67 98 68 99 72 100 75 101 69 102 70 103 73 104 71 105
REMARK H PARENT 16 16 3 21 95 58 63 69
REMARK Flexibility Score: inf
ROOT
ATOM      1  C   UNL A   1      33.633  25.258  22.856  1.00  0.00     0.261 C 
ENDROOT
BRANCH   1   2
ATOM      2  O   UNL A   1      33.527  26.586  23.366  1.00  0.00    -0.462 OA
BRANCH   2   3
ATOM      3  C   UNL A   1      32.272  27.119  23.416  1.00  0.00     0.328 C 
ATOM      4  O   UNL A   1      31.325  26.752  22.729  1.00  0.00    -0.250 OA
BRANCH   3   5
ATOM      5  C   UNL A   1      32.175  28.173  24.536  1.00  0.00     0.195 C 
ATOM      6  N   UNL A   1      32.321  27.493  25.816  1.00  0.00    -0.327 N 
ATOM      7  C   UNL A   1      33.712  27.587  26.240  1.00  0.00     0.120 C 
ATOM      8  C   UNL A   1      34.118  28.974  25.780  1.00  0.00     0.024 C 
ATOM      9  C   UNL A   1      33.343  29.173  24.484  1.00  0.00     0.039 C 
BRANCH   6  10
ATOM     10  C   UNL A   1      31.244  26.765  26.262  1.00  0.00     0.242 C 
ATOM     11  O   UNL A   1      30.653  27.111  27.294  1.00  0.00    -0.273 OA
BRANCH  10  12
ATOM     12  C   UNL A   1      30.865  25.417  25.653  1.00  0.00     0.216 C 
BRANCH  12  13
ATOM     13  N   UNL A   1      30.102  24.476  26.437  1.00  0.00    -0.345 N 
ATOM     14  C   UNL A   1      30.368  23.167  26.726  1.00  0.00     0.242 C 
ATOM     15  O   UNL A   1      29.569  22.574  27.454  1.00  0.00    -0.273 OA
ATOM     16  H   UNL A   1      29.266  24.828  26.819  1.00  0.00     0.164 HD
BRANCH  14  17
ATOM     17  C   UNL A   1      31.651  22.477  26.217  1.00  0.00     0.171 C 
ATOM     18  C   UNL A   1      32.840  22.872  27.090  1.00  0.00     0.042 C 
BRANCH  17  19
ATOM     19  N   UNL A   1      31.870  22.740  24.799  1.00  0.00    -0.310 N 
ATOM     20  C   UNL A   1      32.033  21.833  23.799  1.00  0.00     0.408 C 
ATOM     21  H   UNL A   1      31.904  23.688  24.534  1.00  0.00     0.167 HD
ATOM     22  O   UNL A   1      32.207  22.196  22.648  1.00  0.00    -0.225 OA
BRANCH  20  23
ATOM     23  O   UNL A   1      32.020  20.557  24.246  1.00  0.00    -0.445 OA
BRANCH  23  24
ATOM     24  C   UNL A   1      32.401  19.574  23.275  1.00  0.00     0.270 C 
BRANCH  24  25
ATOM     25  C   UNL A   1      32.828  18.263  23.888  1.00  0.00    -0.011 A 
ATOM     26  C   UNL A   1      32.527  17.938  25.218  1.00  0.00     0.007 A 
ATOM     27  C   UNL A   1      33.595  17.368  23.129  1.00  0.00     0.007 A 
ATOM     28  C   UNL A   1      32.961  16.728  25.765  1.00  0.00     0.000 A 
ATOM     29  C   UNL A   1      34.033  16.164  23.678  1.00  0.00     0.000 A 
ATOM     30  C   UNL A   1      33.713  15.843  24.996  1.00  0.00     0.000 A 
ENDBRANCH  24  25
ENDBRANCH  23  24
ENDBRANCH  20  23
ENDBRANCH  17  19
ENDBRANCH  14  17
ENDBRANCH  12  13
ENDBRANCH  10  12
ENDBRANCH   6  10
ENDBRANCH   3   5
ENDBRANCH   2   3
ENDBRANCH   1   2
BRANCH   1  31
ATOM     31  C   UNL A   1      34.712  24.351  23.480  1.00  0.00     0.202 C 
BRANCH  31  32
ATOM     32  O   UNL A   1      35.427  23.330  22.803  1.00  0.00    -0.376 OA
BRANCH  32  33
ATOM     33  C   UNL A   1      36.624  22.820  23.338  1.00  0.00     0.188 C 
BRANCH  33  34
ATOM     34  C   UNL A   1      36.800  22.858  24.872  1.00  0.00     0.188 C 
BRANCH  34  35
ATOM     35  O   UNL A   1      37.558  21.864  25.523  1.00  0.00    -0.376 OA
BRANCH  35  36
ATOM     36  C   UNL A   1      37.575  20.550  24.998  1.00  0.00     0.202 C 
BRANCH  36  37
ATOM     37  C   UNL A   1      38.757  19.579  25.201  1.00  0.00     0.261 C 
BRANCH  37  38
ATOM     38  O   UNL A   1      39.511  19.691  26.419  1.00  0.00    -0.460 OA
BRANCH  38  39
ATOM     39  C   UNL A   1      40.852  19.856  26.277  1.00  0.00     0.338 C 
ATOM     40  O   UNL A   1      41.639  19.084  25.759  1.00  0.00    -0.246 OA
BRANCH  39  41
ATOM     41  C   UNL A   1      41.229  21.229  26.685  1.00  0.00     0.060 A 
ATOM     42  C   UNL A   1      40.998  22.291  25.797  1.00  0.00     0.016 A 
ATOM     43  C   UNL A   1      41.846  21.464  27.913  1.00  0.00     0.016 A 
ATOM     44  C   UNL A   1      41.395  23.589  26.130  1.00  0.00     0.010 A 
ATOM     45  C   UNL A   1      42.268  22.761  28.233  1.00  0.00     0.010 A 
ATOM     46  C   UNL A   1      42.066  23.828  27.335  1.00  0.00    -0.014 A 
BRANCH  46  47
ATOM     47  C   UNL A   1      42.690  25.152  27.599  1.00  0.00     0.031 A 
ATOM     48  C   UNL A   1      41.857  26.234  28.231  1.00  0.00     0.074 A 
ATOM     49  C   UNL A   1      43.975  25.396  27.287  1.00  0.00     0.049 A 
ATOM     50  N   UNL A   1      42.154  27.489  28.464  1.00  0.00    -0.248 NA
ATOM     51  C   UNL A   1      40.502  25.849  28.658  1.00  0.00     0.031 C 
ATOM     52  C   UNL A   1      44.907  24.426  26.717  1.00  0.00     0.029 A 
ATOM     53  N   UNL A   1      44.714  26.551  27.391  1.00  0.00    -0.354 N 
ATOM     54  C   UNL A   1      41.025  28.042  29.056  1.00  0.00     0.074 A 
ATOM     55  C   UNL A   1      40.027  26.996  29.120  1.00  0.00     0.031 C 
ATOM     56  C   UNL A   1      46.088  25.032  26.501  1.00  0.00     0.029 A 
ATOM     57  C   UNL A   1      45.984  26.440  26.878  1.00  0.00     0.049 A 
ATOM     58  H   UNL A   1      44.367  27.378  27.796  1.00  0.00     0.167 HD
ATOM     59  C   UNL A   1      40.841  29.304  29.510  1.00  0.00     0.037 A 
ATOM     60  C   UNL A   1      46.938  27.378  26.699  1.00  0.00     0.037 A 
ATOM     61  C   UNL A   1      41.831  30.348  29.442  1.00  0.00     0.049 A 
ATOM     62  C   UNL A   1      46.671  28.801  27.126  1.00  0.00     0.074 A 
ATOM     63  C   UNL A   1      41.739  31.656  29.886  1.00  0.00     0.029 A 
ATOM     64  N   UNL A   1      43.094  30.204  28.886  1.00  0.00    -0.354 N 
ATOM     65  N   UNL A   1      45.610  29.313  27.704  1.00  0.00    -0.248 NA
ATOM     66  C   UNL A   1      47.739  29.782  26.875  1.00  0.00     0.031 C 
ATOM     67  C   UNL A   1      42.919  32.320  29.543  1.00  0.00     0.029 A 
ATOM     68  C   UNL A   1      43.777  31.409  28.950  1.00  0.00     0.049 A 
ATOM     69  H   UNL A   1      43.452  29.371  28.505  1.00  0.00     0.167 HD
ATOM     70  C   UNL A   1      45.897  30.656  27.916  1.00  0.00     0.074 A 
ATOM     71  C   UNL A   1      47.238  30.880  27.422  1.00  0.00     0.031 C 
ATOM     72  C   UNL A   1      45.119  31.619  28.469  1.00  0.00     0.037 A 
BRANCH  59  73
ATOM     73  C   UNL A   1      39.505  29.645  30.106  1.00  0.00     0.064 A 
ATOM     74  C   UNL A   1      38.414  30.017  29.306  1.00  0.00     0.173 A 
ATOM     75  C   UNL A   1      39.297  29.537  31.490  1.00  0.00     0.173 A 
ATOM     76  F   UNL A   1      38.562  30.146  27.979  1.00  0.00    -0.203 F 
ATOM     77  C   UNL A   1      37.170  30.288  29.872  1.00  0.00     0.198 A 
ATOM     78  C   UNL A   1      38.045  29.776  32.048  1.00  0.00     0.198 A 
ATOM     79  F   UNL A   1      40.304  29.177  32.300  1.00  0.00    -0.203 F 
ATOM     80  F   UNL A   1      36.154  30.681  29.093  1.00  0.00    -0.200 F 
ATOM     81  C   UNL A   1      36.984  30.157  31.241  1.00  0.00     0.200 A 
ATOM     82  F   UNL A   1      37.862  29.631  33.368  1.00  0.00    -0.200 F 
ATOM     83  F   UNL A   1      35.783  30.401  31.781  1.00  0.00    -0.200 F 
ENDBRANCH  59  73
BRANCH  60  84
ATOM     84  C   UNL A   1      48.233  27.022  26.054  1.00  0.00     0.064 A 
ATOM     85  C   UNL A   1      49.358  26.687  26.820  1.00  0.00     0.173 A 
ATOM     86  C   UNL A   1      48.388  27.071  24.660  1.00  0.00     0.173 A 
ATOM     87  F   UNL A   1      49.272  26.656  28.158  1.00  0.00    -0.203 F 
ATOM     88  C   UNL A   1      50.594  26.447  26.222  1.00  0.00     0.198 A 
ATOM     89  C   UNL A   1      49.615  26.794  24.060  1.00  0.00     0.198 A 
ATOM     90  F   UNL A   1      47.347  27.392  23.878  1.00  0.00    -0.203 F 
ATOM     91  F   UNL A   1      51.668  26.200  26.984  1.00  0.00    -0.200 F 
ATOM     92  C   UNL A   1      50.720  26.497  24.842  1.00  0.00     0.200 A 
ATOM     93  F   UNL A   1      49.729  26.831  22.725  1.00  0.00    -0.200 F 
ATOM     94  F   UNL A   1      51.910  26.272  24.267  1.00  0.00    -0.200 F 
ENDBRANCH  60  84
BRANCH  72  95
ATOM     95  C   UNL A   1      45.709  32.995  28.618  1.00  0.00     0.064 A 
ATOM     96  C   UNL A   1      46.464  33.362  29.743  1.00  0.00     0.173 A 
ATOM     97  C   UNL A   1      45.550  33.949  27.599  1.00  0.00     0.173 A 
ATOM     98  F   UNL A   1      46.636  32.494  30.752  1.00  0.00    -0.203 F 
ATOM     99  C   UNL A   1      47.010  34.638  29.855  1.00  0.00     0.198 A 
ATOM    100  C   UNL A   1      46.129  35.212  27.699  1.00  0.00     0.198 A 
ATOM    101  F   UNL A   1      44.848  33.651  26.496  1.00  0.00    -0.203 F 
ATOM    102  F   UNL A   1      47.679  34.983  30.965  1.00  0.00    -0.200 F 
ATOM    103  C   UNL A   1      46.849  35.559  28.831  1.00  0.00     0.200 A 
ATOM    104  F   UNL A   1      45.989  36.092  26.698  1.00  0.00    -0.200 F 
ATOM    105  F   UNL A   1      47.385  36.783  28.938  1.00  0.00    -0.200 F 
ENDBRANCH  72  95
ENDBRANCH  46  47
ENDBRANCH  39  41
ENDBRANCH  38  39
ENDBRANCH  37  38
ENDBRANCH  36  37
ENDBRANCH  35  36
ENDBRANCH  34  35
ENDBRANCH  33  34
ENDBRANCH  32  33
ENDBRANCH  31  32
ENDBRANCH   1  31
TORSDOF 25
ENDMDL
