MODEL 1
REMARK VINA RESULT:     -11.7      0.000      0.000
REMARK SMILES Cc1ccc(NC(=O)C[C@H]2C(=O)NCCN2C(=O)CCC(=O)OCCOCCOCCOC(=O)c2ccc(-c3c4nc(c(-c5c(F)c(F)c(F)c(F)c5F)c5ccc([nH]5)c(-c5c(F)c(F)c(F)c(F)c5F)c5nc(c(-c6c(F)c(F)c(F)c(F)c6F)c6ccc3[nH]6)C=C5)C=C4)cc2)c(C)c1
REMARK SMILES IDX 25 1 24 2 23 3 21 4 22 5 20 6 19 7 17 8 18 9 16 10 10 11
REMARK SMILES IDX 11 12 12 13 13 14 15 15 14 16 9 18 7 19 6 20 8 22 5 23 1 24
REMARK SMILES IDX 2 25 3 26 100 27 4 28 98 29 99 30 26 31 27 32 28 33 29 34
REMARK SMILES IDX 30 35 31 36 32 37 33 38 34 39 35 40 36 41 97 42 37 43 96 44
REMARK SMILES IDX 38 45 39 46 40 47 90 48 41 49 95 50 89 51 91 52 42 53 94 54
REMARK SMILES IDX 88 55 87 56 43 58 75 59 55 60 74 61 56 62 59 63 73 64 92 65
REMARK SMILES IDX 57 66 58 67 72 69 93 70 60 71 44 72 45 73 53 74 46 75 47 76
REMARK SMILES IDX 51 77 54 78 48 79 49 80 52 81 50 82 76 83 77 84 85 85 78 86
REMARK SMILES IDX 79 87 83 88 86 89 80 90 81 91 84 92 82 93 61 94 62 95 70 96
REMARK SMILES IDX 63 97 64 98 68 99 71 100 65 101 66 102 69 103 67 104
REMARK H PARENT 13 17 6 21 91 57 59 68
REMARK Flexibility Score: inf
ROOT
ATOM      1  C   UNL A   1      41.946  19.215  26.099  1.00  0.00     0.202 C 
ENDROOT
BRANCH   1   2
ATOM      2  C   UNL A   1      40.834  20.025  26.773  1.00  0.00     0.261 C 
BRANCH   2   3
ATOM      3  O   UNL A   1      40.495  21.154  25.933  1.00  0.00    -0.463 OA
BRANCH   3   4
ATOM      4  C   UNL A   1      39.334  21.800  26.126  1.00  0.00     0.306 C 
ATOM      5  O   UNL A   1      39.195  22.759  26.876  1.00  0.00    -0.252 OA
BRANCH   4   6
ATOM      6  C   UNL A   1      38.195  21.281  25.271  1.00  0.00     0.132 C 
BRANCH   6   7
ATOM      7  C   UNL A   1      36.733  21.706  25.405  1.00  0.00     0.112 C 
BRANCH   7   8
ATOM      8  C   UNL A   1      35.700  22.193  24.359  1.00  0.00     0.223 C 
ATOM      9  O   UNL A   1      36.171  22.692  23.324  1.00  0.00    -0.275 OA
BRANCH   8  10
ATOM     10  N   UNL A   1      34.339  21.940  24.405  1.00  0.00    -0.328 N 
ATOM     11  C   UNL A   1      33.263  22.917  24.513  1.00  0.00     0.183 C 
ATOM     12  C   UNL A   1      32.275  22.692  25.689  1.00  0.00     0.243 C 
ATOM     13  O   UNL A   1      31.422  23.521  26.002  1.00  0.00    -0.273 OA
ATOM     14  N   UNL A   1      32.358  21.511  26.378  1.00  0.00    -0.353 N 
ATOM     15  C   UNL A   1      33.890  20.568  24.691  1.00  0.00     0.141 C 
ATOM     16  C   UNL A   1      33.374  20.506  26.128  1.00  0.00     0.137 C 
ATOM     17  H   UNL A   1      31.691  21.334  27.080  1.00  0.00     0.163 HD
BRANCH  11  18
ATOM     18  C   UNL A   1      32.494  23.240  23.221  1.00  0.00     0.135 C 
BRANCH  18  19
ATOM     19  C   UNL A   1      32.998  24.353  22.324  1.00  0.00     0.227 C 
ATOM     20  N   UNL A   1      32.988  25.684  22.620  1.00  0.00    -0.326 N 
ATOM     21  H   UNL A   1      33.339  26.242  21.888  1.00  0.00     0.169 HD
ATOM     22  O   UNL A   1      33.516  24.049  21.240  1.00  0.00    -0.275 OA
BRANCH  20  23
ATOM     23  C   UNL A   1      32.586  26.437  23.737  1.00  0.00     0.044 A 
ATOM     24  C   UNL A   1      31.780  28.111  27.627  1.00  0.00     0.044 C 
ATOM     25  C   UNL A   1      32.075  27.690  26.217  1.00  0.00    -0.051 A 
ATOM     26  C   UNL A   1      33.384  27.448  25.813  1.00  0.00     0.005 A 
ATOM     27  C   UNL A   1      31.043  27.428  25.311  1.00  0.00     0.009 A 
ATOM     28  C   UNL A   1      33.635  26.856  24.574  1.00  0.00     0.026 A 
ATOM     29  C   UNL A   1      31.282  26.821  24.056  1.00  0.00    -0.027 A 
ATOM     30  C   UNL A   1      30.119  26.683  23.122  1.00  0.00     0.046 C 
ENDBRANCH  20  23
ENDBRANCH  18  19
ENDBRANCH  11  18
ENDBRANCH   8  10
ENDBRANCH   7   8
ENDBRANCH   6   7
ENDBRANCH   4   6
ENDBRANCH   3   4
ENDBRANCH   2   3
ENDBRANCH   1   2
BRANCH   1  31
ATOM     31  O   UNL A   1      42.889  20.008  25.368  1.00  0.00    -0.376 OA
BRANCH  31  32
ATOM     32  C   UNL A   1      43.932  19.288  24.734  1.00  0.00     0.188 C 
BRANCH  32  33
ATOM     33  C   UNL A   1      45.189  19.066  25.575  1.00  0.00     0.188 C 
BRANCH  33  34
ATOM     34  O   UNL A   1      46.299  19.932  25.377  1.00  0.00    -0.376 OA
BRANCH  34  35
ATOM     35  C   UNL A   1      46.021  21.156  24.673  1.00  0.00     0.202 C 
BRANCH  35  36
ATOM     36  C   UNL A   1      45.951  22.443  25.517  1.00  0.00     0.261 C 
BRANCH  36  37
ATOM     37  O   UNL A   1      44.665  22.719  26.114  1.00  0.00    -0.460 OA
BRANCH  37  38
ATOM     38  C   UNL A   1      43.762  23.456  25.416  1.00  0.00     0.338 C 
ATOM     39  O   UNL A   1      43.315  23.201  24.324  1.00  0.00    -0.246 OA
BRANCH  38  40
ATOM     40  C   UNL A   1      43.180  24.469  26.358  1.00  0.00     0.060 A 
ATOM     41  C   UNL A   1      43.584  25.809  26.224  1.00  0.00     0.016 A 
ATOM     42  C   UNL A   1      42.125  24.155  27.224  1.00  0.00     0.016 A 
ATOM     43  C   UNL A   1      42.971  26.815  26.982  1.00  0.00     0.010 A 
ATOM     44  C   UNL A   1      41.503  25.159  27.970  1.00  0.00     0.010 A 
ATOM     45  C   UNL A   1      41.954  26.488  27.888  1.00  0.00    -0.014 A 
BRANCH  45  46
ATOM     46  C   UNL A   1      41.571  27.432  28.969  1.00  0.00     0.031 A 
ATOM     47  C   UNL A   1      42.350  27.336  30.256  1.00  0.00     0.074 A 
ATOM     48  C   UNL A   1      40.569  28.321  28.851  1.00  0.00     0.049 A 
ATOM     49  N   UNL A   1      42.159  27.939  31.401  1.00  0.00    -0.248 NA
ATOM     50  C   UNL A   1      43.498  26.414  30.247  1.00  0.00     0.031 C 
ATOM     51  C   UNL A   1      39.765  28.544  27.653  1.00  0.00     0.029 A 
ATOM     52  N   UNL A   1      40.047  29.194  29.775  1.00  0.00    -0.354 N 
ATOM     53  C   UNL A   1      43.149  27.454  32.245  1.00  0.00     0.074 A 
ATOM     54  C   UNL A   1      43.915  26.484  31.499  1.00  0.00     0.031 C 
ATOM     55  C   UNL A   1      38.838  29.483  27.920  1.00  0.00     0.029 A 
ATOM     56  C   UNL A   1      38.959  29.899  29.319  1.00  0.00     0.049 A 
ATOM     57  H   UNL A   1      40.418  29.305  30.680  1.00  0.00     0.167 HD
ATOM     58  C   UNL A   1      43.407  27.794  33.529  1.00  0.00     0.037 A 
ATOM     59  C   UNL A   1      38.143  30.755  29.968  1.00  0.00     0.037 A 
ATOM     60  C   UNL A   1      42.643  28.756  34.272  1.00  0.00     0.049 A 
ATOM     61  C   UNL A   1      38.400  31.063  31.426  1.00  0.00     0.074 A 
ATOM     62  C   UNL A   1      42.826  29.181  35.574  1.00  0.00     0.029 A 
ATOM     63  N   UNL A   1      41.539  29.435  33.776  1.00  0.00    -0.354 N 
ATOM     64  N   UNL A   1      39.352  30.621  32.213  1.00  0.00    -0.248 NA
ATOM     65  C   UNL A   1      37.467  31.990  32.086  1.00  0.00     0.031 C 
ATOM     66  C   UNL A   1      41.796  30.073  35.888  1.00  0.00     0.029 A 
ATOM     67  C   UNL A   1      41.016  30.259  34.757  1.00  0.00     0.049 A 
ATOM     68  H   UNL A   1      41.183  29.346  32.863  1.00  0.00     0.167 HD
ATOM     69  C   UNL A   1      39.157  31.243  33.442  1.00  0.00     0.074 A 
ATOM     70  C   UNL A   1      37.998  32.098  33.296  1.00  0.00     0.031 C 
ATOM     71  C   UNL A   1      39.875  31.122  34.587  1.00  0.00     0.037 A 
BRANCH  58  72
ATOM     72  C   UNL A   1      44.542  27.091  34.214  1.00  0.00     0.064 A 
ATOM     73  C   UNL A   1      45.858  27.575  34.154  1.00  0.00     0.173 A 
ATOM     74  C   UNL A   1      44.307  25.919  34.948  1.00  0.00     0.173 A 
ATOM     75  F   UNL A   1      46.140  28.678  33.445  1.00  0.00    -0.203 F 
ATOM     76  C   UNL A   1      46.900  26.894  34.778  1.00  0.00     0.198 A 
ATOM     77  C   UNL A   1      45.346  25.261  35.600  1.00  0.00     0.198 A 
ATOM     78  F   UNL A   1      43.069  25.411  35.035  1.00  0.00    -0.203 F 
ATOM     79  F   UNL A   1      48.157  27.341  34.655  1.00  0.00    -0.200 F 
ATOM     80  C   UNL A   1      46.642  25.743  35.507  1.00  0.00     0.200 A 
ATOM     81  F   UNL A   1      45.093  24.155  36.314  1.00  0.00    -0.200 F 
ATOM     82  F   UNL A   1      47.645  25.092  36.111  1.00  0.00    -0.200 F 
ENDBRANCH  58  72
BRANCH  59  83
ATOM     83  C   UNL A   1      36.989  31.380  29.261  1.00  0.00     0.064 A 
ATOM     84  C   UNL A   1      36.989  32.745  28.935  1.00  0.00     0.173 A 
ATOM     85  C   UNL A   1      35.847  30.636  28.931  1.00  0.00     0.173 A 
ATOM     86  F   UNL A   1      38.042  33.510  29.260  1.00  0.00    -0.203 F 
ATOM     87  C   UNL A   1      35.886  33.344  28.328  1.00  0.00     0.198 A 
ATOM     88  C   UNL A   1      34.756  31.229  28.294  1.00  0.00     0.198 A 
ATOM     89  F   UNL A   1      35.786  29.330  29.228  1.00  0.00    -0.203 F 
ATOM     90  F   UNL A   1      35.892  34.661  28.082  1.00  0.00    -0.200 F 
ATOM     91  C   UNL A   1      34.773  32.584  28.001  1.00  0.00     0.200 A 
ATOM     92  F   UNL A   1      33.686  30.489  27.975  1.00  0.00    -0.200 F 
ATOM     93  F   UNL A   1      33.713  33.160  27.418  1.00  0.00    -0.200 F 
ENDBRANCH  59  83
BRANCH  71  94
ATOM     94  C   UNL A   1      39.480  31.977  35.758  1.00  0.00     0.064 A 
ATOM     95  C   UNL A   1      40.038  33.245  35.976  1.00  0.00     0.173 A 
ATOM     96  C   UNL A   1      38.467  31.548  36.632  1.00  0.00     0.173 A 
ATOM     97  F   UNL A   1      41.015  33.699  35.176  1.00  0.00    -0.203 F 
ATOM     98  C   UNL A   1      39.613  34.041  37.036  1.00  0.00     0.198 A 
ATOM     99  C   UNL A   1      38.021  32.360  37.669  1.00  0.00     0.198 A 
ATOM    100  F   UNL A   1      37.891  30.348  36.460  1.00  0.00    -0.203 F 
ATOM    101  F   UNL A   1      40.188  35.232  37.249  1.00  0.00    -0.200 F 
ATOM    102  C   UNL A   1      38.598  33.604  37.875  1.00  0.00     0.200 A 
ATOM    103  F   UNL A   1      37.026  31.942  38.464  1.00  0.00    -0.200 F 
ATOM    104  F   UNL A   1      38.178  34.380  38.883  1.00  0.00    -0.200 F 
ENDBRANCH  71  94
ENDBRANCH  45  46
ENDBRANCH  38  40
ENDBRANCH  37  38
ENDBRANCH  36  37
ENDBRANCH  35  36
ENDBRANCH  34  35
ENDBRANCH  33  34
ENDBRANCH  32  33
ENDBRANCH  31  32
ENDBRANCH   1  31
TORSDOF 23
ENDMDL
MODEL 2
REMARK VINA RESULT:     -11.6      0.999      2.260
REMARK SMILES Cc1ccc(NC(=O)C[C@H]2C(=O)NCCN2C(=O)CCC(=O)OCCOCCOCCOC(=O)c2ccc(-c3c4nc(c(-c5c(F)c(F)c(F)c(F)c5F)c5ccc([nH]5)c(-c5c(F)c(F)c(F)c(F)c5F)c5nc(c(-c6c(F)c(F)c(F)c(F)c6F)c6ccc3[nH]6)C=C5)C=C4)cc2)c(C)c1
REMARK SMILES IDX 25 1 24 2 23 3 21 4 22 5 20 6 19 7 17 8 18 9 16 10 10 11
REMARK SMILES IDX 11 12 12 13 13 14 15 15 14 16 9 18 7 19 6 20 8 22 5 23 1 24
REMARK SMILES IDX 2 25 3 26 100 27 4 28 98 29 99 30 26 31 27 32 28 33 29 34
REMARK SMILES IDX 30 35 31 36 32 37 33 38 34 39 35 40 36 41 97 42 37 43 96 44
REMARK SMILES IDX 38 45 39 46 40 47 90 48 41 49 95 50 89 51 91 52 42 53 94 54
REMARK SMILES IDX 88 55 87 56 43 58 75 59 55 60 74 61 56 62 59 63 73 64 92 65
REMARK SMILES IDX 57 66 58 67 72 69 93 70 60 71 44 72 45 73 53 74 46 75 47 76
REMARK SMILES IDX 51 77 54 78 48 79 49 80 52 81 50 82 76 83 77 84 85 85 78 86
REMARK SMILES IDX 79 87 83 88 86 89 80 90 81 91 84 92 82 93 61 94 62 95 70 96
REMARK SMILES IDX 63 97 64 98 68 99 71 100 65 101 66 102 69 103 67 104
REMARK H PARENT 13 17 6 21 91 57 59 68
REMARK Flexibility Score: inf
ROOT
ATOM      1  C   UNL A   1      42.484  19.403  26.041  1.00  0.00     0.202 C 
ENDROOT
BRANCH   1   2
ATOM      2  C   UNL A   1      41.769  20.649  26.574  1.00  0.00     0.261 C 
BRANCH   2   3
ATOM      3  O   UNL A   1      40.665  20.974  25.695  1.00  0.00    -0.463 OA
BRANCH   3   4
ATOM      4  C   UNL A   1      39.559  21.539  26.202  1.00  0.00     0.306 C 
ATOM      5  O   UNL A   1      39.540  22.239  27.208  1.00  0.00    -0.252 OA
BRANCH   4   6
ATOM      6  C   UNL A   1      38.312  21.294  25.374  1.00  0.00     0.132 C 
BRANCH   6   7
ATOM      7  C   UNL A   1      37.104  22.228  25.310  1.00  0.00     0.112 C 
BRANCH   7   8
ATOM      8  C   UNL A   1      35.599  21.953  25.069  1.00  0.00     0.223 C 
ATOM      9  O   UNL A   1      35.198  20.821  25.384  1.00  0.00    -0.275 OA
BRANCH   8  10
ATOM     10  N   UNL A   1      34.659  22.910  24.724  1.00  0.00    -0.328 N 
ATOM     11  C   UNL A   1      33.283  23.005  25.191  1.00  0.00     0.183 C 
ATOM     12  C   UNL A   1      32.204  23.065  24.075  1.00  0.00     0.243 C 
ATOM     13  O   UNL A   1      31.001  22.980  24.315  1.00  0.00    -0.273 OA
ATOM     14  N   UNL A   1      32.627  23.242  22.785  1.00  0.00    -0.353 N 
ATOM     15  C   UNL A   1      34.918  23.753  23.545  1.00  0.00     0.141 C 
ATOM     16  C   UNL A   1      34.024  23.282  22.396  1.00  0.00     0.137 C 
ATOM     17  H   UNL A   1      31.946  23.349  22.082  1.00  0.00     0.163 HD
BRANCH  11  18
ATOM     18  C   UNL A   1      32.993  24.056  26.274  1.00  0.00     0.135 C 
BRANCH  18  19
ATOM     19  C   UNL A   1      31.601  24.134  26.871  1.00  0.00     0.227 C 
ATOM     20  N   UNL A   1      30.671  25.094  26.607  1.00  0.00    -0.326 N 
ATOM     21  H   UNL A   1      29.839  24.972  27.120  1.00  0.00     0.169 HD
ATOM     22  O   UNL A   1      31.234  23.226  27.631  1.00  0.00    -0.275 OA
BRANCH  20  23
ATOM     23  C   UNL A   1      30.636  26.221  25.768  1.00  0.00     0.044 A 
ATOM     24  C   UNL A   1      30.780  29.096  22.558  1.00  0.00     0.044 C 
ATOM     25  C   UNL A   1      30.595  28.183  23.735  1.00  0.00    -0.051 A 
ATOM     26  C   UNL A   1      29.794  27.050  23.629  1.00  0.00     0.005 A 
ATOM     27  C   UNL A   1      31.301  28.387  24.925  1.00  0.00     0.009 A 
ATOM     28  C   UNL A   1      29.794  26.096  24.648  1.00  0.00     0.026 A 
ATOM     29  C   UNL A   1      31.315  27.425  25.963  1.00  0.00    -0.027 A 
ATOM     30  C   UNL A   1      32.017  27.792  27.235  1.00  0.00     0.046 C 
ENDBRANCH  20  23
ENDBRANCH  18  19
ENDBRANCH  11  18
ENDBRANCH   8  10
ENDBRANCH   7   8
ENDBRANCH   6   7
ENDBRANCH   4   6
ENDBRANCH   3   4
ENDBRANCH   2   3
ENDBRANCH   1   2
BRANCH   1  31
ATOM     31  O   UNL A   1      43.378  19.662  24.951  1.00  0.00    -0.376 OA
BRANCH  31  32
ATOM     32  C   UNL A   1      44.607  18.957  24.989  1.00  0.00     0.188 C 
BRANCH  32  33
ATOM     33  C   UNL A   1      45.803  19.741  25.531  1.00  0.00     0.188 C 
BRANCH  33  34
ATOM     34  O   UNL A   1      46.536  20.564  24.635  1.00  0.00    -0.376 OA
BRANCH  34  35
ATOM     35  C   UNL A   1      46.054  21.912  24.486  1.00  0.00     0.202 C 
BRANCH  35  36
ATOM     36  C   UNL A   1      45.911  22.745  25.774  1.00  0.00     0.261 C 
BRANCH  36  37
ATOM     37  O   UNL A   1      44.559  22.897  26.261  1.00  0.00    -0.460 OA
BRANCH  37  38
ATOM     38  C   UNL A   1      43.678  23.634  25.536  1.00  0.00     0.338 C 
ATOM     39  O   UNL A   1      43.253  23.371  24.437  1.00  0.00    -0.246 OA
BRANCH  38  40
ATOM     40  C   UNL A   1      43.085  24.663  26.453  1.00  0.00     0.060 A 
ATOM     41  C   UNL A   1      43.632  25.957  26.441  1.00  0.00     0.016 A 
ATOM     42  C   UNL A   1      41.903  24.425  27.168  1.00  0.00     0.016 A 
ATOM     43  C   UNL A   1      43.030  26.990  27.173  1.00  0.00     0.010 A 
ATOM     44  C   UNL A   1      41.295  25.456  27.886  1.00  0.00     0.010 A 
ATOM     45  C   UNL A   1      41.881  26.733  27.931  1.00  0.00    -0.014 A 
BRANCH  45  46
ATOM     46  C   UNL A   1      41.460  27.667  29.007  1.00  0.00     0.031 A 
ATOM     47  C   UNL A   1      42.222  27.589  30.304  1.00  0.00     0.074 A 
ATOM     48  C   UNL A   1      40.438  28.531  28.874  1.00  0.00     0.049 A 
ATOM     49  N   UNL A   1      42.000  28.186  31.446  1.00  0.00    -0.248 NA
ATOM     50  C   UNL A   1      43.392  26.695  30.311  1.00  0.00     0.031 C 
ATOM     51  C   UNL A   1      39.646  28.736  27.665  1.00  0.00     0.029 A 
ATOM     52  N   UNL A   1      39.882  29.391  29.791  1.00  0.00    -0.354 N 
ATOM     53  C   UNL A   1      42.990  27.725  32.305  1.00  0.00     0.074 A 
ATOM     54  C   UNL A   1      43.790  26.774  31.569  1.00  0.00     0.031 C 
ATOM     55  C   UNL A   1      38.693  29.652  27.920  1.00  0.00     0.029 A 
ATOM     56  C   UNL A   1      38.783  30.070  29.320  1.00  0.00     0.049 A 
ATOM     57  H   UNL A   1      40.236  29.510  30.702  1.00  0.00     0.167 HD
ATOM     58  C   UNL A   1      43.221  28.070  33.592  1.00  0.00     0.037 A 
ATOM     59  C   UNL A   1      37.937  30.905  29.958  1.00  0.00     0.037 A 
ATOM     60  C   UNL A   1      42.423  29.012  34.325  1.00  0.00     0.049 A 
ATOM     61  C   UNL A   1      38.166  31.218  31.419  1.00  0.00     0.074 A 
ATOM     62  C   UNL A   1      42.577  29.441  35.630  1.00  0.00     0.029 A 
ATOM     63  N   UNL A   1      41.311  29.665  33.814  1.00  0.00    -0.354 N 
ATOM     64  N   UNL A   1      39.117  30.798  32.220  1.00  0.00    -0.248 NA
ATOM     65  C   UNL A   1      37.202  32.121  32.067  1.00  0.00     0.031 C 
ATOM     66  C   UNL A   1      41.522  30.307  35.929  1.00  0.00     0.029 A 
ATOM     67  C   UNL A   1      40.754  30.475  34.788  1.00  0.00     0.049 A 
ATOM     68  H   UNL A   1      40.969  29.568  32.896  1.00  0.00     0.167 HD
ATOM     69  C   UNL A   1      38.891  31.415  33.446  1.00  0.00     0.074 A 
ATOM     70  C   UNL A   1      37.713  32.241  33.285  1.00  0.00     0.031 C 
ATOM     71  C   UNL A   1      39.595  31.310  34.601  1.00  0.00     0.037 A 
BRANCH  58  72
ATOM     72  C   UNL A   1      44.363  27.394  34.293  1.00  0.00     0.064 A 
ATOM     73  C   UNL A   1      44.207  26.159  34.941  1.00  0.00     0.173 A 
ATOM     74  C   UNL A   1      45.634  27.988  34.308  1.00  0.00     0.173 A 
ATOM     75  F   UNL A   1      43.007  25.561  34.976  1.00  0.00    -0.203 F 
ATOM     76  C   UNL A   1      45.274  25.560  35.605  1.00  0.00     0.198 A 
ATOM     77  C   UNL A   1      46.707  27.368  34.943  1.00  0.00     0.198 A 
ATOM     78  F   UNL A   1      45.837  29.169  33.707  1.00  0.00    -0.203 F 
ATOM     79  F   UNL A   1      45.087  24.412  36.271  1.00  0.00    -0.200 F 
ATOM     80  C   UNL A   1      46.525  26.161  35.599  1.00  0.00     0.200 A 
ATOM     81  F   UNL A   1      47.916  27.945  34.926  1.00  0.00    -0.200 F 
ATOM     82  F   UNL A   1      47.551  25.580  36.234  1.00  0.00    -0.200 F 
ENDBRANCH  58  72
BRANCH  59  83
ATOM     83  C   UNL A   1      36.779  31.502  29.235  1.00  0.00     0.064 A 
ATOM     84  C   UNL A   1      36.748  32.869  28.915  1.00  0.00     0.173 A 
ATOM     85  C   UNL A   1      35.662  30.730  28.884  1.00  0.00     0.173 A 
ATOM     86  F   UNL A   1      37.775  33.659  29.260  1.00  0.00    -0.203 F 
ATOM     87  C   UNL A   1      35.639  33.440  28.292  1.00  0.00     0.198 A 
ATOM     88  C   UNL A   1      34.567  31.297  28.231  1.00  0.00     0.198 A 
ATOM     89  F   UNL A   1      35.631  29.421  29.174  1.00  0.00    -0.203 F 
ATOM     90  F   UNL A   1      35.615  34.758  28.052  1.00  0.00    -0.200 F 
ATOM     91  C   UNL A   1      34.553  32.653  27.944  1.00  0.00     0.200 A 
ATOM     92  F   UNL A   1      33.522  30.530  27.892  1.00  0.00    -0.200 F 
ATOM     93  F   UNL A   1      33.487  33.203  27.346  1.00  0.00    -0.200 F 
ENDBRANCH  59  83
BRANCH  71  94
ATOM     94  C   UNL A   1      39.162  32.154  35.767  1.00  0.00     0.064 A 
ATOM     95  C   UNL A   1      38.317  31.658  36.771  1.00  0.00     0.173 A 
ATOM     96  C   UNL A   1      39.669  33.455  35.920  1.00  0.00     0.173 A 
ATOM     97  F   UNL A   1      37.799  30.425  36.670  1.00  0.00    -0.203 F 
ATOM     98  C   UNL A   1      37.978  32.442  37.872  1.00  0.00     0.198 A 
ATOM     99  C   UNL A   1      39.355  34.222  37.037  1.00  0.00     0.198 A 
ATOM    100  F   UNL A   1      40.491  33.973  34.995  1.00  0.00    -0.203 F 
ATOM    101  F   UNL A   1      37.137  31.963  38.798  1.00  0.00    -0.200 F 
ATOM    102  C   UNL A   1      38.505  33.718  38.010  1.00  0.00     0.200 A 
ATOM    103  F   UNL A   1      39.882  35.446  37.177  1.00  0.00    -0.200 F 
ATOM    104  F   UNL A   1      38.192  34.463  39.079  1.00  0.00    -0.200 F 
ENDBRANCH  71  94
ENDBRANCH  45  46
ENDBRANCH  38  40
ENDBRANCH  37  38
ENDBRANCH  36  37
ENDBRANCH  35  36
ENDBRANCH  34  35
ENDBRANCH  33  34
ENDBRANCH  32  33
ENDBRANCH  31  32
ENDBRANCH   1  31
TORSDOF 23
ENDMDL
MODEL 3
REMARK VINA RESULT:     -10.4      1.968      3.998
REMARK SMILES Cc1ccc(NC(=O)C[C@H]2C(=O)NCCN2C(=O)CCC(=O)OCCOCCOCCOC(=O)c2ccc(-c3c4nc(c(-c5c(F)c(F)c(F)c(F)c5F)c5ccc([nH]5)c(-c5c(F)c(F)c(F)c(F)c5F)c5nc(c(-c6c(F)c(F)c(F)c(F)c6F)c6ccc3[nH]6)C=C5)C=C4)cc2)c(C)c1
REMARK SMILES IDX 25 1 24 2 23 3 21 4 22 5 20 6 19 7 17 8 18 9 16 10 10 11
REMARK SMILES IDX 11 12 12 13 13 14 15 15 14 16 9 18 7 19 6 20 8 22 5 23 1 24
REMARK SMILES IDX 2 25 3 26 100 27 4 28 98 29 99 30 26 31 27 32 28 33 29 34
REMARK SMILES IDX 30 35 31 36 32 37 33 38 34 39 35 40 36 41 97 42 37 43 96 44
REMARK SMILES IDX 38 45 39 46 40 47 90 48 41 49 95 50 89 51 91 52 42 53 94 54
REMARK SMILES IDX 88 55 87 56 43 58 75 59 55 60 74 61 56 62 59 63 73 64 92 65
REMARK SMILES IDX 57 66 58 67 72 69 93 70 60 71 44 72 45 73 53 74 46 75 47 76
REMARK SMILES IDX 51 77 54 78 48 79 49 80 52 81 50 82 76 83 77 84 85 85 78 86
REMARK SMILES IDX 79 87 83 88 86 89 80 90 81 91 84 92 82 93 61 94 62 95 70 96
REMARK SMILES IDX 63 97 64 98 68 99 71 100 65 101 66 102 69 103 67 104
REMARK H PARENT 13 17 6 21 91 57 59 68
REMARK Flexibility Score: inf
ROOT
ATOM      1  C   UNL A   1      38.181  24.008  26.617  1.00  0.00     0.202 C 
ENDROOT
BRANCH   1   2
ATOM      2  C   UNL A   1      37.888  22.726  25.831  1.00  0.00     0.261 C 
BRANCH   2   3
ATOM      3  O   UNL A   1      36.478  22.685  25.500  1.00  0.00    -0.463 OA
BRANCH   3   4
ATOM      4  C   UNL A   1      36.075  23.041  24.271  1.00  0.00     0.306 C 
ATOM      5  O   UNL A   1      36.451  22.499  23.237  1.00  0.00    -0.252 OA
BRANCH   4   6
ATOM      6  C   UNL A   1      35.042  24.151  24.262  1.00  0.00     0.132 C 
BRANCH   6   7
ATOM      7  C   UNL A   1      34.554  24.905  25.498  1.00  0.00     0.112 C 
BRANCH   7   8
ATOM      8  C   UNL A   1      33.336  25.834  25.726  1.00  0.00     0.223 C 
ATOM      9  O   UNL A   1      32.873  25.848  26.878  1.00  0.00    -0.275 OA
BRANCH   8  10
ATOM     10  N   UNL A   1      32.865  26.769  24.817  1.00  0.00    -0.328 N 
ATOM     11  C   UNL A   1      33.035  26.758  23.371  1.00  0.00     0.183 C 
ATOM     12  C   UNL A   1      33.660  28.043  22.765  1.00  0.00     0.243 C 
ATOM     13  O   UNL A   1      34.014  28.113  21.588  1.00  0.00    -0.273 OA
ATOM     14  N   UNL A   1      33.794  29.135  23.580  1.00  0.00    -0.353 N 
ATOM     15  C   UNL A   1      32.413  28.074  25.326  1.00  0.00     0.141 C 
ATOM     16  C   UNL A   1      33.471  29.126  24.994  1.00  0.00     0.137 C 
ATOM     17  H   UNL A   1      34.127  29.973  23.184  1.00  0.00     0.163 HD
BRANCH  11  18
ATOM     18  C   UNL A   1      31.825  26.306  22.538  1.00  0.00     0.135 C 
BRANCH  18  19
ATOM     19  C   UNL A   1      30.537  25.942  23.249  1.00  0.00     0.227 C 
ATOM     20  N   UNL A   1      30.275  24.759  23.874  1.00  0.00    -0.326 N 
ATOM     21  H   UNL A   1      29.367  24.719  24.252  1.00  0.00     0.169 HD
ATOM     22  O   UNL A   1      29.644  26.798  23.327  1.00  0.00    -0.275 OA
BRANCH  20  23
ATOM     23  C   UNL A   1      31.014  23.584  24.096  1.00  0.00     0.044 A 
ATOM     24  C   UNL A   1      32.818  19.668  24.079  1.00  0.00     0.044 C 
ATOM     25  C   UNL A   1      32.344  21.092  24.132  1.00  0.00    -0.051 A 
ATOM     26  C   UNL A   1      32.391  21.893  22.995  1.00  0.00     0.005 A 
ATOM     27  C   UNL A   1      31.748  21.612  25.285  1.00  0.00     0.009 A 
ATOM     28  C   UNL A   1      31.758  23.137  22.990  1.00  0.00     0.026 A 
ATOM     29  C   UNL A   1      31.097  22.867  25.292  1.00  0.00    -0.027 A 
ATOM     30  C   UNL A   1      30.587  23.374  26.606  1.00  0.00     0.046 C 
ENDBRANCH  20  23
ENDBRANCH  18  19
ENDBRANCH  11  18
ENDBRANCH   8  10
ENDBRANCH   7   8
ENDBRANCH   6   7
ENDBRANCH   4   6
ENDBRANCH   3   4
ENDBRANCH   2   3
ENDBRANCH   1   2
BRANCH   1  31
ATOM     31  O   UNL A   1      39.258  24.788  26.085  1.00  0.00    -0.376 OA
BRANCH  31  32
ATOM     32  C   UNL A   1      40.316  25.064  26.988  1.00  0.00     0.188 C 
BRANCH  32  33
ATOM     33  C   UNL A   1      41.706  25.185  26.362  1.00  0.00     0.188 C 
BRANCH  33  34
ATOM     34  O   UNL A   1      42.295  24.024  25.791  1.00  0.00    -0.376 OA
BRANCH  34  35
ATOM     35  C   UNL A   1      43.401  24.257  24.900  1.00  0.00     0.202 C 
BRANCH  35  36
ATOM     36  C   UNL A   1      44.721  23.535  25.227  1.00  0.00     0.261 C 
BRANCH  36  37
ATOM     37  O   UNL A   1      45.846  24.400  25.501  1.00  0.00    -0.460 OA
BRANCH  37  38
ATOM     38  C   UNL A   1      46.369  24.420  26.755  1.00  0.00     0.338 C 
ATOM     39  O   UNL A   1      47.459  24.022  27.086  1.00  0.00    -0.246 OA
BRANCH  38  40
ATOM     40  C   UNL A   1      45.493  25.301  27.596  1.00  0.00     0.060 A 
ATOM     41  C   UNL A   1      45.394  26.660  27.255  1.00  0.00     0.016 A 
ATOM     42  C   UNL A   1      44.640  24.777  28.577  1.00  0.00     0.016 A 
ATOM     43  C   UNL A   1      44.486  27.496  27.919  1.00  0.00     0.010 A 
ATOM     44  C   UNL A   1      43.725  25.606  29.230  1.00  0.00     0.010 A 
ATOM     45  C   UNL A   1      43.675  26.980  28.937  1.00  0.00    -0.014 A 
BRANCH  45  46
ATOM     46  C   UNL A   1      43.013  27.886  29.910  1.00  0.00     0.031 A 
ATOM     47  C   UNL A   1      43.681  28.039  31.252  1.00  0.00     0.074 A 
ATOM     48  C   UNL A   1      41.862  28.532  29.651  1.00  0.00     0.049 A 
ATOM     49  N   UNL A   1      43.271  28.657  32.329  1.00  0.00    -0.248 NA
ATOM     50  C   UNL A   1      44.992  27.384  31.398  1.00  0.00     0.031 C 
ATOM     51  C   UNL A   1      41.136  28.504  28.385  1.00  0.00     0.029 A 
ATOM     52  N   UNL A   1      41.093  29.330  30.463  1.00  0.00    -0.354 N 
ATOM     53  C   UNL A   1      44.264  28.449  33.278  1.00  0.00     0.074 A 
ATOM     54  C   UNL A   1      45.276  27.619  32.667  1.00  0.00     0.031 C 
ATOM     55  C   UNL A   1      40.015  29.238  28.510  1.00  0.00     0.029 A 
ATOM     56  C   UNL A   1      39.925  29.757  29.876  1.00  0.00     0.049 A 
ATOM     57  H   UNL A   1      41.353  29.574  31.381  1.00  0.00     0.167 HD
ATOM     58  C   UNL A   1      44.334  28.915  34.545  1.00  0.00     0.037 A 
ATOM     59  C   UNL A   1      38.896  30.458  30.396  1.00  0.00     0.037 A 
ATOM     60  C   UNL A   1      43.326  29.737  35.154  1.00  0.00     0.049 A 
ATOM     61  C   UNL A   1      38.958  30.904  31.839  1.00  0.00     0.074 A 
ATOM     62  C   UNL A   1      43.303  30.272  36.428  1.00  0.00     0.029 A 
ATOM     63  N   UNL A   1      42.152  30.133  34.529  1.00  0.00    -0.354 N 
ATOM     64  N   UNL A   1      39.909  30.725  32.725  1.00  0.00    -0.248 NA
ATOM     65  C   UNL A   1      37.800  31.650  32.357  1.00  0.00     0.031 C 
ATOM     66  C   UNL A   1      42.088  30.942  36.596  1.00  0.00     0.029 A 
ATOM     67  C   UNL A   1      41.387  30.886  35.402  1.00  0.00     0.049 A 
ATOM     68  H   UNL A   1      41.902  29.913  33.603  1.00  0.00     0.167 HD
ATOM     69  C   UNL A   1      39.485  31.367  33.884  1.00  0.00     0.074 A 
ATOM     70  C   UNL A   1      38.190  31.944  33.589  1.00  0.00     0.031 C 
ATOM     71  C   UNL A   1      40.111  31.474  35.083  1.00  0.00     0.037 A 
BRANCH  58  72
ATOM     72  C   UNL A   1      45.527  28.514  35.363  1.00  0.00     0.064 A 
ATOM     73  C   UNL A   1      45.536  27.341  36.133  1.00  0.00     0.173 A 
ATOM     74  C   UNL A   1      46.680  29.313  35.369  1.00  0.00     0.173 A 
ATOM     75  F   UNL A   1      44.451  26.555  36.180  1.00  0.00    -0.203 F 
ATOM     76  C   UNL A   1      46.645  26.999  36.902  1.00  0.00     0.198 A 
ATOM     77  C   UNL A   1      47.799  28.950  36.112  1.00  0.00     0.198 A 
ATOM     78  F   UNL A   1      46.722  30.447  34.655  1.00  0.00    -0.203 F 
ATOM     79  F   UNL A   1      46.609  25.907  37.678  1.00  0.00    -0.200 F 
ATOM     80  C   UNL A   1      47.778  27.799  36.886  1.00  0.00     0.200 A 
ATOM     81  F   UNL A   1      48.897  29.718  36.085  1.00  0.00    -0.200 F 
ATOM     82  F   UNL A   1      48.846  27.466  37.622  1.00  0.00    -0.200 F 
ENDBRANCH  58  72
BRANCH  59  83
ATOM     83  C   UNL A   1      37.704  30.777  29.562  1.00  0.00     0.064 A 
ATOM     84  C   UNL A   1      36.736  29.802  29.273  1.00  0.00     0.173 A 
ATOM     85  C   UNL A   1      37.525  32.050  29.001  1.00  0.00     0.173 A 
ATOM     86  F   UNL A   1      36.877  28.558  29.755  1.00  0.00    -0.203 F 
ATOM     87  C   UNL A   1      35.652  30.083  28.443  1.00  0.00     0.198 A 
ATOM     88  C   UNL A   1      36.423  32.339  28.197  1.00  0.00     0.198 A 
ATOM     89  F   UNL A   1      38.424  33.019  29.233  1.00  0.00    -0.203 F 
ATOM     90  F   UNL A   1      34.776  29.115  28.140  1.00  0.00    -0.200 F 
ATOM     91  C   UNL A   1      35.492  31.353  27.911  1.00  0.00     0.200 A 
ATOM     92  F   UNL A   1      36.270  33.570  27.691  1.00  0.00    -0.200 F 
ATOM     93  F   UNL A   1      34.449  31.622  27.114  1.00  0.00    -0.200 F 
ENDBRANCH  59  83
BRANCH  71  94
ATOM     94  C   UNL A   1      39.447  32.296  36.152  1.00  0.00     0.064 A 
ATOM     95  C   UNL A   1      38.445  31.770  36.980  1.00  0.00     0.173 A 
ATOM     96  C   UNL A   1      39.881  33.608  36.400  1.00  0.00     0.173 A 
ATOM     97  F   UNL A   1      37.988  30.524  36.780  1.00  0.00    -0.203 F 
ATOM     98  C   UNL A   1      37.887  32.534  38.002  1.00  0.00     0.198 A 
ATOM     99  C   UNL A   1      39.346  34.357  37.443  1.00  0.00     0.198 A 
ATOM    100  F   UNL A   1      40.846  34.155  35.645  1.00  0.00    -0.203 F 
ATOM    101  F   UNL A   1      36.903  32.026  38.755  1.00  0.00    -0.200 F 
ATOM    102  C   UNL A   1      38.345  33.822  38.239  1.00  0.00     0.200 A 
ATOM    103  F   UNL A   1      39.805  35.593  37.683  1.00  0.00    -0.200 F 
ATOM    104  F   UNL A   1      37.819  34.550  39.235  1.00  0.00    -0.200 F 
ENDBRANCH  71  94
ENDBRANCH  45  46
ENDBRANCH  38  40
ENDBRANCH  37  38
ENDBRANCH  36  37
ENDBRANCH  35  36
ENDBRANCH  34  35
ENDBRANCH  33  34
ENDBRANCH  32  33
ENDBRANCH  31  32
ENDBRANCH   1  31
TORSDOF 23
ENDMDL
