MODEL 1
REMARK VINA RESULT:     -11.9      0.000      0.000
REMARK SMILES COc1cccc(-c2c(C(=O)OCCOCCOCCOC(=O)c3ccc(-c4c5nc(c(-c6c(F)c(F)c(F)c(F)c6F)c6ccc([nH]6)c(-c6c(F)c(F)c(F)c(F)c6F)c6nc(c(-c7c(F)c(F)c(F)c(F)c7F)c7ccc4[nH]7)C=C6)C=C5)cc3)nnn2-c2ccc(OC(F)(F)F)cc2)c1
REMARK SMILES IDX 16 1 15 2 14 3 13 4 12 5 10 6 11 7 9 8 8 9 89 10 87 11 88 12
REMARK SMILES IDX 7 13 3 14 4 15 101 16 5 17 6 18 2 19 1 20 90 21 91 22 100 23
REMARK SMILES IDX 92 24 99 25 93 26 94 27 95 28 96 29 97 30 98 31 17 32 18 33
REMARK SMILES IDX 19 34 20 35 21 36 22 37 23 38 24 39 25 40 86 41 26 42 85 43
REMARK SMILES IDX 27 44 28 45 29 46 79 47 30 48 84 49 78 50 80 51 31 52 83 53
REMARK SMILES IDX 77 54 76 55 32 57 64 58 44 59 63 60 45 61 48 62 62 63 81 64
REMARK SMILES IDX 46 65 47 66 61 68 82 69 49 70 33 71 34 72 42 73 35 74 36 75
REMARK SMILES IDX 40 76 43 77 37 78 38 79 41 80 39 81 65 82 66 83 74 84 67 85
REMARK SMILES IDX 68 86 72 87 75 88 69 89 70 90 73 91 71 92 50 93 51 94 59 95
REMARK SMILES IDX 52 96 53 97 57 98 60 99 54 100 55 101 58 102 56 103
REMARK H PARENT 80 56 48 67
REMARK Flexibility Score: inf
ROOT
ATOM      1  C   UNL A   1      37.834  21.760  25.209  1.00  0.00     0.188 C 
ENDROOT
BRANCH   1   2
ATOM      2  O   UNL A   1      36.534  21.627  25.739  1.00  0.00    -0.376 OA
BRANCH   2   3
ATOM      3  C   UNL A   1      35.550  20.844  25.082  1.00  0.00     0.202 C 
BRANCH   3   4
ATOM      4  C   UNL A   1      34.215  21.383  24.528  1.00  0.00     0.261 C 
BRANCH   4   5
ATOM      5  O   UNL A   1      33.980  22.785  24.677  1.00  0.00    -0.458 OA
BRANCH   5   6
ATOM      6  C   UNL A   1      33.689  23.469  23.531  1.00  0.00     0.361 C 
ATOM      7  O   UNL A   1      34.387  23.447  22.521  1.00  0.00    -0.244 OA
BRANCH   6   8
ATOM      8  C   UNL A   1      32.393  24.120  23.567  1.00  0.00     0.198 A 
ATOM      9  C   UNL A   1      32.040  25.399  23.976  1.00  0.00     0.109 A 
ATOM     10  N   UNL A   1      30.684  25.449  23.662  1.00  0.00    -0.212 N 
ATOM     11  N   UNL A   1      31.245  23.411  23.275  1.00  0.00    -0.122 NA
ATOM     12  N   UNL A   1      30.203  24.203  23.472  1.00  0.00    -0.061 NA
BRANCH   9  13
ATOM     13  C   UNL A   1      32.782  26.523  24.554  1.00  0.00     0.007 A 
ATOM     14  C   UNL A   1      32.996  28.212  26.303  1.00  0.00     0.119 A 
ATOM     15  C   UNL A   1      33.996  28.836  25.559  1.00  0.00     0.046 A 
ATOM     16  C   UNL A   1      32.398  27.054  25.805  1.00  0.00     0.056 A 
ATOM     17  C   UNL A   1      34.423  28.290  24.349  1.00  0.00     0.005 A 
ATOM     18  C   UNL A   1      33.820  27.136  23.846  1.00  0.00     0.011 A 
BRANCH  14  19
ATOM     19  O   UNL A   1      32.637  28.861  27.452  1.00  0.00    -0.497 OA
ATOM     20  C   UNL A   1      31.810  30.009  27.295  1.00  0.00     0.278 C 
ENDBRANCH  14  19
ENDBRANCH   9  13
BRANCH  10  21
ATOM     21  C   UNL A   1      29.898  26.585  23.374  1.00  0.00     0.067 A 
ATOM     22  C   UNL A   1      28.560  26.648  23.765  1.00  0.00     0.032 A 
ATOM     23  C   UNL A   1      30.478  27.641  22.663  1.00  0.00     0.032 A 
ATOM     24  C   UNL A   1      27.836  27.817  23.504  1.00  0.00     0.049 A 
ATOM     25  C   UNL A   1      29.734  28.779  22.367  1.00  0.00     0.049 A 
ATOM     26  C   UNL A   1      28.416  28.889  22.809  1.00  0.00     0.129 A 
BRANCH  26  27
ATOM     27  O   UNL A   1      27.603  29.972  22.630  1.00  0.00    -0.406 OA
BRANCH  27  28
ATOM     28  C   UNL A   1      27.953  31.166  23.312  1.00  0.00     0.573 C 
ATOM     29  F   UNL A   1      28.170  32.183  22.449  1.00  0.00    -0.132 F 
ATOM     30  F   UNL A   1      26.989  31.523  24.189  1.00  0.00    -0.132 F 
ATOM     31  F   UNL A   1      29.094  30.956  24.004  1.00  0.00    -0.132 F 
ENDBRANCH  27  28
ENDBRANCH  26  27
ENDBRANCH  10  21
ENDBRANCH   6   8
ENDBRANCH   5   6
ENDBRANCH   4   5
ENDBRANCH   3   4
ENDBRANCH   2   3
ENDBRANCH   1   2
BRANCH   1  32
ATOM     32  C   UNL A   1      39.046  21.794  26.160  1.00  0.00     0.188 C 
BRANCH  32  33
ATOM     33  O   UNL A   1      40.135  20.913  25.987  1.00  0.00    -0.376 OA
BRANCH  33  34
ATOM     34  C   UNL A   1      41.323  20.961  26.756  1.00  0.00     0.202 C 
BRANCH  34  35
ATOM     35  C   UNL A   1      42.658  20.322  26.382  1.00  0.00     0.261 C 
BRANCH  35  36
ATOM     36  O   UNL A   1      43.111  20.530  25.065  1.00  0.00    -0.460 OA
BRANCH  36  37
ATOM     37  C   UNL A   1      44.423  20.830  25.011  1.00  0.00     0.338 C 
ATOM     38  O   UNL A   1      45.362  20.058  24.916  1.00  0.00    -0.246 OA
BRANCH  37  39
ATOM     39  C   UNL A   1      44.576  22.266  25.208  1.00  0.00     0.060 A 
ATOM     40  C   UNL A   1      45.483  22.672  26.185  1.00  0.00     0.016 A 
ATOM     41  C   UNL A   1      43.599  23.118  24.675  1.00  0.00     0.016 A 
ATOM     42  C   UNL A   1      45.272  23.888  26.788  1.00  0.00     0.010 A 
ATOM     43  C   UNL A   1      43.375  24.320  25.293  1.00  0.00     0.010 A 
ATOM     44  C   UNL A   1      44.166  24.648  26.391  1.00  0.00    -0.014 A 
BRANCH  44  45
ATOM     45  C   UNL A   1      43.919  25.881  27.101  1.00  0.00     0.031 A 
ATOM     46  C   UNL A   1      44.942  26.900  26.802  1.00  0.00     0.074 A 
ATOM     47  C   UNL A   1      42.818  26.066  27.853  1.00  0.00     0.049 A 
ATOM     48  N   UNL A   1      45.789  27.424  27.619  1.00  0.00    -0.248 NA
ATOM     49  C   UNL A   1      45.166  27.255  25.389  1.00  0.00     0.031 C 
ATOM     50  C   UNL A   1      41.644  25.189  27.904  1.00  0.00     0.029 A 
ATOM     51  N   UNL A   1      42.454  27.121  28.637  1.00  0.00    -0.354 N 
ATOM     52  C   UNL A   1      46.478  28.368  26.864  1.00  0.00     0.074 A 
ATOM     53  C   UNL A   1      46.228  28.055  25.487  1.00  0.00     0.031 C 
ATOM     54  C   UNL A   1      40.620  25.853  28.482  1.00  0.00     0.029 A 
ATOM     55  C   UNL A   1      41.102  27.140  28.957  1.00  0.00     0.049 A 
ATOM     56  H   UNL A   1      43.089  27.806  28.948  1.00  0.00     0.167 HD
ATOM     57  C   UNL A   1      46.857  29.533  27.453  1.00  0.00     0.037 A 
ATOM     58  C   UNL A   1      40.415  28.167  29.512  1.00  0.00     0.037 A 
ATOM     59  C   UNL A   1      46.898  29.382  28.887  1.00  0.00     0.049 A 
ATOM     60  C   UNL A   1      41.385  29.075  30.165  1.00  0.00     0.074 A 
ATOM     61  C   UNL A   1      47.761  28.851  29.819  1.00  0.00     0.029 A 
ATOM     62  N   UNL A   1      45.682  29.530  29.496  1.00  0.00    -0.354 N 
ATOM     63  N   UNL A   1      42.070  28.757  31.229  1.00  0.00    -0.248 NA
ATOM     64  C   UNL A   1      41.857  30.259  29.448  1.00  0.00     0.031 C 
ATOM     65  C   UNL A   1      46.997  28.633  31.005  1.00  0.00     0.029 A 
ATOM     66  C   UNL A   1      45.689  29.052  30.779  1.00  0.00     0.049 A 
ATOM     67  H   UNL A   1      44.896  29.932  29.064  1.00  0.00     0.167 HD
ATOM     68  C   UNL A   1      43.270  29.420  31.068  1.00  0.00     0.074 A 
ATOM     69  C   UNL A   1      43.020  30.454  30.075  1.00  0.00     0.031 C 
ATOM     70  C   UNL A   1      44.440  28.853  31.473  1.00  0.00     0.037 A 
BRANCH  57  71
ATOM     71  C   UNL A   1      46.639  30.904  26.830  1.00  0.00     0.064 A 
ATOM     72  C   UNL A   1      47.721  31.810  26.832  1.00  0.00     0.173 A 
ATOM     73  C   UNL A   1      45.380  31.480  26.540  1.00  0.00     0.173 A 
ATOM     74  F   UNL A   1      48.969  31.385  27.083  1.00  0.00    -0.203 F 
ATOM     75  C   UNL A   1      47.540  33.186  26.670  1.00  0.00     0.198 A 
ATOM     76  C   UNL A   1      45.209  32.849  26.337  1.00  0.00     0.198 A 
ATOM     77  F   UNL A   1      44.242  30.781  26.536  1.00  0.00    -0.203 F 
ATOM     78  F   UNL A   1      48.582  34.015  26.810  1.00  0.00    -0.200 F 
ATOM     79  C   UNL A   1      46.281  33.706  26.437  1.00  0.00     0.200 A 
ATOM     80  F   UNL A   1      43.977  33.333  26.125  1.00  0.00    -0.200 F 
ATOM     81  F   UNL A   1      46.094  35.029  26.348  1.00  0.00    -0.200 F 
ENDBRANCH  57  71
BRANCH  58  82
ATOM     82  C   UNL A   1      38.995  28.539  29.318  1.00  0.00     0.064 A 
ATOM     83  C   UNL A   1      38.128  28.675  30.413  1.00  0.00     0.173 A 
ATOM     84  C   UNL A   1      38.529  29.030  28.083  1.00  0.00     0.173 A 
ATOM     85  F   UNL A   1      38.511  28.270  31.632  1.00  0.00    -0.203 F 
ATOM     86  C   UNL A   1      36.881  29.296  30.287  1.00  0.00     0.198 A 
ATOM     87  C   UNL A   1      37.281  29.639  27.956  1.00  0.00     0.198 A 
ATOM     88  F   UNL A   1      39.315  29.014  26.995  1.00  0.00    -0.203 F 
ATOM     89  F   UNL A   1      36.109  29.469  31.368  1.00  0.00    -0.200 F 
ATOM     90  C   UNL A   1      36.464  29.787  29.061  1.00  0.00     0.200 A 
ATOM     91  F   UNL A   1      36.903  30.139  26.771  1.00  0.00    -0.200 F 
ATOM     92  F   UNL A   1      35.297  30.437  28.952  1.00  0.00    -0.200 F 
ENDBRANCH  58  82
BRANCH  70  93
ATOM     93  C   UNL A   1      44.380  27.861  32.586  1.00  0.00     0.064 A 
ATOM     94  C   UNL A   1      44.320  28.193  33.948  1.00  0.00     0.173 A 
ATOM     95  C   UNL A   1      44.323  26.503  32.241  1.00  0.00     0.173 A 
ATOM     96  F   UNL A   1      44.299  29.473  34.345  1.00  0.00    -0.203 F 
ATOM     97  C   UNL A   1      44.243  27.198  34.922  1.00  0.00     0.198 A 
ATOM     98  C   UNL A   1      44.208  25.515  33.212  1.00  0.00     0.198 A 
ATOM     99  F   UNL A   1      44.345  26.135  30.950  1.00  0.00    -0.203 F 
ATOM    100  F   UNL A   1      44.209  27.530  36.221  1.00  0.00    -0.200 F 
ATOM    101  C   UNL A   1      44.181  25.863  34.553  1.00  0.00     0.200 A 
ATOM    102  F   UNL A   1      44.110  24.230  32.847  1.00  0.00    -0.200 F 
ATOM    103  F   UNL A   1      44.073  24.908  35.489  1.00  0.00    -0.200 F 
ENDBRANCH  70  93
ENDBRANCH  44  45
ENDBRANCH  37  39
ENDBRANCH  36  37
ENDBRANCH  35  36
ENDBRANCH  34  35
ENDBRANCH  33  34
ENDBRANCH  32  33
ENDBRANCH   1  32
TORSDOF 22
ENDMDL
MODEL 2
REMARK VINA RESULT:     -11.0      2.606      6.781
REMARK SMILES COc1cccc(-c2c(C(=O)OCCOCCOCCOC(=O)c3ccc(-c4c5nc(c(-c6c(F)c(F)c(F)c(F)c6F)c6ccc([nH]6)c(-c6c(F)c(F)c(F)c(F)c6F)c6nc(c(-c7c(F)c(F)c(F)c(F)c7F)c7ccc4[nH]7)C=C6)C=C5)cc3)nnn2-c2ccc(OC(F)(F)F)cc2)c1
REMARK SMILES IDX 16 1 15 2 14 3 13 4 12 5 10 6 11 7 9 8 8 9 89 10 87 11 88 12
REMARK SMILES IDX 7 13 3 14 4 15 101 16 5 17 6 18 2 19 1 20 90 21 91 22 100 23
REMARK SMILES IDX 92 24 99 25 93 26 94 27 95 28 96 29 97 30 98 31 17 32 18 33
REMARK SMILES IDX 19 34 20 35 21 36 22 37 23 38 24 39 25 40 86 41 26 42 85 43
REMARK SMILES IDX 27 44 28 45 29 46 79 47 30 48 84 49 78 50 80 51 31 52 83 53
REMARK SMILES IDX 77 54 76 55 32 57 64 58 44 59 63 60 45 61 48 62 62 63 81 64
REMARK SMILES IDX 46 65 47 66 61 68 82 69 49 70 33 71 34 72 42 73 35 74 36 75
REMARK SMILES IDX 40 76 43 77 37 78 38 79 41 80 39 81 65 82 66 83 74 84 67 85
REMARK SMILES IDX 68 86 72 87 75 88 69 89 70 90 73 91 71 92 50 93 51 94 59 95
REMARK SMILES IDX 52 96 53 97 57 98 60 99 54 100 55 101 58 102 56 103
REMARK H PARENT 80 56 48 67
REMARK Flexibility Score: inf
ROOT
ATOM      1  C   UNL A   1      35.565  22.548  25.638  1.00  0.00     0.188 C 
ENDROOT
BRANCH   1   2
ATOM      2  O   UNL A   1      34.458  21.834  25.133  1.00  0.00    -0.376 OA
BRANCH   2   3
ATOM      3  C   UNL A   1      33.848  22.196  23.904  1.00  0.00     0.202 C 
BRANCH   3   4
ATOM      4  C   UNL A   1      34.064  23.536  23.170  1.00  0.00     0.261 C 
BRANCH   4   5
ATOM      5  O   UNL A   1      32.898  24.163  22.629  1.00  0.00    -0.458 OA
BRANCH   5   6
ATOM      6  C   UNL A   1      33.123  25.173  21.736  1.00  0.00     0.361 C 
ATOM      7  O   UNL A   1      33.138  25.023  20.518  1.00  0.00    -0.244 OA
BRANCH   6   8
ATOM      8  C   UNL A   1      33.204  26.480  22.360  1.00  0.00     0.198 A 
ATOM      9  C   UNL A   1      32.540  26.990  23.468  1.00  0.00     0.109 A 
ATOM     10  N   UNL A   1      33.132  28.242  23.620  1.00  0.00    -0.212 N 
ATOM     11  N   UNL A   1      33.945  27.488  21.779  1.00  0.00    -0.122 NA
ATOM     12  N   UNL A   1      33.778  28.593  22.489  1.00  0.00    -0.061 NA
BRANCH   9  13
ATOM     13  C   UNL A   1      31.508  26.466  24.367  1.00  0.00     0.007 A 
ATOM     14  C   UNL A   1      30.908  25.072  26.278  1.00  0.00     0.119 A 
ATOM     15  C   UNL A   1      29.562  25.222  25.948  1.00  0.00     0.046 A 
ATOM     16  C   UNL A   1      31.876  25.700  25.494  1.00  0.00     0.056 A 
ATOM     17  C   UNL A   1      29.183  26.022  24.870  1.00  0.00     0.005 A 
ATOM     18  C   UNL A   1      30.152  26.644  24.081  1.00  0.00     0.011 A 
BRANCH  14  19
ATOM     19  O   UNL A   1      31.157  24.235  27.331  1.00  0.00    -0.497 OA
ATOM     20  C   UNL A   1      31.524  22.900  27.000  1.00  0.00     0.278 C 
ENDBRANCH  14  19
ENDBRANCH   9  13
BRANCH  10  21
ATOM     21  C   UNL A   1      33.257  29.009  24.798  1.00  0.00     0.067 A 
ATOM     22  C   UNL A   1      32.258  29.904  25.179  1.00  0.00     0.032 A 
ATOM     23  C   UNL A   1      34.418  28.875  25.566  1.00  0.00     0.032 A 
ATOM     24  C   UNL A   1      32.402  30.604  26.382  1.00  0.00     0.049 A 
ATOM     25  C   UNL A   1      34.572  29.612  26.738  1.00  0.00     0.049 A 
ATOM     26  C   UNL A   1      33.554  30.460  27.170  1.00  0.00     0.129 A 
BRANCH  26  27
ATOM     27  O   UNL A   1      33.563  31.192  28.324  1.00  0.00    -0.406 OA
BRANCH  27  28
ATOM     28  C   UNL A   1      33.996  32.541  28.234  1.00  0.00     0.573 C 
ATOM     29  F   UNL A   1      34.275  33.053  29.452  1.00  0.00    -0.132 F 
ATOM     30  F   UNL A   1      35.088  32.646  27.443  1.00  0.00    -0.132 F 
ATOM     31  F   UNL A   1      33.009  33.282  27.686  1.00  0.00    -0.132 F 
ENDBRANCH  27  28
ENDBRANCH  26  27
ENDBRANCH  10  21
ENDBRANCH   6   8
ENDBRANCH   5   6
ENDBRANCH   4   5
ENDBRANCH   3   4
ENDBRANCH   2   3
ENDBRANCH   1   2
BRANCH   1  32
ATOM     32  C   UNL A   1      36.955  22.345  25.006  1.00  0.00     0.188 C 
BRANCH  32  33
ATOM     33  O   UNL A   1      37.241  21.209  24.219  1.00  0.00    -0.376 OA
BRANCH  33  34
ATOM     34  C   UNL A   1      37.524  19.927  24.751  1.00  0.00     0.202 C 
BRANCH  34  35
ATOM     35  C   UNL A   1      38.767  19.542  25.549  1.00  0.00     0.261 C 
BRANCH  35  36
ATOM     36  O   UNL A   1      39.954  20.234  25.241  1.00  0.00    -0.460 OA
BRANCH  36  37
ATOM     37  C   UNL A   1      41.045  19.648  25.773  1.00  0.00     0.338 C 
ATOM     38  O   UNL A   1      41.340  18.466  25.758  1.00  0.00    -0.246 OA
BRANCH  37  39
ATOM     39  C   UNL A   1      41.802  20.659  26.501  1.00  0.00     0.060 A 
ATOM     40  C   UNL A   1      41.664  20.667  27.888  1.00  0.00     0.016 A 
ATOM     41  C   UNL A   1      42.331  21.740  25.782  1.00  0.00     0.016 A 
ATOM     42  C   UNL A   1      41.864  21.857  28.544  1.00  0.00     0.010 A 
ATOM     43  C   UNL A   1      42.507  22.932  26.434  1.00  0.00     0.010 A 
ATOM     44  C   UNL A   1      42.194  22.989  27.790  1.00  0.00    -0.014 A 
BRANCH  44  45
ATOM     45  C   UNL A   1      42.314  24.244  28.494  1.00  0.00     0.031 A 
ATOM     46  C   UNL A   1      41.173  25.137  28.220  1.00  0.00     0.074 A 
ATOM     47  C   UNL A   1      43.312  24.484  29.364  1.00  0.00     0.049 A 
ATOM     48  N   UNL A   1      41.197  26.279  27.624  1.00  0.00    -0.248 NA
ATOM     49  C   UNL A   1      39.818  24.622  28.486  1.00  0.00     0.031 C 
ATOM     50  C   UNL A   1      44.266  23.499  29.886  1.00  0.00     0.029 A 
ATOM     51  N   UNL A   1      43.620  25.616  30.060  1.00  0.00    -0.354 N 
ATOM     52  C   UNL A   1      39.884  26.738  27.678  1.00  0.00     0.074 A 
ATOM     53  C   UNL A   1      39.065  25.603  27.991  1.00  0.00     0.031 C 
ATOM     54  C   UNL A   1      44.882  24.012  30.972  1.00  0.00     0.029 A 
ATOM     55  C   UNL A   1      44.468  25.396  31.139  1.00  0.00     0.049 A 
ATOM     56  H   UNL A   1      43.274  26.506  29.822  1.00  0.00     0.167 HD
ATOM     57  C   UNL A   1      39.658  28.068  27.847  1.00  0.00     0.037 A 
ATOM     58  C   UNL A   1      44.755  26.268  32.134  1.00  0.00     0.037 A 
ATOM     59  C   UNL A   1      40.821  28.829  27.459  1.00  0.00     0.049 A 
ATOM     60  C   UNL A   1      44.428  27.634  31.665  1.00  0.00     0.074 A 
ATOM     61  C   UNL A   1      41.391  29.268  26.287  1.00  0.00     0.029 A 
ATOM     62  N   UNL A   1      41.776  28.920  28.435  1.00  0.00    -0.354 N 
ATOM     63  N   UNL A   1      45.086  28.252  30.724  1.00  0.00    -0.248 NA
ATOM     64  C   UNL A   1      43.137  28.224  32.016  1.00  0.00     0.031 C 
ATOM     65  C   UNL A   1      42.753  29.577  26.585  1.00  0.00     0.029 A 
ATOM     66  C   UNL A   1      42.980  29.339  27.937  1.00  0.00     0.049 A 
ATOM     67  H   UNL A   1      41.617  28.709  29.382  1.00  0.00     0.167 HD
ATOM     68  C   UNL A   1      44.130  29.022  30.093  1.00  0.00     0.074 A 
ATOM     69  C   UNL A   1      43.015  29.109  31.024  1.00  0.00     0.031 C 
ATOM     70  C   UNL A   1      44.169  29.216  28.746  1.00  0.00     0.037 A 
BRANCH  57  71
ATOM     71  C   UNL A   1      38.668  28.635  28.854  1.00  0.00     0.064 A 
ATOM     72  C   UNL A   1      38.042  29.861  28.544  1.00  0.00     0.173 A 
ATOM     73  C   UNL A   1      38.552  28.230  30.204  1.00  0.00     0.173 A 
ATOM     74  F   UNL A   1      38.072  30.349  27.295  1.00  0.00    -0.203 F 
ATOM     75  C   UNL A   1      37.449  30.662  29.525  1.00  0.00     0.198 A 
ATOM     76  C   UNL A   1      37.923  29.013  31.172  1.00  0.00     0.198 A 
ATOM     77  F   UNL A   1      39.119  27.120  30.683  1.00  0.00    -0.203 F 
ATOM     78  F   UNL A   1      36.984  31.875  29.200  1.00  0.00    -0.200 F 
ATOM     79  C   UNL A   1      37.404  30.244  30.841  1.00  0.00     0.200 A 
ATOM     80  F   UNL A   1      37.903  28.594  32.444  1.00  0.00    -0.200 F 
ATOM     81  F   UNL A   1      36.898  31.037  31.793  1.00  0.00    -0.200 F 
ENDBRANCH  57  71
BRANCH  58  82
ATOM     82  C   UNL A   1      45.079  25.979  33.550  1.00  0.00     0.064 A 
ATOM     83  C   UNL A   1      46.180  26.582  34.178  1.00  0.00     0.173 A 
ATOM     84  C   UNL A   1      44.162  25.317  34.390  1.00  0.00     0.173 A 
ATOM     85  F   UNL A   1      47.078  27.266  33.454  1.00  0.00    -0.203 F 
ATOM     86  C   UNL A   1      46.338  26.554  35.568  1.00  0.00     0.198 A 
ATOM     87  C   UNL A   1      44.326  25.280  35.775  1.00  0.00     0.198 A 
ATOM     88  F   UNL A   1      43.040  24.776  33.893  1.00  0.00    -0.203 F 
ATOM     89  F   UNL A   1      47.365  27.199  36.136  1.00  0.00    -0.200 F 
ATOM     90  C   UNL A   1      45.405  25.912  36.365  1.00  0.00     0.200 A 
ATOM     91  F   UNL A   1      43.399  24.683  36.538  1.00  0.00    -0.200 F 
ATOM     92  F   UNL A   1      45.521  25.938  37.700  1.00  0.00    -0.200 F 
ENDBRANCH  58  82
BRANCH  70  93
ATOM     93  C   UNL A   1      45.497  29.133  28.072  1.00  0.00     0.064 A 
ATOM     94  C   UNL A   1      46.430  30.180  28.017  1.00  0.00     0.173 A 
ATOM     95  C   UNL A   1      45.861  27.903  27.504  1.00  0.00     0.173 A 
ATOM     96  F   UNL A   1      46.176  31.359  28.600  1.00  0.00    -0.203 F 
ATOM     97  C   UNL A   1      47.660  30.007  27.384  1.00  0.00     0.198 A 
ATOM     98  C   UNL A   1      47.103  27.723  26.907  1.00  0.00     0.198 A 
ATOM     99  F   UNL A   1      45.017  26.861  27.559  1.00  0.00    -0.203 F 
ATOM    100  F   UNL A   1      48.532  31.025  27.319  1.00  0.00    -0.200 F 
ATOM    101  C   UNL A   1      47.997  28.778  26.836  1.00  0.00     0.200 A 
ATOM    102  F   UNL A   1      47.437  26.522  26.415  1.00  0.00    -0.200 F 
ATOM    103  F   UNL A   1      49.194  28.603  26.257  1.00  0.00    -0.200 F 
ENDBRANCH  70  93
ENDBRANCH  44  45
ENDBRANCH  37  39
ENDBRANCH  36  37
ENDBRANCH  35  36
ENDBRANCH  34  35
ENDBRANCH  33  34
ENDBRANCH  32  33
ENDBRANCH   1  32
TORSDOF 22
ENDMDL
MODEL 3
REMARK VINA RESULT:     -10.9      2.393      6.420
REMARK SMILES COc1cccc(-c2c(C(=O)OCCOCCOCCOC(=O)c3ccc(-c4c5nc(c(-c6c(F)c(F)c(F)c(F)c6F)c6ccc([nH]6)c(-c6c(F)c(F)c(F)c(F)c6F)c6nc(c(-c7c(F)c(F)c(F)c(F)c7F)c7ccc4[nH]7)C=C6)C=C5)cc3)nnn2-c2ccc(OC(F)(F)F)cc2)c1
REMARK SMILES IDX 16 1 15 2 14 3 13 4 12 5 10 6 11 7 9 8 8 9 89 10 87 11 88 12
REMARK SMILES IDX 7 13 3 14 4 15 101 16 5 17 6 18 2 19 1 20 90 21 91 22 100 23
REMARK SMILES IDX 92 24 99 25 93 26 94 27 95 28 96 29 97 30 98 31 17 32 18 33
REMARK SMILES IDX 19 34 20 35 21 36 22 37 23 38 24 39 25 40 86 41 26 42 85 43
REMARK SMILES IDX 27 44 28 45 29 46 79 47 30 48 84 49 78 50 80 51 31 52 83 53
REMARK SMILES IDX 77 54 76 55 32 57 64 58 44 59 63 60 45 61 48 62 62 63 81 64
REMARK SMILES IDX 46 65 47 66 61 68 82 69 49 70 33 71 34 72 42 73 35 74 36 75
REMARK SMILES IDX 40 76 43 77 37 78 38 79 41 80 39 81 65 82 66 83 74 84 67 85
REMARK SMILES IDX 68 86 72 87 75 88 69 89 70 90 73 91 71 92 50 93 51 94 59 95
REMARK SMILES IDX 52 96 53 97 57 98 60 99 54 100 55 101 58 102 56 103
REMARK H PARENT 80 56 48 67
REMARK Flexibility Score: inf
ROOT
ATOM      1  C   UNL A   1      36.007  23.719  25.873  1.00  0.00     0.188 C 
ENDROOT
BRANCH   1   2
ATOM      2  O   UNL A   1      35.685  22.989  27.037  1.00  0.00    -0.376 OA
BRANCH   2   3
ATOM      3  C   UNL A   1      34.598  22.077  27.054  1.00  0.00     0.202 C 
BRANCH   3   4
ATOM      4  C   UNL A   1      33.340  22.182  26.167  1.00  0.00     0.261 C 
BRANCH   4   5
ATOM      5  O   UNL A   1      32.094  22.368  26.843  1.00  0.00    -0.458 OA
BRANCH   5   6
ATOM      6  C   UNL A   1      31.023  22.672  26.052  1.00  0.00     0.361 C 
ATOM      7  O   UNL A   1      30.263  21.836  25.572  1.00  0.00    -0.244 OA
BRANCH   6   8
ATOM      8  C   UNL A   1      30.780  24.099  25.942  1.00  0.00     0.198 A 
ATOM      9  C   UNL A   1      31.203  25.011  24.985  1.00  0.00     0.109 A 
ATOM     10  N   UNL A   1      30.551  26.178  25.377  1.00  0.00    -0.212 N 
ATOM     11  N   UNL A   1      30.130  24.778  26.952  1.00  0.00    -0.122 NA
ATOM     12  N   UNL A   1      30.122  26.067  26.651  1.00  0.00    -0.061 NA
BRANCH   9  13
ATOM     13  C   UNL A   1      32.061  24.920  23.800  1.00  0.00     0.007 A 
ATOM     14  C   UNL A   1      33.350  26.041  22.057  1.00  0.00     0.119 A 
ATOM     15  C   UNL A   1      33.478  24.824  21.389  1.00  0.00     0.046 A 
ATOM     16  C   UNL A   1      32.651  26.085  23.264  1.00  0.00     0.056 A 
ATOM     17  C   UNL A   1      32.949  23.657  21.937  1.00  0.00     0.005 A 
ATOM     18  C   UNL A   1      32.243  23.702  23.140  1.00  0.00     0.011 A 
BRANCH  14  19
ATOM     19  O   UNL A   1      33.877  27.120  21.403  1.00  0.00    -0.497 OA
ATOM     20  C   UNL A   1      34.091  28.289  22.188  1.00  0.00     0.278 C 
ENDBRANCH  14  19
ENDBRANCH   9  13
BRANCH  10  21
ATOM     21  C   UNL A   1      30.178  27.278  24.576  1.00  0.00     0.067 A 
ATOM     22  C   UNL A   1      29.128  27.176  23.663  1.00  0.00     0.032 A 
ATOM     23  C   UNL A   1      30.900  28.470  24.694  1.00  0.00     0.032 A 
ATOM     24  C   UNL A   1      28.760  28.309  22.929  1.00  0.00     0.049 A 
ATOM     25  C   UNL A   1      30.555  29.578  23.923  1.00  0.00     0.049 A 
ATOM     26  C   UNL A   1      29.466  29.515  23.056  1.00  0.00     0.129 A 
BRANCH  26  27
ATOM     27  O   UNL A   1      28.996  30.544  22.289  1.00  0.00    -0.406 OA
BRANCH  27  28
ATOM     28  C   UNL A   1      28.258  31.560  22.950  1.00  0.00     0.573 C 
ATOM     29  F   UNL A   1      27.510  31.054  23.954  1.00  0.00    -0.132 F 
ATOM     30  F   UNL A   1      29.080  32.515  23.440  1.00  0.00    -0.132 F 
ATOM     31  F   UNL A   1      27.423  32.142  22.061  1.00  0.00    -0.132 F 
ENDBRANCH  27  28
ENDBRANCH  26  27
ENDBRANCH  10  21
ENDBRANCH   6   8
ENDBRANCH   5   6
ENDBRANCH   4   5
ENDBRANCH   3   4
ENDBRANCH   2   3
ENDBRANCH   1   2
BRANCH   1  32
ATOM     32  C   UNL A   1      37.015  23.136  24.864  1.00  0.00     0.188 C 
BRANCH  32  33
ATOM     33  O   UNL A   1      36.722  21.967  24.131  1.00  0.00    -0.376 OA
BRANCH  33  34
ATOM     34  C   UNL A   1      36.761  20.660  24.674  1.00  0.00     0.202 C 
BRANCH  34  35
ATOM     35  C   UNL A   1      38.017  19.902  25.098  1.00  0.00     0.261 C 
BRANCH  35  36
ATOM     36  O   UNL A   1      39.182  20.670  25.291  1.00  0.00    -0.460 OA
BRANCH  36  37
ATOM     37  C   UNL A   1      40.218  19.933  25.737  1.00  0.00     0.338 C 
ATOM     38  O   UNL A   1      40.364  18.725  25.658  1.00  0.00    -0.246 OA
BRANCH  37  39
ATOM     39  C   UNL A   1      41.129  20.810  26.462  1.00  0.00     0.060 A 
ATOM     40  C   UNL A   1      41.032  20.803  27.852  1.00  0.00     0.016 A 
ATOM     41  C   UNL A   1      41.785  21.824  25.749  1.00  0.00     0.016 A 
ATOM     42  C   UNL A   1      41.415  21.937  28.526  1.00  0.00     0.010 A 
ATOM     43  C   UNL A   1      42.145  22.963  26.420  1.00  0.00     0.010 A 
ATOM     44  C   UNL A   1      41.880  23.029  27.785  1.00  0.00    -0.014 A 
BRANCH  44  45
ATOM     45  C   UNL A   1      42.195  24.238  28.511  1.00  0.00     0.031 A 
ATOM     46  C   UNL A   1      41.232  25.316  28.223  1.00  0.00     0.074 A 
ATOM     47  C   UNL A   1      43.196  24.294  29.409  1.00  0.00     0.049 A 
ATOM     48  N   UNL A   1      41.466  26.444  27.646  1.00  0.00    -0.248 NA
ATOM     49  C   UNL A   1      39.801  25.039  28.449  1.00  0.00     0.031 C 
ATOM     50  C   UNL A   1      43.953  23.154  29.938  1.00  0.00     0.029 A 
ATOM     51  N   UNL A   1      43.675  25.349  30.129  1.00  0.00    -0.354 N 
ATOM     52  C   UNL A   1      40.250  27.121  27.675  1.00  0.00     0.074 A 
ATOM     53  C   UNL A   1      39.241  26.140  27.951  1.00  0.00     0.031 C 
ATOM     54  C   UNL A   1      44.620  23.543  31.046  1.00  0.00     0.029 A 
ATOM     55  C   UNL A   1      44.444  24.975  31.224  1.00  0.00     0.049 A 
ATOM     56  H   UNL A   1      43.494  26.288  29.895  1.00  0.00     0.167 HD
ATOM     57  C   UNL A   1      40.251  28.468  27.859  1.00  0.00     0.037 A 
ATOM     58  C   UNL A   1      44.851  25.774  32.239  1.00  0.00     0.037 A 
ATOM     59  C   UNL A   1      41.536  29.022  27.510  1.00  0.00     0.049 A 
ATOM     60  C   UNL A   1      44.774  27.181  31.782  1.00  0.00     0.074 A 
ATOM     61  C   UNL A   1      42.204  29.369  26.358  1.00  0.00     0.029 A 
ATOM     62  N   UNL A   1      42.467  28.937  28.510  1.00  0.00    -0.354 N 
ATOM     63  N   UNL A   1      45.553  27.687  30.867  1.00  0.00    -0.248 NA
ATOM     64  C   UNL A   1      43.595  27.979  32.111  1.00  0.00     0.031 C 
ATOM     65  C   UNL A   1      43.590  29.437  26.693  1.00  0.00     0.029 A 
ATOM     66  C   UNL A   1      43.738  29.149  28.047  1.00  0.00     0.049 A 
ATOM     67  H   UNL A   1      42.250  28.747  29.449  1.00  0.00     0.167 HD
ATOM     68  C   UNL A   1      44.760  28.616  30.225  1.00  0.00     0.074 A 
ATOM     69  C   UNL A   1      43.653  28.883  31.130  1.00  0.00     0.031 C 
ATOM     70  C   UNL A   1      44.866  28.815  28.882  1.00  0.00     0.037 A 
BRANCH  57  71
ATOM     71  C   UNL A   1      39.347  29.185  28.850  1.00  0.00     0.064 A 
ATOM     72  C   UNL A   1      38.408  30.107  28.339  1.00  0.00     0.173 A 
ATOM     73  C   UNL A   1      39.564  29.267  30.245  1.00  0.00     0.173 A 
ATOM     74  F   UNL A   1      38.106  30.123  27.031  1.00  0.00    -0.203 F 
ATOM     75  C   UNL A   1      37.825  31.095  29.137  1.00  0.00     0.198 A 
ATOM     76  C   UNL A   1      38.949  30.228  31.046  1.00  0.00     0.198 A 
ATOM     77  F   UNL A   1      40.448  28.501  30.891  1.00  0.00    -0.203 F 
ATOM     78  F   UNL A   1      37.042  32.025  28.577  1.00  0.00    -0.200 F 
ATOM     79  C   UNL A   1      38.107  31.164  30.488  1.00  0.00     0.200 A 
ATOM     80  F   UNL A   1      39.248  30.284  32.351  1.00  0.00    -0.200 F 
ATOM     81  F   UNL A   1      37.604  32.149  31.242  1.00  0.00    -0.200 F 
ENDBRANCH  57  71
BRANCH  58  82
ATOM     82  C   UNL A   1      45.083  25.418  33.657  1.00  0.00     0.064 A 
ATOM     83  C   UNL A   1      44.010  25.246  34.545  1.00  0.00     0.173 A 
ATOM     84  C   UNL A   1      46.344  24.977  34.104  1.00  0.00     0.173 A 
ATOM     85  F   UNL A   1      42.769  25.604  34.181  1.00  0.00    -0.203 F 
ATOM     86  C   UNL A   1      44.181  24.639  35.793  1.00  0.00     0.198 A 
ATOM     87  C   UNL A   1      46.516  24.381  35.353  1.00  0.00     0.198 A 
ATOM     88  F   UNL A   1      47.416  25.028  33.299  1.00  0.00    -0.203 F 
ATOM     89  F   UNL A   1      43.120  24.431  36.585  1.00  0.00    -0.200 F 
ATOM     90  C   UNL A   1      45.431  24.197  36.191  1.00  0.00     0.200 A 
ATOM     91  F   UNL A   1      47.725  23.928  35.713  1.00  0.00    -0.200 F 
ATOM     92  F   UNL A   1      45.585  23.559  37.360  1.00  0.00    -0.200 F 
ENDBRANCH  58  82
BRANCH  70  93
ATOM     93  C   UNL A   1      46.178  28.512  28.239  1.00  0.00     0.064 A 
ATOM     94  C   UNL A   1      46.532  27.268  27.695  1.00  0.00     0.173 A 
ATOM     95  C   UNL A   1      47.100  29.562  28.121  1.00  0.00     0.173 A 
ATOM     96  F   UNL A   1      45.672  26.240  27.711  1.00  0.00    -0.203 F 
ATOM     97  C   UNL A   1      47.775  27.080  27.091  1.00  0.00     0.198 A 
ATOM     98  C   UNL A   1      48.323  29.382  27.485  1.00  0.00     0.198 A 
ATOM     99  F   UNL A   1      46.797  30.780  28.596  1.00  0.00    -0.203 F 
ATOM    100  F   UNL A   1      48.106  25.878  26.596  1.00  0.00    -0.200 F 
ATOM    101  C   UNL A   1      48.664  28.138  26.981  1.00  0.00     0.200 A 
ATOM    102  F   UNL A   1      49.161  30.418  27.347  1.00  0.00    -0.200 F 
ATOM    103  F   UNL A   1      49.846  27.964  26.370  1.00  0.00    -0.200 F 
ENDBRANCH  70  93
ENDBRANCH  44  45
ENDBRANCH  37  39
ENDBRANCH  36  37
ENDBRANCH  35  36
ENDBRANCH  34  35
ENDBRANCH  33  34
ENDBRANCH  32  33
ENDBRANCH   1  32
TORSDOF 22
ENDMDL
