MODEL 1
REMARK VINA RESULT:     -10.8      0.000      0.000
REMARK SMILES CCN1C(=O)CC[C@H](C(=O)OCCOCCOCCOC(=O)c2ccc(-c3c4nc(c(-c5c(F)c(F)c(F)c(F)c5F)c5ccc([nH]5)c(-c5c(F)c(F)c(F)c(F)c5F)c5nc(c(-c6c(F)c(F)c(F)c(F)c6F)c6ccc3[nH]6)C=C5)C=C4)cc2)[C@@H]1c1ccc(OC)cc1
REMARK SMILES IDX 15 1 14 2 13 3 12 4 11 5 9 6 10 7 8 8 3 9 4 10 86 11 5 12
REMARK SMILES IDX 6 13 7 14 2 15 1 16 87 17 88 18 94 19 89 20 93 21 90 22
REMARK SMILES IDX 91 23 92 24 16 25 17 26 18 27 19 28 20 29 21 30 22 31 23 32
REMARK SMILES IDX 24 33 85 34 25 35 84 36 26 37 27 38 28 39 78 40 29 41 83 42
REMARK SMILES IDX 77 43 79 44 30 45 82 46 76 47 75 48 31 50 63 51 43 52 62 53
REMARK SMILES IDX 44 54 47 55 61 56 80 57 45 58 46 59 60 61 81 62 48 63 32 64
REMARK SMILES IDX 33 65 41 66 34 67 35 68 39 69 42 70 36 71 37 72 40 73 38 74
REMARK SMILES IDX 64 75 65 76 73 77 66 78 67 79 71 80 74 81 68 82 69 83 72 84
REMARK SMILES IDX 70 85 49 86 50 87 58 88 51 89 52 90 56 91 59 92 53 93 54 94
REMARK SMILES IDX 57 95 55 96
REMARK H PARENT 79 49 47 60
REMARK Flexibility Score: inf
ROOT
ATOM      1  C   UNL A   1      36.254  22.594  23.490  1.00  0.00     0.188 C 
ENDROOT
BRANCH   1   2
ATOM      2  O   UNL A   1      35.277  23.492  22.984  1.00  0.00    -0.376 OA
BRANCH   2   3
ATOM      3  C   UNL A   1      33.911  23.084  22.937  1.00  0.00     0.202 C 
BRANCH   3   4
ATOM      4  C   UNL A   1      32.963  23.771  21.942  1.00  0.00     0.261 C 
BRANCH   4   5
ATOM      5  O   UNL A   1      32.263  24.937  22.441  1.00  0.00    -0.463 OA
BRANCH   5   6
ATOM      6  C   UNL A   1      32.864  26.133  22.231  1.00  0.00     0.311 C 
ATOM      7  O   UNL A   1      33.902  26.279  21.590  1.00  0.00    -0.252 OA
BRANCH   6   8
ATOM      8  C   UNL A   1      32.210  27.322  22.918  1.00  0.00     0.127 C 
ATOM      9  N   UNL A   1      32.550  28.892  24.800  1.00  0.00    -0.335 N 
ATOM     10  C   UNL A   1      31.291  29.454  24.610  1.00  0.00     0.223 C 
ATOM     11  C   UNL A   1      32.924  27.574  24.255  1.00  0.00     0.129 C 
ATOM     12  O   UNL A   1      30.927  30.481  25.184  1.00  0.00    -0.275 OA
ATOM     13  C   UNL A   1      30.368  28.825  23.577  1.00  0.00     0.101 C 
ATOM     14  C   UNL A   1      30.704  27.404  23.144  1.00  0.00     0.028 C 
BRANCH   9  15
ATOM     15  C   UNL A   1      33.466  29.531  25.752  1.00  0.00     0.117 C 
ATOM     16  C   UNL A   1      33.327  29.022  27.180  1.00  0.00     0.027 C 
ENDBRANCH   9  15
BRANCH  11  17
ATOM     17  C   UNL A   1      32.720  26.424  25.247  1.00  0.00    -0.024 A 
ATOM     18  C   UNL A   1      31.464  26.073  25.761  1.00  0.00     0.010 A 
ATOM     19  C   UNL A   1      33.816  25.604  25.573  1.00  0.00     0.010 A 
ATOM     20  C   UNL A   1      31.299  24.892  26.492  1.00  0.00     0.047 A 
ATOM     21  C   UNL A   1      33.642  24.408  26.271  1.00  0.00     0.047 A 
ATOM     22  C   UNL A   1      32.376  24.032  26.706  1.00  0.00     0.118 A 
BRANCH  22  23
ATOM     23  O   UNL A   1      32.082  22.873  27.369  1.00  0.00    -0.497 OA
ATOM     24  C   UNL A   1      33.195  22.200  27.950  1.00  0.00     0.278 C 
ENDBRANCH  22  23
ENDBRANCH  11  17
ENDBRANCH   6   8
ENDBRANCH   5   6
ENDBRANCH   4   5
ENDBRANCH   3   4
ENDBRANCH   2   3
ENDBRANCH   1   2
BRANCH   1  25
ATOM     25  C   UNL A   1      36.285  22.316  24.994  1.00  0.00     0.188 C 
BRANCH  25  26
ATOM     26  O   UNL A   1      36.601  20.991  25.353  1.00  0.00    -0.376 OA
BRANCH  26  27
ATOM     27  C   UNL A   1      37.841  20.447  24.927  1.00  0.00     0.202 C 
BRANCH  27  28
ATOM     28  C   UNL A   1      39.136  20.932  25.599  1.00  0.00     0.261 C 
BRANCH  28  29
ATOM     29  O   UNL A   1      39.825  19.973  26.421  1.00  0.00    -0.460 OA
BRANCH  29  30
ATOM     30  C   UNL A   1      41.138  19.756  26.169  1.00  0.00     0.338 C 
ATOM     31  O   UNL A   1      41.622  18.841  25.526  1.00  0.00    -0.246 OA
BRANCH  30  32
ATOM     32  C   UNL A   1      41.861  20.994  26.563  1.00  0.00     0.060 A 
ATOM     33  C   UNL A   1      41.916  21.339  27.924  1.00  0.00     0.016 A 
ATOM     34  C   UNL A   1      42.551  21.753  25.618  1.00  0.00     0.016 A 
ATOM     35  C   UNL A   1      42.645  22.457  28.336  1.00  0.00     0.010 A 
ATOM     36  C   UNL A   1      43.257  22.888  26.027  1.00  0.00     0.010 A 
ATOM     37  C   UNL A   1      43.283  23.262  27.384  1.00  0.00    -0.014 A 
BRANCH  37  38
ATOM     38  C   UNL A   1      43.765  24.613  27.759  1.00  0.00     0.031 A 
ATOM     39  C   UNL A   1      42.732  25.656  28.087  1.00  0.00     0.074 A 
ATOM     40  C   UNL A   1      45.072  24.922  27.812  1.00  0.00     0.049 A 
ATOM     41  N   UNL A   1      42.881  26.926  28.364  1.00  0.00    -0.248 NA
ATOM     42  C   UNL A   1      41.333  25.197  28.096  1.00  0.00     0.031 C 
ATOM     43  C   UNL A   1      46.173  23.996  27.568  1.00  0.00     0.029 A 
ATOM     44  N   UNL A   1      45.689  26.119  28.080  1.00  0.00    -0.354 N 
ATOM     45  C   UNL A   1      41.599  27.417  28.570  1.00  0.00     0.074 A 
ATOM     46  C   UNL A   1      40.682  26.319  28.355  1.00  0.00     0.031 C 
ATOM     47  C   UNL A   1      47.335  24.664  27.684  1.00  0.00     0.029 A 
ATOM     48  C   UNL A   1      47.056  26.070  27.974  1.00  0.00     0.049 A 
ATOM     49  H   UNL A   1      45.197  26.936  28.326  1.00  0.00     0.167 HD
ATOM     50  C   UNL A   1      41.219  28.669  28.914  1.00  0.00     0.037 A 
ATOM     51  C   UNL A   1      47.971  27.056  28.074  1.00  0.00     0.037 A 
ATOM     52  C   UNL A   1      42.129  29.764  29.117  1.00  0.00     0.049 A 
ATOM     53  C   UNL A   1      47.519  28.466  28.367  1.00  0.00     0.074 A 
ATOM     54  C   UNL A   1      41.843  31.068  29.480  1.00  0.00     0.029 A 
ATOM     55  N   UNL A   1      43.505  29.683  28.961  1.00  0.00    -0.354 N 
ATOM     56  N   UNL A   1      46.308  28.922  28.582  1.00  0.00    -0.248 NA
ATOM     57  C   UNL A   1      48.564  29.499  28.431  1.00  0.00     0.031 C 
ATOM     58  C   UNL A   1      43.040  31.791  29.485  1.00  0.00     0.029 A 
ATOM     59  C   UNL A   1      44.080  30.924  29.189  1.00  0.00     0.049 A 
ATOM     60  H   UNL A   1      44.000  28.867  28.723  1.00  0.00     0.167 HD
ATOM     61  C   UNL A   1      46.449  30.282  28.839  1.00  0.00     0.074 A 
ATOM     62  C   UNL A   1      47.864  30.575  28.761  1.00  0.00     0.031 C 
ATOM     63  C   UNL A   1      45.492  31.202  29.118  1.00  0.00     0.037 A 
BRANCH  50  64
ATOM     64  C   UNL A   1      39.746  28.924  29.047  1.00  0.00     0.064 A 
ATOM     65  C   UNL A   1      38.960  29.318  27.952  1.00  0.00     0.173 A 
ATOM     66  C   UNL A   1      39.111  28.773  30.289  1.00  0.00     0.173 A 
ATOM     67  F   UNL A   1      39.522  29.498  26.747  1.00  0.00    -0.203 F 
ATOM     68  C   UNL A   1      37.603  29.587  28.106  1.00  0.00     0.198 A 
ATOM     69  C   UNL A   1      37.747  29.009  30.430  1.00  0.00     0.198 A 
ATOM     70  F   UNL A   1      39.815  28.398  31.367  1.00  0.00    -0.203 F 
ATOM     71  F   UNL A   1      36.886  30.026  27.061  1.00  0.00    -0.200 F 
ATOM     72  C   UNL A   1      36.996  29.427  29.342  1.00  0.00     0.200 A 
ATOM     73  F   UNL A   1      37.160  28.842  31.623  1.00  0.00    -0.200 F 
ATOM     74  F   UNL A   1      35.689  29.685  29.488  1.00  0.00    -0.200 F 
ENDBRANCH  50  64
BRANCH  51  75
ATOM     75  C   UNL A   1      49.416  26.753  27.885  1.00  0.00     0.064 A 
ATOM     76  C   UNL A   1      50.256  26.521  28.983  1.00  0.00     0.173 A 
ATOM     77  C   UNL A   1      49.991  26.711  26.606  1.00  0.00     0.173 A 
ATOM     78  F   UNL A   1      49.760  26.583  30.228  1.00  0.00    -0.203 F 
ATOM     79  C   UNL A   1      51.616  26.272  28.811  1.00  0.00     0.198 A 
ATOM     80  C   UNL A   1      51.345  26.434  26.432  1.00  0.00     0.198 A 
ATOM     81  F   UNL A   1      49.234  26.934  25.521  1.00  0.00    -0.203 F 
ATOM     82  F   UNL A   1      52.404  26.103  29.881  1.00  0.00    -0.200 F 
ATOM     83  C   UNL A   1      52.159  26.222  27.536  1.00  0.00     0.200 A 
ATOM     84  F   UNL A   1      51.863  26.377  25.199  1.00  0.00    -0.200 F 
ATOM     85  F   UNL A   1      53.466  25.979  27.370  1.00  0.00    -0.200 F 
ENDBRANCH  51  75
BRANCH  63  86
ATOM     86  C   UNL A   1      45.940  32.608  29.406  1.00  0.00     0.064 A 
ATOM     87  C   UNL A   1      46.015  33.583  28.400  1.00  0.00     0.173 A 
ATOM     88  C   UNL A   1      46.248  32.998  30.719  1.00  0.00     0.173 A 
ATOM     89  F   UNL A   1      45.742  33.262  27.127  1.00  0.00    -0.203 F 
ATOM     90  C   UNL A   1      46.408  34.888  28.694  1.00  0.00     0.198 A 
ATOM     91  C   UNL A   1      46.608  34.310  31.015  1.00  0.00     0.198 A 
ATOM     92  F   UNL A   1      46.182  32.109  31.721  1.00  0.00    -0.203 F 
ATOM     93  F   UNL A   1      46.520  35.790  27.709  1.00  0.00    -0.200 F 
ATOM     94  C   UNL A   1      46.696  35.251  30.001  1.00  0.00     0.200 A 
ATOM     95  F   UNL A   1      46.867  34.663  32.281  1.00  0.00    -0.200 F 
ATOM     96  F   UNL A   1      47.063  36.509  30.284  1.00  0.00    -0.200 F 
ENDBRANCH  63  86
ENDBRANCH  37  38
ENDBRANCH  30  32
ENDBRANCH  29  30
ENDBRANCH  28  29
ENDBRANCH  27  28
ENDBRANCH  26  27
ENDBRANCH  25  26
ENDBRANCH   1  25
TORSDOF 20
ENDMDL
MODEL 2
REMARK VINA RESULT:     -10.6      4.441      9.318
REMARK SMILES CCN1C(=O)CC[C@H](C(=O)OCCOCCOCCOC(=O)c2ccc(-c3c4nc(c(-c5c(F)c(F)c(F)c(F)c5F)c5ccc([nH]5)c(-c5c(F)c(F)c(F)c(F)c5F)c5nc(c(-c6c(F)c(F)c(F)c(F)c6F)c6ccc3[nH]6)C=C5)C=C4)cc2)[C@@H]1c1ccc(OC)cc1
REMARK SMILES IDX 15 1 14 2 13 3 12 4 11 5 9 6 10 7 8 8 3 9 4 10 86 11 5 12
REMARK SMILES IDX 6 13 7 14 2 15 1 16 87 17 88 18 94 19 89 20 93 21 90 22
REMARK SMILES IDX 91 23 92 24 16 25 17 26 18 27 19 28 20 29 21 30 22 31 23 32
REMARK SMILES IDX 24 33 85 34 25 35 84 36 26 37 27 38 28 39 78 40 29 41 83 42
REMARK SMILES IDX 77 43 79 44 30 45 82 46 76 47 75 48 31 50 63 51 43 52 62 53
REMARK SMILES IDX 44 54 47 55 61 56 80 57 45 58 46 59 60 61 81 62 48 63 32 64
REMARK SMILES IDX 33 65 41 66 34 67 35 68 39 69 42 70 36 71 37 72 40 73 38 74
REMARK SMILES IDX 64 75 65 76 73 77 66 78 67 79 71 80 74 81 68 82 69 83 72 84
REMARK SMILES IDX 70 85 49 86 50 87 58 88 51 89 52 90 56 91 59 92 53 93 54 94
REMARK SMILES IDX 57 95 55 96
REMARK H PARENT 79 49 47 60
REMARK Flexibility Score: inf
ROOT
ATOM      1  C   UNL A   1      41.321  20.517  27.083  1.00  0.00     0.188 C 
ENDROOT
BRANCH   1   2
ATOM      2  O   UNL A   1      39.957  20.886  26.944  1.00  0.00    -0.376 OA
BRANCH   2   3
ATOM      3  C   UNL A   1      39.546  21.626  25.797  1.00  0.00     0.202 C 
BRANCH   3   4
ATOM      4  C   UNL A   1      38.099  21.490  25.301  1.00  0.00     0.261 C 
BRANCH   4   5
ATOM      5  O   UNL A   1      37.473  22.711  24.839  1.00  0.00    -0.463 OA
BRANCH   5   6
ATOM      6  C   UNL A   1      36.585  23.289  25.685  1.00  0.00     0.311 C 
ATOM      7  O   UNL A   1      36.836  24.271  26.379  1.00  0.00    -0.252 OA
BRANCH   6   8
ATOM      8  C   UNL A   1      35.240  22.591  25.796  1.00  0.00     0.127 C 
ATOM      9  N   UNL A   1      33.112  22.291  24.570  1.00  0.00    -0.335 N 
ATOM     10  C   UNL A   1      32.545  21.606  25.641  1.00  0.00     0.223 C 
ATOM     11  C   UNL A   1      34.302  23.148  24.713  1.00  0.00     0.129 C 
ATOM     12  O   UNL A   1      31.471  21.009  25.556  1.00  0.00    -0.275 OA
ATOM     13  C   UNL A   1      33.337  21.509  26.935  1.00  0.00     0.101 C 
ATOM     14  C   UNL A   1      34.472  22.509  27.112  1.00  0.00     0.028 C 
BRANCH   9  15
ATOM     15  C   UNL A   1      32.378  22.336  23.300  1.00  0.00     0.117 C 
ATOM     16  C   UNL A   1      33.187  22.893  22.137  1.00  0.00     0.027 C 
ENDBRANCH   9  15
BRANCH  11  17
ATOM     17  C   UNL A   1      33.965  24.625  24.942  1.00  0.00    -0.024 A 
ATOM     18  C   UNL A   1      34.199  25.620  23.982  1.00  0.00     0.010 A 
ATOM     19  C   UNL A   1      33.283  24.994  26.116  1.00  0.00     0.010 A 
ATOM     20  C   UNL A   1      33.684  26.908  24.152  1.00  0.00     0.047 A 
ATOM     21  C   UNL A   1      32.738  26.270  26.267  1.00  0.00     0.047 A 
ATOM     22  C   UNL A   1      32.911  27.224  25.269  1.00  0.00     0.118 A 
BRANCH  22  23
ATOM     23  O   UNL A   1      32.399  28.491  25.293  1.00  0.00    -0.497 OA
ATOM     24  C   UNL A   1      32.033  29.029  24.026  1.00  0.00     0.278 C 
ENDBRANCH  22  23
ENDBRANCH  11  17
ENDBRANCH   6   8
ENDBRANCH   5   6
ENDBRANCH   4   5
ENDBRANCH   3   4
ENDBRANCH   2   3
ENDBRANCH   1   2
BRANCH   1  25
ATOM     25  C   UNL A   1      41.965  19.663  25.989  1.00  0.00     0.188 C 
BRANCH  25  26
ATOM     26  O   UNL A   1      43.361  19.507  26.093  1.00  0.00    -0.376 OA
BRANCH  26  27
ATOM     27  C   UNL A   1      44.192  20.162  25.148  1.00  0.00     0.202 C 
BRANCH  27  28
ATOM     28  C   UNL A   1      44.962  21.421  25.580  1.00  0.00     0.261 C 
BRANCH  28  29
ATOM     29  O   UNL A   1      44.183  22.463  26.195  1.00  0.00    -0.460 OA
BRANCH  29  30
ATOM     30  C   UNL A   1      43.835  23.524  25.428  1.00  0.00     0.338 C 
ATOM     31  O   UNL A   1      43.800  23.572  24.211  1.00  0.00    -0.246 OA
BRANCH  30  32
ATOM     32  C   UNL A   1      43.220  24.527  26.336  1.00  0.00     0.060 A 
ATOM     33  C   UNL A   1      43.726  25.837  26.338  1.00  0.00     0.016 A 
ATOM     34  C   UNL A   1      42.103  24.205  27.108  1.00  0.00     0.016 A 
ATOM     35  C   UNL A   1      43.126  26.821  27.127  1.00  0.00     0.010 A 
ATOM     36  C   UNL A   1      41.522  25.182  27.921  1.00  0.00     0.010 A 
ATOM     37  C   UNL A   1      42.048  26.487  27.956  1.00  0.00    -0.014 A 
BRANCH  37  38
ATOM     38  C   UNL A   1      41.626  27.415  29.033  1.00  0.00     0.031 A 
ATOM     39  C   UNL A   1      42.398  27.383  30.324  1.00  0.00     0.074 A 
ATOM     40  C   UNL A   1      40.594  28.264  28.888  1.00  0.00     0.049 A 
ATOM     41  N   UNL A   1      42.187  28.027  31.442  1.00  0.00    -0.248 NA
ATOM     42  C   UNL A   1      43.569  26.492  30.352  1.00  0.00     0.031 C 
ATOM     43  C   UNL A   1      39.796  28.431  27.677  1.00  0.00     0.029 A 
ATOM     44  N   UNL A   1      40.035  29.140  29.786  1.00  0.00    -0.354 N 
ATOM     45  C   UNL A   1      43.190  27.613  32.307  1.00  0.00     0.074 A 
ATOM     46  C   UNL A   1      43.990  26.639  31.597  1.00  0.00     0.031 C 
ATOM     47  C   UNL A   1      38.839  29.346  27.912  1.00  0.00     0.029 A 
ATOM     48  C   UNL A   1      38.935  29.801  29.299  1.00  0.00     0.049 A 
ATOM     49  H   UNL A   1      40.391  29.282  30.693  1.00  0.00     0.167 HD
ATOM     50  C   UNL A   1      43.430  28.011  33.578  1.00  0.00     0.037 A 
ATOM     51  C   UNL A   1      38.090  30.652  29.915  1.00  0.00     0.037 A 
ATOM     52  C   UNL A   1      42.629  28.972  34.289  1.00  0.00     0.049 A 
ATOM     53  C   UNL A   1      38.320  31.014  31.363  1.00  0.00     0.074 A 
ATOM     54  C   UNL A   1      42.797  29.452  35.575  1.00  0.00     0.029 A 
ATOM     55  N   UNL A   1      41.498  29.589  33.774  1.00  0.00    -0.354 N 
ATOM     56  N   UNL A   1      39.282  30.637  32.170  1.00  0.00    -0.248 NA
ATOM     57  C   UNL A   1      37.344  31.922  31.983  1.00  0.00     0.031 C 
ATOM     58  C   UNL A   1      41.733  30.314  35.861  1.00  0.00     0.029 A 
ATOM     59  C   UNL A   1      40.939  30.422  34.730  1.00  0.00     0.049 A 
ATOM     60  H   UNL A   1      41.145  29.455  32.866  1.00  0.00     0.167 HD
ATOM     61  C   UNL A   1      39.047  31.285  33.379  1.00  0.00     0.074 A 
ATOM     62  C   UNL A   1      37.856  32.086  33.195  1.00  0.00     0.031 C 
ATOM     63  C   UNL A   1      39.757  31.223  34.533  1.00  0.00     0.037 A 
BRANCH  50  64
ATOM     64  C   UNL A   1      44.584  27.370  34.291  1.00  0.00     0.064 A 
ATOM     65  C   UNL A   1      45.863  27.950  34.301  1.00  0.00     0.173 A 
ATOM     66  C   UNL A   1      44.409  26.157  34.974  1.00  0.00     0.173 A 
ATOM     67  F   UNL A   1      46.089  29.099  33.646  1.00  0.00    -0.203 F 
ATOM     68  C   UNL A   1      46.930  27.319  34.935  1.00  0.00     0.198 A 
ATOM     69  C   UNL A   1      45.470  25.548  35.636  1.00  0.00     0.198 A 
ATOM     70  F   UNL A   1      43.207  25.561  34.996  1.00  0.00    -0.203 F 
ATOM     71  F   UNL A   1      48.156  27.857  34.876  1.00  0.00    -0.200 F 
ATOM     72  C   UNL A   1      46.731  26.122  35.608  1.00  0.00     0.200 A 
ATOM     73  F   UNL A   1      45.274  24.397  36.295  1.00  0.00    -0.200 F 
ATOM     74  F   UNL A   1      47.759  25.517  36.219  1.00  0.00    -0.200 F 
ENDBRANCH  50  64
BRANCH  51  75
ATOM     75  C   UNL A   1      36.933  31.221  29.172  1.00  0.00     0.064 A 
ATOM     76  C   UNL A   1      36.939  32.554  28.735  1.00  0.00     0.173 A 
ATOM     77  C   UNL A   1      35.790  30.453  28.903  1.00  0.00     0.173 A 
ATOM     78  F   UNL A   1      37.995  33.338  28.998  1.00  0.00    -0.203 F 
ATOM     79  C   UNL A   1      35.843  33.099  28.071  1.00  0.00     0.198 A 
ATOM     80  C   UNL A   1      34.706  30.991  28.213  1.00  0.00     0.198 A 
ATOM     81  F   UNL A   1      35.729  29.175  29.306  1.00  0.00    -0.203 F 
ATOM     82  F   UNL A   1      35.856  34.389  27.708  1.00  0.00    -0.200 F 
ATOM     83  C   UNL A   1      34.730  32.317  27.803  1.00  0.00     0.200 A 
ATOM     84  F   UNL A   1      33.637  30.228  27.949  1.00  0.00    -0.200 F 
ATOM     85  F   UNL A   1      33.677  32.840  27.161  1.00  0.00    -0.200 F 
ENDBRANCH  51  75
BRANCH  63  86
ATOM     86  C   UNL A   1      39.296  32.078  35.681  1.00  0.00     0.064 A 
ATOM     87  C   UNL A   1      38.396  31.602  36.646  1.00  0.00     0.173 A 
ATOM     88  C   UNL A   1      39.804  33.377  35.844  1.00  0.00     0.173 A 
ATOM     89  F   UNL A   1      37.871  30.373  36.532  1.00  0.00    -0.203 F 
ATOM     90  C   UNL A   1      38.003  32.403  37.716  1.00  0.00     0.198 A 
ATOM     91  C   UNL A   1      39.435  34.163  36.933  1.00  0.00     0.198 A 
ATOM     92  F   UNL A   1      40.676  33.879  34.957  1.00  0.00    -0.203 F 
ATOM     93  F   UNL A   1      37.104  31.945  38.599  1.00  0.00    -0.200 F 
ATOM     94  C   UNL A   1      38.528  33.678  37.863  1.00  0.00     0.200 A 
ATOM     95  F   UNL A   1      39.958  35.386  37.083  1.00  0.00    -0.200 F 
ATOM     96  F   UNL A   1      38.157  34.444  38.899  1.00  0.00    -0.200 F 
ENDBRANCH  63  86
ENDBRANCH  37  38
ENDBRANCH  30  32
ENDBRANCH  29  30
ENDBRANCH  28  29
ENDBRANCH  27  28
ENDBRANCH  26  27
ENDBRANCH  25  26
ENDBRANCH   1  25
TORSDOF 20
ENDMDL
MODEL 3
REMARK VINA RESULT:     -10.6      5.935     10.606
REMARK SMILES CCN1C(=O)CC[C@H](C(=O)OCCOCCOCCOC(=O)c2ccc(-c3c4nc(c(-c5c(F)c(F)c(F)c(F)c5F)c5ccc([nH]5)c(-c5c(F)c(F)c(F)c(F)c5F)c5nc(c(-c6c(F)c(F)c(F)c(F)c6F)c6ccc3[nH]6)C=C5)C=C4)cc2)[C@@H]1c1ccc(OC)cc1
REMARK SMILES IDX 15 1 14 2 13 3 12 4 11 5 9 6 10 7 8 8 3 9 4 10 86 11 5 12
REMARK SMILES IDX 6 13 7 14 2 15 1 16 87 17 88 18 94 19 89 20 93 21 90 22
REMARK SMILES IDX 91 23 92 24 16 25 17 26 18 27 19 28 20 29 21 30 22 31 23 32
REMARK SMILES IDX 24 33 85 34 25 35 84 36 26 37 27 38 28 39 78 40 29 41 83 42
REMARK SMILES IDX 77 43 79 44 30 45 82 46 76 47 75 48 31 50 63 51 43 52 62 53
REMARK SMILES IDX 44 54 47 55 61 56 80 57 45 58 46 59 60 61 81 62 48 63 32 64
REMARK SMILES IDX 33 65 41 66 34 67 35 68 39 69 42 70 36 71 37 72 40 73 38 74
REMARK SMILES IDX 64 75 65 76 73 77 66 78 67 79 71 80 74 81 68 82 69 83 72 84
REMARK SMILES IDX 70 85 49 86 50 87 58 88 51 89 52 90 56 91 59 92 53 93 54 94
REMARK SMILES IDX 57 95 55 96
REMARK H PARENT 79 49 47 60
REMARK Flexibility Score: inf
ROOT
ATOM      1  C   UNL A   1      34.690  31.728  28.092  1.00  0.00     0.188 C 
ENDROOT
BRANCH   1   2
ATOM      2  O   UNL A   1      35.557  30.607  28.187  1.00  0.00    -0.376 OA
BRANCH   2   3
ATOM      3  C   UNL A   1      35.259  29.429  27.442  1.00  0.00     0.202 C 
BRANCH   3   4
ATOM      4  C   UNL A   1      33.794  28.983  27.308  1.00  0.00     0.261 C 
BRANCH   4   5
ATOM      5  O   UNL A   1      33.587  27.656  26.765  1.00  0.00    -0.463 OA
BRANCH   5   6
ATOM      6  C   UNL A   1      32.310  27.202  26.760  1.00  0.00     0.311 C 
ATOM      7  O   UNL A   1      31.406  27.683  27.439  1.00  0.00    -0.252 OA
BRANCH   6   8
ATOM      8  C   UNL A   1      32.057  25.972  25.903  1.00  0.00     0.127 C 
ATOM      9  N   UNL A   1      32.400  25.114  23.608  1.00  0.00    -0.335 N 
ATOM     10  C   UNL A   1      31.659  23.968  23.883  1.00  0.00     0.223 C 
ATOM     11  C   UNL A   1      32.317  26.334  24.432  1.00  0.00     0.129 C 
ATOM     12  O   UNL A   1      31.614  23.005  23.118  1.00  0.00    -0.275 OA
ATOM     13  C   UNL A   1      30.958  23.868  25.229  1.00  0.00     0.101 C 
ATOM     14  C   UNL A   1      30.761  25.173  25.989  1.00  0.00     0.028 C 
BRANCH   9  15
ATOM     15  C   UNL A   1      33.126  25.189  22.335  1.00  0.00     0.117 C 
ATOM     16  C   UNL A   1      32.286  25.698  21.172  1.00  0.00     0.027 C 
ENDBRANCH   9  15
BRANCH  11  17
ATOM     17  C   UNL A   1      31.311  27.360  23.901  1.00  0.00    -0.024 A 
ATOM     18  C   UNL A   1      30.022  27.015  23.471  1.00  0.00     0.010 A 
ATOM     19  C   UNL A   1      31.643  28.726  23.951  1.00  0.00     0.010 A 
ATOM     20  C   UNL A   1      29.074  28.006  23.197  1.00  0.00     0.047 A 
ATOM     21  C   UNL A   1      30.684  29.713  23.713  1.00  0.00     0.047 A 
ATOM     22  C   UNL A   1      29.386  29.355  23.365  1.00  0.00     0.118 A 
BRANCH  22  23
ATOM     23  O   UNL A   1      28.361  30.230  23.139  1.00  0.00    -0.497 OA
ATOM     24  C   UNL A   1      28.553  31.545  23.653  1.00  0.00     0.278 C 
ENDBRANCH  22  23
ENDBRANCH  11  17
ENDBRANCH   6   8
ENDBRANCH   5   6
ENDBRANCH   4   5
ENDBRANCH   3   4
ENDBRANCH   2   3
ENDBRANCH   1   2
BRANCH   1  25
ATOM     25  C   UNL A   1      35.304  33.129  28.048  1.00  0.00     0.188 C 
BRANCH  25  26
ATOM     26  O   UNL A   1      34.431  34.155  27.638  1.00  0.00    -0.376 OA
BRANCH  26  27
ATOM     27  C   UNL A   1      33.227  34.355  28.362  1.00  0.00     0.202 C 
BRANCH  27  28
ATOM     28  C   UNL A   1      33.191  35.425  29.466  1.00  0.00     0.261 C 
BRANCH  28  29
ATOM     29  O   UNL A   1      32.416  35.107  30.635  1.00  0.00    -0.460 OA
BRANCH  29  30
ATOM     30  C   UNL A   1      32.762  35.704  31.801  1.00  0.00     0.338 C 
ATOM     31  O   UNL A   1      32.113  36.519  32.431  1.00  0.00    -0.246 OA
BRANCH  30  32
ATOM     32  C   UNL A   1      33.941  34.966  32.327  1.00  0.00     0.060 A 
ATOM     33  C   UNL A   1      35.199  35.589  32.291  1.00  0.00     0.016 A 
ATOM     34  C   UNL A   1      33.794  33.715  32.929  1.00  0.00     0.016 A 
ATOM     35  C   UNL A   1      36.314  34.952  32.840  1.00  0.00     0.010 A 
ATOM     36  C   UNL A   1      34.915  33.066  33.451  1.00  0.00     0.010 A 
ATOM     37  C   UNL A   1      36.185  33.668  33.384  1.00  0.00    -0.014 A 
BRANCH  37  38
ATOM     38  C   UNL A   1      37.394  32.853  33.655  1.00  0.00     0.031 A 
ATOM     39  C   UNL A   1      38.131  33.105  34.942  1.00  0.00     0.074 A 
ATOM     40  C   UNL A   1      37.837  31.915  32.800  1.00  0.00     0.049 A 
ATOM     41  N   UNL A   1      39.251  32.593  35.381  1.00  0.00    -0.248 NA
ATOM     42  C   UNL A   1      37.515  34.081  35.857  1.00  0.00     0.031 C 
ATOM     43  C   UNL A   1      37.191  31.536  31.547  1.00  0.00     0.029 A 
ATOM     44  N   UNL A   1      38.953  31.118  32.861  1.00  0.00    -0.354 N 
ATOM     45  C   UNL A   1      39.477  33.188  36.614  1.00  0.00     0.074 A 
ATOM     46  C   UNL A   1      38.398  34.124  36.840  1.00  0.00     0.031 C 
ATOM     47  C   UNL A   1      37.932  30.587  30.948  1.00  0.00     0.029 A 
ATOM     48  C   UNL A   1      39.121  30.319  31.757  1.00  0.00     0.049 A 
ATOM     49  H   UNL A   1      39.576  31.119  33.625  1.00  0.00     0.167 HD
ATOM     50  C   UNL A   1      40.491  32.972  37.485  1.00  0.00     0.037 A 
ATOM     51  C   UNL A   1      40.132  29.489  31.431  1.00  0.00     0.037 A 
ATOM     52  C   UNL A   1      41.570  32.049  37.256  1.00  0.00     0.049 A 
ATOM     53  C   UNL A   1      41.300  29.330  32.374  1.00  0.00     0.074 A 
ATOM     54  C   UNL A   1      42.638  31.749  38.083  1.00  0.00     0.029 A 
ATOM     55  N   UNL A   1      41.725  31.287  36.108  1.00  0.00    -0.354 N 
ATOM     56  N   UNL A   1      41.500  29.879  33.549  1.00  0.00    -0.248 NA
ATOM     57  C   UNL A   1      42.384  28.435  31.943  1.00  0.00     0.031 C 
ATOM     58  C   UNL A   1      43.471  30.850  37.409  1.00  0.00     0.029 A 
ATOM     59  C   UNL A   1      42.889  30.540  36.190  1.00  0.00     0.049 A 
ATOM     60  H   UNL A   1      41.101  31.279  35.347  1.00  0.00     0.167 HD
ATOM     61  C   UNL A   1      42.710  29.372  34.010  1.00  0.00     0.074 A 
ATOM     62  C   UNL A   1      43.195  28.464  32.992  1.00  0.00     0.031 C 
ATOM     63  C   UNL A   1      43.358  29.632  35.173  1.00  0.00     0.037 A 
BRANCH  50  64
ATOM     64  C   UNL A   1      40.494  33.784  38.747  1.00  0.00     0.064 A 
ATOM     65  C   UNL A   1      41.254  34.959  38.868  1.00  0.00     0.173 A 
ATOM     66  C   UNL A   1      39.727  33.382  39.850  1.00  0.00     0.173 A 
ATOM     67  F   UNL A   1      42.021  35.377  37.850  1.00  0.00    -0.203 F 
ATOM     68  C   UNL A   1      41.273  35.677  40.061  1.00  0.00     0.198 A 
ATOM     69  C   UNL A   1      39.723  34.122  41.028  1.00  0.00     0.198 A 
ATOM     70  F   UNL A   1      38.983  32.267  39.786  1.00  0.00    -0.203 F 
ATOM     71  F   UNL A   1      42.056  36.759  40.177  1.00  0.00    -0.200 F 
ATOM     72  C   UNL A   1      40.503  35.262  41.137  1.00  0.00     0.200 A 
ATOM     73  F   UNL A   1      38.969  33.726  42.063  1.00  0.00    -0.200 F 
ATOM     74  F   UNL A   1      40.522  35.956  42.284  1.00  0.00    -0.200 F 
ENDBRANCH  50  64
BRANCH  51  75
ATOM     75  C   UNL A   1      40.098  28.744  30.144  1.00  0.00     0.064 A 
ATOM     76  C   UNL A   1      39.473  27.492  30.049  1.00  0.00     0.173 A 
ATOM     77  C   UNL A   1      40.706  29.256  28.988  1.00  0.00     0.173 A 
ATOM     78  F   UNL A   1      38.906  26.944  31.134  1.00  0.00    -0.203 F 
ATOM     79  C   UNL A   1      39.471  26.776  28.854  1.00  0.00     0.198 A 
ATOM     80  C   UNL A   1      40.679  28.553  27.786  1.00  0.00     0.198 A 
ATOM     81  F   UNL A   1      41.326  30.446  29.026  1.00  0.00    -0.203 F 
ATOM     82  F   UNL A   1      38.909  25.560  28.805  1.00  0.00    -0.200 F 
ATOM     83  C   UNL A   1      40.067  27.309  27.721  1.00  0.00     0.200 A 
ATOM     84  F   UNL A   1      41.248  29.076  26.692  1.00  0.00    -0.200 F 
ATOM     85  F   UNL A   1      40.061  26.623  26.570  1.00  0.00    -0.200 F 
ENDBRANCH  51  75
BRANCH  63  86
ATOM     86  C   UNL A   1      44.642  28.894  35.436  1.00  0.00     0.064 A 
ATOM     87  C   UNL A   1      45.889  29.425  35.075  1.00  0.00     0.173 A 
ATOM     88  C   UNL A   1      44.624  27.661  36.108  1.00  0.00     0.173 A 
ATOM     89  F   UNL A   1      45.962  30.594  34.421  1.00  0.00    -0.203 F 
ATOM     90  C   UNL A   1      47.068  28.736  35.352  1.00  0.00     0.198 A 
ATOM     91  C   UNL A   1      45.807  26.992  36.413  1.00  0.00     0.198 A 
ATOM     92  F   UNL A   1      43.460  27.113  36.486  1.00  0.00    -0.203 F 
ATOM     93  F   UNL A   1      48.245  29.239  34.953  1.00  0.00    -0.200 F 
ATOM     94  C   UNL A   1      47.026  27.526  36.027  1.00  0.00     0.200 A 
ATOM     95  F   UNL A   1      45.764  25.832  37.082  1.00  0.00    -0.200 F 
ATOM     96  F   UNL A   1      48.163  26.869  36.302  1.00  0.00    -0.200 F 
ENDBRANCH  63  86
ENDBRANCH  37  38
ENDBRANCH  30  32
ENDBRANCH  29  30
ENDBRANCH  28  29
ENDBRANCH  27  28
ENDBRANCH  26  27
ENDBRANCH  25  26
ENDBRANCH   1  25
TORSDOF 20
ENDMDL
