MODEL 1
REMARK VINA RESULT:     -11.0      0.000      0.000
REMARK SMILES O=C(OCCOCCOCCOC(=O)[C@@H]1[C@H](C(=O)NCc2ccncc2)[C@H]2C=C[C@@H]1O2)c1ccc(-c2c3nc(c(-c4c(F)c(F)c(F)c(F)c4F)c4ccc([nH]4)c(-c4c(F)c(F)c(F)c(F)c4F)c4nc(c(-c5c(F)c(F)c(F)c(F)c5F)c5ccc2[nH]5)C=C4)C=C3)cc1
REMARK SMILES IDX 8 1 7 2 6 3 5 4 4 5 3 6 2 7 1 8 32 9 33 10 94 11 34 12 93 13
REMARK SMILES IDX 35 14 36 15 37 16 87 17 38 18 92 19 86 20 88 21 39 22 91 23
REMARK SMILES IDX 85 24 84 25 40 27 72 28 52 29 71 30 53 31 56 32 70 33 89 34
REMARK SMILES IDX 54 35 55 36 69 38 90 39 57 40 41 41 42 42 50 43 43 44 44 45
REMARK SMILES IDX 48 46 51 47 45 48 46 49 49 50 47 51 73 52 74 53 82 54 75 55
REMARK SMILES IDX 76 56 80 57 83 58 77 59 78 60 81 61 79 62 58 63 59 64 67 65
REMARK SMILES IDX 60 66 61 67 65 68 68 69 62 70 63 71 66 72 64 73 9 74 10 75
REMARK SMILES IDX 11 76 12 77 13 78 14 79 15 80 16 81 30 82 27 83 29 84 31 85
REMARK SMILES IDX 28 86 17 87 18 88 19 89 20 91 21 92 22 93 26 94 23 95 25 96
REMARK SMILES IDX 24 97
REMARK H PARENT 88 26 56 37 19 90
REMARK Flexibility Score: inf
ROOT
ATOM      1  C   UNL A   1      34.300  28.772  26.944  1.00  0.00     0.188 C 
ENDROOT
BRANCH   1   2
ATOM      2  C   UNL A   1      34.390  30.234  27.365  1.00  0.00     0.188 C 
BRANCH   2   3
ATOM      3  O   UNL A   1      33.096  30.770  27.657  1.00  0.00    -0.376 OA
BRANCH   3   4
ATOM      4  C   UNL A   1      32.606  31.650  26.643  1.00  0.00     0.202 C 
BRANCH   4   5
ATOM      5  C   UNL A   1      31.737  32.798  27.173  1.00  0.00     0.261 C 
BRANCH   5   6
ATOM      6  O   UNL A   1      32.465  34.019  27.391  1.00  0.00    -0.460 OA
BRANCH   6   7
ATOM      7  C   UNL A   1      33.082  34.447  28.521  1.00  0.00     0.338 C 
ATOM      8  O   UNL A   1      32.672  35.478  29.053  1.00  0.00    -0.246 OA
BRANCH   7   9
ATOM      9  C   UNL A   1      34.241  33.751  29.167  1.00  0.00     0.060 A 
ATOM     10  C   UNL A   1      34.153  32.857  30.233  1.00  0.00     0.016 A 
ATOM     11  C   UNL A   1      35.515  33.962  28.607  1.00  0.00     0.016 A 
ATOM     12  C   UNL A   1      35.272  32.231  30.766  1.00  0.00     0.010 A 
ATOM     13  C   UNL A   1      36.649  33.317  29.119  1.00  0.00     0.010 A 
ATOM     14  C   UNL A   1      36.529  32.460  30.219  1.00  0.00    -0.014 A 
BRANCH  14  15
ATOM     15  C   UNL A   1      37.702  31.904  30.918  1.00  0.00     0.031 A 
ATOM     16  C   UNL A   1      38.475  30.817  30.243  1.00  0.00     0.074 A 
ATOM     17  C   UNL A   1      38.161  32.470  32.048  1.00  0.00     0.049 A 
ATOM     18  N   UNL A   1      39.504  30.146  30.678  1.00  0.00    -0.248 NA
ATOM     19  C   UNL A   1      38.057  30.471  28.872  1.00  0.00     0.031 C 
ATOM     20  C   UNL A   1      37.599  33.666  32.670  1.00  0.00     0.029 A 
ATOM     21  N   UNL A   1      39.210  32.137  32.864  1.00  0.00    -0.354 N 
ATOM     22  C   UNL A   1      39.858  29.298  29.640  1.00  0.00     0.074 A 
ATOM     23  C   UNL A   1      38.929  29.526  28.557  1.00  0.00     0.031 C 
ATOM     24  C   UNL A   1      38.294  33.954  33.782  1.00  0.00     0.029 A 
ATOM     25  C   UNL A   1      39.281  32.911  33.997  1.00  0.00     0.049 A 
ATOM     26  H   UNL A   1      39.849  31.416  32.659  1.00  0.00     0.167 HD
ATOM     27  C   UNL A   1      40.877  28.412  29.607  1.00  0.00     0.037 A 
ATOM     28  C   UNL A   1      40.010  32.748  35.116  1.00  0.00     0.037 A 
ATOM     29  C   UNL A   1      41.781  28.204  30.704  1.00  0.00     0.049 A 
ATOM     30  C   UNL A   1      40.996  31.619  35.142  1.00  0.00     0.074 A 
ATOM     31  C   UNL A   1      42.826  27.306  30.807  1.00  0.00     0.029 A 
ATOM     32  N   UNL A   1      41.734  28.910  31.900  1.00  0.00    -0.354 N 
ATOM     33  N   UNL A   1      41.291  30.769  34.187  1.00  0.00    -0.248 NA
ATOM     34  C   UNL A   1      41.752  31.423  36.382  1.00  0.00     0.031 C 
ATOM     35  C   UNL A   1      43.375  27.429  32.088  1.00  0.00     0.029 A 
ATOM     36  C   UNL A   1      42.706  28.439  32.765  1.00  0.00     0.049 A 
ATOM     37  H   UNL A   1      41.102  29.636  32.102  1.00  0.00     0.167 HD
ATOM     38  C   UNL A   1      42.287  29.955  34.698  1.00  0.00     0.074 A 
ATOM     39  C   UNL A   1      42.550  30.418  36.047  1.00  0.00     0.031 C 
ATOM     40  C   UNL A   1      42.934  28.924  34.102  1.00  0.00     0.037 A 
BRANCH  27  41
ATOM     41  C   UNL A   1      41.006  27.565  28.380  1.00  0.00     0.064 A 
ATOM     42  C   UNL A   1      40.253  26.395  28.200  1.00  0.00     0.173 A 
ATOM     43  C   UNL A   1      41.911  27.929  27.373  1.00  0.00     0.173 A 
ATOM     44  F   UNL A   1      39.400  25.988  29.151  1.00  0.00    -0.203 F 
ATOM     45  C   UNL A   1      40.413  25.613  27.058  1.00  0.00     0.198 A 
ATOM     46  C   UNL A   1      42.052  27.157  26.224  1.00  0.00     0.198 A 
ATOM     47  F   UNL A   1      42.666  29.030  27.508  1.00  0.00    -0.203 F 
ATOM     48  F   UNL A   1      39.717  24.476  26.923  1.00  0.00    -0.200 F 
ATOM     49  C   UNL A   1      41.307  25.998  26.069  1.00  0.00     0.200 A 
ATOM     50  F   UNL A   1      42.919  27.529  25.271  1.00  0.00    -0.200 F 
ATOM     51  F   UNL A   1      41.460  25.244  24.971  1.00  0.00    -0.200 F 
ENDBRANCH  27  41
BRANCH  28  52
ATOM     52  C   UNL A   1      39.757  33.587  36.317  1.00  0.00     0.064 A 
ATOM     53  C   UNL A   1      38.857  33.202  37.318  1.00  0.00     0.173 A 
ATOM     54  C   UNL A   1      40.391  34.834  36.458  1.00  0.00     0.173 A 
ATOM     55  F   UNL A   1      38.206  32.035  37.218  1.00  0.00    -0.203 F 
ATOM     56  C   UNL A   1      38.583  34.040  38.400  1.00  0.00     0.198 A 
ATOM     57  C   UNL A   1      40.136  35.659  37.552  1.00  0.00     0.198 A 
ATOM     58  F   UNL A   1      41.259  35.255  35.526  1.00  0.00    -0.203 F 
ATOM     59  F   UNL A   1      37.678  33.671  39.316  1.00  0.00    -0.200 F 
ATOM     60  C   UNL A   1      39.224  35.266  38.518  1.00  0.00     0.200 A 
ATOM     61  F   UNL A   1      40.763  36.837  37.660  1.00  0.00    -0.200 F 
ATOM     62  F   UNL A   1      38.950  36.072  39.552  1.00  0.00    -0.200 F 
ENDBRANCH  28  52
BRANCH  40  63
ATOM     63  C   UNL A   1      44.008  28.258  34.904  1.00  0.00     0.064 A 
ATOM     64  C   UNL A   1      43.741  27.125  35.683  1.00  0.00     0.173 A 
ATOM     65  C   UNL A   1      45.320  28.748  34.867  1.00  0.00     0.173 A 
ATOM     66  F   UNL A   1      42.493  26.639  35.766  1.00  0.00    -0.203 F 
ATOM     67  C   UNL A   1      44.752  26.515  36.418  1.00  0.00     0.198 A 
ATOM     68  C   UNL A   1      46.335  28.116  35.576  1.00  0.00     0.198 A 
ATOM     69  F   UNL A   1      45.620  29.829  34.132  1.00  0.00    -0.203 F 
ATOM     70  F   UNL A   1      44.469  25.463  37.198  1.00  0.00    -0.200 F 
ATOM     71  C   UNL A   1      46.049  27.005  36.357  1.00  0.00     0.200 A 
ATOM     72  F   UNL A   1      47.588  28.584  35.508  1.00  0.00    -0.200 F 
ATOM     73  F   UNL A   1      47.023  26.413  37.059  1.00  0.00    -0.200 F 
ENDBRANCH  40  63
ENDBRANCH  14  15
ENDBRANCH   7   9
ENDBRANCH   6   7
ENDBRANCH   5   6
ENDBRANCH   4   5
ENDBRANCH   3   4
ENDBRANCH   2   3
ENDBRANCH   1   2
BRANCH   1  74
ATOM     74  O   UNL A   1      33.071  28.116  27.242  1.00  0.00    -0.376 OA
BRANCH  74  75
ATOM     75  C   UNL A   1      32.654  27.076  26.363  1.00  0.00     0.202 C 
BRANCH  75  76
ATOM     76  C   UNL A   1      33.716  26.316  25.543  1.00  0.00     0.261 C 
BRANCH  76  77
ATOM     77  O   UNL A   1      33.978  24.961  25.953  1.00  0.00    -0.463 OA
BRANCH  77  78
ATOM     78  C   UNL A   1      33.447  23.997  25.147  1.00  0.00     0.312 C 
ATOM     79  O   UNL A   1      32.252  23.806  25.001  1.00  0.00    -0.252 OA
BRANCH  78  80
ATOM     80  C   UNL A   1      34.516  23.075  24.600  1.00  0.00     0.147 C 
ATOM     81  C   UNL A   1      34.881  21.757  25.314  1.00  0.00     0.128 C 
ATOM     82  C   UNL A   1      35.877  23.803  24.638  1.00  0.00     0.157 C 
ATOM     83  C   UNL A   1      36.329  22.002  25.769  1.00  0.00     0.155 C 
ATOM     84  C   UNL A   1      36.925  23.061  23.855  1.00  0.00     0.004 C 
ATOM     85  O   UNL A   1      36.320  23.438  25.974  1.00  0.00    -0.365 OA
ATOM     86  C   UNL A   1      37.222  21.965  24.565  1.00  0.00     0.004 C 
BRANCH  81  87
ATOM     87  C   UNL A   1      34.035  21.114  26.384  1.00  0.00     0.227 C 
ATOM     88  O   UNL A   1      34.237  21.439  27.562  1.00  0.00    -0.275 OA
ATOM     89  N   UNL A   1      33.030  20.243  26.191  1.00  0.00    -0.352 N 
ATOM     90  H   UNL A   1      32.556  20.015  27.023  1.00  0.00     0.163 HD
BRANCH  89  91
ATOM     91  C   UNL A   1      32.491  19.566  25.030  1.00  0.00     0.151 C 
BRANCH  91  92
ATOM     92  C   UNL A   1      33.029  18.163  24.887  1.00  0.00    -0.026 A 
ATOM     93  C   UNL A   1      32.559  17.154  25.733  1.00  0.00     0.025 A 
ATOM     94  C   UNL A   1      34.003  17.818  23.945  1.00  0.00     0.025 A 
ATOM     95  C   UNL A   1      33.019  15.857  25.558  1.00  0.00     0.111 A 
ATOM     96  C   UNL A   1      34.400  16.491  23.842  1.00  0.00     0.111 A 
ATOM     97  N   UNL A   1      33.923  15.500  24.623  1.00  0.00    -0.265 NA
ENDBRANCH  91  92
ENDBRANCH  89  91
ENDBRANCH  81  87
ENDBRANCH  78  80
ENDBRANCH  77  78
ENDBRANCH  76  77
ENDBRANCH  75  76
ENDBRANCH  74  75
ENDBRANCH   1  74
TORSDOF 20
ENDMDL
MODEL 2
REMARK VINA RESULT:     -10.6      4.008      8.596
REMARK SMILES O=C(OCCOCCOCCOC(=O)[C@@H]1[C@H](C(=O)NCc2ccncc2)[C@H]2C=C[C@@H]1O2)c1ccc(-c2c3nc(c(-c4c(F)c(F)c(F)c(F)c4F)c4ccc([nH]4)c(-c4c(F)c(F)c(F)c(F)c4F)c4nc(c(-c5c(F)c(F)c(F)c(F)c5F)c5ccc2[nH]5)C=C4)C=C3)cc1
REMARK SMILES IDX 8 1 7 2 6 3 5 4 4 5 3 6 2 7 1 8 32 9 33 10 94 11 34 12 93 13
REMARK SMILES IDX 35 14 36 15 37 16 87 17 38 18 92 19 86 20 88 21 39 22 91 23
REMARK SMILES IDX 85 24 84 25 40 27 72 28 52 29 71 30 53 31 56 32 70 33 89 34
REMARK SMILES IDX 54 35 55 36 69 38 90 39 57 40 41 41 42 42 50 43 43 44 44 45
REMARK SMILES IDX 48 46 51 47 45 48 46 49 49 50 47 51 73 52 74 53 82 54 75 55
REMARK SMILES IDX 76 56 80 57 83 58 77 59 78 60 81 61 79 62 58 63 59 64 67 65
REMARK SMILES IDX 60 66 61 67 65 68 68 69 62 70 63 71 66 72 64 73 9 74 10 75
REMARK SMILES IDX 11 76 12 77 13 78 14 79 15 80 16 81 30 82 27 83 29 84 31 85
REMARK SMILES IDX 28 86 17 87 18 88 19 89 20 91 21 92 22 93 26 94 23 95 25 96
REMARK SMILES IDX 24 97
REMARK H PARENT 88 26 56 37 19 90
REMARK Flexibility Score: inf
ROOT
ATOM      1  C   UNL A   1      32.959  21.012  24.546  1.00  0.00     0.188 C 
ENDROOT
BRANCH   1   2
ATOM      2  C   UNL A   1      34.242  20.229  24.796  1.00  0.00     0.188 C 
BRANCH   2   3
ATOM      3  O   UNL A   1      35.388  21.085  24.760  1.00  0.00    -0.376 OA
BRANCH   3   4
ATOM      4  C   UNL A   1      35.624  21.765  25.994  1.00  0.00     0.202 C 
BRANCH   4   5
ATOM      5  C   UNL A   1      36.552  22.981  25.875  1.00  0.00     0.261 C 
BRANCH   5   6
ATOM      6  O   UNL A   1      37.914  22.639  25.568  1.00  0.00    -0.460 OA
BRANCH   6   7
ATOM      7  C   UNL A   1      39.032  22.871  26.302  1.00  0.00     0.338 C 
ATOM      8  O   UNL A   1      39.797  21.931  26.510  1.00  0.00    -0.246 OA
BRANCH   7   9
ATOM      9  C   UNL A   1      39.397  24.202  26.887  1.00  0.00     0.060 A 
ATOM     10  C   UNL A   1      40.063  25.224  26.213  1.00  0.00     0.016 A 
ATOM     11  C   UNL A   1      38.972  24.469  28.202  1.00  0.00     0.016 A 
ATOM     12  C   UNL A   1      40.349  26.442  26.815  1.00  0.00     0.010 A 
ATOM     13  C   UNL A   1      39.230  25.703  28.813  1.00  0.00     0.010 A 
ATOM     14  C   UNL A   1      39.941  26.690  28.120  1.00  0.00    -0.014 A 
BRANCH  14  15
ATOM     15  C   UNL A   1      40.408  27.929  28.769  1.00  0.00     0.031 A 
ATOM     16  C   UNL A   1      41.850  28.025  29.150  1.00  0.00     0.074 A 
ATOM     17  C   UNL A   1      39.602  29.001  28.864  1.00  0.00     0.049 A 
ATOM     18  N   UNL A   1      42.476  28.986  29.769  1.00  0.00    -0.248 NA
ATOM     19  C   UNL A   1      42.713  26.904  28.736  1.00  0.00     0.031 C 
ATOM     20  C   UNL A   1      38.244  29.074  28.329  1.00  0.00     0.029 A 
ATOM     21  N   UNL A   1      39.804  30.238  29.417  1.00  0.00    -0.354 N 
ATOM     22  C   UNL A   1      43.803  28.588  29.822  1.00  0.00     0.074 A 
ATOM     23  C   UNL A   1      43.895  27.294  29.185  1.00  0.00     0.031 C 
ATOM     24  C   UNL A   1      37.727  30.283  28.600  1.00  0.00     0.029 A 
ATOM     25  C   UNL A   1      38.678  31.026  29.407  1.00  0.00     0.049 A 
ATOM     26  H   UNL A   1      40.669  30.533  29.784  1.00  0.00     0.167 HD
ATOM     27  C   UNL A   1      44.846  29.260  30.357  1.00  0.00     0.037 A 
ATOM     28  C   UNL A   1      38.424  32.183  30.044  1.00  0.00     0.037 A 
ATOM     29  C   UNL A   1      44.721  30.544  30.989  1.00  0.00     0.049 A 
ATOM     30  C   UNL A   1      39.545  32.812  30.815  1.00  0.00     0.074 A 
ATOM     31  C   UNL A   1      45.696  31.304  31.605  1.00  0.00     0.029 A 
ATOM     32  N   UNL A   1      43.530  31.253  31.090  1.00  0.00    -0.354 N 
ATOM     33  N   UNL A   1      40.788  32.408  30.925  1.00  0.00    -0.248 NA
ATOM     34  C   UNL A   1      39.243  34.049  31.541  1.00  0.00     0.031 C 
ATOM     35  C   UNL A   1      45.083  32.448  32.129  1.00  0.00     0.029 A 
ATOM     36  C   UNL A   1      43.737  32.425  31.795  1.00  0.00     0.049 A 
ATOM     37  H   UNL A   1      42.668  30.963  30.715  1.00  0.00     0.167 HD
ATOM     38  C   UNL A   1      41.426  33.354  31.708  1.00  0.00     0.074 A 
ATOM     39  C   UNL A   1      40.431  34.356  32.040  1.00  0.00     0.031 C 
ATOM     40  C   UNL A   1      42.720  33.397  32.108  1.00  0.00     0.037 A 
BRANCH  27  41
ATOM     41  C   UNL A   1      46.178  28.577  30.341  1.00  0.00     0.064 A 
ATOM     42  C   UNL A   1      47.114  28.795  29.319  1.00  0.00     0.173 A 
ATOM     43  C   UNL A   1      46.514  27.678  31.362  1.00  0.00     0.173 A 
ATOM     44  F   UNL A   1      46.824  29.620  28.302  1.00  0.00    -0.203 F 
ATOM     45  C   UNL A   1      48.335  28.126  29.316  1.00  0.00     0.198 A 
ATOM     46  C   UNL A   1      47.744  27.027  31.367  1.00  0.00     0.198 A 
ATOM     47  F   UNL A   1      45.644  27.423  32.352  1.00  0.00    -0.203 F 
ATOM     48  F   UNL A   1      49.199  28.314  28.309  1.00  0.00    -0.200 F 
ATOM     49  C   UNL A   1      48.652  27.248  30.343  1.00  0.00     0.200 A 
ATOM     50  F   UNL A   1      48.046  26.177  32.359  1.00  0.00    -0.200 F 
ATOM     51  F   UNL A   1      49.828  26.605  30.339  1.00  0.00    -0.200 F 
ENDBRANCH  27  41
BRANCH  28  52
ATOM     52  C   UNL A   1      37.048  32.747  30.072  1.00  0.00     0.064 A 
ATOM     53  C   UNL A   1      36.593  33.649  29.102  1.00  0.00     0.173 A 
ATOM     54  C   UNL A   1      36.167  32.420  31.118  1.00  0.00     0.173 A 
ATOM     55  F   UNL A   1      37.402  34.014  28.098  1.00  0.00    -0.203 F 
ATOM     56  C   UNL A   1      35.322  34.219  29.189  1.00  0.00     0.198 A 
ATOM     57  C   UNL A   1      34.889  32.970  31.191  1.00  0.00     0.198 A 
ATOM     58  F   UNL A   1      36.553  31.565  32.076  1.00  0.00    -0.203 F 
ATOM     59  F   UNL A   1      34.931  35.119  28.277  1.00  0.00    -0.200 F 
ATOM     60  C   UNL A   1      34.470  33.877  30.231  1.00  0.00     0.200 A 
ATOM     61  F   UNL A   1      34.072  32.631  32.196  1.00  0.00    -0.200 F 
ATOM     62  F   UNL A   1      33.255  34.436  30.318  1.00  0.00    -0.200 F 
ENDBRANCH  28  52
BRANCH  40  63
ATOM     63  C   UNL A   1      43.128  34.585  32.921  1.00  0.00     0.064 A 
ATOM     64  C   UNL A   1      43.501  35.792  32.315  1.00  0.00     0.173 A 
ATOM     65  C   UNL A   1      43.119  34.516  34.321  1.00  0.00     0.173 A 
ATOM     66  F   UNL A   1      43.548  35.892  30.978  1.00  0.00    -0.203 F 
ATOM     67  C   UNL A   1      43.873  36.887  33.087  1.00  0.00     0.198 A 
ATOM     68  C   UNL A   1      43.459  35.624  35.088  1.00  0.00     0.198 A 
ATOM     69  F   UNL A   1      42.768  33.380  34.941  1.00  0.00    -0.203 F 
ATOM     70  F   UNL A   1      44.275  38.018  32.491  1.00  0.00    -0.200 F 
ATOM     71  C   UNL A   1      43.843  36.805  34.472  1.00  0.00     0.200 A 
ATOM     72  F   UNL A   1      43.420  35.547  36.426  1.00  0.00    -0.200 F 
ATOM     73  F   UNL A   1      44.193  37.864  35.214  1.00  0.00    -0.200 F 
ENDBRANCH  40  63
ENDBRANCH  14  15
ENDBRANCH   7   9
ENDBRANCH   6   7
ENDBRANCH   5   6
ENDBRANCH   4   5
ENDBRANCH   3   4
ENDBRANCH   2   3
ENDBRANCH   1   2
BRANCH   1  74
ATOM     74  O   UNL A   1      33.029  22.007  23.529  1.00  0.00    -0.376 OA
BRANCH  74  75
ATOM     75  C   UNL A   1      32.660  23.336  23.887  1.00  0.00     0.202 C 
BRANCH  75  76
ATOM     76  C   UNL A   1      33.701  24.464  23.755  1.00  0.00     0.261 C 
BRANCH  76  77
ATOM     77  O   UNL A   1      33.632  25.249  22.549  1.00  0.00    -0.463 OA
BRANCH  77  78
ATOM     78  C   UNL A   1      33.505  26.594  22.736  1.00  0.00     0.312 C 
ATOM     79  O   UNL A   1      33.714  27.429  21.875  1.00  0.00    -0.252 OA
BRANCH  78  80
ATOM     80  C   UNL A   1      33.254  26.933  24.191  1.00  0.00     0.147 C 
ATOM     81  C   UNL A   1      31.838  27.274  24.702  1.00  0.00     0.128 C 
ATOM     82  C   UNL A   1      34.003  28.237  24.540  1.00  0.00     0.157 C 
ATOM     83  C   UNL A   1      31.970  28.749  25.119  1.00  0.00     0.155 C 
ATOM     84  C   UNL A   1      34.031  28.479  26.025  1.00  0.00     0.004 C 
ATOM     85  O   UNL A   1      32.984  29.214  24.191  1.00  0.00    -0.365 OA
ATOM     86  C   UNL A   1      32.784  28.819  26.376  1.00  0.00     0.004 C 
BRANCH  81  87
ATOM     87  C   UNL A   1      30.573  26.997  23.931  1.00  0.00     0.227 C 
ATOM     88  O   UNL A   1      29.897  26.010  24.254  1.00  0.00    -0.275 OA
ATOM     89  N   UNL A   1      30.060  27.747  22.941  1.00  0.00    -0.352 N 
ATOM     90  H   UNL A   1      29.181  27.429  22.635  1.00  0.00     0.163 HD
BRANCH  89  91
ATOM     91  C   UNL A   1      30.517  28.920  22.225  1.00  0.00     0.151 C 
BRANCH  91  92
ATOM     92  C   UNL A   1      29.545  30.070  22.334  1.00  0.00    -0.026 A 
ATOM     93  C   UNL A   1      29.241  30.599  23.592  1.00  0.00     0.025 A 
ATOM     94  C   UNL A   1      28.909  30.632  21.223  1.00  0.00     0.025 A 
ATOM     95  C   UNL A   1      28.390  31.691  23.677  1.00  0.00     0.111 A 
ATOM     96  C   UNL A   1      28.074  31.725  21.408  1.00  0.00     0.111 A 
ATOM     97  N   UNL A   1      27.806  32.274  22.610  1.00  0.00    -0.265 NA
ENDBRANCH  91  92
ENDBRANCH  89  91
ENDBRANCH  81  87
ENDBRANCH  78  80
ENDBRANCH  77  78
ENDBRANCH  76  77
ENDBRANCH  75  76
ENDBRANCH  74  75
ENDBRANCH   1  74
TORSDOF 20
ENDMDL
MODEL 3
REMARK VINA RESULT:     -10.5      4.720     10.468
REMARK SMILES O=C(OCCOCCOCCOC(=O)[C@@H]1[C@H](C(=O)NCc2ccncc2)[C@H]2C=C[C@@H]1O2)c1ccc(-c2c3nc(c(-c4c(F)c(F)c(F)c(F)c4F)c4ccc([nH]4)c(-c4c(F)c(F)c(F)c(F)c4F)c4nc(c(-c5c(F)c(F)c(F)c(F)c5F)c5ccc2[nH]5)C=C4)C=C3)cc1
REMARK SMILES IDX 8 1 7 2 6 3 5 4 4 5 3 6 2 7 1 8 32 9 33 10 94 11 34 12 93 13
REMARK SMILES IDX 35 14 36 15 37 16 87 17 38 18 92 19 86 20 88 21 39 22 91 23
REMARK SMILES IDX 85 24 84 25 40 27 72 28 52 29 71 30 53 31 56 32 70 33 89 34
REMARK SMILES IDX 54 35 55 36 69 38 90 39 57 40 41 41 42 42 50 43 43 44 44 45
REMARK SMILES IDX 48 46 51 47 45 48 46 49 49 50 47 51 73 52 74 53 82 54 75 55
REMARK SMILES IDX 76 56 80 57 83 58 77 59 78 60 81 61 79 62 58 63 59 64 67 65
REMARK SMILES IDX 60 66 61 67 65 68 68 69 62 70 63 71 66 72 64 73 9 74 10 75
REMARK SMILES IDX 11 76 12 77 13 78 14 79 15 80 16 81 30 82 27 83 29 84 31 85
REMARK SMILES IDX 28 86 17 87 18 88 19 89 20 91 21 92 22 93 26 94 23 95 25 96
REMARK SMILES IDX 24 97
REMARK H PARENT 88 26 56 37 19 90
REMARK Flexibility Score: inf
ROOT
ATOM      1  C   UNL A   1      33.632  21.534  27.263  1.00  0.00     0.188 C 
ENDROOT
BRANCH   1   2
ATOM      2  C   UNL A   1      34.769  22.231  26.526  1.00  0.00     0.188 C 
BRANCH   2   3
ATOM      3  O   UNL A   1      34.899  21.739  25.189  1.00  0.00    -0.376 OA
BRANCH   3   4
ATOM      4  C   UNL A   1      36.109  22.153  24.550  1.00  0.00     0.202 C 
BRANCH   4   5
ATOM      5  C   UNL A   1      37.270  21.161  24.699  1.00  0.00     0.261 C 
BRANCH   5   6
ATOM      6  O   UNL A   1      37.904  21.206  25.989  1.00  0.00    -0.460 OA
BRANCH   6   7
ATOM      7  C   UNL A   1      39.217  21.386  26.282  1.00  0.00     0.338 C 
ATOM      8  O   UNL A   1      39.957  20.404  26.267  1.00  0.00    -0.246 OA
BRANCH   7   9
ATOM      9  C   UNL A   1      39.830  22.708  26.632  1.00  0.00     0.060 A 
ATOM     10  C   UNL A   1      39.452  23.940  26.099  1.00  0.00     0.016 A 
ATOM     11  C   UNL A   1      40.821  22.717  27.631  1.00  0.00     0.016 A 
ATOM     12  C   UNL A   1      40.052  25.129  26.490  1.00  0.00     0.010 A 
ATOM     13  C   UNL A   1      41.418  23.912  28.053  1.00  0.00     0.010 A 
ATOM     14  C   UNL A   1      41.044  25.125  27.464  1.00  0.00    -0.014 A 
BRANCH  14  15
ATOM     15  C   UNL A   1      41.763  26.386  27.726  1.00  0.00     0.031 A 
ATOM     16  C   UNL A   1      41.057  27.451  28.501  1.00  0.00     0.074 A 
ATOM     17  C   UNL A   1      43.068  26.508  27.426  1.00  0.00     0.049 A 
ATOM     18  N   UNL A   1      41.464  28.650  28.812  1.00  0.00    -0.248 NA
ATOM     19  C   UNL A   1      39.729  27.101  29.037  1.00  0.00     0.031 C 
ATOM     20  C   UNL A   1      43.897  25.446  26.861  1.00  0.00     0.029 A 
ATOM     21  N   UNL A   1      43.934  27.560  27.569  1.00  0.00    -0.354 N 
ATOM     22  C   UNL A   1      40.446  29.199  29.576  1.00  0.00     0.074 A 
ATOM     23  C   UNL A   1      39.395  28.212  29.674  1.00  0.00     0.031 C 
ATOM     24  C   UNL A   1      45.145  25.908  26.684  1.00  0.00     0.029 A 
ATOM     25  C   UNL A   1      45.174  27.317  27.031  1.00  0.00     0.049 A 
ATOM     26  H   UNL A   1      43.691  28.405  28.013  1.00  0.00     0.167 HD
ATOM     27  C   UNL A   1      40.408  30.424  30.144  1.00  0.00     0.037 A 
ATOM     28  C   UNL A   1      46.192  28.160  26.780  1.00  0.00     0.037 A 
ATOM     29  C   UNL A   1      41.468  31.387  30.023  1.00  0.00     0.049 A 
ATOM     30  C   UNL A   1      46.043  29.581  27.234  1.00  0.00     0.074 A 
ATOM     31  C   UNL A   1      41.528  32.675  30.517  1.00  0.00     0.029 A 
ATOM     32  N   UNL A   1      42.658  31.157  29.344  1.00  0.00    -0.354 N 
ATOM     33  N   UNL A   1      45.053  30.127  27.900  1.00  0.00    -0.248 NA
ATOM     34  C   UNL A   1      47.138  30.501  26.913  1.00  0.00     0.031 C 
ATOM     35  C   UNL A   1      42.732  33.245  30.088  1.00  0.00     0.029 A 
ATOM     36  C   UNL A   1      43.444  32.295  29.371  1.00  0.00     0.049 A 
ATOM     37  H   UNL A   1      42.905  30.310  28.909  1.00  0.00     0.167 HD
ATOM     38  C   UNL A   1      45.417  31.446  28.107  1.00  0.00     0.074 A 
ATOM     39  C   UNL A   1      46.723  31.616  27.498  1.00  0.00     0.031 C 
ATOM     40  C   UNL A   1      44.738  32.426  28.751  1.00  0.00     0.037 A 
BRANCH  27  41
ATOM     41  C   UNL A   1      39.156  30.800  30.873  1.00  0.00     0.064 A 
ATOM     42  C   UNL A   1      39.018  30.622  32.257  1.00  0.00     0.173 A 
ATOM     43  C   UNL A   1      38.071  31.337  30.165  1.00  0.00     0.173 A 
ATOM     44  F   UNL A   1      40.016  30.080  32.971  1.00  0.00    -0.203 F 
ATOM     45  C   UNL A   1      37.831  30.957  32.904  1.00  0.00     0.198 A 
ATOM     46  C   UNL A   1      36.895  31.690  30.819  1.00  0.00     0.198 A 
ATOM     47  F   UNL A   1      38.149  31.509  28.837  1.00  0.00    -0.203 F 
ATOM     48  F   UNL A   1      37.702  30.739  34.221  1.00  0.00    -0.200 F 
ATOM     49  C   UNL A   1      36.774  31.496  32.187  1.00  0.00     0.200 A 
ATOM     50  F   UNL A   1      35.873  32.208  30.122  1.00  0.00    -0.200 F 
ATOM     51  F   UNL A   1      35.632  31.818  32.811  1.00  0.00    -0.200 F 
ENDBRANCH  27  41
BRANCH  28  52
ATOM     52  C   UNL A   1      47.364  27.719  25.978  1.00  0.00     0.064 A 
ATOM     53  C   UNL A   1      48.575  27.346  26.573  1.00  0.00     0.173 A 
ATOM     54  C   UNL A   1      47.300  27.708  24.573  1.00  0.00     0.173 A 
ATOM     55  F   UNL A   1      48.697  27.364  27.907  1.00  0.00    -0.203 F 
ATOM     56  C   UNL A   1      49.683  27.003  25.796  1.00  0.00     0.198 A 
ATOM     57  C   UNL A   1      48.398  27.341  23.799  1.00  0.00     0.198 A 
ATOM     58  F   UNL A   1      46.165  28.060  23.950  1.00  0.00    -0.203 F 
ATOM     59  F   UNL A   1      50.845  26.701  26.390  1.00  0.00    -0.200 F 
ATOM     60  C   UNL A   1      49.593  26.998  24.411  1.00  0.00     0.200 A 
ATOM     61  F   UNL A   1      48.301  27.334  22.463  1.00  0.00    -0.200 F 
ATOM     62  F   UNL A   1      50.662  26.679  23.668  1.00  0.00    -0.200 F 
ENDBRANCH  28  52
BRANCH  40  63
ATOM     63  C   UNL A   1      45.419  33.755  28.850  1.00  0.00     0.064 A 
ATOM     64  C   UNL A   1      46.294  34.051  29.904  1.00  0.00     0.173 A 
ATOM     65  C   UNL A   1      45.211  34.728  27.863  1.00  0.00     0.173 A 
ATOM     66  F   UNL A   1      46.501  33.157  30.882  1.00  0.00    -0.203 F 
ATOM     67  C   UNL A   1      46.922  35.289  29.978  1.00  0.00     0.198 A 
ATOM     68  C   UNL A   1      45.866  35.952  27.923  1.00  0.00     0.198 A 
ATOM     69  F   UNL A   1      44.383  34.486  26.837  1.00  0.00    -0.203 F 
ATOM     70  F   UNL A   1      47.716  35.574  31.019  1.00  0.00    -0.200 F 
ATOM     71  C   UNL A   1      46.715  36.235  28.983  1.00  0.00     0.200 A 
ATOM     72  F   UNL A   1      45.674  36.860  26.957  1.00  0.00    -0.200 F 
ATOM     73  F   UNL A   1      47.327  37.424  29.052  1.00  0.00    -0.200 F 
ENDBRANCH  40  63
ENDBRANCH  14  15
ENDBRANCH   7   9
ENDBRANCH   6   7
ENDBRANCH   5   6
ENDBRANCH   4   5
ENDBRANCH   3   4
ENDBRANCH   2   3
ENDBRANCH   1   2
BRANCH   1  74
ATOM     74  O   UNL A   1      32.686  22.392  27.895  1.00  0.00    -0.376 OA
BRANCH  74  75
ATOM     75  C   UNL A   1      32.120  23.435  27.109  1.00  0.00     0.202 C 
BRANCH  75  76
ATOM     76  C   UNL A   1      31.142  23.073  25.974  1.00  0.00     0.261 C 
BRANCH  76  77
ATOM     77  O   UNL A   1      31.715  22.969  24.656  1.00  0.00    -0.463 OA
BRANCH  77  78
ATOM     78  C   UNL A   1      31.274  23.895  23.757  1.00  0.00     0.312 C 
ATOM     79  O   UNL A   1      30.293  23.750  23.049  1.00  0.00    -0.252 OA
BRANCH  78  80
ATOM     80  C   UNL A   1      32.253  25.041  23.610  1.00  0.00     0.147 C 
ATOM     81  C   UNL A   1      31.952  26.434  24.201  1.00  0.00     0.128 C 
ATOM     82  C   UNL A   1      32.395  25.393  22.113  1.00  0.00     0.157 C 
ATOM     83  C   UNL A   1      31.825  27.318  22.950  1.00  0.00     0.155 C 
ATOM     84  C   UNL A   1      33.553  26.322  21.871  1.00  0.00     0.004 C 
ATOM     85  O   UNL A   1      31.320  26.364  21.980  1.00  0.00    -0.365 OA
ATOM     86  C   UNL A   1      33.191  27.514  22.363  1.00  0.00     0.004 C 
BRANCH  81  87
ATOM     87  C   UNL A   1      30.871  26.704  25.217  1.00  0.00     0.227 C 
ATOM     88  O   UNL A   1      29.691  26.637  24.846  1.00  0.00    -0.275 OA
ATOM     89  N   UNL A   1      31.051  26.968  26.522  1.00  0.00    -0.352 N 
ATOM     90  H   UNL A   1      30.204  27.028  27.021  1.00  0.00     0.163 HD
BRANCH  89  91
ATOM     91  C   UNL A   1      32.214  27.186  27.357  1.00  0.00     0.151 C 
BRANCH  91  92
ATOM     92  C   UNL A   1      32.725  28.603  27.267  1.00  0.00    -0.026 A 
ATOM     93  C   UNL A   1      31.827  29.647  27.028  1.00  0.00     0.025 A 
ATOM     94  C   UNL A   1      34.079  28.929  27.395  1.00  0.00     0.025 A 
ATOM     95  C   UNL A   1      32.298  30.951  27.001  1.00  0.00     0.111 A 
ATOM     96  C   UNL A   1      34.456  30.265  27.356  1.00  0.00     0.111 A 
ATOM     97  N   UNL A   1      33.593  31.285  27.171  1.00  0.00    -0.265 NA
ENDBRANCH  91  92
ENDBRANCH  89  91
ENDBRANCH  81  87
ENDBRANCH  78  80
ENDBRANCH  77  78
ENDBRANCH  76  77
ENDBRANCH  75  76
ENDBRANCH  74  75
ENDBRANCH   1  74
TORSDOF 20
ENDMDL
