MODEL 1
REMARK VINA RESULT:     -10.6      0.000      0.000
REMARK SMILES CCCCCNC(=O)N1Cc2nc[nH]c2C[C@@H]1C(=O)OCCOCCOCCOC(=O)c1ccc(-c2c3nc(c(-c4c(F)c(F)c(F)c(F)c4F)c4ccc([nH]4)c(-c4c(F)c(F)c(F)c(F)c4F)c4nc(c(-c5c(F)c(F)c(F)c(F)c5F)c5ccc2[nH]5)C=C4)C=C3)cc1
REMARK SMILES IDX 23 1 22 2 21 3 20 4 18 5 19 6 17 7 9 8 10 9 11 10 16 11
REMARK SMILES IDX 12 12 15 13 13 14 14 15 7 17 6 18 8 20 5 21 4 22 3 23 2 24
REMARK SMILES IDX 1 25 24 26 25 27 26 28 27 29 28 30 29 31 30 32 31 33 32 34
REMARK SMILES IDX 33 35 94 36 34 37 93 38 35 39 36 40 37 41 87 42 38 43 92 44
REMARK SMILES IDX 86 45 88 46 39 47 91 48 85 49 84 50 40 52 72 53 52 54 71 55
REMARK SMILES IDX 53 56 56 57 70 58 89 59 54 60 55 61 69 63 90 64 57 65 41 66
REMARK SMILES IDX 42 67 50 68 43 69 44 70 48 71 51 72 45 73 46 74 49 75 47 76
REMARK SMILES IDX 73 77 74 78 82 79 75 80 76 81 80 82 83 83 77 84 78 85 81 86
REMARK SMILES IDX 79 87 58 88 59 89 67 90 60 91 61 92 65 93 68 94 62 95 63 96
REMARK SMILES IDX 66 97 64 98
REMARK H PARENT 14 16 6 19 88 51 56 62
REMARK Flexibility Score: inf
ROOT
ATOM      1  O   UNL A   1      36.791  23.352  25.621  1.00  0.00    -0.376 OA
ENDROOT
BRANCH   1   2
ATOM      2  C   UNL A   1      35.788  22.472  26.122  1.00  0.00     0.202 C 
BRANCH   2   3
ATOM      3  C   UNL A   1      34.487  23.088  26.662  1.00  0.00     0.261 C 
BRANCH   3   4
ATOM      4  O   UNL A   1      33.552  23.498  25.641  1.00  0.00    -0.462 OA
BRANCH   4   5
ATOM      5  C   UNL A   1      33.677  24.757  25.156  1.00  0.00     0.329 C 
ATOM      6  O   UNL A   1      34.094  25.010  24.026  1.00  0.00    -0.250 OA
BRANCH   5   7
ATOM      7  C   UNL A   1      33.165  25.886  26.090  1.00  0.00     0.203 C 
ATOM      8  N   UNL A   1      31.701  26.217  26.258  1.00  0.00    -0.305 N 
ATOM      9  C   UNL A   1      31.339  27.454  27.004  1.00  0.00     0.180 C 
ATOM     10  C   UNL A   1      32.329  28.536  26.809  1.00  0.00     0.081 A 
ATOM     11  C   UNL A   1      33.977  27.124  25.539  1.00  0.00     0.093 C 
ATOM     12  N   UNL A   1      32.197  29.826  27.253  1.00  0.00    -0.240 NA
ATOM     13  C   UNL A   1      33.522  28.377  26.158  1.00  0.00     0.042 A 
ATOM     14  C   UNL A   1      33.278  30.448  26.831  1.00  0.00     0.197 A 
ATOM     15  N   UNL A   1      34.112  29.605  26.142  1.00  0.00    -0.348 N 
ATOM     16  H   UNL A   1      34.969  29.842  25.719  1.00  0.00     0.167 HD
BRANCH   8  17
ATOM     17  C   UNL A   1      30.634  25.371  26.126  1.00  0.00     0.318 C 
ATOM     18  N   UNL A   1      29.718  25.527  25.154  1.00  0.00    -0.338 N 
ATOM     19  H   UNL A   1      28.836  25.144  25.360  1.00  0.00     0.165 HD
ATOM     20  O   UNL A   1      30.483  24.395  26.866  1.00  0.00    -0.249 OA
BRANCH  18  21
ATOM     21  C   UNL A   1      29.809  26.160  23.860  1.00  0.00     0.117 C 
BRANCH  21  22
ATOM     22  C   UNL A   1      28.872  27.361  23.732  1.00  0.00     0.021 C 
BRANCH  22  23
ATOM     23  C   UNL A   1      29.468  28.606  23.061  1.00  0.00     0.002 C 
BRANCH  23  24
ATOM     24  C   UNL A   1      28.499  29.490  22.270  1.00  0.00    -0.003 C 
ATOM     25  C   UNL A   1      27.655  30.422  23.123  1.00  0.00     0.004 C 
ENDBRANCH  23  24
ENDBRANCH  22  23
ENDBRANCH  21  22
ENDBRANCH  18  21
ENDBRANCH   8  17
ENDBRANCH   5   7
ENDBRANCH   4   5
ENDBRANCH   3   4
ENDBRANCH   2   3
ENDBRANCH   1   2
BRANCH   1  26
ATOM     26  C   UNL A   1      38.101  23.230  26.158  1.00  0.00     0.188 C 
BRANCH  26  27
ATOM     27  C   UNL A   1      38.880  21.904  25.995  1.00  0.00     0.188 C 
BRANCH  27  28
ATOM     28  O   UNL A   1      40.279  22.003  26.234  1.00  0.00    -0.376 OA
BRANCH  28  29
ATOM     29  C   UNL A   1      40.743  21.295  27.380  1.00  0.00     0.202 C 
BRANCH  29  30
ATOM     30  C   UNL A   1      42.089  20.621  27.114  1.00  0.00     0.261 C 
BRANCH  30  31
ATOM     31  O   UNL A   1      42.350  20.427  25.726  1.00  0.00    -0.460 OA
BRANCH  31  32
ATOM     32  C   UNL A   1      43.646  20.466  25.358  1.00  0.00     0.338 C 
ATOM     33  O   UNL A   1      44.361  19.522  25.079  1.00  0.00    -0.246 OA
BRANCH  32  34
ATOM     34  C   UNL A   1      44.088  21.870  25.352  1.00  0.00     0.060 A 
ATOM     35  C   UNL A   1      45.132  22.217  26.213  1.00  0.00     0.016 A 
ATOM     36  C   UNL A   1      43.351  22.843  24.659  1.00  0.00     0.016 A 
ATOM     37  C   UNL A   1      45.270  23.539  26.577  1.00  0.00     0.010 A 
ATOM     38  C   UNL A   1      43.480  24.163  25.030  1.00  0.00     0.010 A 
ATOM     39  C   UNL A   1      44.358  24.468  26.069  1.00  0.00    -0.014 A 
BRANCH  39  40
ATOM     40  C   UNL A   1      44.186  25.698  26.817  1.00  0.00     0.031 A 
ATOM     41  C   UNL A   1      45.202  26.748  26.632  1.00  0.00     0.074 A 
ATOM     42  C   UNL A   1      43.088  25.868  27.580  1.00  0.00     0.049 A 
ATOM     43  N   UNL A   1      45.924  27.323  27.537  1.00  0.00    -0.248 NA
ATOM     44  C   UNL A   1      45.476  27.192  25.259  1.00  0.00     0.031 C 
ATOM     45  C   UNL A   1      41.884  25.028  27.603  1.00  0.00     0.029 A 
ATOM     46  N   UNL A   1      42.771  26.893  28.422  1.00  0.00    -0.354 N 
ATOM     47  C   UNL A   1      46.621  28.325  26.875  1.00  0.00     0.074 A 
ATOM     48  C   UNL A   1      46.399  28.130  25.465  1.00  0.00     0.031 C 
ATOM     49  C   UNL A   1      40.899  25.682  28.254  1.00  0.00     0.029 A 
ATOM     50  C   UNL A   1      41.437  26.920  28.792  1.00  0.00     0.049 A 
ATOM     51  H   UNL A   1      43.430  27.552  28.738  1.00  0.00     0.167 HD
ATOM     52  C   UNL A   1      47.145  29.384  27.545  1.00  0.00     0.037 A 
ATOM     53  C   UNL A   1      40.793  27.926  29.428  1.00  0.00     0.037 A 
ATOM     54  C   UNL A   1      47.345  29.102  28.940  1.00  0.00     0.049 A 
ATOM     55  C   UNL A   1      41.809  28.783  30.082  1.00  0.00     0.074 A 
ATOM     56  C   UNL A   1      48.098  28.188  29.648  1.00  0.00     0.029 A 
ATOM     57  N   UNL A   1      46.467  29.642  29.842  1.00  0.00    -0.354 N 
ATOM     58  N   UNL A   1      42.523  28.431  31.114  1.00  0.00    -0.248 NA
ATOM     59  C   UNL A   1      42.293  29.951  29.362  1.00  0.00     0.031 C 
ATOM     60  C   UNL A   1      47.359  27.920  30.837  1.00  0.00     0.029 A 
ATOM     61  C   UNL A   1      46.196  28.688  30.789  1.00  0.00     0.049 A 
ATOM     62  H   UNL A   1      46.096  30.554  29.816  1.00  0.00     0.167 HD
ATOM     63  C   UNL A   1      43.743  29.064  30.931  1.00  0.00     0.074 A 
ATOM     64  C   UNL A   1      43.492  30.089  29.929  1.00  0.00     0.031 C 
ATOM     65  C   UNL A   1      44.898  28.506  31.397  1.00  0.00     0.037 A 
BRANCH  52  66
ATOM     66  C   UNL A   1      47.147  30.782  26.988  1.00  0.00     0.064 A 
ATOM     67  C   UNL A   1      48.348  31.514  26.947  1.00  0.00     0.173 A 
ATOM     68  C   UNL A   1      45.966  31.523  26.762  1.00  0.00     0.173 A 
ATOM     69  F   UNL A   1      49.521  30.912  27.192  1.00  0.00    -0.203 F 
ATOM     70  C   UNL A   1      48.358  32.896  26.742  1.00  0.00     0.198 A 
ATOM     71  C   UNL A   1      45.985  32.890  26.500  1.00  0.00     0.198 A 
ATOM     72  F   UNL A   1      44.750  30.977  26.896  1.00  0.00    -0.203 F 
ATOM     73  F   UNL A   1      49.512  33.571  26.825  1.00  0.00    -0.200 F 
ATOM     74  C   UNL A   1      47.177  33.582  26.518  1.00  0.00     0.200 A 
ATOM     75  F   UNL A   1      44.828  33.542  26.310  1.00  0.00    -0.200 F 
ATOM     76  F   UNL A   1      47.182  34.913  26.372  1.00  0.00    -0.200 F 
ENDBRANCH  52  66
BRANCH  53  77
ATOM     77  C   UNL A   1      39.377  28.325  29.280  1.00  0.00     0.064 A 
ATOM     78  C   UNL A   1      38.510  28.358  30.381  1.00  0.00     0.173 A 
ATOM     79  C   UNL A   1      38.904  28.915  28.090  1.00  0.00     0.173 A 
ATOM     80  F   UNL A   1      38.904  27.865  31.565  1.00  0.00    -0.203 F 
ATOM     81  C   UNL A   1      37.248  28.955  30.300  1.00  0.00     0.198 A 
ATOM     82  C   UNL A   1      37.639  29.497  28.006  1.00  0.00     0.198 A 
ATOM     83  F   UNL A   1      39.694  29.022  27.012  1.00  0.00    -0.203 F 
ATOM     84  F   UNL A   1      36.469  29.020  31.389  1.00  0.00    -0.200 F 
ATOM     85  C   UNL A   1      36.816  29.526  29.114  1.00  0.00     0.200 A 
ATOM     86  F   UNL A   1      37.251  30.076  26.862  1.00  0.00    -0.200 F 
ATOM     87  F   UNL A   1      35.627  30.141  29.050  1.00  0.00    -0.200 F 
ENDBRANCH  53  77
BRANCH  65  88
ATOM     88  C   UNL A   1      44.772  27.418  32.423  1.00  0.00     0.064 A 
ATOM     89  C   UNL A   1      44.584  26.064  32.102  1.00  0.00     0.173 A 
ATOM     90  C   UNL A   1      44.970  27.745  33.771  1.00  0.00     0.173 A 
ATOM     91  F   UNL A   1      44.493  25.665  30.827  1.00  0.00    -0.203 F 
ATOM     92  C   UNL A   1      44.543  25.088  33.098  1.00  0.00     0.198 A 
ATOM     93  C   UNL A   1      44.965  26.764  34.759  1.00  0.00     0.198 A 
ATOM     94  F   UNL A   1      45.215  29.017  34.127  1.00  0.00    -0.203 F 
ATOM     95  F   UNL A   1      44.344  23.803  32.769  1.00  0.00    -0.200 F 
ATOM     96  C   UNL A   1      44.738  25.439  34.423  1.00  0.00     0.200 A 
ATOM     97  F   UNL A   1      45.204  27.099  36.035  1.00  0.00    -0.200 F 
ATOM     98  F   UNL A   1      44.735  24.495  35.376  1.00  0.00    -0.200 F 
ENDBRANCH  65  88
ENDBRANCH  39  40
ENDBRANCH  32  34
ENDBRANCH  31  32
ENDBRANCH  30  31
ENDBRANCH  29  30
ENDBRANCH  28  29
ENDBRANCH  27  28
ENDBRANCH  26  27
ENDBRANCH   1  26
TORSDOF 22
ENDMDL
MODEL 2
REMARK VINA RESULT:     -10.5      4.240      9.464
REMARK SMILES CCCCCNC(=O)N1Cc2nc[nH]c2C[C@@H]1C(=O)OCCOCCOCCOC(=O)c1ccc(-c2c3nc(c(-c4c(F)c(F)c(F)c(F)c4F)c4ccc([nH]4)c(-c4c(F)c(F)c(F)c(F)c4F)c4nc(c(-c5c(F)c(F)c(F)c(F)c5F)c5ccc2[nH]5)C=C4)C=C3)cc1
REMARK SMILES IDX 23 1 22 2 21 3 20 4 18 5 19 6 17 7 9 8 10 9 11 10 16 11
REMARK SMILES IDX 12 12 15 13 13 14 14 15 7 17 6 18 8 20 5 21 4 22 3 23 2 24
REMARK SMILES IDX 1 25 24 26 25 27 26 28 27 29 28 30 29 31 30 32 31 33 32 34
REMARK SMILES IDX 33 35 94 36 34 37 93 38 35 39 36 40 37 41 87 42 38 43 92 44
REMARK SMILES IDX 86 45 88 46 39 47 91 48 85 49 84 50 40 52 72 53 52 54 71 55
REMARK SMILES IDX 53 56 56 57 70 58 89 59 54 60 55 61 69 63 90 64 57 65 41 66
REMARK SMILES IDX 42 67 50 68 43 69 44 70 48 71 51 72 45 73 46 74 49 75 47 76
REMARK SMILES IDX 73 77 74 78 82 79 75 80 76 81 80 82 83 83 77 84 78 85 81 86
REMARK SMILES IDX 79 87 58 88 59 89 67 90 60 91 61 92 65 93 68 94 62 95 63 96
REMARK SMILES IDX 66 97 64 98
REMARK H PARENT 14 16 6 19 88 51 56 62
REMARK Flexibility Score: inf
ROOT
ATOM      1  O   UNL A   1      33.487  29.413  27.310  1.00  0.00    -0.376 OA
ENDROOT
BRANCH   1   2
ATOM      2  C   UNL A   1      32.138  28.957  27.234  1.00  0.00     0.202 C 
BRANCH   2   3
ATOM      3  C   UNL A   1      31.801  27.859  26.213  1.00  0.00     0.261 C 
BRANCH   3   4
ATOM      4  O   UNL A   1      32.869  26.919  25.973  1.00  0.00    -0.462 OA
BRANCH   4   5
ATOM      5  C   UNL A   1      33.454  26.944  24.750  1.00  0.00     0.329 C 
ATOM      6  O   UNL A   1      33.469  27.939  24.026  1.00  0.00    -0.250 OA
BRANCH   5   7
ATOM      7  C   UNL A   1      34.205  25.648  24.342  1.00  0.00     0.203 C 
ATOM      8  N   UNL A   1      33.690  24.691  23.293  1.00  0.00    -0.305 N 
ATOM      9  C   UNL A   1      34.374  23.377  23.141  1.00  0.00     0.180 C 
ATOM     10  C   UNL A   1      34.893  22.863  24.427  1.00  0.00     0.081 A 
ATOM     11  C   UNL A   1      34.362  24.938  25.744  1.00  0.00     0.093 C 
ATOM     12  N   UNL A   1      35.443  21.624  24.625  1.00  0.00    -0.240 NA
ATOM     13  C   UNL A   1      34.895  23.577  25.594  1.00  0.00     0.042 A 
ATOM     14  C   UNL A   1      35.728  21.575  25.910  1.00  0.00     0.197 A 
ATOM     15  N   UNL A   1      35.396  22.742  26.548  1.00  0.00    -0.348 N 
ATOM     16  H   UNL A   1      35.501  22.938  27.507  1.00  0.00     0.167 HD
BRANCH   8  17
ATOM     17  C   UNL A   1      32.898  24.982  22.216  1.00  0.00     0.318 C 
ATOM     18  N   UNL A   1      31.558  24.910  22.278  1.00  0.00    -0.338 N 
ATOM     19  H   UNL A   1      31.117  24.758  21.411  1.00  0.00     0.165 HD
ATOM     20  O   UNL A   1      33.375  25.368  21.145  1.00  0.00    -0.249 OA
BRANCH  18  21
ATOM     21  C   UNL A   1      30.654  25.016  23.399  1.00  0.00     0.117 C 
BRANCH  21  22
ATOM     22  C   UNL A   1      30.773  23.833  24.358  1.00  0.00     0.021 C 
BRANCH  22  23
ATOM     23  C   UNL A   1      30.726  24.176  25.853  1.00  0.00     0.002 C 
BRANCH  23  24
ATOM     24  C   UNL A   1      30.638  22.998  26.827  1.00  0.00    -0.003 C 
ATOM     25  C   UNL A   1      29.223  22.616  27.229  1.00  0.00     0.004 C 
ENDBRANCH  23  24
ENDBRANCH  22  23
ENDBRANCH  21  22
ENDBRANCH  18  21
ENDBRANCH   8  17
ENDBRANCH   5   7
ENDBRANCH   4   5
ENDBRANCH   3   4
ENDBRANCH   2   3
ENDBRANCH   1   2
BRANCH   1  26
ATOM     26  C   UNL A   1      33.735  30.782  27.018  1.00  0.00     0.188 C 
BRANCH  26  27
ATOM     27  C   UNL A   1      34.254  31.725  28.128  1.00  0.00     0.188 C 
BRANCH  27  28
ATOM     28  O   UNL A   1      35.104  32.770  27.671  1.00  0.00    -0.376 OA
BRANCH  28  29
ATOM     29  C   UNL A   1      35.237  33.870  28.567  1.00  0.00     0.202 C 
BRANCH  29  30
ATOM     30  C   UNL A   1      33.899  34.225  29.217  1.00  0.00     0.261 C 
BRANCH  30  31
ATOM     31  O   UNL A   1      34.012  35.257  30.195  1.00  0.00    -0.460 OA
BRANCH  31  32
ATOM     32  C   UNL A   1      33.554  34.954  31.426  1.00  0.00     0.338 C 
ATOM     33  O   UNL A   1      32.457  35.208  31.887  1.00  0.00    -0.246 OA
BRANCH  32  34
ATOM     34  C   UNL A   1      34.619  34.253  32.161  1.00  0.00     0.060 A 
ATOM     35  C   UNL A   1      35.734  35.002  32.545  1.00  0.00     0.016 A 
ATOM     36  C   UNL A   1      34.595  32.855  32.285  1.00  0.00     0.016 A 
ATOM     37  C   UNL A   1      36.912  34.338  32.809  1.00  0.00     0.010 A 
ATOM     38  C   UNL A   1      35.773  32.189  32.538  1.00  0.00     0.010 A 
ATOM     39  C   UNL A   1      36.934  32.946  32.679  1.00  0.00    -0.014 A 
BRANCH  39  40
ATOM     40  C   UNL A   1      38.227  32.328  32.456  1.00  0.00     0.031 A 
ATOM     41  C   UNL A   1      39.133  32.222  33.612  1.00  0.00     0.074 A 
ATOM     42  C   UNL A   1      38.521  31.811  31.246  1.00  0.00     0.049 A 
ATOM     43  N   UNL A   1      40.341  32.670  33.718  1.00  0.00    -0.248 NA
ATOM     44  C   UNL A   1      38.617  31.565  34.821  1.00  0.00     0.031 C 
ATOM     45  C   UNL A   1      37.598  31.593  30.125  1.00  0.00     0.029 A 
ATOM     46  N   UNL A   1      39.690  31.270  30.798  1.00  0.00    -0.354 N 
ATOM     47  C   UNL A   1      40.805  32.203  34.940  1.00  0.00     0.074 A 
ATOM     48  C   UNL A   1      39.676  31.627  35.627  1.00  0.00     0.031 C 
ATOM     49  C   UNL A   1      38.186  30.789  29.216  1.00  0.00     0.029 A 
ATOM     50  C   UNL A   1      39.556  30.539  29.630  1.00  0.00     0.049 A 
ATOM     51  H   UNL A   1      40.550  31.389  31.263  1.00  0.00     0.167 HD
ATOM     52  C   UNL A   1      42.134  32.113  35.206  1.00  0.00     0.037 A 
ATOM     53  C   UNL A   1      40.479  29.718  29.079  1.00  0.00     0.037 A 
ATOM     54  C   UNL A   1      42.917  32.979  34.367  1.00  0.00     0.049 A 
ATOM     55  C   UNL A   1      41.804  30.072  29.639  1.00  0.00     0.074 A 
ATOM     56  C   UNL A   1      42.974  34.343  34.165  1.00  0.00     0.029 A 
ATOM     57  N   UNL A   1      43.624  32.417  33.337  1.00  0.00    -0.354 N 
ATOM     58  N   UNL A   1      42.453  31.171  29.373  1.00  0.00    -0.248 NA
ATOM     59  C   UNL A   1      42.282  29.334  30.798  1.00  0.00     0.031 C 
ATOM     60  C   UNL A   1      43.353  34.513  32.801  1.00  0.00     0.029 A 
ATOM     61  C   UNL A   1      43.507  33.242  32.248  1.00  0.00     0.049 A 
ATOM     62  H   UNL A   1      44.128  31.572  33.372  1.00  0.00     0.167 HD
ATOM     63  C   UNL A   1      43.132  31.471  30.544  1.00  0.00     0.074 A 
ATOM     64  C   UNL A   1      43.107  30.242  31.323  1.00  0.00     0.031 C 
ATOM     65  C   UNL A   1      43.396  32.765  30.888  1.00  0.00     0.037 A 
BRANCH  52  66
ATOM     66  C   UNL A   1      42.735  30.979  35.993  1.00  0.00     0.064 A 
ATOM     67  C   UNL A   1      43.572  31.258  37.087  1.00  0.00     0.173 A 
ATOM     68  C   UNL A   1      42.746  29.644  35.534  1.00  0.00     0.173 A 
ATOM     69  F   UNL A   1      43.669  32.505  37.572  1.00  0.00    -0.203 F 
ATOM     70  C   UNL A   1      44.396  30.280  37.649  1.00  0.00     0.198 A 
ATOM     71  C   UNL A   1      43.525  28.658  36.133  1.00  0.00     0.198 A 
ATOM     72  F   UNL A   1      42.093  29.270  34.425  1.00  0.00    -0.203 F 
ATOM     73  F   UNL A   1      45.263  30.614  38.614  1.00  0.00    -0.200 F 
ATOM     74  C   UNL A   1      44.370  28.981  37.173  1.00  0.00     0.200 A 
ATOM     75  F   UNL A   1      43.504  27.410  35.641  1.00  0.00    -0.200 F 
ATOM     76  F   UNL A   1      45.196  28.055  37.677  1.00  0.00    -0.200 F 
ENDBRANCH  52  66
BRANCH  53  77
ATOM     77  C   UNL A   1      40.237  28.486  28.298  1.00  0.00     0.064 A 
ATOM     78  C   UNL A   1      40.824  28.293  27.039  1.00  0.00     0.173 A 
ATOM     79  C   UNL A   1      39.614  27.363  28.879  1.00  0.00     0.173 A 
ATOM     80  F   UNL A   1      41.483  29.297  26.441  1.00  0.00    -0.203 F 
ATOM     81  C   UNL A   1      40.797  27.048  26.403  1.00  0.00     0.198 A 
ATOM     82  C   UNL A   1      39.574  26.125  28.237  1.00  0.00     0.198 A 
ATOM     83  F   UNL A   1      39.111  27.418  30.120  1.00  0.00    -0.203 F 
ATOM     84  F   UNL A   1      41.419  26.885  25.227  1.00  0.00    -0.200 F 
ATOM     85  C   UNL A   1      40.176  25.965  27.004  1.00  0.00     0.200 A 
ATOM     86  F   UNL A   1      39.000  25.080  28.847  1.00  0.00    -0.200 F 
ATOM     87  F   UNL A   1      40.192  24.761  26.417  1.00  0.00    -0.200 F 
ENDBRANCH  53  77
BRANCH  65  88
ATOM     88  C   UNL A   1      43.282  33.801  29.810  1.00  0.00     0.064 A 
ATOM     89  C   UNL A   1      44.337  34.153  28.952  1.00  0.00     0.173 A 
ATOM     90  C   UNL A   1      42.026  34.371  29.560  1.00  0.00     0.173 A 
ATOM     91  F   UNL A   1      45.538  33.570  29.064  1.00  0.00    -0.203 F 
ATOM     92  C   UNL A   1      44.151  35.075  27.923  1.00  0.00     0.198 A 
ATOM     93  C   UNL A   1      41.835  35.264  28.509  1.00  0.00     0.198 A 
ATOM     94  F   UNL A   1      40.968  34.024  30.312  1.00  0.00    -0.203 F 
ATOM     95  F   UNL A   1      45.178  35.409  27.127  1.00  0.00    -0.200 F 
ATOM     96  C   UNL A   1      42.900  35.625  27.700  1.00  0.00     0.200 A 
ATOM     97  F   UNL A   1      40.612  35.756  28.265  1.00  0.00    -0.200 F 
ATOM     98  F   UNL A   1      42.713  36.484  26.688  1.00  0.00    -0.200 F 
ENDBRANCH  65  88
ENDBRANCH  39  40
ENDBRANCH  32  34
ENDBRANCH  31  32
ENDBRANCH  30  31
ENDBRANCH  29  30
ENDBRANCH  28  29
ENDBRANCH  27  28
ENDBRANCH  26  27
ENDBRANCH   1  26
TORSDOF 22
ENDMDL
MODEL 3
REMARK VINA RESULT:     -10.4      1.872      3.658
REMARK SMILES CCCCCNC(=O)N1Cc2nc[nH]c2C[C@@H]1C(=O)OCCOCCOCCOC(=O)c1ccc(-c2c3nc(c(-c4c(F)c(F)c(F)c(F)c4F)c4ccc([nH]4)c(-c4c(F)c(F)c(F)c(F)c4F)c4nc(c(-c5c(F)c(F)c(F)c(F)c5F)c5ccc2[nH]5)C=C4)C=C3)cc1
REMARK SMILES IDX 23 1 22 2 21 3 20 4 18 5 19 6 17 7 9 8 10 9 11 10 16 11
REMARK SMILES IDX 12 12 15 13 13 14 14 15 7 17 6 18 8 20 5 21 4 22 3 23 2 24
REMARK SMILES IDX 1 25 24 26 25 27 26 28 27 29 28 30 29 31 30 32 31 33 32 34
REMARK SMILES IDX 33 35 94 36 34 37 93 38 35 39 36 40 37 41 87 42 38 43 92 44
REMARK SMILES IDX 86 45 88 46 39 47 91 48 85 49 84 50 40 52 72 53 52 54 71 55
REMARK SMILES IDX 53 56 56 57 70 58 89 59 54 60 55 61 69 63 90 64 57 65 41 66
REMARK SMILES IDX 42 67 50 68 43 69 44 70 48 71 51 72 45 73 46 74 49 75 47 76
REMARK SMILES IDX 73 77 74 78 82 79 75 80 76 81 80 82 83 83 77 84 78 85 81 86
REMARK SMILES IDX 79 87 58 88 59 89 67 90 60 91 61 92 65 93 68 94 62 95 63 96
REMARK SMILES IDX 66 97 64 98
REMARK H PARENT 14 16 6 19 88 51 56 62
REMARK Flexibility Score: inf
ROOT
ATOM      1  O   UNL A   1      40.014  21.106  26.412  1.00  0.00    -0.376 OA
ENDROOT
BRANCH   1   2
ATOM      2  C   UNL A   1      39.458  22.397  26.647  1.00  0.00     0.202 C 
BRANCH   2   3
ATOM      3  C   UNL A   1      38.361  22.898  25.693  1.00  0.00     0.261 C 
BRANCH   3   4
ATOM      4  O   UNL A   1      37.108  22.190  25.801  1.00  0.00    -0.462 OA
BRANCH   4   5
ATOM      5  C   UNL A   1      35.971  22.918  25.670  1.00  0.00     0.329 C 
ATOM      6  O   UNL A   1      35.931  24.141  25.799  1.00  0.00    -0.250 OA
BRANCH   5   7
ATOM      7  C   UNL A   1      34.711  22.117  25.245  1.00  0.00     0.203 C 
ATOM      8  N   UNL A   1      33.414  22.146  26.019  1.00  0.00    -0.305 N 
ATOM      9  C   UNL A   1      32.349  21.175  25.646  1.00  0.00     0.180 C 
ATOM     10  C   UNL A   1      32.905  19.888  25.173  1.00  0.00     0.081 A 
ATOM     11  C   UNL A   1      35.299  20.654  25.160  1.00  0.00     0.093 C 
ATOM     12  N   UNL A   1      32.177  18.761  24.894  1.00  0.00    -0.240 NA
ATOM     13  C   UNL A   1      34.235  19.663  24.944  1.00  0.00     0.042 A 
ATOM     14  C   UNL A   1      33.066  17.853  24.548  1.00  0.00     0.197 A 
ATOM     15  N   UNL A   1      34.342  18.355  24.578  1.00  0.00    -0.348 N 
ATOM     16  H   UNL A   1      35.171  17.865  24.375  1.00  0.00     0.167 HD
BRANCH   8  17
ATOM     17  C   UNL A   1      32.928  23.164  26.793  1.00  0.00     0.318 C 
ATOM     18  N   UNL A   1      32.832  24.424  26.335  1.00  0.00    -0.338 N 
ATOM     19  H   UNL A   1      32.847  25.115  27.035  1.00  0.00     0.165 HD
ATOM     20  O   UNL A   1      32.514  22.967  27.938  1.00  0.00    -0.249 OA
BRANCH  18  21
ATOM     21  C   UNL A   1      32.710  24.936  24.991  1.00  0.00     0.117 C 
BRANCH  21  22
ATOM     22  C   UNL A   1      32.816  26.459  24.936  1.00  0.00     0.021 C 
BRANCH  22  23
ATOM     23  C   UNL A   1      33.554  27.121  26.108  1.00  0.00     0.002 C 
BRANCH  23  24
ATOM     24  C   UNL A   1      33.128  28.546  26.472  1.00  0.00    -0.003 C 
ATOM     25  C   UNL A   1      32.095  28.630  27.584  1.00  0.00     0.004 C 
ENDBRANCH  23  24
ENDBRANCH  22  23
ENDBRANCH  21  22
ENDBRANCH  18  21
ENDBRANCH   8  17
ENDBRANCH   5   7
ENDBRANCH   4   5
ENDBRANCH   3   4
ENDBRANCH   2   3
ENDBRANCH   1   2
BRANCH   1  26
ATOM     26  C   UNL A   1      41.366  20.893  26.796  1.00  0.00     0.188 C 
BRANCH  26  27
ATOM     27  C   UNL A   1      42.075  19.571  26.420  1.00  0.00     0.188 C 
BRANCH  27  28
ATOM     28  O   UNL A   1      42.663  19.560  25.124  1.00  0.00    -0.376 OA
BRANCH  28  29
ATOM     29  C   UNL A   1      43.859  18.793  25.016  1.00  0.00     0.202 C 
BRANCH  29  30
ATOM     30  C   UNL A   1      45.000  19.619  24.422  1.00  0.00     0.261 C 
BRANCH  30  31
ATOM     31  O   UNL A   1      44.560  20.850  23.853  1.00  0.00    -0.460 OA
BRANCH  31  32
ATOM     32  C   UNL A   1      45.226  21.953  24.246  1.00  0.00     0.338 C 
ATOM     33  O   UNL A   1      46.330  22.315  23.885  1.00  0.00    -0.246 OA
BRANCH  32  34
ATOM     34  C   UNL A   1      44.394  22.679  25.220  1.00  0.00     0.060 A 
ATOM     35  C   UNL A   1      43.402  23.521  24.713  1.00  0.00     0.016 A 
ATOM     36  C   UNL A   1      44.727  22.671  26.584  1.00  0.00     0.016 A 
ATOM     37  C   UNL A   1      42.926  24.532  25.519  1.00  0.00     0.010 A 
ATOM     38  C   UNL A   1      44.260  23.686  27.387  1.00  0.00     0.010 A 
ATOM     39  C   UNL A   1      43.459  24.666  26.804  1.00  0.00    -0.014 A 
BRANCH  39  40
ATOM     40  C   UNL A   1      43.348  25.970  27.430  1.00  0.00     0.031 A 
ATOM     41  C   UNL A   1      44.397  26.958  27.124  1.00  0.00     0.074 A 
ATOM     42  C   UNL A   1      42.273  26.256  28.192  1.00  0.00     0.049 A 
ATOM     43  N   UNL A   1      45.157  27.591  27.954  1.00  0.00    -0.248 NA
ATOM     44  C   UNL A   1      44.658  27.253  25.708  1.00  0.00     0.031 C 
ATOM     45  C   UNL A   1      41.040  25.468  28.319  1.00  0.00     0.029 A 
ATOM     46  N   UNL A   1      42.011  27.369  28.933  1.00  0.00    -0.354 N 
ATOM     47  C   UNL A   1      45.876  28.496  27.184  1.00  0.00     0.074 A 
ATOM     48  C   UNL A   1      45.617  28.172  25.804  1.00  0.00     0.031 C 
ATOM     49  C   UNL A   1      40.093  26.220  28.919  1.00  0.00     0.029 A 
ATOM     50  C   UNL A   1      40.686  27.483  29.321  1.00  0.00     0.049 A 
ATOM     51  H   UNL A   1      42.700  28.032  29.170  1.00  0.00     0.167 HD
ATOM     52  C   UNL A   1      46.452  29.596  27.736  1.00  0.00     0.037 A 
ATOM     53  C   UNL A   1      40.093  28.571  29.865  1.00  0.00     0.037 A 
ATOM     54  C   UNL A   1      46.671  29.445  29.148  1.00  0.00     0.049 A 
ATOM     55  C   UNL A   1      41.153  29.449  30.413  1.00  0.00     0.074 A 
ATOM     56  C   UNL A   1      47.406  28.577  29.931  1.00  0.00     0.029 A 
ATOM     57  N   UNL A   1      45.832  30.104  30.008  1.00  0.00    -0.354 N 
ATOM     58  N   UNL A   1      41.875  29.174  31.463  1.00  0.00    -0.248 NA
ATOM     59  C   UNL A   1      41.662  30.522  29.572  1.00  0.00     0.031 C 
ATOM     60  C   UNL A   1      46.683  28.456  31.153  1.00  0.00     0.029 A 
ATOM     61  C   UNL A   1      45.547  29.259  31.050  1.00  0.00     0.049 A 
ATOM     62  H   UNL A   1      45.494  31.023  29.898  1.00  0.00     0.167 HD
ATOM     63  C   UNL A   1      43.113  29.739  31.196  1.00  0.00     0.074 A 
ATOM     64  C   UNL A   1      42.878  30.670  30.103  1.00  0.00     0.031 C 
ATOM     65  C   UNL A   1      44.257  29.187  31.695  1.00  0.00     0.037 A 
BRANCH  52  66
ATOM     66  C   UNL A   1      46.492  30.930  27.043  1.00  0.00     0.064 A 
ATOM     67  C   UNL A   1      47.723  31.587  26.868  1.00  0.00     0.173 A 
ATOM     68  C   UNL A   1      45.339  31.710  26.805  1.00  0.00     0.173 A 
ATOM     69  F   UNL A   1      48.878  30.949  27.111  1.00  0.00    -0.203 F 
ATOM     70  C   UNL A   1      47.791  32.940  26.526  1.00  0.00     0.198 A 
ATOM     71  C   UNL A   1      45.411  33.043  26.408  1.00  0.00     0.198 A 
ATOM     72  F   UNL A   1      44.107  31.248  27.055  1.00  0.00    -0.203 F 
ATOM     73  F   UNL A   1      48.980  33.556  26.482  1.00  0.00    -0.200 F 
ATOM     74  C   UNL A   1      46.636  33.666  26.295  1.00  0.00     0.200 A 
ATOM     75  F   UNL A   1      44.280  33.735  26.213  1.00  0.00    -0.200 F 
ATOM     76  F   UNL A   1      46.698  34.974  26.017  1.00  0.00    -0.200 F 
ENDBRANCH  52  66
BRANCH  53  77
ATOM     77  C   UNL A   1      38.689  29.006  29.703  1.00  0.00     0.064 A 
ATOM     78  C   UNL A   1      37.883  29.296  30.813  1.00  0.00     0.173 A 
ATOM     79  C   UNL A   1      38.181  29.381  28.443  1.00  0.00     0.173 A 
ATOM     80  F   UNL A   1      38.317  29.020  32.052  1.00  0.00    -0.203 F 
ATOM     81  C   UNL A   1      36.645  29.930  30.672  1.00  0.00     0.198 A 
ATOM     82  C   UNL A   1      36.939  30.000  28.301  1.00  0.00     0.198 A 
ATOM     83  F   UNL A   1      38.917  29.238  27.331  1.00  0.00    -0.203 F 
ATOM     84  F   UNL A   1      35.926  30.243  31.759  1.00  0.00    -0.200 F 
ATOM     85  C   UNL A   1      36.176  30.284  29.417  1.00  0.00     0.200 A 
ATOM     86  F   UNL A   1      36.516  30.367  27.084  1.00  0.00    -0.200 F 
ATOM     87  F   UNL A   1      35.012  30.935  29.285  1.00  0.00    -0.200 F 
ENDBRANCH  53  77
BRANCH  65  88
ATOM     88  C   UNL A   1      44.114  28.211  32.826  1.00  0.00     0.064 A 
ATOM     89  C   UNL A   1      43.982  28.592  34.171  1.00  0.00     0.173 A 
ATOM     90  C   UNL A   1      43.986  26.849  32.521  1.00  0.00     0.173 A 
ATOM     91  F   UNL A   1      43.988  29.884  34.525  1.00  0.00    -0.203 F 
ATOM     92  C   UNL A   1      43.784  27.641  35.172  1.00  0.00     0.198 A 
ATOM     93  C   UNL A   1      43.752  25.906  33.518  1.00  0.00     0.198 A 
ATOM     94  F   UNL A   1      44.044  26.436  31.244  1.00  0.00    -0.203 F 
ATOM     95  F   UNL A   1      43.678  28.026  36.453  1.00  0.00    -0.200 F 
ATOM     96  C   UNL A   1      43.665  26.301  34.844  1.00  0.00     0.200 A 
ATOM     97  F   UNL A   1      43.587  24.616  33.192  1.00  0.00    -0.200 F 
ATOM     98  F   UNL A   1      43.437  25.391  35.802  1.00  0.00    -0.200 F 
ENDBRANCH  65  88
ENDBRANCH  39  40
ENDBRANCH  32  34
ENDBRANCH  31  32
ENDBRANCH  30  31
ENDBRANCH  29  30
ENDBRANCH  28  29
ENDBRANCH  27  28
ENDBRANCH  26  27
ENDBRANCH   1  26
TORSDOF 22
ENDMDL
