MODEL 1
REMARK VINA RESULT:     -11.0      0.000      0.000
REMARK SMILES Cc1cc(C[NH+]2C[C@@H](C)[C@H](C)C2)oc1C(=O)OCCOCCOCCOC(=O)c1ccc(-c2c3nc(c(-c4c(F)c(F)c(F)c(F)c4F)c4ccc([nH]4)c(-c4c(F)c(F)c(F)c(F)c4F)c4nc(c(-c5c(F)c(F)c(F)c(F)c5F)c5ccc2[nH]5)C=C4)C=C3)cc1
REMARK SMILES IDX 21 1 20 2 19 3 18 4 17 5 15 6 16 7 14 8 1 9 2 10 3 11 4 12
REMARK SMILES IDX 13 13 5 14 6 15 7 16 12 17 8 19 10 20 9 21 11 22 22 23 23 24
REMARK SMILES IDX 24 25 25 26 26 27 27 28 28 29 29 30 30 31 91 32 31 33 90 34
REMARK SMILES IDX 32 35 33 36 34 37 84 38 35 39 89 40 83 41 85 42 36 43 88 44
REMARK SMILES IDX 82 45 81 46 37 48 69 49 49 50 68 51 50 52 53 53 67 54 86 55
REMARK SMILES IDX 51 56 52 57 66 59 87 60 54 61 38 62 39 63 47 64 40 65 41 66
REMARK SMILES IDX 45 67 48 68 42 69 43 70 46 71 44 72 70 73 71 74 79 75 72 76
REMARK SMILES IDX 73 77 77 78 80 79 74 80 75 81 78 82 76 83 55 84 56 85 64 86
REMARK SMILES IDX 57 87 58 88 62 89 65 90 59 91 60 92 63 93 61 94
REMARK H PARENT 6 18 85 47 53 58
REMARK Flexibility Score: inf
ROOT
ATOM      1  C   UNL A   1      30.728  28.253  23.589  1.00  0.00     0.188 C 
ENDROOT
BRANCH   1   2
ATOM      2  O   UNL A   1      29.729  27.241  23.520  1.00  0.00    -0.376 OA
BRANCH   2   3
ATOM      3  C   UNL A   1      29.698  26.225  24.519  1.00  0.00     0.202 C 
BRANCH   3   4
ATOM      4  C   UNL A   1      30.755  25.125  24.403  1.00  0.00     0.261 C 
BRANCH   4   5
ATOM      5  O   UNL A   1      30.470  24.025  25.284  1.00  0.00    -0.457 OA
BRANCH   5   6
ATOM      6  C   UNL A   1      31.466  23.681  26.154  1.00  0.00     0.374 C 
ATOM      7  O   UNL A   1      31.441  23.897  27.356  1.00  0.00    -0.242 OA
BRANCH   6   8
ATOM      8  C   UNL A   1      32.472  22.896  25.464  1.00  0.00     0.215 A 
ATOM      9  C   UNL A   1      34.555  24.396  25.076  1.00  0.00     0.049 C 
ATOM     10  C   UNL A   1      33.747  23.154  24.973  1.00  0.00     0.003 A 
ATOM     11  C   UNL A   1      34.168  21.949  24.332  1.00  0.00     0.056 A 
ATOM     12  C   UNL A   1      33.131  21.048  24.430  1.00  0.00     0.159 A 
ATOM     13  O   UNL A   1      32.115  21.613  25.140  1.00  0.00    -0.448 OA
BRANCH  12  14
ATOM     14  C   UNL A   1      32.890  19.645  23.968  1.00  0.00     0.338 C 
BRANCH  14  15
ATOM     15  N   UNL A   1      33.302  18.577  24.875  1.00  0.00    -0.328 N 
ATOM     16  C   UNL A   1      32.319  17.528  25.132  1.00  0.00     0.266 C 
ATOM     17  C   UNL A   1      34.616  17.986  24.633  1.00  0.00     0.266 C 
ATOM     18  H   UNL A   1      33.379  19.125  25.732  1.00  0.00     0.348 HD
ATOM     19  C   UNL A   1      33.173  16.372  25.652  1.00  0.00     0.049 C 
ATOM     20  C   UNL A   1      34.406  16.475  24.753  1.00  0.00     0.049 C 
ATOM     21  C   UNL A   1      32.457  15.033  25.573  1.00  0.00     0.014 C 
ATOM     22  C   UNL A   1      35.634  15.748  25.277  1.00  0.00     0.014 C 
ENDBRANCH  14  15
ENDBRANCH  12  14
ENDBRANCH   6   8
ENDBRANCH   5   6
ENDBRANCH   4   5
ENDBRANCH   3   4
ENDBRANCH   2   3
ENDBRANCH   1   2
BRANCH   1  23
ATOM     23  C   UNL A   1      30.310  29.697  23.925  1.00  0.00     0.188 C 
BRANCH  23  24
ATOM     24  O   UNL A   1      31.011  30.264  25.023  1.00  0.00    -0.376 OA
BRANCH  24  25
ATOM     25  C   UNL A   1      32.067  29.474  25.552  1.00  0.00     0.202 C 
BRANCH  25  26
ATOM     26  C   UNL A   1      33.200  30.321  26.141  1.00  0.00     0.261 C 
BRANCH  26  27
ATOM     27  O   UNL A   1      32.833  31.081  27.304  1.00  0.00    -0.460 OA
BRANCH  27  28
ATOM     28  C   UNL A   1      33.647  32.103  27.646  1.00  0.00     0.338 C 
ATOM     29  O   UNL A   1      33.374  33.289  27.680  1.00  0.00    -0.246 OA
BRANCH  28  30
ATOM     30  C   UNL A   1      34.916  31.529  28.135  1.00  0.00     0.060 A 
ATOM     31  C   UNL A   1      34.929  30.203  28.586  1.00  0.00     0.016 A 
ATOM     32  C   UNL A   1      36.084  32.296  28.150  1.00  0.00     0.016 A 
ATOM     33  C   UNL A   1      36.112  29.649  29.078  1.00  0.00     0.010 A 
ATOM     34  C   UNL A   1      37.263  31.744  28.656  1.00  0.00     0.010 A 
ATOM     35  C   UNL A   1      37.277  30.428  29.145  1.00  0.00    -0.014 A 
BRANCH  35  36
ATOM     36  C   UNL A   1      38.470  29.926  29.869  1.00  0.00     0.031 A 
ATOM     37  C   UNL A   1      38.755  30.458  31.245  1.00  0.00     0.074 A 
ATOM     38  C   UNL A   1      39.296  29.023  29.311  1.00  0.00     0.049 A 
ATOM     39  N   UNL A   1      39.752  30.194  32.050  1.00  0.00    -0.248 NA
ATOM     40  C   UNL A   1      37.781  31.419  31.787  1.00  0.00     0.031 C 
ATOM     41  C   UNL A   1      39.121  28.416  27.994  1.00  0.00     0.029 A 
ATOM     42  N   UNL A   1      40.457  28.469  29.790  1.00  0.00    -0.354 N 
ATOM     43  C   UNL A   1      39.526  30.952  33.190  1.00  0.00     0.074 A 
ATOM     44  C   UNL A   1      38.312  31.707  32.966  1.00  0.00     0.031 C 
ATOM     45  C   UNL A   1      40.149  27.579  27.762  1.00  0.00     0.029 A 
ATOM     46  C   UNL A   1      41.063  27.611  28.904  1.00  0.00     0.049 A 
ATOM     47  H   UNL A   1      40.822  28.667  30.682  1.00  0.00     0.167 HD
ATOM     48  C   UNL A   1      40.258  31.007  34.327  1.00  0.00     0.037 A 
ATOM     49  C   UNL A   1      42.230  26.945  29.002  1.00  0.00     0.037 A 
ATOM     50  C   UNL A   1      41.470  30.267  34.553  1.00  0.00     0.049 A 
ATOM     51  C   UNL A   1      43.063  27.078  30.251  1.00  0.00     0.074 A 
ATOM     52  C   UNL A   1      42.268  30.241  35.683  1.00  0.00     0.029 A 
ATOM     53  N   UNL A   1      42.065  29.430  33.623  1.00  0.00    -0.354 N 
ATOM     54  N   UNL A   1      42.819  27.762  31.342  1.00  0.00    -0.248 NA
ATOM     55  C   UNL A   1      44.338  26.344  30.279  1.00  0.00     0.031 C 
ATOM     56  C   UNL A   1      43.370  29.420  35.422  1.00  0.00     0.029 A 
ATOM     57  C   UNL A   1      43.234  28.901  34.144  1.00  0.00     0.049 A 
ATOM     58  H   UNL A   1      41.708  29.237  32.725  1.00  0.00     0.167 HD
ATOM     59  C   UNL A   1      43.888  27.518  32.194  1.00  0.00     0.074 A 
ATOM     60  C   UNL A   1      44.782  26.618  31.497  1.00  0.00     0.031 C 
ATOM     61  C   UNL A   1      44.109  27.997  33.443  1.00  0.00     0.037 A 
BRANCH  48  62
ATOM     62  C   UNL A   1      39.773  31.919  35.412  1.00  0.00     0.064 A 
ATOM     63  C   UNL A   1      40.231  33.241  35.517  1.00  0.00     0.173 A 
ATOM     64  C   UNL A   1      38.819  31.476  36.339  1.00  0.00     0.173 A 
ATOM     65  F   UNL A   1      41.155  33.705  34.662  1.00  0.00    -0.203 F 
ATOM     66  C   UNL A   1      39.764  34.081  36.524  1.00  0.00     0.198 A 
ATOM     67  C   UNL A   1      38.338  32.325  37.332  1.00  0.00     0.198 A 
ATOM     68  F   UNL A   1      38.350  30.220  36.280  1.00  0.00    -0.203 F 
ATOM     69  F   UNL A   1      40.243  35.328  36.630  1.00  0.00    -0.200 F 
ATOM     70  C   UNL A   1      38.815  33.625  37.426  1.00  0.00     0.200 A 
ATOM     71  F   UNL A   1      37.415  31.886  38.199  1.00  0.00    -0.200 F 
ATOM     72  F   UNL A   1      38.364  34.435  38.394  1.00  0.00    -0.200 F 
ENDBRANCH  48  62
BRANCH  49  73
ATOM     73  C   UNL A   1      42.692  26.088  27.879  1.00  0.00     0.064 A 
ATOM     74  C   UNL A   1      42.332  24.736  27.809  1.00  0.00     0.173 A 
ATOM     75  C   UNL A   1      43.532  26.595  26.878  1.00  0.00     0.173 A 
ATOM     76  F   UNL A   1      41.558  24.198  28.764  1.00  0.00    -0.203 F 
ATOM     77  C   UNL A   1      42.808  23.917  26.786  1.00  0.00     0.198 A 
ATOM     78  C   UNL A   1      43.988  25.782  25.842  1.00  0.00     0.198 A 
ATOM     79  F   UNL A   1      43.915  27.880  26.909  1.00  0.00    -0.203 F 
ATOM     80  F   UNL A   1      42.489  22.616  26.768  1.00  0.00    -0.200 F 
ATOM     81  C   UNL A   1      43.631  24.442  25.800  1.00  0.00     0.200 A 
ATOM     82  F   UNL A   1      44.782  26.293  24.892  1.00  0.00    -0.200 F 
ATOM     83  F   UNL A   1      44.094  23.654  24.821  1.00  0.00    -0.200 F 
ENDBRANCH  49  73
BRANCH  61  84
ATOM     84  C   UNL A   1      45.344  27.531  34.155  1.00  0.00     0.064 A 
ATOM     85  C   UNL A   1      46.530  28.280  34.137  1.00  0.00     0.173 A 
ATOM     86  C   UNL A   1      45.326  26.346  34.907  1.00  0.00     0.173 A 
ATOM     87  F   UNL A   1      46.601  29.413  33.421  1.00  0.00    -0.203 F 
ATOM     88  C   UNL A   1      47.657  27.851  34.831  1.00  0.00     0.198 A 
ATOM     89  C   UNL A   1      46.447  25.933  35.620  1.00  0.00     0.198 A 
ATOM     90  F   UNL A   1      44.214  25.598  34.963  1.00  0.00    -0.203 F 
ATOM     91  F   UNL A   1      48.791  28.563  34.771  1.00  0.00    -0.200 F 
ATOM     92  C   UNL A   1      47.613  26.682  35.577  1.00  0.00     0.200 A 
ATOM     93  F   UNL A   1      46.400  24.810  36.350  1.00  0.00    -0.200 F 
ATOM     94  F   UNL A   1      48.698  26.275  36.252  1.00  0.00    -0.200 F 
ENDBRANCH  61  84
ENDBRANCH  35  36
ENDBRANCH  28  30
ENDBRANCH  27  28
ENDBRANCH  26  27
ENDBRANCH  25  26
ENDBRANCH  24  25
ENDBRANCH  23  24
ENDBRANCH   1  23
TORSDOF 19
ENDMDL
MODEL 2
REMARK VINA RESULT:     -10.9      2.596      4.651
REMARK SMILES Cc1cc(C[NH+]2C[C@@H](C)[C@H](C)C2)oc1C(=O)OCCOCCOCCOC(=O)c1ccc(-c2c3nc(c(-c4c(F)c(F)c(F)c(F)c4F)c4ccc([nH]4)c(-c4c(F)c(F)c(F)c(F)c4F)c4nc(c(-c5c(F)c(F)c(F)c(F)c5F)c5ccc2[nH]5)C=C4)C=C3)cc1
REMARK SMILES IDX 21 1 20 2 19 3 18 4 17 5 15 6 16 7 14 8 1 9 2 10 3 11 4 12
REMARK SMILES IDX 13 13 5 14 6 15 7 16 12 17 8 19 10 20 9 21 11 22 22 23 23 24
REMARK SMILES IDX 24 25 25 26 26 27 27 28 28 29 29 30 30 31 91 32 31 33 90 34
REMARK SMILES IDX 32 35 33 36 34 37 84 38 35 39 89 40 83 41 85 42 36 43 88 44
REMARK SMILES IDX 82 45 81 46 37 48 69 49 49 50 68 51 50 52 53 53 67 54 86 55
REMARK SMILES IDX 51 56 52 57 66 59 87 60 54 61 38 62 39 63 47 64 40 65 41 66
REMARK SMILES IDX 45 67 48 68 42 69 43 70 46 71 44 72 70 73 71 74 79 75 72 76
REMARK SMILES IDX 73 77 77 78 80 79 74 80 75 81 78 82 76 83 55 84 56 85 64 86
REMARK SMILES IDX 57 87 58 88 62 89 65 90 59 91 60 92 63 93 61 94
REMARK H PARENT 6 18 85 47 53 58
REMARK Flexibility Score: inf
ROOT
ATOM      1  C   UNL A   1      35.489  32.092  28.046  1.00  0.00     0.188 C 
ENDROOT
BRANCH   1   2
ATOM      2  O   UNL A   1      35.176  30.956  27.247  1.00  0.00    -0.376 OA
BRANCH   2   3
ATOM      3  C   UNL A   1      34.045  30.158  27.583  1.00  0.00     0.202 C 
BRANCH   3   4
ATOM      4  C   UNL A   1      33.937  28.802  26.882  1.00  0.00     0.261 C 
BRANCH   4   5
ATOM      5  O   UNL A   1      32.641  28.615  26.290  1.00  0.00    -0.457 OA
BRANCH   5   6
ATOM      6  C   UNL A   1      31.816  27.726  26.919  1.00  0.00     0.374 C 
ATOM      7  O   UNL A   1      31.217  27.954  27.958  1.00  0.00    -0.242 OA
BRANCH   6   8
ATOM      8  C   UNL A   1      31.647  26.545  26.095  1.00  0.00     0.215 A 
ATOM      9  C   UNL A   1      30.108  27.154  24.095  1.00  0.00     0.049 C 
ATOM     10  C   UNL A   1      30.930  26.251  24.940  1.00  0.00     0.003 A 
ATOM     11  C   UNL A   1      31.147  24.862  24.691  1.00  0.00     0.056 A 
ATOM     12  C   UNL A   1      31.938  24.381  25.709  1.00  0.00     0.159 A 
ATOM     13  O   UNL A   1      32.264  25.406  26.544  1.00  0.00    -0.448 OA
BRANCH  12  14
ATOM     14  C   UNL A   1      32.510  23.046  26.076  1.00  0.00     0.338 C 
BRANCH  14  15
ATOM     15  N   UNL A   1      33.943  22.866  25.860  1.00  0.00    -0.328 N 
ATOM     16  C   UNL A   1      34.462  21.514  26.045  1.00  0.00     0.266 C 
ATOM     17  C   UNL A   1      34.498  23.456  24.645  1.00  0.00     0.266 C 
ATOM     18  H   UNL A   1      34.287  23.424  26.642  1.00  0.00     0.348 HD
ATOM     19  C   UNL A   1      35.787  21.545  25.284  1.00  0.00     0.049 C 
ATOM     20  C   UNL A   1      35.417  22.381  24.059  1.00  0.00     0.049 C 
ATOM     21  C   UNL A   1      36.305  20.153  24.953  1.00  0.00     0.014 C 
ATOM     22  C   UNL A   1      36.603  22.963  23.307  1.00  0.00     0.014 C 
ENDBRANCH  14  15
ENDBRANCH  12  14
ENDBRANCH   6   8
ENDBRANCH   5   6
ENDBRANCH   4   5
ENDBRANCH   3   4
ENDBRANCH   2   3
ENDBRANCH   1   2
BRANCH   1  23
ATOM     23  C   UNL A   1      34.411  32.671  28.981  1.00  0.00     0.188 C 
BRANCH  23  24
ATOM     24  O   UNL A   1      33.609  33.683  28.387  1.00  0.00    -0.376 OA
BRANCH  24  25
ATOM     25  C   UNL A   1      34.030  35.019  28.625  1.00  0.00     0.202 C 
BRANCH  25  26
ATOM     26  C   UNL A   1      33.005  35.827  29.425  1.00  0.00     0.261 C 
BRANCH  26  27
ATOM     27  O   UNL A   1      32.455  35.136  30.559  1.00  0.00    -0.460 OA
BRANCH  27  28
ATOM     28  C   UNL A   1      32.728  35.650  31.777  1.00  0.00     0.338 C 
ATOM     29  O   UNL A   1      32.066  36.454  32.409  1.00  0.00    -0.246 OA
BRANCH  28  30
ATOM     30  C   UNL A   1      33.913  34.949  32.310  1.00  0.00     0.060 A 
ATOM     31  C   UNL A   1      35.165  35.568  32.213  1.00  0.00     0.016 A 
ATOM     32  C   UNL A   1      33.786  33.688  32.900  1.00  0.00     0.016 A 
ATOM     33  C   UNL A   1      36.302  34.910  32.687  1.00  0.00     0.010 A 
ATOM     34  C   UNL A   1      34.926  33.026  33.359  1.00  0.00     0.010 A 
ATOM     35  C   UNL A   1      36.192  33.622  33.233  1.00  0.00    -0.014 A 
BRANCH  35  36
ATOM     36  C   UNL A   1      37.410  32.829  33.528  1.00  0.00     0.031 A 
ATOM     37  C   UNL A   1      38.165  33.113  34.795  1.00  0.00     0.074 A 
ATOM     38  C   UNL A   1      37.848  31.882  32.679  1.00  0.00     0.049 A 
ATOM     39  N   UNL A   1      39.270  32.576  35.244  1.00  0.00    -0.248 NA
ATOM     40  C   UNL A   1      37.595  34.145  35.676  1.00  0.00     0.031 C 
ATOM     41  C   UNL A   1      37.197  31.498  31.429  1.00  0.00     0.029 A 
ATOM     42  N   UNL A   1      38.958  31.077  32.746  1.00  0.00    -0.354 N 
ATOM     43  C   UNL A   1      39.526  33.200  36.457  1.00  0.00     0.074 A 
ATOM     44  C   UNL A   1      38.478  34.175  36.663  1.00  0.00     0.031 C 
ATOM     45  C   UNL A   1      37.928  30.537  30.837  1.00  0.00     0.029 A 
ATOM     46  C   UNL A   1      39.108  30.257  31.655  1.00  0.00     0.049 A 
ATOM     47  H   UNL A   1      39.587  31.088  33.503  1.00  0.00     0.167 HD
ATOM     48  C   UNL A   1      40.540  32.974  37.326  1.00  0.00     0.037 A 
ATOM     49  C   UNL A   1      40.096  29.393  31.348  1.00  0.00     0.037 A 
ATOM     50  C   UNL A   1      41.589  32.014  37.122  1.00  0.00     0.049 A 
ATOM     51  C   UNL A   1      41.251  29.211  32.300  1.00  0.00     0.074 A 
ATOM     52  C   UNL A   1      42.645  31.698  37.958  1.00  0.00     0.029 A 
ATOM     53  N   UNL A   1      41.721  31.220  35.993  1.00  0.00    -0.354 N 
ATOM     54  N   UNL A   1      41.461  29.773  33.466  1.00  0.00    -0.248 NA
ATOM     55  C   UNL A   1      42.307  28.272  31.891  1.00  0.00     0.031 C 
ATOM     56  C   UNL A   1      43.442  30.744  37.317  1.00  0.00     0.029 A 
ATOM     57  C   UNL A   1      42.856  30.433  36.100  1.00  0.00     0.049 A 
ATOM     58  H   UNL A   1      41.100  31.215  35.230  1.00  0.00     0.167 HD
ATOM     59  C   UNL A   1      42.651  29.236  33.940  1.00  0.00     0.074 A 
ATOM     60  C   UNL A   1      43.116  28.298  32.940  1.00  0.00     0.031 C 
ATOM     61  C   UNL A   1      43.301  29.496  35.101  1.00  0.00     0.037 A 
BRANCH  48  62
ATOM     62  C   UNL A   1      40.568  33.800  38.575  1.00  0.00     0.064 A 
ATOM     63  C   UNL A   1      41.326  34.978  38.657  1.00  0.00     0.173 A 
ATOM     64  C   UNL A   1      39.808  33.426  39.692  1.00  0.00     0.173 A 
ATOM     65  F   UNL A   1      42.081  35.368  37.619  1.00  0.00    -0.203 F 
ATOM     66  C   UNL A   1      41.335  35.742  39.821  1.00  0.00     0.198 A 
ATOM     67  C   UNL A   1      39.803  34.204  40.847  1.00  0.00     0.198 A 
ATOM     68  F   UNL A   1      39.067  32.307  39.662  1.00  0.00    -0.203 F 
ATOM     69  F   UNL A   1      42.097  36.843  39.891  1.00  0.00    -0.200 F 
ATOM     70  C   UNL A   1      40.571  35.357  40.911  1.00  0.00     0.200 A 
ATOM     71  F   UNL A   1      39.058  33.835  41.898  1.00  0.00    -0.200 F 
ATOM     72  F   UNL A   1      40.579  36.095  42.031  1.00  0.00    -0.200 F 
ENDBRANCH  48  62
BRANCH  49  73
ATOM     73  C   UNL A   1      40.047  28.629  30.074  1.00  0.00     0.064 A 
ATOM     74  C   UNL A   1      39.450  27.363  30.015  1.00  0.00     0.173 A 
ATOM     75  C   UNL A   1      40.627  29.135  28.903  1.00  0.00     0.173 A 
ATOM     76  F   UNL A   1      38.912  26.824  31.120  1.00  0.00    -0.203 F 
ATOM     77  C   UNL A   1      39.449  26.623  28.834  1.00  0.00     0.198 A 
ATOM     78  C   UNL A   1      40.605  28.405  27.716  1.00  0.00     0.198 A 
ATOM     79  F   UNL A   1      41.222  30.337  28.912  1.00  0.00    -0.203 F 
ATOM     80  F   UNL A   1      38.915  25.395  28.816  1.00  0.00    -0.200 F 
ATOM     81  C   UNL A   1      40.022  27.146  27.685  1.00  0.00     0.200 A 
ATOM     82  F   UNL A   1      41.159  28.913  26.608  1.00  0.00    -0.200 F 
ATOM     83  F   UNL A   1      40.027  26.431  26.551  1.00  0.00    -0.200 F 
ENDBRANCH  49  73
BRANCH  61  84
ATOM     84  C   UNL A   1      44.563  28.733  35.375  1.00  0.00     0.064 A 
ATOM     85  C   UNL A   1      44.544  27.488  36.020  1.00  0.00     0.173 A 
ATOM     86  C   UNL A   1      45.801  29.232  34.942  1.00  0.00     0.173 A 
ATOM     87  F   UNL A   1      43.387  26.976  36.465  1.00  0.00    -0.203 F 
ATOM     88  C   UNL A   1      45.722  26.778  36.236  1.00  0.00     0.198 A 
ATOM     89  C   UNL A   1      46.974  28.507  35.138  1.00  0.00     0.198 A 
ATOM     90  F   UNL A   1      45.872  30.414  34.313  1.00  0.00    -0.203 F 
ATOM     91  F   UNL A   1      45.686  25.606  36.886  1.00  0.00    -0.200 F 
ATOM     92  C   UNL A   1      46.934  27.284  35.789  1.00  0.00     0.200 A 
ATOM     93  F   UNL A   1      48.142  28.992  34.695  1.00  0.00    -0.200 F 
ATOM     94  F   UNL A   1      48.065  26.594  35.992  1.00  0.00    -0.200 F 
ENDBRANCH  61  84
ENDBRANCH  35  36
ENDBRANCH  28  30
ENDBRANCH  27  28
ENDBRANCH  26  27
ENDBRANCH  25  26
ENDBRANCH  24  25
ENDBRANCH  23  24
ENDBRANCH   1  23
TORSDOF 19
ENDMDL
MODEL 3
REMARK VINA RESULT:     -10.9      3.287      8.585
REMARK SMILES Cc1cc(C[NH+]2C[C@@H](C)[C@H](C)C2)oc1C(=O)OCCOCCOCCOC(=O)c1ccc(-c2c3nc(c(-c4c(F)c(F)c(F)c(F)c4F)c4ccc([nH]4)c(-c4c(F)c(F)c(F)c(F)c4F)c4nc(c(-c5c(F)c(F)c(F)c(F)c5F)c5ccc2[nH]5)C=C4)C=C3)cc1
REMARK SMILES IDX 21 1 20 2 19 3 18 4 17 5 15 6 16 7 14 8 1 9 2 10 3 11 4 12
REMARK SMILES IDX 13 13 5 14 6 15 7 16 12 17 8 19 10 20 9 21 11 22 22 23 23 24
REMARK SMILES IDX 24 25 25 26 26 27 27 28 28 29 29 30 30 31 91 32 31 33 90 34
REMARK SMILES IDX 32 35 33 36 34 37 84 38 35 39 89 40 83 41 85 42 36 43 88 44
REMARK SMILES IDX 82 45 81 46 37 48 69 49 49 50 68 51 50 52 53 53 67 54 86 55
REMARK SMILES IDX 51 56 52 57 66 59 87 60 54 61 38 62 39 63 47 64 40 65 41 66
REMARK SMILES IDX 45 67 48 68 42 69 43 70 46 71 44 72 70 73 71 74 79 75 72 76
REMARK SMILES IDX 73 77 77 78 80 79 74 80 75 81 78 82 76 83 55 84 56 85 64 86
REMARK SMILES IDX 57 87 58 88 62 89 65 90 59 91 60 92 63 93 61 94
REMARK H PARENT 6 18 85 47 53 58
REMARK Flexibility Score: inf
ROOT
ATOM      1  C   UNL A   1      40.160  21.481  26.999  1.00  0.00     0.188 C 
ENDROOT
BRANCH   1   2
ATOM      2  O   UNL A   1      39.531  21.778  25.756  1.00  0.00    -0.376 OA
BRANCH   2   3
ATOM      3  C   UNL A   1      38.109  21.811  25.686  1.00  0.00     0.202 C 
BRANCH   3   4
ATOM      4  C   UNL A   1      37.463  23.198  25.632  1.00  0.00     0.261 C 
BRANCH   4   5
ATOM      5  O   UNL A   1      36.212  23.169  24.925  1.00  0.00    -0.457 OA
BRANCH   5   6
ATOM      6  C   UNL A   1      35.091  23.041  25.695  1.00  0.00     0.374 C 
ATOM      7  O   UNL A   1      35.001  23.415  26.854  1.00  0.00    -0.242 OA
BRANCH   6   8
ATOM      8  C   UNL A   1      33.995  22.538  24.890  1.00  0.00     0.215 A 
ATOM      9  C   UNL A   1      32.419  24.521  24.322  1.00  0.00     0.049 C 
ATOM     10  C   UNL A   1      32.856  23.102  24.325  1.00  0.00     0.003 A 
ATOM     11  C   UNL A   1      32.153  22.023  23.708  1.00  0.00     0.056 A 
ATOM     12  C   UNL A   1      32.868  20.872  23.956  1.00  0.00     0.159 A 
ATOM     13  O   UNL A   1      33.998  21.189  24.647  1.00  0.00    -0.448 OA
BRANCH  12  14
ATOM     14  C   UNL A   1      32.697  19.420  23.633  1.00  0.00     0.338 C 
BRANCH  14  15
ATOM     15  N   UNL A   1      33.148  18.467  24.643  1.00  0.00    -0.328 N 
ATOM     16  C   UNL A   1      32.207  17.412  25.007  1.00  0.00     0.266 C 
ATOM     17  C   UNL A   1      34.485  17.907  24.461  1.00  0.00     0.266 C 
ATOM     18  H   UNL A   1      33.202  19.102  25.440  1.00  0.00     0.348 HD
ATOM     19  C   UNL A   1      33.105  16.350  25.641  1.00  0.00     0.049 C 
ATOM     20  C   UNL A   1      34.335  16.409  24.734  1.00  0.00     0.049 C 
ATOM     21  C   UNL A   1      32.442  14.982  25.700  1.00  0.00     0.014 C 
ATOM     22  C   UNL A   1      35.589  15.788  25.328  1.00  0.00     0.014 C 
ENDBRANCH  14  15
ENDBRANCH  12  14
ENDBRANCH   6   8
ENDBRANCH   5   6
ENDBRANCH   4   5
ENDBRANCH   3   4
ENDBRANCH   2   3
ENDBRANCH   1   2
BRANCH   1  23
ATOM     23  C   UNL A   1      41.620  20.991  27.001  1.00  0.00     0.188 C 
BRANCH  23  24
ATOM     24  O   UNL A   1      42.227  20.964  25.717  1.00  0.00    -0.376 OA
BRANCH  24  25
ATOM     25  C   UNL A   1      43.643  21.083  25.703  1.00  0.00     0.202 C 
BRANCH  25  26
ATOM     26  C   UNL A   1      44.155  22.151  26.673  1.00  0.00     0.261 C 
BRANCH  26  27
ATOM     27  O   UNL A   1      44.618  23.357  26.042  1.00  0.00    -0.460 OA
BRANCH  27  28
ATOM     28  C   UNL A   1      43.702  24.079  25.362  1.00  0.00     0.338 C 
ATOM     29  O   UNL A   1      43.325  23.910  24.217  1.00  0.00    -0.246 OA
BRANCH  28  30
ATOM     30  C   UNL A   1      43.095  25.042  26.302  1.00  0.00     0.060 A 
ATOM     31  C   UNL A   1      43.696  26.296  26.468  1.00  0.00     0.016 A 
ATOM     32  C   UNL A   1      41.940  24.707  27.015  1.00  0.00     0.016 A 
ATOM     33  C   UNL A   1      43.154  27.211  27.372  1.00  0.00     0.010 A 
ATOM     34  C   UNL A   1      41.408  25.618  27.930  1.00  0.00     0.010 A 
ATOM     35  C   UNL A   1      42.026  26.864  28.131  1.00  0.00    -0.014 A 
BRANCH  35  36
ATOM     36  C   UNL A   1      41.580  27.732  29.247  1.00  0.00     0.031 A 
ATOM     37  C   UNL A   1      42.313  27.656  30.557  1.00  0.00     0.074 A 
ATOM     38  C   UNL A   1      40.535  28.567  29.107  1.00  0.00     0.049 A 
ATOM     39  N   UNL A   1      42.083  28.290  31.678  1.00  0.00    -0.248 NA
ATOM     40  C   UNL A   1      43.462  26.738  30.607  1.00  0.00     0.031 C 
ATOM     41  C   UNL A   1      39.754  28.749  27.886  1.00  0.00     0.029 A 
ATOM     42  N   UNL A   1      39.947  29.412  30.016  1.00  0.00    -0.354 N 
ATOM     43  C   UNL A   1      43.056  27.851  32.564  1.00  0.00     0.074 A 
ATOM     44  C   UNL A   1      43.864  26.877  31.862  1.00  0.00     0.031 C 
ATOM     45  C   UNL A   1      38.778  29.643  28.125  1.00  0.00     0.029 A 
ATOM     46  C   UNL A   1      38.853  30.077  29.520  1.00  0.00     0.049 A 
ATOM     47  H   UNL A   1      40.279  29.530  30.935  1.00  0.00     0.167 HD
ATOM     48  C   UNL A   1      43.265  28.232  33.847  1.00  0.00     0.037 A 
ATOM     49  C   UNL A   1      38.001  30.924  30.131  1.00  0.00     0.037 A 
ATOM     50  C   UNL A   1      42.460  29.191  34.553  1.00  0.00     0.049 A 
ATOM     51  C   UNL A   1      38.214  31.278  31.581  1.00  0.00     0.074 A 
ATOM     52  C   UNL A   1      42.610  29.658  35.847  1.00  0.00     0.029 A 
ATOM     53  N   UNL A   1      41.345  29.823  34.025  1.00  0.00    -0.354 N 
ATOM     54  N   UNL A   1      39.163  30.893  32.399  1.00  0.00    -0.248 NA
ATOM     55  C   UNL A   1      37.232  32.188  32.193  1.00  0.00     0.031 C 
ATOM     56  C   UNL A   1      41.560  30.541  36.118  1.00  0.00     0.029 A 
ATOM     57  C   UNL A   1      40.782  30.658  34.976  1.00  0.00     0.049 A 
ATOM     58  H   UNL A   1      41.005  29.699  33.110  1.00  0.00     0.167 HD
ATOM     59  C   UNL A   1      38.912  31.533  33.605  1.00  0.00     0.074 A 
ATOM     60  C   UNL A   1      37.724  32.337  33.414  1.00  0.00     0.031 C 
ATOM     61  C   UNL A   1      39.605  31.461  34.768  1.00  0.00     0.037 A 
BRANCH  48  62
ATOM     62  C   UNL A   1      44.405  27.590  34.576  1.00  0.00     0.064 A 
ATOM     63  C   UNL A   1      44.273  26.330  35.178  1.00  0.00     0.173 A 
ATOM     64  C   UNL A   1      45.651  28.228  34.649  1.00  0.00     0.173 A 
ATOM     65  F   UNL A   1      43.095  25.689  35.148  1.00  0.00    -0.203 F 
ATOM     66  C   UNL A   1      45.344  25.741  35.844  1.00  0.00     0.198 A 
ATOM     67  C   UNL A   1      46.727  27.626  35.297  1.00  0.00     0.198 A 
ATOM     68  F   UNL A   1      45.828  29.435  34.088  1.00  0.00    -0.203 F 
ATOM     69  F   UNL A   1      45.184  24.554  36.446  1.00  0.00    -0.200 F 
ATOM     70  C   UNL A   1      46.569  26.386  35.898  1.00  0.00     0.200 A 
ATOM     71  F   UNL A   1      47.913  28.248  35.342  1.00  0.00    -0.200 F 
ATOM     72  F   UNL A   1      47.601  25.816  36.537  1.00  0.00    -0.200 F 
ENDBRANCH  48  62
BRANCH  49  73
ATOM     73  C   UNL A   1      36.857  31.500  29.378  1.00  0.00     0.064 A 
ATOM     74  C   UNL A   1      36.829  32.858  29.037  1.00  0.00     0.173 A 
ATOM     75  C   UNL A   1      35.755  30.711  29.019  1.00  0.00     0.173 A 
ATOM     76  F   UNL A   1      37.845  33.659  29.390  1.00  0.00    -0.203 F 
ATOM     77  C   UNL A   1      35.732  33.411  28.377  1.00  0.00     0.198 A 
ATOM     78  C   UNL A   1      34.670  31.259  28.338  1.00  0.00     0.198 A 
ATOM     79  F   UNL A   1      35.730  29.408  29.335  1.00  0.00    -0.203 F 
ATOM     80  F   UNL A   1      35.708  34.722  28.105  1.00  0.00    -0.200 F 
ATOM     81  C   UNL A   1      34.656  32.610  28.024  1.00  0.00     0.200 A 
ATOM     82  F   UNL A   1      33.632  30.483  27.998  1.00  0.00    -0.200 F 
ATOM     83  F   UNL A   1      33.600  33.144  27.395  1.00  0.00    -0.200 F 
ENDBRANCH  49  73
BRANCH  61  84
ATOM     84  C   UNL A   1      39.123  32.299  35.915  1.00  0.00     0.064 A 
ATOM     85  C   UNL A   1      38.273  31.776  36.901  1.00  0.00     0.173 A 
ATOM     86  C   UNL A   1      39.556  33.627  36.056  1.00  0.00     0.173 A 
ATOM     87  F   UNL A   1      37.821  30.517  36.803  1.00  0.00    -0.203 F 
ATOM     88  C   UNL A   1      37.862  32.558  37.977  1.00  0.00     0.198 A 
ATOM     89  C   UNL A   1      39.163  34.397  37.146  1.00  0.00     0.198 A 
ATOM     90  F   UNL A   1      40.375  34.171  35.144  1.00  0.00    -0.203 F 
ATOM     91  F   UNL A   1      37.022  32.050  38.890  1.00  0.00    -0.200 F 
ATOM     92  C   UNL A   1      38.312  33.864  38.103  1.00  0.00     0.200 A 
ATOM     93  F   UNL A   1      39.608  35.655  37.273  1.00  0.00    -0.200 F 
ATOM     94  F   UNL A   1      37.921  34.612  39.145  1.00  0.00    -0.200 F 
ENDBRANCH  61  84
ENDBRANCH  35  36
ENDBRANCH  28  30
ENDBRANCH  27  28
ENDBRANCH  26  27
ENDBRANCH  25  26
ENDBRANCH  24  25
ENDBRANCH  23  24
ENDBRANCH   1  23
TORSDOF 19
ENDMDL
