MODEL 1
REMARK VINA RESULT:     -11.5      0.000      0.000
REMARK SMILES O=C(Cc1ccn[nH]1)Nc1cc(C(=O)OCCOCCOCCOC(=O)c2ccc(-c3c4nc(c(-c5c(F)c(F)c(F)c(F)c5F)c5ccc([nH]5)c(-c5c(F)c(F)c(F)c(F)c5F)c5nc(c(-c6c(F)c(F)c(F)c(F)c6F)c6ccc3[nH]6)C=C5)C=C4)cc2)c(F)cc1F
REMARK SMILES IDX 19 1 18 2 17 3 16 4 15 5 13 6 14 7 12 8 10 9 11 10 93 11
REMARK SMILES IDX 92 12 94 13 90 14 91 15 9 16 1 17 2 18 3 20 4 21 5 22 8 23
REMARK SMILES IDX 6 24 7 25 20 27 21 28 22 29 23 30 24 31 25 32 26 33 27 34
REMARK SMILES IDX 28 35 89 36 29 37 88 38 30 39 31 40 32 41 82 42 33 43 87 44
REMARK SMILES IDX 81 45 83 46 34 47 86 48 80 49 79 50 35 52 67 53 47 54 66 55
REMARK SMILES IDX 48 56 51 57 65 58 84 59 49 60 50 61 64 63 85 64 52 65 36 66
REMARK SMILES IDX 37 67 45 68 38 69 39 70 43 71 46 72 40 73 41 74 44 75 42 76
REMARK SMILES IDX 68 77 69 78 77 79 70 80 71 81 75 82 78 83 72 84 73 85 76 86
REMARK SMILES IDX 74 87 53 88 54 89 62 90 55 91 56 92 60 93 63 94 57 95 58 96
REMARK SMILES IDX 61 97 59 98
REMARK H PARENT 9 19 8 26 83 51 51 62
REMARK Flexibility Score: inf
ROOT
ATOM      1  C   UNL A   1      30.426  28.272  22.373  1.00  0.00     0.188 C 
ENDROOT
BRANCH   1   2
ATOM      2  O   UNL A   1      29.854  27.195  23.089  1.00  0.00    -0.376 OA
BRANCH   2   3
ATOM      3  C   UNL A   1      30.677  26.277  23.795  1.00  0.00     0.202 C 
BRANCH   3   4
ATOM      4  C   UNL A   1      30.784  24.814  23.367  1.00  0.00     0.261 C 
BRANCH   4   5
ATOM      5  O   UNL A   1      30.434  23.884  24.399  1.00  0.00    -0.460 OA
BRANCH   5   6
ATOM      6  C   UNL A   1      31.093  24.048  25.568  1.00  0.00     0.341 C 
ATOM      7  O   UNL A   1      30.634  24.452  26.628  1.00  0.00    -0.246 OA
BRANCH   6   8
ATOM      8  C   UNL A   1      32.453  23.506  25.473  1.00  0.00     0.098 A 
ATOM      9  C   UNL A   1      33.889  21.645  24.917  1.00  0.00     0.078 A 
ATOM     10  C   UNL A   1      32.625  22.231  24.908  1.00  0.00     0.048 A 
ATOM     11  C   UNL A   1      34.957  22.333  25.505  1.00  0.00     0.149 A 
ATOM     12  C   UNL A   1      34.806  23.623  26.002  1.00  0.00     0.081 A 
ATOM     13  F   UNL A   1      36.166  21.752  25.554  1.00  0.00    -0.205 F 
ATOM     14  C   UNL A   1      33.545  24.207  25.983  1.00  0.00     0.140 A 
ATOM     15  F   UNL A   1      33.399  25.434  26.499  1.00  0.00    -0.206 F 
BRANCH   9  16
ATOM     16  N   UNL A   1      34.152  20.364  24.399  1.00  0.00    -0.323 N 
ATOM     17  O   UNL A   1      32.423  19.185  25.364  1.00  0.00    -0.274 OA
ATOM     18  C   UNL A   1      33.446  19.212  24.680  1.00  0.00     0.230 C 
ATOM     19  H   UNL A   1      34.909  20.281  23.776  1.00  0.00     0.170 HD
BRANCH  18  20
ATOM     20  C   UNL A   1      34.060  17.926  24.129  1.00  0.00     0.155 C 
BRANCH  20  21
ATOM     21  C   UNL A   1      33.535  16.661  24.735  1.00  0.00     0.044 A 
ATOM     22  C   UNL A   1      34.132  15.588  25.370  1.00  0.00     0.045 A 
ATOM     23  N   UNL A   1      32.184  16.429  24.847  1.00  0.00    -0.282 N 
ATOM     24  C   UNL A   1      33.071  14.763  25.784  1.00  0.00     0.135 A 
ATOM     25  N   UNL A   1      31.884  15.276  25.464  1.00  0.00    -0.184 NA
ATOM     26  H   UNL A   1      31.502  17.052  24.507  1.00  0.00     0.190 HD
ENDBRANCH  20  21
ENDBRANCH  18  20
ENDBRANCH   9  16
ENDBRANCH   6   8
ENDBRANCH   5   6
ENDBRANCH   4   5
ENDBRANCH   3   4
ENDBRANCH   2   3
ENDBRANCH   1   2
BRANCH   1  27
ATOM     27  C   UNL A   1      30.281  29.728  22.868  1.00  0.00     0.188 C 
BRANCH  27  28
ATOM     28  O   UNL A   1      30.196  30.030  24.246  1.00  0.00    -0.376 OA
BRANCH  28  29
ATOM     29  C   UNL A   1      31.368  30.026  25.045  1.00  0.00     0.202 C 
BRANCH  29  30
ATOM     30  C   UNL A   1      31.586  31.087  26.125  1.00  0.00     0.261 C 
BRANCH  30  31
ATOM     31  O   UNL A   1      32.701  30.821  26.985  1.00  0.00    -0.460 OA
BRANCH  31  32
ATOM     32  C   UNL A   1      33.364  31.921  27.413  1.00  0.00     0.338 C 
ATOM     33  O   UNL A   1      32.932  33.053  27.546  1.00  0.00    -0.246 OA
BRANCH  32  34
ATOM     34  C   UNL A   1      34.712  31.533  27.856  1.00  0.00     0.060 A 
ATOM     35  C   UNL A   1      34.942  30.199  28.212  1.00  0.00     0.016 A 
ATOM     36  C   UNL A   1      35.711  32.496  27.993  1.00  0.00     0.016 A 
ATOM     37  C   UNL A   1      36.178  29.823  28.732  1.00  0.00     0.010 A 
ATOM     38  C   UNL A   1      36.940  32.122  28.540  1.00  0.00     0.010 A 
ATOM     39  C   UNL A   1      37.167  30.792  28.936  1.00  0.00    -0.014 A 
BRANCH  39  40
ATOM     40  C   UNL A   1      38.379  30.468  29.721  1.00  0.00     0.031 A 
ATOM     41  C   UNL A   1      39.361  29.493  29.139  1.00  0.00     0.074 A 
ATOM     42  C   UNL A   1      38.587  31.007  30.934  1.00  0.00     0.049 A 
ATOM     43  N   UNL A   1      40.374  28.895  29.710  1.00  0.00    -0.248 NA
ATOM     44  C   UNL A   1      39.176  29.145  27.721  1.00  0.00     0.031 C 
ATOM     45  C   UNL A   1      37.747  32.021  31.564  1.00  0.00     0.029 A 
ATOM     46  N   UNL A   1      39.563  30.746  31.864  1.00  0.00    -0.354 N 
ATOM     47  C   UNL A   1      40.925  28.080  28.733  1.00  0.00     0.074 A 
ATOM     48  C   UNL A   1      40.146  28.263  27.529  1.00  0.00     0.031 C 
ATOM     49  C   UNL A   1      38.217  32.267  32.800  1.00  0.00     0.029 A 
ATOM     50  C   UNL A   1      39.359  31.392  33.059  1.00  0.00     0.049 A 
ATOM     51  H   UNL A   1      40.331  30.156  31.692  1.00  0.00     0.167 HD
ATOM     52  C   UNL A   1      41.984  27.246  28.841  1.00  0.00     0.037 A 
ATOM     53  C   UNL A   1      39.992  31.246  34.240  1.00  0.00     0.037 A 
ATOM     54  C   UNL A   1      42.759  27.077  30.041  1.00  0.00     0.049 A 
ATOM     55  C   UNL A   1      41.127  30.259  34.352  1.00  0.00     0.074 A 
ATOM     56  C   UNL A   1      43.852  26.255  30.250  1.00  0.00     0.029 A 
ATOM     57  N   UNL A   1      42.520  27.742  31.233  1.00  0.00    -0.354 N 
ATOM     58  N   UNL A   1      41.635  29.471  33.435  1.00  0.00    -0.248 NA
ATOM     59  C   UNL A   1      41.772  30.133  35.668  1.00  0.00     0.031 C 
ATOM     60  C   UNL A   1      44.249  26.390  31.583  1.00  0.00     0.029 A 
ATOM     61  C   UNL A   1      43.437  27.337  32.187  1.00  0.00     0.049 A 
ATOM     62  H   UNL A   1      41.806  28.403  31.378  1.00  0.00     0.167 HD
ATOM     63  C   UNL A   1      42.669  28.777  34.053  1.00  0.00     0.074 A 
ATOM     64  C   UNL A   1      42.729  29.250  35.419  1.00  0.00     0.031 C 
ATOM     65  C   UNL A   1      43.490  27.831  33.539  1.00  0.00     0.037 A 
BRANCH  52  66
ATOM     66  C   UNL A   1      42.358  26.423  27.647  1.00  0.00     0.064 A 
ATOM     67  C   UNL A   1      41.786  25.157  27.459  1.00  0.00     0.173 A 
ATOM     68  C   UNL A   1      43.345  26.844  26.745  1.00  0.00     0.173 A 
ATOM     69  F   UNL A   1      40.836  24.713  28.296  1.00  0.00    -0.203 F 
ATOM     70  C   UNL A   1      42.209  24.328  26.425  1.00  0.00     0.198 A 
ATOM     71  C   UNL A   1      43.751  26.019  25.698  1.00  0.00     0.198 A 
ATOM     72  F   UNL A   1      43.909  28.054  26.876  1.00  0.00    -0.203 F 
ATOM     73  F   UNL A   1      41.677  23.105  26.288  1.00  0.00    -0.200 F 
ATOM     74  C   UNL A   1      43.192  24.758  25.547  1.00  0.00     0.200 A 
ATOM     75  F   UNL A   1      44.687  26.443  24.838  1.00  0.00    -0.200 F 
ATOM     76  F   UNL A   1      43.603  23.956  24.556  1.00  0.00    -0.200 F 
ENDBRANCH  52  66
BRANCH  53  77
ATOM     77  C   UNL A   1      39.537  32.013  35.430  1.00  0.00     0.064 A 
ATOM     78  C   UNL A   1      39.986  33.321  35.667  1.00  0.00     0.173 A 
ATOM     79  C   UNL A   1      38.615  31.468  36.336  1.00  0.00     0.173 A 
ATOM     80  F   UNL A   1      40.862  33.893  34.828  1.00  0.00    -0.203 F 
ATOM     81  C   UNL A   1      39.539  34.050  36.768  1.00  0.00     0.198 A 
ATOM     82  C   UNL A   1      38.144  32.209  37.418  1.00  0.00     0.198 A 
ATOM     83  F   UNL A   1      38.133  30.233  36.136  1.00  0.00    -0.203 F 
ATOM     84  F   UNL A   1      39.999  35.290  36.979  1.00  0.00    -0.200 F 
ATOM     85  C   UNL A   1      38.610  33.497  37.636  1.00  0.00     0.200 A 
ATOM     86  F   UNL A   1      37.220  31.685  38.233  1.00  0.00    -0.200 F 
ATOM     87  F   UNL A   1      38.155  34.210  38.675  1.00  0.00    -0.200 F 
ENDBRANCH  53  77
BRANCH  65  88
ATOM     88  C   UNL A   1      44.551  27.265  34.438  1.00  0.00     0.064 A 
ATOM     89  C   UNL A   1      44.278  26.140  35.233  1.00  0.00     0.173 A 
ATOM     90  C   UNL A   1      45.808  27.871  34.567  1.00  0.00     0.173 A 
ATOM     91  F   UNL A   1      43.085  25.529  35.155  1.00  0.00    -0.203 F 
ATOM     92  C   UNL A   1      45.222  25.649  36.129  1.00  0.00     0.198 A 
ATOM     93  C   UNL A   1      46.762  27.359  35.443  1.00  0.00     0.198 A 
ATOM     94  F   UNL A   1      46.120  28.942  33.823  1.00  0.00    -0.203 F 
ATOM     95  F   UNL A   1      44.927  24.595  36.901  1.00  0.00    -0.200 F 
ATOM     96  C   UNL A   1      46.465  26.255  36.229  1.00  0.00     0.200 A 
ATOM     97  F   UNL A   1      47.972  27.930  35.520  1.00  0.00    -0.200 F 
ATOM     98  F   UNL A   1      47.380  25.774  37.082  1.00  0.00    -0.200 F 
ENDBRANCH  65  88
ENDBRANCH  39  40
ENDBRANCH  32  34
ENDBRANCH  31  32
ENDBRANCH  30  31
ENDBRANCH  29  30
ENDBRANCH  28  29
ENDBRANCH  27  28
ENDBRANCH   1  27
TORSDOF 20
ENDMDL
MODEL 2
REMARK VINA RESULT:     -11.2      3.697      9.270
REMARK SMILES O=C(Cc1ccn[nH]1)Nc1cc(C(=O)OCCOCCOCCOC(=O)c2ccc(-c3c4nc(c(-c5c(F)c(F)c(F)c(F)c5F)c5ccc([nH]5)c(-c5c(F)c(F)c(F)c(F)c5F)c5nc(c(-c6c(F)c(F)c(F)c(F)c6F)c6ccc3[nH]6)C=C5)C=C4)cc2)c(F)cc1F
REMARK SMILES IDX 19 1 18 2 17 3 16 4 15 5 13 6 14 7 12 8 10 9 11 10 93 11
REMARK SMILES IDX 92 12 94 13 90 14 91 15 9 16 1 17 2 18 3 20 4 21 5 22 8 23
REMARK SMILES IDX 6 24 7 25 20 27 21 28 22 29 23 30 24 31 25 32 26 33 27 34
REMARK SMILES IDX 28 35 89 36 29 37 88 38 30 39 31 40 32 41 82 42 33 43 87 44
REMARK SMILES IDX 81 45 83 46 34 47 86 48 80 49 79 50 35 52 67 53 47 54 66 55
REMARK SMILES IDX 48 56 51 57 65 58 84 59 49 60 50 61 64 63 85 64 52 65 36 66
REMARK SMILES IDX 37 67 45 68 38 69 39 70 43 71 46 72 40 73 41 74 44 75 42 76
REMARK SMILES IDX 68 77 69 78 77 79 70 80 71 81 75 82 78 83 72 84 73 85 76 86
REMARK SMILES IDX 74 87 53 88 54 89 62 90 55 91 56 92 60 93 63 94 57 95 58 96
REMARK SMILES IDX 61 97 59 98
REMARK H PARENT 9 19 8 26 83 51 51 62
REMARK Flexibility Score: inf
ROOT
ATOM      1  C   UNL A   1      43.207  18.896  25.666  1.00  0.00     0.188 C 
ENDROOT
BRANCH   1   2
ATOM      2  O   UNL A   1      41.928  19.458  25.445  1.00  0.00    -0.376 OA
BRANCH   2   3
ATOM      3  C   UNL A   1      41.240  20.126  26.493  1.00  0.00     0.202 C 
BRANCH   3   4
ATOM      4  C   UNL A   1      40.779  21.575  26.342  1.00  0.00     0.261 C 
BRANCH   4   5
ATOM      5  O   UNL A   1      39.418  21.791  26.737  1.00  0.00    -0.460 OA
BRANCH   5   6
ATOM      6  C   UNL A   1      38.843  22.907  26.233  1.00  0.00     0.341 C 
ATOM      7  O   UNL A   1      39.379  23.985  26.020  1.00  0.00    -0.246 OA
BRANCH   6   8
ATOM      8  C   UNL A   1      37.474  22.623  25.788  1.00  0.00     0.098 A 
ATOM      9  C   UNL A   1      35.136  23.229  25.820  1.00  0.00     0.078 A 
ATOM     10  C   UNL A   1      36.461  23.536  26.125  1.00  0.00     0.048 A 
ATOM     11  C   UNL A   1      34.843  22.009  25.199  1.00  0.00     0.149 A 
ATOM     12  C   UNL A   1      35.849  21.135  24.802  1.00  0.00     0.081 A 
ATOM     13  F   UNL A   1      33.564  21.692  24.944  1.00  0.00    -0.205 F 
ATOM     14  C   UNL A   1      37.169  21.448  25.100  1.00  0.00     0.140 A 
ATOM     15  F   UNL A   1      38.129  20.584  24.749  1.00  0.00    -0.206 F 
BRANCH   9  16
ATOM     16  N   UNL A   1      34.054  24.068  26.141  1.00  0.00    -0.323 N 
ATOM     17  O   UNL A   1      34.109  25.496  24.333  1.00  0.00    -0.274 OA
ATOM     18  C   UNL A   1      33.632  25.165  25.420  1.00  0.00     0.230 C 
ATOM     19  H   UNL A   1      33.548  23.851  26.957  1.00  0.00     0.170 HD
BRANCH  18  20
ATOM     20  C   UNL A   1      32.551  26.007  26.095  1.00  0.00     0.155 C 
BRANCH  20  21
ATOM     21  C   UNL A   1      31.814  26.943  25.185  1.00  0.00     0.044 A 
ATOM     22  C   UNL A   1      31.502  28.288  25.252  1.00  0.00     0.045 A 
ATOM     23  N   UNL A   1      31.393  26.545  23.939  1.00  0.00    -0.282 N 
ATOM     24  C   UNL A   1      30.868  28.583  24.033  1.00  0.00     0.135 A 
ATOM     25  N   UNL A   1      30.801  27.521  23.233  1.00  0.00    -0.184 NA
ATOM     26  H   UNL A   1      31.513  25.630  23.598  1.00  0.00     0.190 HD
ENDBRANCH  20  21
ENDBRANCH  18  20
ENDBRANCH   9  16
ENDBRANCH   6   8
ENDBRANCH   5   6
ENDBRANCH   4   5
ENDBRANCH   3   4
ENDBRANCH   2   3
ENDBRANCH   1   2
BRANCH   1  27
ATOM     27  C   UNL A   1      44.338  19.050  24.626  1.00  0.00     0.188 C 
BRANCH  27  28
ATOM     28  O   UNL A   1      44.543  20.267  23.937  1.00  0.00    -0.376 OA
BRANCH  28  29
ATOM     29  C   UNL A   1      44.694  21.475  24.665  1.00  0.00     0.202 C 
BRANCH  29  30
ATOM     30  C   UNL A   1      44.543  22.832  23.976  1.00  0.00     0.261 C 
BRANCH  30  31
ATOM     31  O   UNL A   1      43.778  23.784  24.726  1.00  0.00    -0.460 OA
BRANCH  31  32
ATOM     32  C   UNL A   1      44.459  24.894  25.098  1.00  0.00     0.338 C 
ATOM     33  O   UNL A   1      45.494  25.331  24.626  1.00  0.00    -0.246 OA
BRANCH  32  34
ATOM     34  C   UNL A   1      43.679  25.625  26.108  1.00  0.00     0.060 A 
ATOM     35  C   UNL A   1      44.096  26.910  26.476  1.00  0.00     0.016 A 
ATOM     36  C   UNL A   1      42.598  25.012  26.739  1.00  0.00     0.016 A 
ATOM     37  C   UNL A   1      43.440  27.584  27.503  1.00  0.00     0.010 A 
ATOM     38  C   UNL A   1      41.959  25.679  27.785  1.00  0.00     0.010 A 
ATOM     39  C   UNL A   1      42.395  26.955  28.188  1.00  0.00    -0.014 A 
BRANCH  39  40
ATOM     40  C   UNL A   1      41.863  27.540  29.438  1.00  0.00     0.031 A 
ATOM     41  C   UNL A   1      40.618  28.374  29.356  1.00  0.00     0.074 A 
ATOM     42  C   UNL A   1      42.486  27.357  30.613  1.00  0.00     0.049 A 
ATOM     43  N   UNL A   1      40.082  29.155  30.257  1.00  0.00    -0.248 NA
ATOM     44  C   UNL A   1      39.876  28.320  28.086  1.00  0.00     0.031 C 
ATOM     45  C   UNL A   1      43.652  26.504  30.828  1.00  0.00     0.029 A 
ATOM     46  N   UNL A   1      42.236  27.907  31.846  1.00  0.00    -0.354 N 
ATOM     47  C   UNL A   1      38.962  29.708  29.653  1.00  0.00     0.074 A 
ATOM     48  C   UNL A   1      38.884  29.169  28.314  1.00  0.00     0.031 C 
ATOM     49  C   UNL A   1      44.047  26.623  32.108  1.00  0.00     0.029 A 
ATOM     50  C   UNL A   1      43.189  27.595  32.784  1.00  0.00     0.049 A 
ATOM     51  H   UNL A   1      41.451  28.470  32.038  1.00  0.00     0.167 HD
ATOM     52  C   UNL A   1      38.084  30.595  30.174  1.00  0.00     0.037 A 
ATOM     53  C   UNL A   1      43.373  28.084  34.027  1.00  0.00     0.037 A 
ATOM     54  C   UNL A   1      38.164  31.120  31.511  1.00  0.00     0.049 A 
ATOM     55  C   UNL A   1      42.419  29.124  34.559  1.00  0.00     0.074 A 
ATOM     56  C   UNL A   1      37.322  32.024  32.132  1.00  0.00     0.029 A 
ATOM     57  N   UNL A   1      39.147  30.786  32.430  1.00  0.00    -0.354 N 
ATOM     58  N   UNL A   1      41.373  29.663  33.982  1.00  0.00    -0.248 NA
ATOM     59  C   UNL A   1      42.677  29.630  35.916  1.00  0.00     0.031 C 
ATOM     60  C   UNL A   1      37.818  32.272  33.415  1.00  0.00     0.029 A 
ATOM     61  C   UNL A   1      38.938  31.479  33.610  1.00  0.00     0.049 A 
ATOM     62  H   UNL A   1      39.880  30.151  32.268  1.00  0.00     0.167 HD
ATOM     63  C   UNL A   1      40.837  30.551  34.907  1.00  0.00     0.074 A 
ATOM     64  C   UNL A   1      41.662  30.464  36.093  1.00  0.00     0.031 C 
ATOM     65  C   UNL A   1      39.763  31.368  34.786  1.00  0.00     0.037 A 
BRANCH  52  66
ATOM     66  C   UNL A   1      36.975  31.088  29.297  1.00  0.00     0.064 A 
ATOM     67  C   UNL A   1      36.993  32.404  28.813  1.00  0.00     0.173 A 
ATOM     68  C   UNL A   1      35.855  30.294  29.013  1.00  0.00     0.173 A 
ATOM     69  F   UNL A   1      38.044  33.200  29.059  1.00  0.00    -0.203 F 
ATOM     70  C   UNL A   1      35.915  32.918  28.099  1.00  0.00     0.198 A 
ATOM     71  C   UNL A   1      34.788  30.806  28.279  1.00  0.00     0.198 A 
ATOM     72  F   UNL A   1      35.802  29.024  29.441  1.00  0.00    -0.203 F 
ATOM     73  F   UNL A   1      35.936  34.191  27.681  1.00  0.00    -0.200 F 
ATOM     74  C   UNL A   1      34.813  32.119  27.835  1.00  0.00     0.200 A 
ATOM     75  F   UNL A   1      33.731  30.028  28.007  1.00  0.00    -0.200 F 
ATOM     76  F   UNL A   1      33.773  32.618  27.153  1.00  0.00    -0.200 F 
ENDBRANCH  52  66
BRANCH  53  77
ATOM     77  C   UNL A   1      44.538  27.640  34.838  1.00  0.00     0.064 A 
ATOM     78  C   UNL A   1      44.449  26.529  35.690  1.00  0.00     0.173 A 
ATOM     79  C   UNL A   1      45.775  28.294  34.751  1.00  0.00     0.173 A 
ATOM     80  F   UNL A   1      43.290  25.861  35.806  1.00  0.00    -0.203 F 
ATOM     81  C   UNL A   1      45.547  26.096  36.430  1.00  0.00     0.198 A 
ATOM     82  C   UNL A   1      46.882  27.842  35.466  1.00  0.00     0.198 A 
ATOM     83  F   UNL A   1      45.920  29.343  33.927  1.00  0.00    -0.203 F 
ATOM     84  F   UNL A   1      45.428  25.043  37.251  1.00  0.00    -0.200 F 
ATOM     85  C   UNL A   1      46.766  26.746  36.310  1.00  0.00     0.200 A 
ATOM     86  F   UNL A   1      48.066  28.450  35.319  1.00  0.00    -0.200 F 
ATOM     87  F   UNL A   1      47.831  26.310  36.996  1.00  0.00    -0.200 F 
ENDBRANCH  53  77
BRANCH  65  88
ATOM     88  C   UNL A   1      39.389  32.208  35.972  1.00  0.00     0.064 A 
ATOM     89  C   UNL A   1      38.382  31.782  36.853  1.00  0.00     0.173 A 
ATOM     90  C   UNL A   1      39.974  33.462  36.200  1.00  0.00     0.173 A 
ATOM     91  F   UNL A   1      37.782  30.595  36.671  1.00  0.00    -0.203 F 
ATOM     92  C   UNL A   1      37.969  32.584  37.912  1.00  0.00     0.198 A 
ATOM     93  C   UNL A   1      39.579  34.249  37.279  1.00  0.00     0.198 A 
ATOM     94  F   UNL A   1      40.947  33.909  35.393  1.00  0.00    -0.203 F 
ATOM     95  F   UNL A   1      36.983  32.171  38.719  1.00  0.00    -0.200 F 
ATOM     96  C   UNL A   1      38.572  33.814  38.128  1.00  0.00     0.200 A 
ATOM     97  F   UNL A   1      40.181  35.426  37.502  1.00  0.00    -0.200 F 
ATOM     98  F   UNL A   1      38.184  34.580  39.157  1.00  0.00    -0.200 F 
ENDBRANCH  65  88
ENDBRANCH  39  40
ENDBRANCH  32  34
ENDBRANCH  31  32
ENDBRANCH  30  31
ENDBRANCH  29  30
ENDBRANCH  28  29
ENDBRANCH  27  28
ENDBRANCH   1  27
TORSDOF 20
ENDMDL
MODEL 3
REMARK VINA RESULT:     -11.0      4.121      8.191
REMARK SMILES O=C(Cc1ccn[nH]1)Nc1cc(C(=O)OCCOCCOCCOC(=O)c2ccc(-c3c4nc(c(-c5c(F)c(F)c(F)c(F)c5F)c5ccc([nH]5)c(-c5c(F)c(F)c(F)c(F)c5F)c5nc(c(-c6c(F)c(F)c(F)c(F)c6F)c6ccc3[nH]6)C=C5)C=C4)cc2)c(F)cc1F
REMARK SMILES IDX 19 1 18 2 17 3 16 4 15 5 13 6 14 7 12 8 10 9 11 10 93 11
REMARK SMILES IDX 92 12 94 13 90 14 91 15 9 16 1 17 2 18 3 20 4 21 5 22 8 23
REMARK SMILES IDX 6 24 7 25 20 27 21 28 22 29 23 30 24 31 25 32 26 33 27 34
REMARK SMILES IDX 28 35 89 36 29 37 88 38 30 39 31 40 32 41 82 42 33 43 87 44
REMARK SMILES IDX 81 45 83 46 34 47 86 48 80 49 79 50 35 52 67 53 47 54 66 55
REMARK SMILES IDX 48 56 51 57 65 58 84 59 49 60 50 61 64 63 85 64 52 65 36 66
REMARK SMILES IDX 37 67 45 68 38 69 39 70 43 71 46 72 40 73 41 74 44 75 42 76
REMARK SMILES IDX 68 77 69 78 77 79 70 80 71 81 75 82 78 83 72 84 73 85 76 86
REMARK SMILES IDX 74 87 53 88 54 89 62 90 55 91 56 92 60 93 63 94 57 95 58 96
REMARK SMILES IDX 61 97 59 98
REMARK H PARENT 9 19 8 26 83 51 51 62
REMARK Flexibility Score: inf
ROOT
ATOM      1  C   UNL A   1      34.135  21.124  25.769  1.00  0.00     0.188 C 
ENDROOT
BRANCH   1   2
ATOM      2  O   UNL A   1      32.906  21.708  25.380  1.00  0.00    -0.376 OA
BRANCH   2   3
ATOM      3  C   UNL A   1      32.184  21.200  24.267  1.00  0.00     0.202 C 
BRANCH   3   4
ATOM      4  C   UNL A   1      32.214  21.905  22.912  1.00  0.00     0.261 C 
BRANCH   4   5
ATOM      5  O   UNL A   1      31.736  23.256  22.954  1.00  0.00    -0.460 OA
BRANCH   5   6
ATOM      6  C   UNL A   1      32.620  24.191  22.535  1.00  0.00     0.341 C 
ATOM      7  O   UNL A   1      33.466  24.072  21.660  1.00  0.00    -0.246 OA
BRANCH   6   8
ATOM      8  C   UNL A   1      32.332  25.486  23.161  1.00  0.00     0.098 A 
ATOM      9  C   UNL A   1      30.838  27.371  23.391  1.00  0.00     0.078 A 
ATOM     10  C   UNL A   1      31.087  26.087  22.909  1.00  0.00     0.048 A 
ATOM     11  C   UNL A   1      31.842  28.039  24.103  1.00  0.00     0.149 A 
ATOM     12  C   UNL A   1      33.048  27.422  24.414  1.00  0.00     0.081 A 
ATOM     13  F   UNL A   1      31.620  29.292  24.531  1.00  0.00    -0.205 F 
ATOM     14  C   UNL A   1      33.289  26.139  23.938  1.00  0.00     0.140 A 
ATOM     15  F   UNL A   1      34.468  25.565  24.209  1.00  0.00    -0.206 F 
BRANCH   9  16
ATOM     16  N   UNL A   1      29.634  28.062  23.167  1.00  0.00    -0.323 N 
ATOM     17  O   UNL A   1      28.151  26.608  24.166  1.00  0.00    -0.274 OA
ATOM     18  C   UNL A   1      28.371  27.631  23.518  1.00  0.00     0.230 C 
ATOM     19  H   UNL A   1      29.698  28.935  22.718  1.00  0.00     0.170 HD
BRANCH  18  20
ATOM     20  C   UNL A   1      27.224  28.489  22.987  1.00  0.00     0.155 C 
BRANCH  20  21
ATOM     21  C   UNL A   1      27.584  29.910  22.676  1.00  0.00     0.044 A 
ATOM     22  C   UNL A   1      27.866  31.015  23.458  1.00  0.00     0.045 A 
ATOM     23  N   UNL A   1      27.822  30.321  21.387  1.00  0.00    -0.282 N 
ATOM     24  C   UNL A   1      28.216  32.032  22.552  1.00  0.00     0.135 A 
ATOM     25  N   UNL A   1      28.189  31.609  21.290  1.00  0.00    -0.184 NA
ATOM     26  H   UNL A   1      27.731  29.727  20.607  1.00  0.00     0.190 HD
ENDBRANCH  20  21
ENDBRANCH  18  20
ENDBRANCH   9  16
ENDBRANCH   6   8
ENDBRANCH   5   6
ENDBRANCH   4   5
ENDBRANCH   3   4
ENDBRANCH   2   3
ENDBRANCH   1   2
BRANCH   1  27
ATOM     27  C   UNL A   1      35.294  20.955  24.763  1.00  0.00     0.188 C 
BRANCH  27  28
ATOM     28  O   UNL A   1      36.380  20.091  25.030  1.00  0.00    -0.376 OA
BRANCH  28  29
ATOM     29  C   UNL A   1      37.699  20.609  25.091  1.00  0.00     0.202 C 
BRANCH  29  30
ATOM     30  C   UNL A   1      37.948  22.116  25.170  1.00  0.00     0.261 C 
BRANCH  30  31
ATOM     31  O   UNL A   1      38.376  22.568  26.460  1.00  0.00    -0.460 OA
BRANCH  31  32
ATOM     32  C   UNL A   1      39.675  22.949  26.527  1.00  0.00     0.338 C 
ATOM     33  O   UNL A   1      40.656  22.335  26.145  1.00  0.00    -0.246 OA
BRANCH  32  34
ATOM     34  C   UNL A   1      39.750  24.332  27.021  1.00  0.00     0.060 A 
ATOM     35  C   UNL A   1      40.404  25.290  26.237  1.00  0.00     0.016 A 
ATOM     36  C   UNL A   1      39.250  24.656  28.281  1.00  0.00     0.016 A 
ATOM     37  C   UNL A   1      40.581  26.582  26.723  1.00  0.00     0.010 A 
ATOM     38  C   UNL A   1      39.452  25.944  28.778  1.00  0.00     0.010 A 
ATOM     39  C   UNL A   1      40.142  26.902  28.013  1.00  0.00    -0.014 A 
BRANCH  39  40
ATOM     40  C   UNL A   1      40.547  28.177  28.645  1.00  0.00     0.031 A 
ATOM     41  C   UNL A   1      41.955  28.301  29.150  1.00  0.00     0.074 A 
ATOM     42  C   UNL A   1      39.677  29.190  28.790  1.00  0.00     0.049 A 
ATOM     43  N   UNL A   1      42.484  29.219  29.916  1.00  0.00    -0.248 NA
ATOM     44  C   UNL A   1      42.895  27.247  28.735  1.00  0.00     0.031 C 
ATOM     45  C   UNL A   1      38.313  29.214  28.270  1.00  0.00     0.029 A 
ATOM     46  N   UNL A   1      39.811  30.387  29.450  1.00  0.00    -0.354 N 
ATOM     47  C   UNL A   1      43.804  28.838  30.099  1.00  0.00     0.074 A 
ATOM     48  C   UNL A   1      44.006  27.612  29.359  1.00  0.00     0.031 C 
ATOM     49  C   UNL A   1      37.716  30.351  28.669  1.00  0.00     0.029 A 
ATOM     50  C   UNL A   1      38.643  31.107  29.511  1.00  0.00     0.049 A 
ATOM     51  H   UNL A   1      40.659  30.697  29.842  1.00  0.00     0.167 HD
ATOM     52  C   UNL A   1      44.759  29.455  30.832  1.00  0.00     0.037 A 
ATOM     53  C   UNL A   1      38.347  32.218  30.212  1.00  0.00     0.037 A 
ATOM     54  C   UNL A   1      44.552  30.680  31.559  1.00  0.00     0.049 A 
ATOM     55  C   UNL A   1      39.410  32.850  31.076  1.00  0.00     0.074 A 
ATOM     56  C   UNL A   1      45.457  31.385  32.331  1.00  0.00     0.029 A 
ATOM     57  N   UNL A   1      43.355  31.377  31.602  1.00  0.00    -0.354 N 
ATOM     58  N   UNL A   1      40.653  32.478  31.268  1.00  0.00    -0.248 NA
ATOM     59  C   UNL A   1      39.027  34.054  31.828  1.00  0.00     0.031 C 
ATOM     60  C   UNL A   1      44.796  32.488  32.878  1.00  0.00     0.029 A 
ATOM     61  C   UNL A   1      43.495  32.499  32.401  1.00  0.00     0.049 A 
ATOM     62  H   UNL A   1      42.530  31.114  31.134  1.00  0.00     0.167 HD
ATOM     63  C   UNL A   1      41.204  33.410  32.140  1.00  0.00     0.074 A 
ATOM     64  C   UNL A   1      40.166  34.377  32.426  1.00  0.00     0.031 C 
ATOM     65  C   UNL A   1      42.453  33.459  32.661  1.00  0.00     0.037 A 
BRANCH  52  66
ATOM     66  C   UNL A   1      46.108  28.813  30.918  1.00  0.00     0.064 A 
ATOM     67  C   UNL A   1      46.385  27.895  31.942  1.00  0.00     0.173 A 
ATOM     68  C   UNL A   1      47.150  29.172  30.052  1.00  0.00     0.173 A 
ATOM     69  F   UNL A   1      45.419  27.520  32.794  1.00  0.00    -0.203 F 
ATOM     70  C   UNL A   1      47.666  27.379  32.112  1.00  0.00     0.198 A 
ATOM     71  C   UNL A   1      48.426  28.636  30.213  1.00  0.00     0.198 A 
ATOM     72  F   UNL A   1      46.927  30.033  29.048  1.00  0.00    -0.203 F 
ATOM     73  F   UNL A   1      47.918  26.535  33.122  1.00  0.00    -0.200 F 
ATOM     74  C   UNL A   1      48.685  27.752  31.249  1.00  0.00     0.200 A 
ATOM     75  F   UNL A   1      49.406  28.982  29.367  1.00  0.00    -0.200 F 
ATOM     76  F   UNL A   1      49.920  27.260  31.419  1.00  0.00    -0.200 F 
ENDBRANCH  52  66
BRANCH  53  77
ATOM     77  C   UNL A   1      36.971  32.780  30.176  1.00  0.00     0.064 A 
ATOM     78  C   UNL A   1      36.044  32.499  31.191  1.00  0.00     0.173 A 
ATOM     79  C   UNL A   1      36.564  33.640  29.145  1.00  0.00     0.173 A 
ATOM     80  F   UNL A   1      36.383  31.688  32.205  1.00  0.00    -0.203 F 
ATOM     81  C   UNL A   1      34.763  33.047  31.171  1.00  0.00     0.198 A 
ATOM     82  C   UNL A   1      35.295  34.214  29.143  1.00  0.00     0.198 A 
ATOM     83  F   UNL A   1      37.424  33.964  28.168  1.00  0.00    -0.203 F 
ATOM     84  F   UNL A   1      33.892  32.746  32.144  1.00  0.00    -0.200 F 
ATOM     85  C   UNL A   1      34.393  33.913  30.153  1.00  0.00     0.200 A 
ATOM     86  F   UNL A   1      34.954  35.077  28.178  1.00  0.00    -0.200 F 
ATOM     87  F   UNL A   1      33.172  34.465  30.152  1.00  0.00    -0.200 F 
ENDBRANCH  53  77
BRANCH  65  88
ATOM     88  C   UNL A   1      42.787  34.609  33.565  1.00  0.00     0.064 A 
ATOM     89  C   UNL A   1      42.733  34.452  34.960  1.00  0.00     0.173 A 
ATOM     90  C   UNL A   1      43.091  35.880  33.059  1.00  0.00     0.173 A 
ATOM     91  F   UNL A   1      42.435  33.259  35.496  1.00  0.00    -0.203 F 
ATOM     92  C   UNL A   1      42.963  35.529  35.811  1.00  0.00     0.198 A 
ATOM     93  C   UNL A   1      43.351  36.948  33.914  1.00  0.00     0.198 A 
ATOM     94  F   UNL A   1      43.164  36.079  31.734  1.00  0.00    -0.203 F 
ATOM     95  F   UNL A   1      42.874  35.363  37.138  1.00  0.00    -0.200 F 
ATOM     96  C   UNL A   1      43.278  36.773  35.288  1.00  0.00     0.200 A 
ATOM     97  F   UNL A   1      43.681  38.144  33.408  1.00  0.00    -0.200 F 
ATOM     98  F   UNL A   1      43.514  37.806  36.110  1.00  0.00    -0.200 F 
ENDBRANCH  65  88
ENDBRANCH  39  40
ENDBRANCH  32  34
ENDBRANCH  31  32
ENDBRANCH  30  31
ENDBRANCH  29  30
ENDBRANCH  28  29
ENDBRANCH  27  28
ENDBRANCH   1  27
TORSDOF 20
ENDMDL
