MODEL 1
REMARK VINA RESULT:     -12.5      0.000      0.000
REMARK SMILES Cc1c(C[NH2+]C2CCCCC2)c(C(=O)OCCOCCOCCOC(=O)c2ccc(-c3c4nc(c(-c5c(F)c(F)c(F)c(F)c5F)c5ccc([nH]5)c(-c5c(F)c(F)c(F)c(F)c5F)c5nc(c(-c6c(F)c(F)c(F)c(F)c6F)c6ccc3[nH]6)C=C5)C=C4)cc2)c(C)n1Cc1ccccc1
REMARK SMILES IDX 19 1 18 2 17 3 16 4 15 5 13 6 14 7 12 8 1 9 2 10 3 11 92 12
REMARK SMILES IDX 90 13 91 14 4 15 5 16 6 19 7 20 11 21 8 22 10 23 9 24 93 25
REMARK SMILES IDX 94 26 95 27 99 28 96 29 98 30 97 31 20 32 21 33 22 34 23 35
REMARK SMILES IDX 24 36 25 37 26 38 27 39 28 40 89 41 29 42 88 43 30 44 31 45
REMARK SMILES IDX 32 46 82 47 33 48 87 49 81 50 83 51 34 52 86 53 80 54 79 55
REMARK SMILES IDX 35 57 67 58 47 59 66 60 48 61 51 62 65 63 84 64 49 65 50 66
REMARK SMILES IDX 64 68 85 69 52 70 36 71 37 72 45 73 38 74 39 75 43 76 46 77
REMARK SMILES IDX 40 78 41 79 44 80 42 81 68 82 69 83 77 84 70 85 71 86 75 87
REMARK SMILES IDX 78 88 72 89 73 90 76 91 74 92 53 93 54 94 62 95 55 96 56 97
REMARK SMILES IDX 60 98 63 99 57 100 58 101 61 102 59 103
REMARK H PARENT 5 17 5 18 83 56 51 67
REMARK Flexibility Score: inf
ROOT
ATOM      1  C   UNL A   1      37.773  23.700  25.820  1.00  0.00     0.188 C 
ENDROOT
BRANCH   1   2
ATOM      2  O   UNL A   1      36.561  24.428  25.730  1.00  0.00    -0.376 OA
BRANCH   2   3
ATOM      3  C   UNL A   1      35.269  23.843  25.755  1.00  0.00     0.202 C 
BRANCH   3   4
ATOM      4  C   UNL A   1      33.965  24.643  25.773  1.00  0.00     0.261 C 
BRANCH   4   5
ATOM      5  O   UNL A   1      34.033  25.845  25.023  1.00  0.00    -0.460 OA
BRANCH   5   6
ATOM      6  C   UNL A   1      33.331  26.906  25.535  1.00  0.00     0.340 C 
ATOM      7  O   UNL A   1      33.655  27.567  26.501  1.00  0.00    -0.246 OA
BRANCH   6   8
ATOM      8  C   UNL A   1      32.109  27.104  24.762  1.00  0.00     0.089 A 
ATOM      9  C   UNL A   1      28.573  26.779  23.634  1.00  0.00     0.065 C 
ATOM     10  C   UNL A   1      30.000  27.085  23.956  1.00  0.00     0.025 A 
ATOM     11  C   UNL A   1      30.796  26.567  24.981  1.00  0.00     0.042 A 
ATOM     12  N   UNL A   1      30.746  28.011  23.234  1.00  0.00    -0.343 N 
ATOM     13  C   UNL A   1      32.061  27.929  23.646  1.00  0.00     0.030 A 
ATOM     14  C   UNL A   1      33.214  28.641  23.011  1.00  0.00     0.065 C 
BRANCH  11  15
ATOM     15  C   UNL A   1      30.309  25.690  26.119  1.00  0.00     0.300 C 
BRANCH  15  16
ATOM     16  N   UNL A   1      29.979  24.355  25.663  1.00  0.00    -0.340 N 
ATOM     17  H   UNL A   1      29.296  24.454  24.911  1.00  0.00     0.346 HD
ATOM     18  H   UNL A   1      29.655  23.876  26.503  1.00  0.00     0.346 HD
BRANCH  16  19
ATOM     19  C   UNL A   1      31.063  23.501  25.155  1.00  0.00     0.182 C 
ATOM     20  C   UNL A   1      31.180  22.084  25.755  1.00  0.00     0.065 C 
ATOM     21  C   UNL A   1      31.009  23.433  23.616  1.00  0.00     0.065 C 
ATOM     22  C   UNL A   1      32.348  21.297  25.153  1.00  0.00     0.006 C 
ATOM     23  C   UNL A   1      32.176  22.635  23.031  1.00  0.00     0.006 C 
ATOM     24  C   UNL A   1      32.264  21.238  23.632  1.00  0.00     0.000 C 
ENDBRANCH  16  19
ENDBRANCH  15  16
ENDBRANCH  11  15
BRANCH  12  25
ATOM     25  C   UNL A   1      30.255  28.790  22.087  1.00  0.00     0.157 C 
BRANCH  25  26
ATOM     26  C   UNL A   1      29.504  30.071  22.402  1.00  0.00    -0.028 A 
ATOM     27  C   UNL A   1      28.890  30.782  21.356  1.00  0.00     0.005 A 
ATOM     28  C   UNL A   1      29.523  30.680  23.666  1.00  0.00     0.005 A 
ATOM     29  C   UNL A   1      28.343  32.054  21.564  1.00  0.00     0.000 A 
ATOM     30  C   UNL A   1      28.987  31.954  23.876  1.00  0.00     0.000 A 
ATOM     31  C   UNL A   1      28.403  32.646  22.822  1.00  0.00     0.000 A 
ENDBRANCH  25  26
ENDBRANCH  12  25
ENDBRANCH   6   8
ENDBRANCH   5   6
ENDBRANCH   4   5
ENDBRANCH   3   4
ENDBRANCH   2   3
ENDBRANCH   1   2
BRANCH   1  32
ATOM     32  C   UNL A   1      37.856  22.190  25.502  1.00  0.00     0.188 C 
BRANCH  32  33
ATOM     33  O   UNL A   1      38.766  21.368  26.204  1.00  0.00    -0.376 OA
BRANCH  33  34
ATOM     34  C   UNL A   1      40.138  21.673  26.068  1.00  0.00     0.202 C 
BRANCH  34  35
ATOM     35  C   UNL A   1      40.812  22.850  26.880  1.00  0.00     0.261 C 
BRANCH  35  36
ATOM     36  O   UNL A   1      41.587  24.029  26.349  1.00  0.00    -0.460 OA
BRANCH  36  37
ATOM     37  C   UNL A   1      41.046  25.328  26.402  1.00  0.00     0.338 C 
ATOM     38  O   UNL A   1      40.769  25.935  25.375  1.00  0.00    -0.246 OA
BRANCH  37  39
ATOM     39  C   UNL A   1      40.874  26.062  27.823  1.00  0.00     0.060 A 
ATOM     40  C   UNL A   1      39.693  26.387  28.584  1.00  0.00     0.016 A 
ATOM     41  C   UNL A   1      41.938  26.606  28.457  1.00  0.00     0.016 A 
ATOM     42  C   UNL A   1      39.577  27.227  29.964  1.00  0.00     0.010 A 
ATOM     43  C   UNL A   1      41.770  27.354  29.744  1.00  0.00     0.010 A 
ATOM     44  C   UNL A   1      40.652  27.833  30.662  1.00  0.00    -0.014 A 
BRANCH  44  45
ATOM     45  C   UNL A   1      40.814  28.501  32.429  1.00  0.00     0.031 A 
ATOM     46  C   UNL A   1      42.283  28.890  32.598  1.00  0.00     0.074 A 
ATOM     47  C   UNL A   1      40.197  29.294  33.609  1.00  0.00     0.049 A 
ATOM     48  N   UNL A   1      42.560  30.176  32.557  1.00  0.00    -0.248 NA
ATOM     49  C   UNL A   1      43.173  28.200  31.675  1.00  0.00     0.031 C 
ATOM     50  C   UNL A   1      38.786  29.724  33.902  1.00  0.00     0.029 A 
ATOM     51  N   UNL A   1      40.797  30.077  34.858  1.00  0.00    -0.354 N 
ATOM     52  C   UNL A   1      42.337  30.341  31.176  1.00  0.00     0.074 A 
ATOM     53  C   UNL A   1      43.116  29.154  30.726  1.00  0.00     0.031 C 
ATOM     54  C   UNL A   1      38.655  30.646  34.908  1.00  0.00     0.029 A 
ATOM     55  C   UNL A   1      39.925  31.042  35.589  1.00  0.00     0.049 A 
ATOM     56  H   UNL A   1      41.727  29.926  35.143  1.00  0.00     0.167 HD
ATOM     57  C   UNL A   1      41.100  30.972  30.931  1.00  0.00     0.037 A 
ATOM     58  C   UNL A   1      39.842  32.097  36.611  1.00  0.00     0.037 A 
ATOM     59  C   UNL A   1      41.347  32.287  31.334  1.00  0.00     0.049 A 
ATOM     60  C   UNL A   1      40.025  33.159  35.568  1.00  0.00     0.074 A 
ATOM     61  C   UNL A   1      42.415  33.141  31.412  1.00  0.00     0.029 A 
ATOM     62  N   UNL A   1      40.389  32.772  32.114  1.00  0.00    -0.354 N 
ATOM     63  N   UNL A   1      39.062  33.897  35.096  1.00  0.00    -0.248 NA
ATOM     64  C   UNL A   1      41.418  33.631  35.324  1.00  0.00     0.031 C 
ATOM     65  C   UNL A   1      41.904  34.297  32.037  1.00  0.00     0.029 A 
ATOM     66  C   UNL A   1      40.528  34.111  32.225  1.00  0.00     0.049 A 
ATOM     67  H   UNL A   1      39.686  32.236  32.548  1.00  0.00     0.167 HD
ATOM     68  C   UNL A   1      39.742  34.763  34.260  1.00  0.00     0.074 A 
ATOM     69  C   UNL A   1      41.131  34.779  34.710  1.00  0.00     0.031 C 
ATOM     70  C   UNL A   1      39.424  34.674  32.944  1.00  0.00     0.037 A 
BRANCH  57  71
ATOM     71  C   UNL A   1      39.523  30.709  30.299  1.00  0.00     0.064 A 
ATOM     72  C   UNL A   1      38.218  30.822  30.921  1.00  0.00     0.173 A 
ATOM     73  C   UNL A   1      39.399  30.232  28.982  1.00  0.00     0.173 A 
ATOM     74  F   UNL A   1      37.995  31.339  32.123  1.00  0.00    -0.203 F 
ATOM     75  C   UNL A   1      37.016  30.309  30.409  1.00  0.00     0.198 A 
ATOM     76  C   UNL A   1      38.169  29.777  28.434  1.00  0.00     0.198 A 
ATOM     77  F   UNL A   1      40.479  30.160  28.196  1.00  0.00    -0.203 F 
ATOM     78  F   UNL A   1      35.906  30.321  31.170  1.00  0.00    -0.200 F 
ATOM     79  C   UNL A   1      36.996  29.756  29.167  1.00  0.00     0.200 A 
ATOM     80  F   UNL A   1      38.136  29.320  27.175  1.00  0.00    -0.200 F 
ATOM     81  F   UNL A   1      35.866  29.217  28.687  1.00  0.00    -0.200 F 
ENDBRANCH  57  71
BRANCH  58  82
ATOM     82  C   UNL A   1      40.137  33.213  37.946  1.00  0.00     0.064 A 
ATOM     83  C   UNL A   1      41.140  33.037  38.926  1.00  0.00     0.173 A 
ATOM     84  C   UNL A   1      39.227  34.241  38.482  1.00  0.00     0.173 A 
ATOM     85  F   UNL A   1      41.927  31.955  38.881  1.00  0.00    -0.203 F 
ATOM     86  C   UNL A   1      41.296  33.893  40.101  1.00  0.00     0.198 A 
ATOM     87  C   UNL A   1      39.453  35.184  39.512  1.00  0.00     0.198 A 
ATOM     88  F   UNL A   1      37.911  34.209  38.286  1.00  0.00    -0.203 F 
ATOM     89  F   UNL A   1      42.195  33.578  41.048  1.00  0.00    -0.200 F 
ATOM     90  C   UNL A   1      40.503  35.005  40.345  1.00  0.00     0.200 A 
ATOM     91  F   UNL A   1      38.524  36.121  39.780  1.00  0.00    -0.200 F 
ATOM     92  F   UNL A   1      40.647  35.788  41.427  1.00  0.00    -0.200 F 
ENDBRANCH  58  82
BRANCH  70  93
ATOM     93  C   UNL A   1      37.951  34.342  32.739  1.00  0.00     0.064 A 
ATOM     94  C   UNL A   1      37.502  34.194  31.425  1.00  0.00     0.173 A 
ATOM     95  C   UNL A   1      36.937  34.400  33.723  1.00  0.00     0.173 A 
ATOM     96  F   UNL A   1      38.390  34.153  30.421  1.00  0.00    -0.203 F 
ATOM     97  C   UNL A   1      36.138  34.139  31.121  1.00  0.00     0.198 A 
ATOM     98  C   UNL A   1      35.582  34.341  33.426  1.00  0.00     0.198 A 
ATOM     99  F   UNL A   1      37.209  34.593  35.013  1.00  0.00    -0.203 F 
ATOM    100  F   UNL A   1      35.751  34.030  29.844  1.00  0.00    -0.200 F 
ATOM    101  C   UNL A   1      35.179  34.222  32.119  1.00  0.00     0.200 A 
ATOM    102  F   UNL A   1      34.684  34.438  34.419  1.00  0.00    -0.200 F 
ATOM    103  F   UNL A   1      33.874  34.199  31.823  1.00  0.00    -0.200 F 
ENDBRANCH  70  93
ENDBRANCH  44  45
ENDBRANCH  37  39
ENDBRANCH  36  37
ENDBRANCH  35  36
ENDBRANCH  34  35
ENDBRANCH  33  34
ENDBRANCH  32  33
ENDBRANCH   1  32
TORSDOF 22
ENDMDL
MODEL 2
REMARK VINA RESULT:     -12.5      3.951      7.570
REMARK SMILES Cc1c(C[NH2+]C2CCCCC2)c(C(=O)OCCOCCOCCOC(=O)c2ccc(-c3c4nc(c(-c5c(F)c(F)c(F)c(F)c5F)c5ccc([nH]5)c(-c5c(F)c(F)c(F)c(F)c5F)c5nc(c(-c6c(F)c(F)c(F)c(F)c6F)c6ccc3[nH]6)C=C5)C=C4)cc2)c(C)n1Cc1ccccc1
REMARK SMILES IDX 19 1 18 2 17 3 16 4 15 5 13 6 14 7 12 8 1 9 2 10 3 11 92 12
REMARK SMILES IDX 90 13 91 14 4 15 5 16 6 19 7 20 11 21 8 22 10 23 9 24 93 25
REMARK SMILES IDX 94 26 95 27 99 28 96 29 98 30 97 31 20 32 21 33 22 34 23 35
REMARK SMILES IDX 24 36 25 37 26 38 27 39 28 40 89 41 29 42 88 43 30 44 31 45
REMARK SMILES IDX 32 46 82 47 33 48 87 49 81 50 83 51 34 52 86 53 80 54 79 55
REMARK SMILES IDX 35 57 67 58 47 59 66 60 48 61 51 62 65 63 84 64 49 65 50 66
REMARK SMILES IDX 64 68 85 69 52 70 36 71 37 72 45 73 38 74 39 75 43 76 46 77
REMARK SMILES IDX 40 78 41 79 44 80 42 81 68 82 69 83 77 84 70 85 71 86 75 87
REMARK SMILES IDX 78 88 72 89 73 90 76 91 74 92 53 93 54 94 62 95 55 96 56 97
REMARK SMILES IDX 60 98 63 99 57 100 58 101 61 102 59 103
REMARK H PARENT 5 17 5 18 83 56 51 67
REMARK Flexibility Score: inf
ROOT
ATOM      1  C   UNL A   1      39.698  20.101  25.832  1.00  0.00     0.188 C 
ENDROOT
BRANCH   1   2
ATOM      2  O   UNL A   1      39.297  21.456  25.923  1.00  0.00    -0.376 OA
BRANCH   2   3
ATOM      3  C   UNL A   1      38.014  21.940  25.560  1.00  0.00     0.202 C 
BRANCH   3   4
ATOM      4  C   UNL A   1      37.753  23.338  24.995  1.00  0.00     0.261 C 
BRANCH   4   5
ATOM      5  O   UNL A   1      36.375  23.672  24.936  1.00  0.00    -0.460 OA
BRANCH   5   6
ATOM      6  C   UNL A   1      35.702  23.226  23.827  1.00  0.00     0.340 C 
ATOM      7  O   UNL A   1      36.205  22.969  22.753  1.00  0.00    -0.246 OA
BRANCH   6   8
ATOM      8  C   UNL A   1      34.276  23.140  24.121  1.00  0.00     0.089 A 
ATOM      9  C   UNL A   1      31.045  21.933  25.533  1.00  0.00     0.065 C 
ATOM     10  C   UNL A   1      32.231  22.599  24.914  1.00  0.00     0.025 A 
ATOM     11  C   UNL A   1      33.579  22.237  24.993  1.00  0.00     0.042 A 
ATOM     12  N   UNL A   1      32.123  23.758  24.151  1.00  0.00    -0.343 N 
ATOM     13  C   UNL A   1      33.348  24.014  23.569  1.00  0.00     0.030 A 
ATOM     14  C   UNL A   1      33.618  25.075  22.548  1.00  0.00     0.065 C 
BRANCH  11  15
ATOM     15  C   UNL A   1      34.152  21.161  25.896  1.00  0.00     0.300 C 
BRANCH  15  16
ATOM     16  N   UNL A   1      34.885  20.165  25.142  1.00  0.00    -0.340 N 
ATOM     17  H   UNL A   1      35.622  19.808  25.750  1.00  0.00     0.346 HD
ATOM     18  H   UNL A   1      35.195  20.661  24.306  1.00  0.00     0.346 HD
BRANCH  16  19
ATOM     19  C   UNL A   1      34.151  19.002  24.620  1.00  0.00     0.182 C 
ATOM     20  C   UNL A   1      34.981  17.755  24.252  1.00  0.00     0.065 C 
ATOM     21  C   UNL A   1      33.005  18.624  25.579  1.00  0.00     0.065 C 
ATOM     22  C   UNL A   1      34.107  16.619  23.714  1.00  0.00     0.006 C 
ATOM     23  C   UNL A   1      32.147  17.481  25.032  1.00  0.00     0.006 C 
ATOM     24  C   UNL A   1      32.989  16.260  24.685  1.00  0.00     0.000 C 
ENDBRANCH  16  19
ENDBRANCH  15  16
ENDBRANCH  11  15
BRANCH  12  25
ATOM     25  C   UNL A   1      30.869  24.466  23.853  1.00  0.00     0.157 C 
BRANCH  25  26
ATOM     26  C   UNL A   1      30.816  25.942  24.207  1.00  0.00    -0.028 A 
ATOM     27  C   UNL A   1      30.433  26.870  23.223  1.00  0.00     0.005 A 
ATOM     28  C   UNL A   1      31.288  26.456  25.424  1.00  0.00     0.005 A 
ATOM     29  C   UNL A   1      30.541  28.249  23.443  1.00  0.00     0.000 A 
ATOM     30  C   UNL A   1      31.407  27.832  25.644  1.00  0.00     0.000 A 
ATOM     31  C   UNL A   1      31.041  28.730  24.649  1.00  0.00     0.000 A 
ENDBRANCH  25  26
ENDBRANCH  12  25
ENDBRANCH   6   8
ENDBRANCH   5   6
ENDBRANCH   4   5
ENDBRANCH   3   4
ENDBRANCH   2   3
ENDBRANCH   1   2
BRANCH   1  32
ATOM     32  C   UNL A   1      41.075  19.610  26.334  1.00  0.00     0.188 C 
BRANCH  32  33
ATOM     33  O   UNL A   1      42.030  19.122  25.415  1.00  0.00    -0.376 OA
BRANCH  33  34
ATOM     34  C   UNL A   1      42.979  18.199  25.908  1.00  0.00     0.202 C 
BRANCH  34  35
ATOM     35  C   UNL A   1      44.523  18.359  25.613  1.00  0.00     0.261 C 
BRANCH  35  36
ATOM     36  O   UNL A   1      45.187  19.042  24.443  1.00  0.00    -0.460 OA
BRANCH  36  37
ATOM     37  C   UNL A   1      45.736  20.330  24.579  1.00  0.00     0.338 C 
ATOM     38  O   UNL A   1      46.942  20.515  24.469  1.00  0.00    -0.246 OA
BRANCH  37  39
ATOM     39  C   UNL A   1      44.783  21.565  24.973  1.00  0.00     0.060 A 
ATOM     40  C   UNL A   1      44.561  22.835  24.325  1.00  0.00     0.016 A 
ATOM     41  C   UNL A   1      44.105  21.574  26.144  1.00  0.00     0.016 A 
ATOM     42  C   UNL A   1      43.666  24.087  24.831  1.00  0.00     0.010 A 
ATOM     43  C   UNL A   1      43.275  22.754  26.546  1.00  0.00     0.010 A 
ATOM     44  C   UNL A   1      42.951  24.158  26.052  1.00  0.00    -0.014 A 
BRANCH  44  45
ATOM     45  C   UNL A   1      41.571  25.307  26.660  1.00  0.00     0.031 A 
ATOM     46  C   UNL A   1      40.987  24.641  27.906  1.00  0.00     0.074 A 
ATOM     47  C   UNL A   1      41.036  26.748  26.861  1.00  0.00     0.049 A 
ATOM     48  N   UNL A   1      41.327  25.160  29.066  1.00  0.00    -0.248 NA
ATOM     49  C   UNL A   1      41.226  23.205  27.958  1.00  0.00     0.031 C 
ATOM     50  C   UNL A   1      41.458  28.067  26.276  1.00  0.00     0.029 A 
ATOM     51  N   UNL A   1      39.973  27.414  27.841  1.00  0.00    -0.354 N 
ATOM     52  C   UNL A   1      42.662  24.712  29.053  1.00  0.00     0.074 A 
ATOM     53  C   UNL A   1      42.376  23.306  28.653  1.00  0.00     0.031 C 
ATOM     54  C   UNL A   1      40.931  29.174  26.890  1.00  0.00     0.029 A 
ATOM     55  C   UNL A   1      39.981  28.896  28.011  1.00  0.00     0.049 A 
ATOM     56  H   UNL A   1      39.323  26.857  28.327  1.00  0.00     0.167 HD
ATOM     57  C   UNL A   1      43.549  25.762  28.735  1.00  0.00     0.037 A 
ATOM     58  C   UNL A   1      39.464  30.054  28.758  1.00  0.00     0.037 A 
ATOM     59  C   UNL A   1      43.526  26.539  29.897  1.00  0.00     0.049 A 
ATOM     60  C   UNL A   1      40.638  30.011  29.691  1.00  0.00     0.074 A 
ATOM     61  C   UNL A   1      43.323  26.353  31.239  1.00  0.00     0.029 A 
ATOM     62  N   UNL A   1      43.369  27.832  29.644  1.00  0.00    -0.354 N 
ATOM     63  N   UNL A   1      41.651  30.826  29.632  1.00  0.00    -0.248 NA
ATOM     64  C   UNL A   1      40.468  29.235  30.952  1.00  0.00     0.031 C 
ATOM     65  C   UNL A   1      43.345  27.651  31.787  1.00  0.00     0.029 A 
ATOM     66  C   UNL A   1      43.648  28.548  30.756  1.00  0.00     0.049 A 
ATOM     67  H   UNL A   1      43.091  28.211  28.779  1.00  0.00     0.167 HD
ATOM     68  C   UNL A   1      42.393  30.448  30.736  1.00  0.00     0.074 A 
ATOM     69  C   UNL A   1      41.476  29.763  31.645  1.00  0.00     0.031 C 
ATOM     70  C   UNL A   1      43.627  29.952  30.468  1.00  0.00     0.037 A 
BRANCH  57  71
ATOM     71  C   UNL A   1      44.616  26.340  27.517  1.00  0.00     0.064 A 
ATOM     72  C   UNL A   1      44.595  27.562  26.736  1.00  0.00     0.173 A 
ATOM     73  C   UNL A   1      45.673  25.511  27.102  1.00  0.00     0.173 A 
ATOM     74  F   UNL A   1      43.780  28.587  26.958  1.00  0.00    -0.203 F 
ATOM     75  C   UNL A   1      45.340  27.807  25.573  1.00  0.00     0.198 A 
ATOM     76  C   UNL A   1      46.478  25.790  25.964  1.00  0.00     0.198 A 
ATOM     77  F   UNL A   1      45.934  24.381  27.771  1.00  0.00    -0.203 F 
ATOM     78  F   UNL A   1      45.093  28.908  24.840  1.00  0.00    -0.200 F 
ATOM     79  C   UNL A   1      46.270  26.901  25.167  1.00  0.00     0.200 A 
ATOM     80  F   UNL A   1      47.455  24.941  25.623  1.00  0.00    -0.200 F 
ATOM     81  F   UNL A   1      46.952  27.098  24.030  1.00  0.00    -0.200 F 
ENDBRANCH  57  71
BRANCH  58  82
ATOM     82  C   UNL A   1      38.551  31.151  29.795  1.00  0.00     0.064 A 
ATOM     83  C   UNL A   1      37.242  30.899  30.266  1.00  0.00     0.173 A 
ATOM     84  C   UNL A   1      38.791  32.587  30.025  1.00  0.00     0.173 A 
ATOM     85  F   UNL A   1      36.615  29.771  29.909  1.00  0.00    -0.203 F 
ATOM     86  C   UNL A   1      36.441  31.865  31.016  1.00  0.00     0.198 A 
ATOM     87  C   UNL A   1      38.112  33.479  30.888  1.00  0.00     0.198 A 
ATOM     88  F   UNL A   1      39.494  33.342  29.184  1.00  0.00    -0.203 F 
ATOM     89  F   UNL A   1      35.161  31.591  31.314  1.00  0.00    -0.200 F 
ATOM     90  C   UNL A   1      36.910  33.117  31.389  1.00  0.00     0.200 A 
ATOM     91  F   UNL A   1      38.562  34.739  31.039  1.00  0.00    -0.200 F 
ATOM     92  F   UNL A   1      36.170  34.005  32.075  1.00  0.00    -0.200 F 
ENDBRANCH  58  82
BRANCH  70  93
ATOM     93  C   UNL A   1      44.262  30.636  29.263  1.00  0.00     0.064 A 
ATOM     94  C   UNL A   1      45.460  30.106  28.781  1.00  0.00     0.173 A 
ATOM     95  C   UNL A   1      43.892  31.890  28.725  1.00  0.00     0.173 A 
ATOM     96  F   UNL A   1      45.903  28.931  29.251  1.00  0.00    -0.203 F 
ATOM     97  C   UNL A   1      46.243  30.798  27.852  1.00  0.00     0.198 A 
ATOM     98  C   UNL A   1      44.665  32.580  27.799  1.00  0.00     0.198 A 
ATOM     99  F   UNL A   1      42.804  32.545  29.128  1.00  0.00    -0.203 F 
ATOM    100  F   UNL A   1      47.403  30.269  27.441  1.00  0.00    -0.200 F 
ATOM    101  C   UNL A   1      45.851  32.038  27.369  1.00  0.00     0.200 A 
ATOM    102  F   UNL A   1      44.258  33.783  27.365  1.00  0.00    -0.200 F 
ATOM    103  F   UNL A   1      46.617  32.712  26.503  1.00  0.00    -0.200 F 
ENDBRANCH  70  93
ENDBRANCH  44  45
ENDBRANCH  37  39
ENDBRANCH  36  37
ENDBRANCH  35  36
ENDBRANCH  34  35
ENDBRANCH  33  34
ENDBRANCH  32  33
ENDBRANCH   1  32
TORSDOF 22
ENDMDL
MODEL 3
REMARK VINA RESULT:     -12.3      4.030      8.450
REMARK SMILES Cc1c(C[NH2+]C2CCCCC2)c(C(=O)OCCOCCOCCOC(=O)c2ccc(-c3c4nc(c(-c5c(F)c(F)c(F)c(F)c5F)c5ccc([nH]5)c(-c5c(F)c(F)c(F)c(F)c5F)c5nc(c(-c6c(F)c(F)c(F)c(F)c6F)c6ccc3[nH]6)C=C5)C=C4)cc2)c(C)n1Cc1ccccc1
REMARK SMILES IDX 19 1 18 2 17 3 16 4 15 5 13 6 14 7 12 8 1 9 2 10 3 11 92 12
REMARK SMILES IDX 90 13 91 14 4 15 5 16 6 19 7 20 11 21 8 22 10 23 9 24 93 25
REMARK SMILES IDX 94 26 95 27 99 28 96 29 98 30 97 31 20 32 21 33 22 34 23 35
REMARK SMILES IDX 24 36 25 37 26 38 27 39 28 40 89 41 29 42 88 43 30 44 31 45
REMARK SMILES IDX 32 46 82 47 33 48 87 49 81 50 83 51 34 52 86 53 80 54 79 55
REMARK SMILES IDX 35 57 67 58 47 59 66 60 48 61 51 62 65 63 84 64 49 65 50 66
REMARK SMILES IDX 64 68 85 69 52 70 36 71 37 72 45 73 38 74 39 75 43 76 46 77
REMARK SMILES IDX 40 78 41 79 44 80 42 81 68 82 69 83 77 84 70 85 71 86 75 87
REMARK SMILES IDX 78 88 72 89 73 90 76 91 74 92 53 93 54 94 62 95 55 96 56 97
REMARK SMILES IDX 60 98 63 99 57 100 58 101 61 102 59 103
REMARK H PARENT 5 17 5 18 83 56 51 67
REMARK Flexibility Score: inf
ROOT
ATOM      1  C   UNL A   1      39.891  20.099  25.867  1.00  0.00     0.188 C 
ENDROOT
BRANCH   1   2
ATOM      2  O   UNL A   1      39.634  21.487  25.752  1.00  0.00    -0.376 OA
BRANCH   2   3
ATOM      3  C   UNL A   1      38.380  22.096  26.012  1.00  0.00     0.202 C 
BRANCH   3   4
ATOM      4  C   UNL A   1      37.985  23.491  25.521  1.00  0.00     0.261 C 
BRANCH   4   5
ATOM      5  O   UNL A   1      36.608  23.604  25.197  1.00  0.00    -0.460 OA
BRANCH   5   6
ATOM      6  C   UNL A   1      36.242  23.099  23.976  1.00  0.00     0.340 C 
ATOM      7  O   UNL A   1      36.950  23.050  22.991  1.00  0.00    -0.246 OA
BRANCH   6   8
ATOM      8  C   UNL A   1      34.852  22.656  24.025  1.00  0.00     0.089 A 
ATOM      9  C   UNL A   1      31.174  22.553  23.442  1.00  0.00     0.065 C 
ATOM     10  C   UNL A   1      32.628  22.389  23.748  1.00  0.00     0.025 A 
ATOM     11  C   UNL A   1      33.699  23.200  23.366  1.00  0.00     0.042 A 
ATOM     12  N   UNL A   1      33.119  21.313  24.482  1.00  0.00    -0.343 N 
ATOM     13  C   UNL A   1      34.452  21.543  24.754  1.00  0.00     0.030 A 
ATOM     14  C   UNL A   1      35.309  20.709  25.654  1.00  0.00     0.065 C 
BRANCH  11  15
ATOM     15  C   UNL A   1      33.627  24.354  22.384  1.00  0.00     0.300 C 
BRANCH  15  16
ATOM     16  N   UNL A   1      33.782  25.632  23.050  1.00  0.00    -0.340 N 
ATOM     17  H   UNL A   1      34.164  26.285  22.365  1.00  0.00     0.346 HD
ATOM     18  H   UNL A   1      34.377  25.427  23.853  1.00  0.00     0.346 HD
BRANCH  16  19
ATOM     19  C   UNL A   1      32.591  26.265  23.636  1.00  0.00     0.182 C 
ATOM     20  C   UNL A   1      31.260  26.099  22.875  1.00  0.00     0.065 C 
ATOM     21  C   UNL A   1      32.430  25.834  25.107  1.00  0.00     0.065 C 
ATOM     22  C   UNL A   1      30.100  26.808  23.579  1.00  0.00     0.006 C 
ATOM     23  C   UNL A   1      31.261  26.543  25.793  1.00  0.00     0.006 C 
ATOM     24  C   UNL A   1      29.958  26.356  25.027  1.00  0.00     0.000 C 
ENDBRANCH  16  19
ENDBRANCH  15  16
ENDBRANCH  11  15
BRANCH  12  25
ATOM     25  C   UNL A   1      32.305  20.225  25.045  1.00  0.00     0.157 C 
BRANCH  25  26
ATOM     26  C   UNL A   1      32.653  18.814  24.605  1.00  0.00    -0.028 A 
ATOM     27  C   UNL A   1      32.510  17.755  25.520  1.00  0.00     0.005 A 
ATOM     28  C   UNL A   1      33.269  18.523  23.378  1.00  0.00     0.005 A 
ATOM     29  C   UNL A   1      32.985  16.472  25.224  1.00  0.00     0.000 A 
ATOM     30  C   UNL A   1      33.752  17.244  23.084  1.00  0.00     0.000 A 
ATOM     31  C   UNL A   1      33.618  16.219  24.012  1.00  0.00     0.000 A 
ENDBRANCH  25  26
ENDBRANCH  12  25
ENDBRANCH   6   8
ENDBRANCH   5   6
ENDBRANCH   4   5
ENDBRANCH   3   4
ENDBRANCH   2   3
ENDBRANCH   1   2
BRANCH   1  32
ATOM     32  C   UNL A   1      41.222  19.548  26.428  1.00  0.00     0.188 C 
BRANCH  32  33
ATOM     33  O   UNL A   1      42.160  18.948  25.559  1.00  0.00    -0.376 OA
BRANCH  33  34
ATOM     34  C   UNL A   1      43.128  18.104  26.148  1.00  0.00     0.202 C 
BRANCH  34  35
ATOM     35  C   UNL A   1      44.656  18.195  25.759  1.00  0.00     0.261 C 
BRANCH  35  36
ATOM     36  O   UNL A   1      45.274  18.814  24.530  1.00  0.00    -0.460 OA
BRANCH  36  37
ATOM     37  C   UNL A   1      45.789  20.123  24.565  1.00  0.00     0.338 C 
ATOM     38  O   UNL A   1      46.978  20.337  24.364  1.00  0.00    -0.246 OA
BRANCH  37  39
ATOM     39  C   UNL A   1      44.825  21.348  24.965  1.00  0.00     0.060 A 
ATOM     40  C   UNL A   1      44.491  22.560  24.257  1.00  0.00     0.016 A 
ATOM     41  C   UNL A   1      44.259  21.416  26.192  1.00  0.00     0.016 A 
ATOM     42  C   UNL A   1      43.595  23.812  24.760  1.00  0.00     0.010 A 
ATOM     43  C   UNL A   1      43.421  22.591  26.591  1.00  0.00     0.010 A 
ATOM     44  C   UNL A   1      42.993  23.944  26.037  1.00  0.00    -0.014 A 
BRANCH  44  45
ATOM     45  C   UNL A   1      41.629  25.084  26.695  1.00  0.00     0.031 A 
ATOM     46  C   UNL A   1      41.103  24.418  27.967  1.00  0.00     0.074 A 
ATOM     47  C   UNL A   1      41.090  26.520  26.911  1.00  0.00     0.049 A 
ATOM     48  N   UNL A   1      41.485  24.946  29.110  1.00  0.00    -0.248 NA
ATOM     49  C   UNL A   1      41.357  22.985  28.016  1.00  0.00     0.031 C 
ATOM     50  C   UNL A   1      41.475  27.840  26.303  1.00  0.00     0.029 A 
ATOM     51  N   UNL A   1      40.061  27.182  27.931  1.00  0.00    -0.354 N 
ATOM     52  C   UNL A   1      42.823  24.510  29.044  1.00  0.00     0.074 A 
ATOM     53  C   UNL A   1      42.533  23.100  28.664  1.00  0.00     0.031 C 
ATOM     54  C   UNL A   1      40.963  28.945  26.934  1.00  0.00     0.029 A 
ATOM     55  C   UNL A   1      40.062  28.664  28.093  1.00  0.00     0.049 A 
ATOM     56  H   UNL A   1      39.436  26.621  28.445  1.00  0.00     0.167 HD
ATOM     57  C   UNL A   1      43.685  25.567  28.686  1.00  0.00     0.037 A 
ATOM     58  C   UNL A   1      39.565  29.821  28.855  1.00  0.00     0.037 A 
ATOM     59  C   UNL A   1      43.703  26.349  29.844  1.00  0.00     0.049 A 
ATOM     60  C   UNL A   1      40.776  29.794  29.739  1.00  0.00     0.074 A 
ATOM     61  C   UNL A   1      43.556  26.168  31.194  1.00  0.00     0.029 A 
ATOM     62  N   UNL A   1      43.524  27.640  29.592  1.00  0.00    -0.354 N 
ATOM     63  N   UNL A   1      41.778  30.618  29.636  1.00  0.00    -0.248 NA
ATOM     64  C   UNL A   1      40.665  29.022  31.011  1.00  0.00     0.031 C 
ATOM     65  C   UNL A   1      43.588  27.469  31.735  1.00  0.00     0.029 A 
ATOM     66  C   UNL A   1      43.841  28.364  30.688  1.00  0.00     0.049 A 
ATOM     67  H   UNL A   1      43.207  28.012  28.737  1.00  0.00     0.167 HD
ATOM     68  C   UNL A   1      42.568  30.252  30.711  1.00  0.00     0.074 A 
ATOM     69  C   UNL A   1      41.696  29.564  31.659  1.00  0.00     0.031 C 
ATOM     70  C   UNL A   1      43.795  29.766  30.395  1.00  0.00     0.037 A 
BRANCH  57  71
ATOM     71  C   UNL A   1      44.696  26.149  27.423  1.00  0.00     0.064 A 
ATOM     72  C   UNL A   1      44.606  27.344  26.607  1.00  0.00     0.173 A 
ATOM     73  C   UNL A   1      45.775  25.349  27.004  1.00  0.00     0.173 A 
ATOM     74  F   UNL A   1      43.757  28.342  26.819  1.00  0.00    -0.203 F 
ATOM     75  C   UNL A   1      45.310  27.582  25.416  1.00  0.00     0.198 A 
ATOM     76  C   UNL A   1      46.538  25.624  25.837  1.00  0.00     0.198 A 
ATOM     77  F   UNL A   1      46.099  24.252  27.699  1.00  0.00    -0.203 F 
ATOM     78  F   UNL A   1      45.001  28.649  24.658  1.00  0.00    -0.200 F 
ATOM     79  C   UNL A   1      46.265  26.701  25.012  1.00  0.00     0.200 A 
ATOM     80  F   UNL A   1      47.539  24.804  25.494  1.00  0.00    -0.200 F 
ATOM     81  F   UNL A   1      46.909  26.890  23.852  1.00  0.00    -0.200 F 
ENDBRANCH  57  71
BRANCH  58  82
ATOM     82  C   UNL A   1      38.684  30.915  29.923  1.00  0.00     0.064 A 
ATOM     83  C   UNL A   1      37.586  30.533  30.727  1.00  0.00     0.173 A 
ATOM     84  C   UNL A   1      38.665  32.389  29.892  1.00  0.00     0.173 A 
ATOM     85  F   UNL A   1      37.145  29.270  30.689  1.00  0.00    -0.203 F 
ATOM     86  C   UNL A   1      36.779  31.468  31.509  1.00  0.00     0.198 A 
ATOM     87  C   UNL A   1      38.015  33.293  30.763  1.00  0.00     0.198 A 
ATOM     88  F   UNL A   1      39.004  33.089  28.811  1.00  0.00    -0.203 F 
ATOM     89  F   UNL A   1      35.676  31.038  32.143  1.00  0.00    -0.200 F 
ATOM     90  C   UNL A   1      37.046  32.828  31.585  1.00  0.00     0.200 A 
ATOM     91  F   UNL A   1      38.215  34.617  30.629  1.00  0.00    -0.200 F 
ATOM     92  F   UNL A   1      36.301  33.686  32.302  1.00  0.00    -0.200 F 
ENDBRANCH  58  82
BRANCH  70  93
ATOM     93  C   UNL A   1      44.373  30.450  29.161  1.00  0.00     0.064 A 
ATOM     94  C   UNL A   1      45.561  29.934  28.638  1.00  0.00     0.173 A 
ATOM     95  C   UNL A   1      43.966  31.694  28.628  1.00  0.00     0.173 A 
ATOM     96  F   UNL A   1      46.039  28.769  29.100  1.00  0.00    -0.203 F 
ATOM     97  C   UNL A   1      46.298  30.630  27.675  1.00  0.00     0.198 A 
ATOM     98  C   UNL A   1      44.692  32.388  27.669  1.00  0.00     0.198 A 
ATOM     99  F   UNL A   1      42.883  32.336  29.067  1.00  0.00    -0.203 F 
ATOM    100  F   UNL A   1      47.449  30.115  27.225  1.00  0.00    -0.200 F 
ATOM    101  C   UNL A   1      45.869  31.860  27.198  1.00  0.00     0.200 A 
ATOM    102  F   UNL A   1      44.251  33.581  27.242  1.00  0.00    -0.200 F 
ATOM    103  F   UNL A   1      46.592  32.539  26.299  1.00  0.00    -0.200 F 
ENDBRANCH  70  93
ENDBRANCH  44  45
ENDBRANCH  37  39
ENDBRANCH  36  37
ENDBRANCH  35  36
ENDBRANCH  34  35
ENDBRANCH  33  34
ENDBRANCH  32  33
ENDBRANCH   1  32
TORSDOF 22
ENDMDL
