MODEL 1
REMARK VINA RESULT:     -10.8      0.000      0.000
REMARK SMILES C[C@@H](C(=O)OCCOCCOCCOC(=O)c1ccc(-c2c3nc(c(-c4c(F)c(F)c(F)c(F)c4F)c4ccc([nH]4)c(-c4c(F)c(F)c(F)c(F)c4F)c4nc(c(-c5c(F)c(F)c(F)c(F)c5F)c5ccc2[nH]5)C=C4)C=C3)cc1)c1ccc(NC2CCCC2)cc1F
REMARK SMILES IDX 9 1 8 2 7 3 6 4 5 5 3 6 4 7 2 8 1 9 80 10 81 11 91 12 82 13
REMARK SMILES IDX 90 14 92 15 83 16 84 17 85 19 86 20 89 21 87 22 88 23 10 24
REMARK SMILES IDX 11 25 12 26 13 27 14 28 15 29 16 30 17 31 18 32 79 33 19 34
REMARK SMILES IDX 78 35 20 36 21 37 22 38 72 39 23 40 77 41 71 42 73 43 24 44
REMARK SMILES IDX 76 45 70 46 69 47 25 49 57 50 37 51 56 52 38 53 41 54 55 55
REMARK SMILES IDX 74 56 39 57 40 58 54 60 75 61 42 62 26 63 27 64 35 65 28 66
REMARK SMILES IDX 29 67 33 68 36 69 30 70 31 71 34 72 32 73 58 74 59 75 67 76
REMARK SMILES IDX 60 77 61 78 65 79 68 80 62 81 63 82 66 83 64 84 43 85 44 86
REMARK SMILES IDX 52 87 45 88 46 89 50 90 53 91 47 92 48 93 51 94 49 95
REMARK H PARENT 84 18 73 48 41 59
REMARK Flexibility Score: inf
ROOT
ATOM      1  C   UNL A   1      35.072  32.153  27.780  1.00  0.00     0.188 C 
ENDROOT
BRANCH   1   2
ATOM      2  O   UNL A   1      34.238  31.078  27.363  1.00  0.00    -0.376 OA
BRANCH   2   3
ATOM      3  C   UNL A   1      34.785  29.762  27.362  1.00  0.00     0.202 C 
BRANCH   3   4
ATOM      4  C   UNL A   1      33.997  28.643  26.661  1.00  0.00     0.261 C 
BRANCH   4   5
ATOM      5  O   UNL A   1      33.493  28.968  25.343  1.00  0.00    -0.463 OA
BRANCH   5   6
ATOM      6  C   UNL A   1      32.175  29.308  25.258  1.00  0.00     0.313 C 
ATOM      7  O   UNL A   1      31.515  29.703  26.216  1.00  0.00    -0.252 OA
BRANCH   6   8
ATOM      8  C   UNL A   1      31.544  29.098  23.865  1.00  0.00     0.129 C 
ATOM      9  C   UNL A   1      30.118  29.597  23.617  1.00  0.00     0.025 C 
BRANCH   8  10
ATOM     10  C   UNL A   1      31.681  27.650  23.412  1.00  0.00     0.002 A 
ATOM     11  C   UNL A   1      32.355  27.322  22.236  1.00  0.00     0.010 A 
ATOM     12  C   UNL A   1      31.163  26.593  24.158  1.00  0.00     0.129 A 
ATOM     13  C   UNL A   1      32.530  25.977  21.863  1.00  0.00     0.026 A 
ATOM     14  C   UNL A   1      31.348  25.264  23.793  1.00  0.00     0.065 A 
ATOM     15  F   UNL A   1      30.441  26.832  25.255  1.00  0.00    -0.207 F 
ATOM     16  C   UNL A   1      32.042  24.919  22.638  1.00  0.00     0.037 A 
BRANCH  16  17
ATOM     17  N   UNL A   1      32.204  23.580  22.355  1.00  0.00    -0.382 N 
ATOM     18  H   UNL A   1      31.465  23.159  21.859  1.00  0.00     0.160 HD
BRANCH  17  19
ATOM     19  C   UNL A   1      33.314  22.705  22.687  1.00  0.00     0.079 C 
ATOM     20  C   UNL A   1      34.522  23.439  23.251  1.00  0.00     0.025 C 
ATOM     21  C   UNL A   1      32.942  21.603  23.677  1.00  0.00     0.025 C 
ATOM     22  C   UNL A   1      35.213  22.409  24.127  1.00  0.00     0.002 C 
ATOM     23  C   UNL A   1      34.115  21.487  24.643  1.00  0.00     0.002 C 
ENDBRANCH  17  19
ENDBRANCH  16  17
ENDBRANCH   8  10
ENDBRANCH   6   8
ENDBRANCH   5   6
ENDBRANCH   4   5
ENDBRANCH   3   4
ENDBRANCH   2   3
ENDBRANCH   1   2
BRANCH   1  24
ATOM     24  C   UNL A   1      34.394  33.489  28.128  1.00  0.00     0.188 C 
BRANCH  24  25
ATOM     25  O   UNL A   1      34.936  34.109  29.270  1.00  0.00    -0.376 OA
BRANCH  25  26
ATOM     26  C   UNL A   1      34.073  34.455  30.332  1.00  0.00     0.202 C 
BRANCH  26  27
ATOM     27  C   UNL A   1      34.398  33.966  31.750  1.00  0.00     0.261 C 
BRANCH  27  28
ATOM     28  O   UNL A   1      34.848  32.607  31.886  1.00  0.00    -0.460 OA
BRANCH  28  29
ATOM     29  C   UNL A   1      35.834  32.349  32.774  1.00  0.00     0.338 C 
ATOM     30  O   UNL A   1      35.800  32.528  33.980  1.00  0.00    -0.246 OA
BRANCH  29  31
ATOM     31  C   UNL A   1      36.916  31.632  32.053  1.00  0.00     0.060 A 
ATOM     32  C   UNL A   1      37.962  31.058  32.785  1.00  0.00     0.016 A 
ATOM     33  C   UNL A   1      36.898  31.520  30.659  1.00  0.00     0.016 A 
ATOM     34  C   UNL A   1      39.000  30.394  32.123  1.00  0.00     0.010 A 
ATOM     35  C   UNL A   1      37.942  30.861  29.996  1.00  0.00     0.010 A 
ATOM     36  C   UNL A   1      39.010  30.309  30.722  1.00  0.00    -0.014 A 
BRANCH  36  37
ATOM     37  C   UNL A   1      40.215  29.805  30.012  1.00  0.00     0.031 A 
ATOM     38  C   UNL A   1      41.366  30.749  29.802  1.00  0.00     0.074 A 
ATOM     39  C   UNL A   1      40.301  28.542  29.558  1.00  0.00     0.049 A 
ATOM     40  N   UNL A   1      42.502  30.556  29.181  1.00  0.00    -0.248 NA
ATOM     41  C   UNL A   1      41.208  32.099  30.365  1.00  0.00     0.031 C 
ATOM     42  C   UNL A   1      39.268  27.522  29.697  1.00  0.00     0.029 A 
ATOM     43  N   UNL A   1      41.313  27.905  28.879  1.00  0.00    -0.354 N 
ATOM     44  C   UNL A   1      43.192  31.757  29.278  1.00  0.00     0.074 A 
ATOM     45  C   UNL A   1      42.339  32.680  29.995  1.00  0.00     0.031 C 
ATOM     46  C   UNL A   1      39.702  26.380  29.134  1.00  0.00     0.029 A 
ATOM     47  C   UNL A   1      41.021  26.604  28.543  1.00  0.00     0.049 A 
ATOM     48  H   UNL A   1      42.168  28.339  28.656  1.00  0.00     0.167 HD
ATOM     49  C   UNL A   1      44.425  32.067  28.811  1.00  0.00     0.037 A 
ATOM     50  C   UNL A   1      41.723  25.713  27.814  1.00  0.00     0.037 A 
ATOM     51  C   UNL A   1      45.265  31.167  28.065  1.00  0.00     0.049 A 
ATOM     52  C   UNL A   1      43.061  26.108  27.233  1.00  0.00     0.074 A 
ATOM     53  C   UNL A   1      46.526  31.397  27.545  1.00  0.00     0.029 A 
ATOM     54  N   UNL A   1      44.921  29.869  27.718  1.00  0.00    -0.354 N 
ATOM     55  N   UNL A   1      43.720  27.235  27.355  1.00  0.00    -0.248 NA
ATOM     56  C   UNL A   1      43.749  25.105  26.404  1.00  0.00     0.031 C 
ATOM     57  C   UNL A   1      46.921  30.260  26.832  1.00  0.00     0.029 A 
ATOM     58  C   UNL A   1      45.934  29.296  26.967  1.00  0.00     0.049 A 
ATOM     59  H   UNL A   1      44.080  29.423  27.968  1.00  0.00     0.167 HD
ATOM     60  C   UNL A   1      44.902  27.068  26.642  1.00  0.00     0.074 A 
ATOM     61  C   UNL A   1      44.882  25.725  26.107  1.00  0.00     0.031 C 
ATOM     62  C   UNL A   1      45.914  27.951  26.448  1.00  0.00     0.037 A 
BRANCH  49  63
ATOM     63  C   UNL A   1      44.920  33.461  29.061  1.00  0.00     0.064 A 
ATOM     64  C   UNL A   1      45.645  33.790  30.218  1.00  0.00     0.173 A 
ATOM     65  C   UNL A   1      44.681  34.479  28.126  1.00  0.00     0.173 A 
ATOM     66  F   UNL A   1      45.885  32.856  31.150  1.00  0.00    -0.203 F 
ATOM     67  C   UNL A   1      46.081  35.092  30.443  1.00  0.00     0.198 A 
ATOM     68  C   UNL A   1      45.147  35.773  28.339  1.00  0.00     0.198 A 
ATOM     69  F   UNL A   1      43.997  34.218  27.002  1.00  0.00    -0.203 F 
ATOM     70  F   UNL A   1      46.722  35.395  31.580  1.00  0.00    -0.200 F 
ATOM     71  C   UNL A   1      45.838  36.081  29.501  1.00  0.00     0.200 A 
ATOM     72  F   UNL A   1      44.923  36.724  27.421  1.00  0.00    -0.200 F 
ATOM     73  F   UNL A   1      46.263  37.334  29.718  1.00  0.00    -0.200 F 
ENDBRANCH  49  63
BRANCH  50  74
ATOM     74  C   UNL A   1      41.168  24.356  27.553  1.00  0.00     0.064 A 
ATOM     75  C   UNL A   1      41.736  23.216  28.142  1.00  0.00     0.173 A 
ATOM     76  C   UNL A   1      40.091  24.165  26.675  1.00  0.00     0.173 A 
ATOM     77  F   UNL A   1      42.788  23.341  28.965  1.00  0.00    -0.203 F 
ATOM     78  C   UNL A   1      41.265  21.939  27.842  1.00  0.00     0.198 A 
ATOM     79  C   UNL A   1      39.598  22.890  26.403  1.00  0.00     0.198 A 
ATOM     80  F   UNL A   1      39.518  25.219  26.077  1.00  0.00    -0.203 F 
ATOM     81  F   UNL A   1      41.867  20.864  28.369  1.00  0.00    -0.200 F 
ATOM     82  C   UNL A   1      40.192  21.777  26.978  1.00  0.00     0.200 A 
ATOM     83  F   UNL A   1      38.557  22.740  25.573  1.00  0.00    -0.200 F 
ATOM     84  F   UNL A   1      39.742  20.549  26.687  1.00  0.00    -0.200 F 
ENDBRANCH  50  74
BRANCH  62  85
ATOM     85  C   UNL A   1      47.110  27.487  25.661  1.00  0.00     0.064 A 
ATOM     86  C   UNL A   1      47.212  27.687  24.277  1.00  0.00     0.173 A 
ATOM     87  C   UNL A   1      48.195  26.881  26.316  1.00  0.00     0.173 A 
ATOM     88  F   UNL A   1      46.201  28.252  23.599  1.00  0.00    -0.203 F 
ATOM     89  C   UNL A   1      48.342  27.276  23.574  1.00  0.00     0.198 A 
ATOM     90  C   UNL A   1      49.337  26.501  25.616  1.00  0.00     0.198 A 
ATOM     91  F   UNL A   1      48.155  26.673  27.640  1.00  0.00    -0.203 F 
ATOM     92  F   UNL A   1      48.397  27.434  22.244  1.00  0.00    -0.200 F 
ATOM     93  C   UNL A   1      49.407  26.691  24.244  1.00  0.00     0.200 A 
ATOM     94  F   UNL A   1      50.370  25.952  26.270  1.00  0.00    -0.200 F 
ATOM     95  F   UNL A   1      50.499  26.306  23.568  1.00  0.00    -0.200 F 
ENDBRANCH  62  85
ENDBRANCH  36  37
ENDBRANCH  29  31
ENDBRANCH  28  29
ENDBRANCH  27  28
ENDBRANCH  26  27
ENDBRANCH  25  26
ENDBRANCH  24  25
ENDBRANCH   1  24
TORSDOF 20
ENDMDL
MODEL 2
REMARK VINA RESULT:     -10.8      4.421      6.987
REMARK SMILES C[C@@H](C(=O)OCCOCCOCCOC(=O)c1ccc(-c2c3nc(c(-c4c(F)c(F)c(F)c(F)c4F)c4ccc([nH]4)c(-c4c(F)c(F)c(F)c(F)c4F)c4nc(c(-c5c(F)c(F)c(F)c(F)c5F)c5ccc2[nH]5)C=C4)C=C3)cc1)c1ccc(NC2CCCC2)cc1F
REMARK SMILES IDX 9 1 8 2 7 3 6 4 5 5 3 6 4 7 2 8 1 9 80 10 81 11 91 12 82 13
REMARK SMILES IDX 90 14 92 15 83 16 84 17 85 19 86 20 89 21 87 22 88 23 10 24
REMARK SMILES IDX 11 25 12 26 13 27 14 28 15 29 16 30 17 31 18 32 79 33 19 34
REMARK SMILES IDX 78 35 20 36 21 37 22 38 72 39 23 40 77 41 71 42 73 43 24 44
REMARK SMILES IDX 76 45 70 46 69 47 25 49 57 50 37 51 56 52 38 53 41 54 55 55
REMARK SMILES IDX 74 56 39 57 40 58 54 60 75 61 42 62 26 63 27 64 35 65 28 66
REMARK SMILES IDX 29 67 33 68 36 69 30 70 31 71 34 72 32 73 58 74 59 75 67 76
REMARK SMILES IDX 60 77 61 78 65 79 68 80 62 81 63 82 66 83 64 84 43 85 44 86
REMARK SMILES IDX 52 87 45 88 46 89 50 90 53 91 47 92 48 93 51 94 49 95
REMARK H PARENT 84 18 73 48 41 59
REMARK Flexibility Score: inf
ROOT
ATOM      1  C   UNL A   1      32.379  28.396  26.597  1.00  0.00     0.188 C 
ENDROOT
BRANCH   1   2
ATOM      2  O   UNL A   1      31.156  27.973  26.006  1.00  0.00    -0.376 OA
BRANCH   2   3
ATOM      3  C   UNL A   1      30.950  28.239  24.621  1.00  0.00     0.202 C 
BRANCH   3   4
ATOM      4  C   UNL A   1      32.024  27.782  23.620  1.00  0.00     0.261 C 
BRANCH   4   5
ATOM      5  O   UNL A   1      32.121  26.352  23.420  1.00  0.00    -0.463 OA
BRANCH   5   6
ATOM      6  C   UNL A   1      33.322  25.773  23.707  1.00  0.00     0.313 C 
ATOM      7  O   UNL A   1      34.025  26.109  24.656  1.00  0.00    -0.252 OA
BRANCH   6   8
ATOM      8  C   UNL A   1      33.773  24.694  22.699  1.00  0.00     0.129 C 
ATOM      9  C   UNL A   1      33.064  24.606  21.345  1.00  0.00     0.025 C 
BRANCH   8  10
ATOM     10  C   UNL A   1      33.830  23.319  23.353  1.00  0.00     0.002 A 
ATOM     11  C   UNL A   1      32.735  22.456  23.317  1.00  0.00     0.010 A 
ATOM     12  C   UNL A   1      34.979  22.855  23.991  1.00  0.00     0.129 A 
ATOM     13  C   UNL A   1      32.824  21.166  23.869  1.00  0.00     0.026 A 
ATOM     14  C   UNL A   1      35.068  21.574  24.523  1.00  0.00     0.065 A 
ATOM     15  F   UNL A   1      36.041  23.652  24.131  1.00  0.00    -0.207 F 
ATOM     16  C   UNL A   1      33.995  20.691  24.472  1.00  0.00     0.037 A 
BRANCH  16  17
ATOM     17  N   UNL A   1      34.166  19.430  25.001  1.00  0.00    -0.382 N 
ATOM     18  H   UNL A   1      34.823  19.363  25.733  1.00  0.00     0.160 HD
BRANCH  17  19
ATOM     19  C   UNL A   1      33.515  18.188  24.629  1.00  0.00     0.079 C 
ATOM     20  C   UNL A   1      34.487  17.054  24.331  1.00  0.00     0.025 C 
ATOM     21  C   UNL A   1      32.528  17.682  25.678  1.00  0.00     0.025 C 
ATOM     22  C   UNL A   1      33.703  15.793  24.649  1.00  0.00     0.002 C 
ATOM     23  C   UNL A   1      32.721  16.172  25.751  1.00  0.00     0.002 C 
ENDBRANCH  17  19
ENDBRANCH  16  17
ENDBRANCH   8  10
ENDBRANCH   6   8
ENDBRANCH   5   6
ENDBRANCH   4   5
ENDBRANCH   3   4
ENDBRANCH   2   3
ENDBRANCH   1   2
BRANCH   1  24
ATOM     24  C   UNL A   1      32.414  29.792  27.242  1.00  0.00     0.188 C 
BRANCH  24  25
ATOM     25  O   UNL A   1      32.357  30.842  26.305  1.00  0.00    -0.376 OA
BRANCH  25  26
ATOM     26  C   UNL A   1      31.426  31.884  26.505  1.00  0.00     0.202 C 
BRANCH  26  27
ATOM     27  C   UNL A   1      31.938  33.281  26.881  1.00  0.00     0.261 C 
BRANCH  27  28
ATOM     28  O   UNL A   1      32.787  33.378  28.038  1.00  0.00    -0.460 OA
BRANCH  28  29
ATOM     29  C   UNL A   1      33.915  34.117  27.940  1.00  0.00     0.338 C 
ATOM     30  O   UNL A   1      33.993  35.301  27.658  1.00  0.00    -0.246 OA
BRANCH  29  31
ATOM     31  C   UNL A   1      35.046  33.281  28.416  1.00  0.00     0.060 A 
ATOM     32  C   UNL A   1      34.795  31.974  28.847  1.00  0.00     0.016 A 
ATOM     33  C   UNL A   1      36.352  33.782  28.432  1.00  0.00     0.016 A 
ATOM     34  C   UNL A   1      35.845  31.176  29.317  1.00  0.00     0.010 A 
ATOM     35  C   UNL A   1      37.401  32.986  28.909  1.00  0.00     0.010 A 
ATOM     36  C   UNL A   1      37.152  31.683  29.372  1.00  0.00    -0.014 A 
BRANCH  36  37
ATOM     37  C   UNL A   1      38.220  30.923  30.074  1.00  0.00     0.031 A 
ATOM     38  C   UNL A   1      38.472  31.223  31.525  1.00  0.00     0.074 A 
ATOM     39  C   UNL A   1      38.957  29.985  29.452  1.00  0.00     0.049 A 
ATOM     40  N   UNL A   1      39.369  30.723  32.338  1.00  0.00    -0.248 NA
ATOM     41  C   UNL A   1      37.596  32.232  32.140  1.00  0.00     0.031 C 
ATOM     42  C   UNL A   1      38.816  29.589  28.055  1.00  0.00     0.029 A 
ATOM     43  N   UNL A   1      39.980  29.196  29.923  1.00  0.00    -0.354 N 
ATOM     44  C   UNL A   1      39.165  31.356  33.557  1.00  0.00     0.074 A 
ATOM     45  C   UNL A   1      38.078  32.293  33.372  1.00  0.00     0.031 C 
ATOM     46  C   UNL A   1      39.709  28.622  27.783  1.00  0.00     0.029 A 
ATOM     47  C   UNL A   1      40.525  28.369  28.971  1.00  0.00     0.049 A 
ATOM     48  H   UNL A   1      40.292  29.221  30.857  1.00  0.00     0.167 HD
ATOM     49  C   UNL A   1      39.825  31.176  34.727  1.00  0.00     0.037 A 
ATOM     50  C   UNL A   1      41.581  27.533  29.042  1.00  0.00     0.037 A 
ATOM     51  C   UNL A   1      40.931  30.274  34.909  1.00  0.00     0.049 A 
ATOM     52  C   UNL A   1      42.353  27.410  30.335  1.00  0.00     0.074 A 
ATOM     53  C   UNL A   1      41.665  30.032  36.057  1.00  0.00     0.029 A 
ATOM     54  N   UNL A   1      41.473  29.477  33.913  1.00  0.00    -0.354 N 
ATOM     55  N   UNL A   1      42.136  27.989  31.491  1.00  0.00    -0.248 NA
ATOM     56  C   UNL A   1      43.525  26.520  30.328  1.00  0.00     0.031 C 
ATOM     57  C   UNL A   1      42.689  29.133  35.740  1.00  0.00     0.029 A 
ATOM     58  C   UNL A   1      42.551  28.762  34.412  1.00  0.00     0.049 A 
ATOM     59  H   UNL A   1      41.142  29.427  32.987  1.00  0.00     0.167 HD
ATOM     60  C   UNL A   1      43.124  27.517  32.349  1.00  0.00     0.074 A 
ATOM     61  C   UNL A   1      43.930  26.589  31.588  1.00  0.00     0.031 C 
ATOM     62  C   UNL A   1      43.343  27.829  33.652  1.00  0.00     0.037 A 
BRANCH  49  63
ATOM     63  C   UNL A   1      39.387  32.012  35.893  1.00  0.00     0.064 A 
ATOM     64  C   UNL A   1      39.966  33.263  36.162  1.00  0.00     0.173 A 
ATOM     65  C   UNL A   1      38.365  31.566  36.745  1.00  0.00     0.173 A 
ATOM     66  F   UNL A   1      40.958  33.727  35.387  1.00  0.00    -0.203 F 
ATOM     67  C   UNL A   1      39.561  34.018  37.259  1.00  0.00     0.198 A 
ATOM     68  C   UNL A   1      37.940  32.338  37.821  1.00  0.00     0.198 A 
ATOM     69  F   UNL A   1      37.776  30.380  36.530  1.00  0.00    -0.203 F 
ATOM     70  F   UNL A   1      40.166  35.183  37.528  1.00  0.00    -0.200 F 
ATOM     71  C   UNL A   1      38.544  33.559  38.083  1.00  0.00     0.200 A 
ATOM     72  F   UNL A   1      36.948  31.899  38.608  1.00  0.00    -0.200 F 
ATOM     73  F   UNL A   1      38.152  34.289  39.136  1.00  0.00    -0.200 F 
ENDBRANCH  49  63
BRANCH  50  74
ATOM     74  C   UNL A   1      42.006  26.760  27.842  1.00  0.00     0.064 A 
ATOM     75  C   UNL A   1      41.502  25.474  27.593  1.00  0.00     0.173 A 
ATOM     76  C   UNL A   1      42.961  27.267  26.948  1.00  0.00     0.173 A 
ATOM     77  F   UNL A   1      40.610  24.930  28.435  1.00  0.00    -0.203 F 
ATOM     78  C   UNL A   1      41.953  24.720  26.512  1.00  0.00     0.198 A 
ATOM     79  C   UNL A   1      43.385  26.526  25.847  1.00  0.00     0.198 A 
ATOM     80  F   UNL A   1      43.484  28.485  27.146  1.00  0.00    -0.203 F 
ATOM     81  F   UNL A   1      41.501  23.471  26.333  1.00  0.00    -0.200 F 
ATOM     82  C   UNL A   1      42.890  25.249  25.636  1.00  0.00     0.200 A 
ATOM     83  F   UNL A   1      44.285  27.044  25.001  1.00  0.00    -0.200 F 
ATOM     84  F   UNL A   1      43.327  24.521  24.599  1.00  0.00    -0.200 F 
ENDBRANCH  50  74
BRANCH  62  85
ATOM     85  C   UNL A   1      44.471  27.129  34.360  1.00  0.00     0.064 A 
ATOM     86  C   UNL A   1      45.760  27.680  34.429  1.00  0.00     0.173 A 
ATOM     87  C   UNL A   1      44.243  25.915  35.027  1.00  0.00     0.173 A 
ATOM     88  F   UNL A   1      46.036  28.833  33.801  1.00  0.00    -0.203 F 
ATOM     89  C   UNL A   1      46.782  27.029  35.116  1.00  0.00     0.198 A 
ATOM     90  C   UNL A   1      45.258  25.283  35.741  1.00  0.00     0.198 A 
ATOM     91  F   UNL A   1      43.028  25.348  35.002  1.00  0.00    -0.203 F 
ATOM     92  F   UNL A   1      48.017  27.550  35.129  1.00  0.00    -0.200 F 
ATOM     93  C   UNL A   1      46.529  25.836  35.778  1.00  0.00     0.200 A 
ATOM     94  F   UNL A   1      45.006  24.140  36.393  1.00  0.00    -0.200 F 
ATOM     95  F   UNL A   1      47.511  25.216  36.449  1.00  0.00    -0.200 F 
ENDBRANCH  62  85
ENDBRANCH  36  37
ENDBRANCH  29  31
ENDBRANCH  28  29
ENDBRANCH  27  28
ENDBRANCH  26  27
ENDBRANCH  25  26
ENDBRANCH  24  25
ENDBRANCH   1  24
TORSDOF 20
ENDMDL
MODEL 3
REMARK VINA RESULT:     -10.7      5.476     10.844
REMARK SMILES C[C@@H](C(=O)OCCOCCOCCOC(=O)c1ccc(-c2c3nc(c(-c4c(F)c(F)c(F)c(F)c4F)c4ccc([nH]4)c(-c4c(F)c(F)c(F)c(F)c4F)c4nc(c(-c5c(F)c(F)c(F)c(F)c5F)c5ccc2[nH]5)C=C4)C=C3)cc1)c1ccc(NC2CCCC2)cc1F
REMARK SMILES IDX 9 1 8 2 7 3 6 4 5 5 3 6 4 7 2 8 1 9 80 10 81 11 91 12 82 13
REMARK SMILES IDX 90 14 92 15 83 16 84 17 85 19 86 20 89 21 87 22 88 23 10 24
REMARK SMILES IDX 11 25 12 26 13 27 14 28 15 29 16 30 17 31 18 32 79 33 19 34
REMARK SMILES IDX 78 35 20 36 21 37 22 38 72 39 23 40 77 41 71 42 73 43 24 44
REMARK SMILES IDX 76 45 70 46 69 47 25 49 57 50 37 51 56 52 38 53 41 54 55 55
REMARK SMILES IDX 74 56 39 57 40 58 54 60 75 61 42 62 26 63 27 64 35 65 28 66
REMARK SMILES IDX 29 67 33 68 36 69 30 70 31 71 34 72 32 73 58 74 59 75 67 76
REMARK SMILES IDX 60 77 61 78 65 79 68 80 62 81 63 82 66 83 64 84 43 85 44 86
REMARK SMILES IDX 52 87 45 88 46 89 50 90 53 91 47 92 48 93 51 94 49 95
REMARK H PARENT 84 18 73 48 41 59
REMARK Flexibility Score: inf
ROOT
ATOM      1  C   UNL A   1      41.747  20.798  26.586  1.00  0.00     0.188 C 
ENDROOT
BRANCH   1   2
ATOM      2  O   UNL A   1      40.781  21.340  25.693  1.00  0.00    -0.376 OA
BRANCH   2   3
ATOM      3  C   UNL A   1      39.619  21.951  26.249  1.00  0.00     0.202 C 
BRANCH   3   4
ATOM      4  C   UNL A   1      38.257  21.659  25.598  1.00  0.00     0.261 C 
BRANCH   4   5
ATOM      5  O   UNL A   1      37.682  22.750  24.839  1.00  0.00    -0.463 OA
BRANCH   5   6
ATOM      6  C   UNL A   1      36.875  23.612  25.519  1.00  0.00     0.313 C 
ATOM      7  O   UNL A   1      37.161  24.081  26.618  1.00  0.00    -0.252 OA
BRANCH   6   8
ATOM      8  C   UNL A   1      35.527  23.911  24.831  1.00  0.00     0.129 C 
ATOM      9  C   UNL A   1      34.664  25.059  25.364  1.00  0.00     0.025 C 
BRANCH   8  10
ATOM     10  C   UNL A   1      34.689  22.647  24.686  1.00  0.00     0.002 A 
ATOM     11  C   UNL A   1      34.695  21.660  25.672  1.00  0.00     0.010 A 
ATOM     12  C   UNL A   1      33.867  22.431  23.582  1.00  0.00     0.129 A 
ATOM     13  C   UNL A   1      33.868  20.529  25.555  1.00  0.00     0.026 A 
ATOM     14  C   UNL A   1      33.041  21.318  23.477  1.00  0.00     0.065 A 
ATOM     15  F   UNL A   1      33.865  23.295  22.564  1.00  0.00    -0.207 F 
ATOM     16  C   UNL A   1      33.014  20.338  24.463  1.00  0.00     0.037 A 
BRANCH  16  17
ATOM     17  N   UNL A   1      32.153  19.275  24.298  1.00  0.00    -0.382 N 
ATOM     18  H   UNL A   1      31.195  19.505  24.276  1.00  0.00     0.160 HD
BRANCH  17  19
ATOM     19  C   UNL A   1      32.461  17.864  24.154  1.00  0.00     0.079 C 
ATOM     20  C   UNL A   1      33.760  17.597  23.406  1.00  0.00     0.025 C 
ATOM     21  C   UNL A   1      32.537  17.121  25.485  1.00  0.00     0.025 C 
ATOM     22  C   UNL A   1      34.234  16.258  23.942  1.00  0.00     0.002 C 
ATOM     23  C   UNL A   1      33.723  16.170  25.374  1.00  0.00     0.002 C 
ENDBRANCH  17  19
ENDBRANCH  16  17
ENDBRANCH   8  10
ENDBRANCH   6   8
ENDBRANCH   5   6
ENDBRANCH   4   5
ENDBRANCH   3   4
ENDBRANCH   2   3
ENDBRANCH   1   2
BRANCH   1  24
ATOM     24  C   UNL A   1      42.720  19.744  26.029  1.00  0.00     0.188 C 
BRANCH  24  25
ATOM     25  O   UNL A   1      43.558  20.239  25.011  1.00  0.00    -0.376 OA
BRANCH  25  26
ATOM     26  C   UNL A   1      44.243  21.455  25.222  1.00  0.00     0.202 C 
BRANCH  26  27
ATOM     27  C   UNL A   1      44.038  22.609  24.231  1.00  0.00     0.261 C 
BRANCH  27  28
ATOM     28  O   UNL A   1      43.460  23.821  24.748  1.00  0.00    -0.460 OA
BRANCH  28  29
ATOM     29  C   UNL A   1      44.296  24.804  25.150  1.00  0.00     0.338 C 
ATOM     30  O   UNL A   1      45.348  25.131  24.626  1.00  0.00    -0.246 OA
BRANCH  29  31
ATOM     31  C   UNL A   1      43.623  25.551  26.242  1.00  0.00     0.060 A 
ATOM     32  C   UNL A   1      43.935  26.901  26.439  1.00  0.00     0.016 A 
ATOM     33  C   UNL A   1      42.683  24.925  27.067  1.00  0.00     0.016 A 
ATOM     34  C   UNL A   1      43.325  27.618  27.476  1.00  0.00     0.010 A 
ATOM     35  C   UNL A   1      42.079  25.641  28.110  1.00  0.00     0.010 A 
ATOM     36  C   UNL A   1      42.409  26.988  28.332  1.00  0.00    -0.014 A 
BRANCH  36  37
ATOM     37  C   UNL A   1      41.936  27.680  29.559  1.00  0.00     0.031 A 
ATOM     38  C   UNL A   1      40.684  28.508  29.473  1.00  0.00     0.074 A 
ATOM     39  C   UNL A   1      42.591  27.587  30.731  1.00  0.00     0.049 A 
ATOM     40  N   UNL A   1      40.097  29.233  30.392  1.00  0.00    -0.248 NA
ATOM     41  C   UNL A   1      40.007  28.524  28.167  1.00  0.00     0.031 C 
ATOM     42  C   UNL A   1      43.809  26.817  30.959  1.00  0.00     0.029 A 
ATOM     43  N   UNL A   1      42.318  28.154  31.954  1.00  0.00    -0.354 N 
ATOM     44  C   UNL A   1      38.984  29.791  29.776  1.00  0.00     0.074 A 
ATOM     45  C   UNL A   1      38.991  29.342  28.401  1.00  0.00     0.031 C 
ATOM     46  C   UNL A   1      44.174  26.948  32.246  1.00  0.00     0.029 A 
ATOM     47  C   UNL A   1      43.247  27.857  32.922  1.00  0.00     0.049 A 
ATOM     48  H   UNL A   1      41.529  28.720  32.120  1.00  0.00     0.167 HD
ATOM     49  C   UNL A   1      38.041  30.607  30.306  1.00  0.00     0.037 A 
ATOM     50  C   UNL A   1      43.355  28.296  34.192  1.00  0.00     0.037 A 
ATOM     51  C   UNL A   1      38.048  31.087  31.662  1.00  0.00     0.049 A 
ATOM     52  C   UNL A   1      42.336  29.270  34.737  1.00  0.00     0.074 A 
ATOM     53  C   UNL A   1      37.138  31.924  32.284  1.00  0.00     0.029 A 
ATOM     54  N   UNL A   1      39.022  30.789  32.602  1.00  0.00    -0.354 N 
ATOM     55  N   UNL A   1      41.271  29.769  34.158  1.00  0.00    -0.248 NA
ATOM     56  C   UNL A   1      42.543  29.749  36.113  1.00  0.00     0.031 C 
ATOM     57  C   UNL A   1      37.593  32.179  33.582  1.00  0.00     0.029 A 
ATOM     58  C   UNL A   1      38.750  31.447  33.791  1.00  0.00     0.049 A 
ATOM     59  H   UNL A   1      39.794  30.198  32.447  1.00  0.00     0.167 HD
ATOM     60  C   UNL A   1      40.672  30.596  35.102  1.00  0.00     0.074 A 
ATOM     61  C   UNL A   1      41.479  30.518  36.299  1.00  0.00     0.031 C 
ATOM     62  C   UNL A   1      39.553  31.354  34.986  1.00  0.00     0.037 A 
BRANCH  49  63
ATOM     63  C   UNL A   1      36.942  31.064  29.393  1.00  0.00     0.064 A 
ATOM     64  C   UNL A   1      36.934  32.354  28.838  1.00  0.00     0.173 A 
ATOM     65  C   UNL A   1      35.892  30.198  29.054  1.00  0.00     0.173 A 
ATOM     66  F   UNL A   1      37.907  33.225  29.144  1.00  0.00    -0.203 F 
ATOM     67  C   UNL A   1      35.898  32.768  28.007  1.00  0.00     0.198 A 
ATOM     68  C   UNL A   1      34.875  30.605  28.197  1.00  0.00     0.198 A 
ATOM     69  F   UNL A   1      35.854  28.954  29.554  1.00  0.00    -0.203 F 
ATOM     70  F   UNL A   1      35.882  34.022  27.533  1.00  0.00    -0.200 F 
ATOM     71  C   UNL A   1      34.873  31.892  27.681  1.00  0.00     0.200 A 
ATOM     72  F   UNL A   1      33.893  29.753  27.873  1.00  0.00    -0.200 F 
ATOM     73  F   UNL A   1      33.878  32.292  26.877  1.00  0.00    -0.200 F 
ENDBRANCH  49  63
BRANCH  50  74
ATOM     74  C   UNL A   1      44.491  27.849  35.045  1.00  0.00     0.064 A 
ATOM     75  C   UNL A   1      44.373  26.727  35.879  1.00  0.00     0.173 A 
ATOM     76  C   UNL A   1      45.699  28.562  35.082  1.00  0.00     0.173 A 
ATOM     77  F   UNL A   1      43.227  26.029  35.905  1.00  0.00    -0.203 F 
ATOM     78  C   UNL A   1      45.409  26.351  36.732  1.00  0.00     0.198 A 
ATOM     79  C   UNL A   1      46.747  28.164  35.909  1.00  0.00     0.198 A 
ATOM     80  F   UNL A   1      45.860  29.648  34.313  1.00  0.00    -0.203 F 
ATOM     81  F   UNL A   1      45.246  25.313  37.564  1.00  0.00    -0.200 F 
ATOM     82  C   UNL A   1      46.598  27.066  36.742  1.00  0.00     0.200 A 
ATOM     83  F   UNL A   1      47.896  28.853  35.910  1.00  0.00    -0.200 F 
ATOM     84  F   UNL A   1      47.592  26.706  37.566  1.00  0.00    -0.200 F 
ENDBRANCH  50  74
BRANCH  62  85
ATOM     85  C   UNL A   1      39.100  32.128  36.194  1.00  0.00     0.064 A 
ATOM     86  C   UNL A   1      38.165  31.609  37.101  1.00  0.00     0.173 A 
ATOM     87  C   UNL A   1      39.654  33.388  36.475  1.00  0.00     0.173 A 
ATOM     88  F   UNL A   1      37.596  30.415  36.876  1.00  0.00    -0.203 F 
ATOM     89  C   UNL A   1      37.783  32.332  38.230  1.00  0.00     0.198 A 
ATOM     90  C   UNL A   1      39.295  34.093  37.621  1.00  0.00     0.198 A 
ATOM     91  F   UNL A   1      40.560  33.928  35.646  1.00  0.00    -0.203 F 
ATOM     92  F   UNL A   1      36.852  31.836  39.058  1.00  0.00    -0.200 F 
ATOM     93  C   UNL A   1      38.354  33.568  38.493  1.00  0.00     0.200 A 
ATOM     94  F   UNL A   1      39.861  35.279  37.881  1.00  0.00    -0.200 F 
ATOM     95  F   UNL A   1      37.994  34.257  39.586  1.00  0.00    -0.200 F 
ENDBRANCH  62  85
ENDBRANCH  36  37
ENDBRANCH  29  31
ENDBRANCH  28  29
ENDBRANCH  27  28
ENDBRANCH  26  27
ENDBRANCH  25  26
ENDBRANCH  24  25
ENDBRANCH   1  24
TORSDOF 20
ENDMDL
