MODEL 1
REMARK VINA RESULT:     -11.8      0.000      0.000
REMARK SMILES O=C(Cn1c2ccccc2c(=O)c2ccccc21)N[C@@H](Cc1ccccc1)C(=O)OCCOCCOCCOC(=O)c1ccc(-c2c3nc(c(-c4c(F)c(F)c(F)c(F)c4F)c4ccc([nH]4)c(-c4c(F)c(F)c(F)c(F)c4F)c4nc(c(-c5c(F)c(F)c(F)c(F)c5F)c5ccc2[nH]5)C=C4)C=C3)cc1
REMARK SMILES IDX 34 1 33 2 32 3 31 4 30 5 28 6 29 7 20 8 19 9 1 10 2 11 3 13
REMARK SMILES IDX 4 14 5 15 18 16 6 17 10 18 13 19 17 20 7 21 9 22 11 23 14 24
REMARK SMILES IDX 16 25 8 26 12 27 15 28 21 29 22 30 23 31 27 32 24 33 26 34
REMARK SMILES IDX 25 35 35 36 36 37 37 38 38 39 39 40 40 41 41 42 42 43 43 44
REMARK SMILES IDX 104 45 44 46 103 47 45 48 46 49 47 50 97 51 48 52 102 53
REMARK SMILES IDX 96 54 98 55 49 56 101 57 95 58 94 59 50 61 82 62 62 63 81 64
REMARK SMILES IDX 63 65 66 66 80 67 99 68 64 69 65 70 79 72 100 73 67 74 51 75
REMARK SMILES IDX 52 76 60 77 53 78 54 79 58 80 61 81 55 82 56 83 59 84 57 85
REMARK SMILES IDX 83 86 84 87 92 88 85 89 86 90 90 91 93 92 87 93 88 94 91 95
REMARK SMILES IDX 89 96 68 97 69 98 77 99 70 100 71 101 75 102 78 103 72 104
REMARK SMILES IDX 73 105 76 106 74 107
REMARK H PARENT 19 12 98 60 66 71
REMARK Flexibility Score: inf
ROOT
ATOM      1  C   UNL A   1      33.943  30.925  27.293  1.00  0.00     0.188 C 
ENDROOT
BRANCH   1   2
ATOM      2  O   UNL A   1      32.658  30.464  26.884  1.00  0.00    -0.376 OA
BRANCH   2   3
ATOM      3  C   UNL A   1      32.182  29.225  27.401  1.00  0.00     0.202 C 
BRANCH   3   4
ATOM      4  C   UNL A   1      31.515  28.303  26.385  1.00  0.00     0.261 C 
BRANCH   4   5
ATOM      5  O   UNL A   1      31.087  27.069  26.993  1.00  0.00    -0.462 OA
BRANCH   5   6
ATOM      6  C   UNL A   1      30.610  26.110  26.155  1.00  0.00     0.329 C 
ATOM      7  O   UNL A   1      29.872  25.191  26.494  1.00  0.00    -0.250 OA
BRANCH   6   8
ATOM      8  C   UNL A   1      31.233  26.200  24.751  1.00  0.00     0.196 C 
BRANCH   8   9
ATOM      9  N   UNL A   1      32.247  25.186  24.396  1.00  0.00    -0.341 N 
ATOM     10  O   UNL A   1      33.880  25.814  25.854  1.00  0.00    -0.273 OA
ATOM     11  C   UNL A   1      33.550  25.167  24.860  1.00  0.00     0.240 C 
ATOM     12  H   UNL A   1      31.974  24.467  23.783  1.00  0.00     0.164 HD
BRANCH  11  13
ATOM     13  C   UNL A   1      34.601  24.449  23.965  1.00  0.00     0.222 C 
BRANCH  13  14
ATOM     14  N   UNL A   1      35.050  23.098  24.400  1.00  0.00    -0.331 N 
ATOM     15  C   UNL A   1      34.228  21.956  24.191  1.00  0.00     0.053 A 
ATOM     16  C   UNL A   1      36.298  22.987  25.064  1.00  0.00     0.053 A 
ATOM     17  C   UNL A   1      32.908  21.992  23.704  1.00  0.00     0.027 A 
ATOM     18  C   UNL A   1      34.714  20.671  24.528  1.00  0.00     0.046 A 
ATOM     19  C   UNL A   1      36.892  21.732  25.262  1.00  0.00     0.046 A 
ATOM     20  C   UNL A   1      36.999  24.076  25.595  1.00  0.00     0.027 A 
ATOM     21  C   UNL A   1      32.125  20.827  23.584  1.00  0.00     0.002 A 
ATOM     22  C   UNL A   1      33.936  19.505  24.407  1.00  0.00     0.014 A 
ATOM     23  C   UNL A   1      36.105  20.516  25.001  1.00  0.00     0.197 A 
ATOM     24  C   UNL A   1      38.194  21.593  25.770  1.00  0.00     0.014 A 
ATOM     25  C   UNL A   1      38.309  23.959  26.075  1.00  0.00     0.002 A 
ATOM     26  C   UNL A   1      32.635  19.585  23.938  1.00  0.00     0.001 A 
ATOM     27  O   UNL A   1      36.585  19.408  25.227  1.00  0.00    -0.288 OA
ATOM     28  C   UNL A   1      38.922  22.717  26.132  1.00  0.00     0.001 A 
ENDBRANCH  13  14
ENDBRANCH  11  13
ENDBRANCH   8   9
BRANCH   8  29
ATOM     29  C   UNL A   1      30.057  26.156  23.741  1.00  0.00     0.072 C 
BRANCH  29  30
ATOM     30  C   UNL A   1      29.525  27.528  23.357  1.00  0.00    -0.045 A 
ATOM     31  C   UNL A   1      30.375  28.488  22.793  1.00  0.00     0.004 A 
ATOM     32  C   UNL A   1      28.164  27.838  23.501  1.00  0.00     0.004 A 
ATOM     33  C   UNL A   1      29.870  29.701  22.322  1.00  0.00     0.000 A 
ATOM     34  C   UNL A   1      27.662  29.058  23.041  1.00  0.00     0.000 A 
ATOM     35  C   UNL A   1      28.511  29.982  22.437  1.00  0.00     0.000 A 
ENDBRANCH  29  30
ENDBRANCH   8  29
ENDBRANCH   6   8
ENDBRANCH   5   6
ENDBRANCH   4   5
ENDBRANCH   3   4
ENDBRANCH   2   3
ENDBRANCH   1   2
BRANCH   1  36
ATOM     36  C   UNL A   1      34.017  32.029  28.356  1.00  0.00     0.188 C 
BRANCH  36  37
ATOM     37  O   UNL A   1      33.265  33.209  28.131  1.00  0.00    -0.376 OA
BRANCH  37  38
ATOM     38  C   UNL A   1      33.948  34.453  28.209  1.00  0.00     0.202 C 
BRANCH  38  39
ATOM     39  C   UNL A   1      33.131  35.537  28.904  1.00  0.00     0.261 C 
BRANCH  39  40
ATOM     40  O   UNL A   1      32.530  34.976  30.081  1.00  0.00    -0.460 OA
BRANCH  40  41
ATOM     41  C   UNL A   1      32.788  35.614  31.242  1.00  0.00     0.338 C 
ATOM     42  O   UNL A   1      32.142  36.497  31.774  1.00  0.00    -0.246 OA
BRANCH  41  43
ATOM     43  C   UNL A   1      33.897  34.917  31.906  1.00  0.00     0.060 A 
ATOM     44  C   UNL A   1      33.669  33.714  32.571  1.00  0.00     0.016 A 
ATOM     45  C   UNL A   1      35.172  35.498  31.873  1.00  0.00     0.016 A 
ATOM     46  C   UNL A   1      34.733  33.074  33.193  1.00  0.00     0.010 A 
ATOM     47  C   UNL A   1      36.238  34.857  32.496  1.00  0.00     0.010 A 
ATOM     48  C   UNL A   1      36.023  33.631  33.135  1.00  0.00    -0.014 A 
BRANCH  48  49
ATOM     49  C   UNL A   1      37.158  32.805  33.589  1.00  0.00     0.031 A 
ATOM     50  C   UNL A   1      37.769  31.768  32.710  1.00  0.00     0.074 A 
ATOM     51  C   UNL A   1      37.664  33.082  34.804  1.00  0.00     0.049 A 
ATOM     52  N   UNL A   1      38.889  31.113  32.880  1.00  0.00    -0.248 NA
ATOM     53  C   UNL A   1      37.037  31.414  31.487  1.00  0.00     0.031 C 
ATOM     54  C   UNL A   1      37.103  34.064  35.736  1.00  0.00     0.029 A 
ATOM     55  N   UNL A   1      38.773  32.603  35.448  1.00  0.00    -0.354 N 
ATOM     56  C   UNL A   1      39.017  30.294  31.769  1.00  0.00     0.074 A 
ATOM     57  C   UNL A   1      37.833  30.492  30.957  1.00  0.00     0.031 C 
ATOM     58  C   UNL A   1      37.898  34.151  36.810  1.00  0.00     0.029 A 
ATOM     59  C   UNL A   1      39.011  33.222  36.649  1.00  0.00     0.049 A 
ATOM     60  H   UNL A   1      39.341  31.885  35.085  1.00  0.00     0.167 HD
ATOM     61  C   UNL A   1      40.046  29.472  31.460  1.00  0.00     0.037 A 
ATOM     62  C   UNL A   1      40.031  33.070  37.513  1.00  0.00     0.037 A 
ATOM     63  C   UNL A   1      41.201  29.277  32.300  1.00  0.00     0.049 A 
ATOM     64  C   UNL A   1      41.138  32.122  37.156  1.00  0.00     0.074 A 
ATOM     65  C   UNL A   1      42.312  28.486  32.070  1.00  0.00     0.029 A 
ATOM     66  N   UNL A   1      41.384  29.869  33.543  1.00  0.00    -0.354 N 
ATOM     67  N   UNL A   1      41.297  31.412  36.066  1.00  0.00    -0.248 NA
ATOM     68  C   UNL A   1      42.212  31.958  38.144  1.00  0.00     0.031 C 
ATOM     69  C   UNL A   1      43.142  28.558  33.193  1.00  0.00     0.029 A 
ATOM     70  C   UNL A   1      42.575  29.436  34.104  1.00  0.00     0.049 A 
ATOM     71  H   UNL A   1      40.760  30.504  33.964  1.00  0.00     0.167 HD
ATOM     72  C   UNL A   1      42.492  30.726  36.228  1.00  0.00     0.074 A 
ATOM     73  C   UNL A   1      43.031  31.128  37.512  1.00  0.00     0.031 C 
ATOM     74  C   UNL A   1      43.087  29.842  35.390  1.00  0.00     0.037 A 
BRANCH  61  75
ATOM     75  C   UNL A   1      39.985  28.728  30.159  1.00  0.00     0.064 A 
ATOM     76  C   UNL A   1      40.584  29.243  28.998  1.00  0.00     0.173 A 
ATOM     77  C   UNL A   1      39.403  27.454  30.086  1.00  0.00     0.173 A 
ATOM     78  F   UNL A   1      41.150  30.458  29.012  1.00  0.00    -0.203 F 
ATOM     79  C   UNL A   1      40.593  28.513  27.813  1.00  0.00     0.198 A 
ATOM     80  C   UNL A   1      39.435  26.716  28.906  1.00  0.00     0.198 A 
ATOM     81  F   UNL A   1      38.824  26.913  31.169  1.00  0.00    -0.203 F 
ATOM     82  F   UNL A   1      41.152  29.033  26.710  1.00  0.00    -0.200 F 
ATOM     83  C   UNL A   1      40.028  27.247  27.770  1.00  0.00     0.200 A 
ATOM     84  F   UNL A   1      38.903  25.488  28.870  1.00  0.00    -0.200 F 
ATOM     85  F   UNL A   1      40.057  26.536  26.634  1.00  0.00    -0.200 F 
ENDBRANCH  61  75
BRANCH  62  86
ATOM     86  C   UNL A   1      40.061  33.878  38.757  1.00  0.00     0.064 A 
ATOM     87  C   UNL A   1      40.749  35.097  38.809  1.00  0.00     0.173 A 
ATOM     88  C   UNL A   1      39.366  33.469  39.906  1.00  0.00     0.173 A 
ATOM     89  F   UNL A   1      41.436  35.524  37.740  1.00  0.00    -0.203 F 
ATOM     90  C   UNL A   1      40.748  35.874  39.966  1.00  0.00     0.198 A 
ATOM     91  C   UNL A   1      39.343  34.259  41.052  1.00  0.00     0.198 A 
ATOM     92  F   UNL A   1      38.684  32.314  39.902  1.00  0.00    -0.203 F 
ATOM     93  F   UNL A   1      41.439  37.021  40.000  1.00  0.00    -0.200 F 
ATOM     94  C   UNL A   1      40.038  35.458  41.083  1.00  0.00     0.200 A 
ATOM     95  F   UNL A   1      38.640  33.863  42.122  1.00  0.00    -0.200 F 
ATOM     96  F   UNL A   1      40.027  36.212  42.191  1.00  0.00    -0.200 F 
ENDBRANCH  62  86
BRANCH  74  97
ATOM     97  C   UNL A   1      44.386  29.242  35.839  1.00  0.00     0.064 A 
ATOM     98  C   UNL A   1      44.428  28.016  36.518  1.00  0.00     0.173 A 
ATOM     99  C   UNL A   1      45.605  29.865  35.529  1.00  0.00     0.173 A 
ATOM    100  F   UNL A   1      43.288  27.389  36.850  1.00  0.00    -0.203 F 
ATOM    101  C   UNL A   1      45.641  27.443  36.885  1.00  0.00     0.198 A 
ATOM    102  C   UNL A   1      46.818  29.274  35.871  1.00  0.00     0.198 A 
ATOM    103  F   UNL A   1      45.619  31.036  34.875  1.00  0.00    -0.203 F 
ATOM    104  F   UNL A   1      45.656  26.289  37.568  1.00  0.00    -0.200 F 
ATOM    105  C   UNL A   1      46.835  28.066  36.553  1.00  0.00     0.200 A 
ATOM    106  F   UNL A   1      47.970  29.870  35.536  1.00  0.00    -0.200 F 
ATOM    107  F   UNL A   1      48.003  27.504  36.893  1.00  0.00    -0.200 F 
ENDBRANCH  74  97
ENDBRANCH  48  49
ENDBRANCH  41  43
ENDBRANCH  40  41
ENDBRANCH  39  40
ENDBRANCH  38  39
ENDBRANCH  37  38
ENDBRANCH  36  37
ENDBRANCH   1  36
TORSDOF 22
ENDMDL
MODEL 2
REMARK VINA RESULT:     -11.6      6.197     12.307
REMARK SMILES O=C(Cn1c2ccccc2c(=O)c2ccccc21)N[C@@H](Cc1ccccc1)C(=O)OCCOCCOCCOC(=O)c1ccc(-c2c3nc(c(-c4c(F)c(F)c(F)c(F)c4F)c4ccc([nH]4)c(-c4c(F)c(F)c(F)c(F)c4F)c4nc(c(-c5c(F)c(F)c(F)c(F)c5F)c5ccc2[nH]5)C=C4)C=C3)cc1
REMARK SMILES IDX 34 1 33 2 32 3 31 4 30 5 28 6 29 7 20 8 19 9 1 10 2 11 3 13
REMARK SMILES IDX 4 14 5 15 18 16 6 17 10 18 13 19 17 20 7 21 9 22 11 23 14 24
REMARK SMILES IDX 16 25 8 26 12 27 15 28 21 29 22 30 23 31 27 32 24 33 26 34
REMARK SMILES IDX 25 35 35 36 36 37 37 38 38 39 39 40 40 41 41 42 42 43 43 44
REMARK SMILES IDX 104 45 44 46 103 47 45 48 46 49 47 50 97 51 48 52 102 53
REMARK SMILES IDX 96 54 98 55 49 56 101 57 95 58 94 59 50 61 82 62 62 63 81 64
REMARK SMILES IDX 63 65 66 66 80 67 99 68 64 69 65 70 79 72 100 73 67 74 51 75
REMARK SMILES IDX 52 76 60 77 53 78 54 79 58 80 61 81 55 82 56 83 59 84 57 85
REMARK SMILES IDX 83 86 84 87 92 88 85 89 86 90 90 91 93 92 87 93 88 94 91 95
REMARK SMILES IDX 89 96 68 97 69 98 77 99 70 100 71 101 75 102 78 103 72 104
REMARK SMILES IDX 73 105 76 106 74 107
REMARK H PARENT 19 12 98 60 66 71
REMARK Flexibility Score: inf
ROOT
ATOM      1  C   UNL A   1      40.588  21.804  26.076  1.00  0.00     0.188 C 
ENDROOT
BRANCH   1   2
ATOM      2  O   UNL A   1      39.265  21.308  26.265  1.00  0.00    -0.376 OA
BRANCH   2   3
ATOM      3  C   UNL A   1      38.174  22.070  25.756  1.00  0.00     0.202 C 
BRANCH   3   4
ATOM      4  C   UNL A   1      36.843  21.328  25.665  1.00  0.00     0.261 C 
BRANCH   4   5
ATOM      5  O   UNL A   1      35.727  22.234  25.754  1.00  0.00    -0.462 OA
BRANCH   5   6
ATOM      6  C   UNL A   1      34.706  21.863  26.573  1.00  0.00     0.329 C 
ATOM      7  O   UNL A   1      34.848  21.433  27.713  1.00  0.00    -0.250 OA
BRANCH   6   8
ATOM      8  C   UNL A   1      33.346  21.881  25.854  1.00  0.00     0.196 C 
BRANCH   8   9
ATOM      9  N   UNL A   1      32.768  23.203  25.535  1.00  0.00    -0.341 N 
ATOM     10  O   UNL A   1      31.831  23.660  27.560  1.00  0.00    -0.273 OA
ATOM     11  C   UNL A   1      31.921  23.920  26.359  1.00  0.00     0.240 C 
ATOM     12  H   UNL A   1      33.006  23.604  24.669  1.00  0.00     0.164 HD
BRANCH  11  13
ATOM     13  C   UNL A   1      30.962  24.932  25.667  1.00  0.00     0.222 C 
BRANCH  13  14
ATOM     14  N   UNL A   1      31.584  26.117  25.016  1.00  0.00    -0.331 N 
ATOM     15  C   UNL A   1      31.798  27.319  25.747  1.00  0.00     0.053 A 
ATOM     16  C   UNL A   1      31.918  26.030  23.642  1.00  0.00     0.053 A 
ATOM     17  C   UNL A   1      31.341  27.559  27.056  1.00  0.00     0.027 A 
ATOM     18  C   UNL A   1      32.475  28.401  25.134  1.00  0.00     0.046 A 
ATOM     19  C   UNL A   1      32.734  27.000  23.042  1.00  0.00     0.046 A 
ATOM     20  C   UNL A   1      31.448  25.026  22.786  1.00  0.00     0.027 A 
ATOM     21  C   UNL A   1      31.530  28.799  27.697  1.00  0.00     0.002 A 
ATOM     22  C   UNL A   1      32.667  29.640  25.772  1.00  0.00     0.014 A 
ATOM     23  C   UNL A   1      33.039  28.237  23.779  1.00  0.00     0.197 A 
ATOM     24  C   UNL A   1      33.217  26.865  21.729  1.00  0.00     0.014 A 
ATOM     25  C   UNL A   1      31.942  24.859  21.487  1.00  0.00     0.002 A 
ATOM     26  C   UNL A   1      32.189  29.840  27.057  1.00  0.00     0.001 A 
ATOM     27  O   UNL A   1      33.700  29.127  23.249  1.00  0.00    -0.288 OA
ATOM     28  C   UNL A   1      32.856  25.763  20.968  1.00  0.00     0.001 A 
ENDBRANCH  13  14
ENDBRANCH  11  13
ENDBRANCH   8   9
BRANCH   8  29
ATOM     29  C   UNL A   1      33.519  21.047  24.557  1.00  0.00     0.072 C 
BRANCH  29  30
ATOM     30  C   UNL A   1      33.598  19.547  24.798  1.00  0.00    -0.045 A 
ATOM     31  C   UNL A   1      32.539  18.869  25.415  1.00  0.00     0.004 A 
ATOM     32  C   UNL A   1      34.702  18.804  24.351  1.00  0.00     0.004 A 
ATOM     33  C   UNL A   1      32.549  17.478  25.524  1.00  0.00     0.000 A 
ATOM     34  C   UNL A   1      34.717  17.412  24.474  1.00  0.00     0.000 A 
ATOM     35  C   UNL A   1      33.633  16.748  25.044  1.00  0.00     0.000 A 
ENDBRANCH  29  30
ENDBRANCH   8  29
ENDBRANCH   6   8
ENDBRANCH   5   6
ENDBRANCH   4   5
ENDBRANCH   3   4
ENDBRANCH   2   3
ENDBRANCH   1   2
BRANCH   1  36
ATOM     36  C   UNL A   1      41.704  21.264  26.980  1.00  0.00     0.188 C 
BRANCH  36  37
ATOM     37  O   UNL A   1      41.757  19.864  27.196  1.00  0.00    -0.376 OA
BRANCH  37  38
ATOM     38  C   UNL A   1      41.838  19.022  26.054  1.00  0.00     0.202 C 
BRANCH  38  39
ATOM     39  C   UNL A   1      43.254  18.522  25.786  1.00  0.00     0.261 C 
BRANCH  39  40
ATOM     40  O   UNL A   1      43.644  18.934  24.467  1.00  0.00    -0.460 OA
BRANCH  40  41
ATOM     41  C   UNL A   1      44.893  19.434  24.345  1.00  0.00     0.338 C 
ATOM     42  O   UNL A   1      45.863  18.915  23.827  1.00  0.00    -0.246 OA
BRANCH  41  43
ATOM     43  C   UNL A   1      44.859  20.843  24.760  1.00  0.00     0.060 A 
ATOM     44  C   UNL A   1      45.361  21.218  26.004  1.00  0.00     0.016 A 
ATOM     45  C   UNL A   1      44.292  21.785  23.890  1.00  0.00     0.016 A 
ATOM     46  C   UNL A   1      45.316  22.556  26.374  1.00  0.00     0.010 A 
ATOM     47  C   UNL A   1      44.246  23.125  24.261  1.00  0.00     0.010 A 
ATOM     48  C   UNL A   1      44.782  23.515  25.494  1.00  0.00    -0.014 A 
BRANCH  48  49
ATOM     49  C   UNL A   1      44.977  24.941  25.817  1.00  0.00     0.031 A 
ATOM     50  C   UNL A   1      43.881  25.766  26.399  1.00  0.00     0.074 A 
ATOM     51  C   UNL A   1      46.210  25.442  25.632  1.00  0.00     0.049 A 
ATOM     52  N   UNL A   1      43.952  26.961  26.926  1.00  0.00    -0.248 NA
ATOM     53  C   UNL A   1      42.531  25.185  26.390  1.00  0.00     0.031 C 
ATOM     54  C   UNL A   1      47.330  24.706  25.038  1.00  0.00     0.029 A 
ATOM     55  N   UNL A   1      46.743  26.662  25.952  1.00  0.00    -0.354 N 
ATOM     56  C   UNL A   1      42.667  27.265  27.345  1.00  0.00     0.074 A 
ATOM     57  C   UNL A   1      41.822  26.152  26.962  1.00  0.00     0.031 C 
ATOM     58  C   UNL A   1      48.429  25.470  25.083  1.00  0.00     0.029 A 
ATOM     59  C   UNL A   1      48.087  26.752  25.690  1.00  0.00     0.049 A 
ATOM     60  H   UNL A   1      46.214  27.401  26.330  1.00  0.00     0.167 HD
ATOM     61  C   UNL A   1      42.250  28.369  28.007  1.00  0.00     0.037 A 
ATOM     62  C   UNL A   1      48.952  27.752  25.937  1.00  0.00     0.037 A 
ATOM     63  C   UNL A   1      43.110  29.472  28.355  1.00  0.00     0.049 A 
ATOM     64  C   UNL A   1      48.449  28.978  26.641  1.00  0.00     0.074 A 
ATOM     65  C   UNL A   1      42.795  30.628  29.047  1.00  0.00     0.029 A 
ATOM     66  N   UNL A   1      44.455  29.562  28.019  1.00  0.00    -0.354 N 
ATOM     67  N   UNL A   1      47.250  29.227  27.110  1.00  0.00    -0.248 NA
ATOM     68  C   UNL A   1      49.417  30.061  26.856  1.00  0.00     0.031 C 
ATOM     69  C   UNL A   1      43.933  31.440  29.085  1.00  0.00     0.029 A 
ATOM     70  C   UNL A   1      44.975  30.768  28.464  1.00  0.00     0.049 A 
ATOM     71  H   UNL A   1      44.965  28.871  27.538  1.00  0.00     0.167 HD
ATOM     72  C   UNL A   1      47.320  30.486  27.688  1.00  0.00     0.074 A 
ATOM     73  C   UNL A   1      48.688  30.939  27.532  1.00  0.00     0.031 C 
ATOM     74  C   UNL A   1      46.339  31.203  28.289  1.00  0.00     0.037 A 
BRANCH  61  75
ATOM     75  C   UNL A   1      40.808  28.442  28.414  1.00  0.00     0.064 A 
ATOM     76  C   UNL A   1      40.386  28.003  29.679  1.00  0.00     0.173 A 
ATOM     77  C   UNL A   1      39.854  29.033  27.573  1.00  0.00     0.173 A 
ATOM     78  F   UNL A   1      41.258  27.427  30.519  1.00  0.00    -0.203 F 
ATOM     79  C   UNL A   1      39.061  28.146  30.082  1.00  0.00     0.198 A 
ATOM     80  C   UNL A   1      38.535  29.196  27.988  1.00  0.00     0.198 A 
ATOM     81  F   UNL A   1      40.207  29.476  26.357  1.00  0.00    -0.203 F 
ATOM     82  F   UNL A   1      38.675  27.700  31.286  1.00  0.00    -0.200 F 
ATOM     83  C   UNL A   1      38.139  28.751  29.241  1.00  0.00     0.200 A 
ATOM     84  F   UNL A   1      37.649  29.795  27.181  1.00  0.00    -0.200 F 
ATOM     85  F   UNL A   1      36.869  28.908  29.638  1.00  0.00    -0.200 F 
ENDBRANCH  61  75
BRANCH  62  86
ATOM     86  C   UNL A   1      50.378  27.594  25.561  1.00  0.00     0.064 A 
ATOM     87  C   UNL A   1      50.815  27.864  24.257  1.00  0.00     0.173 A 
ATOM     88  C   UNL A   1      51.342  27.212  26.507  1.00  0.00     0.173 A 
ATOM     89  F   UNL A   1      49.929  28.221  23.315  1.00  0.00    -0.203 F 
ATOM     90  C   UNL A   1      52.160  27.749  23.911  1.00  0.00     0.198 A 
ATOM     91  C   UNL A   1      52.689  27.124  26.167  1.00  0.00     0.198 A 
ATOM     92  F   UNL A   1      50.976  26.952  27.771  1.00  0.00    -0.203 F 
ATOM     93  F   UNL A   1      52.546  27.983  22.650  1.00  0.00    -0.200 F 
ATOM     94  C   UNL A   1      53.096  27.388  24.868  1.00  0.00     0.200 A 
ATOM     95  F   UNL A   1      53.593  26.795  27.099  1.00  0.00    -0.200 F 
ATOM     96  F   UNL A   1      54.392  27.291  24.538  1.00  0.00    -0.200 F 
ENDBRANCH  62  86
BRANCH  74  97
ATOM     97  C   UNL A   1      46.707  32.557  28.818  1.00  0.00     0.064 A 
ATOM     98  C   UNL A   1      46.567  33.710  28.033  1.00  0.00     0.173 A 
ATOM     99  C   UNL A   1      47.142  32.711  30.143  1.00  0.00     0.173 A 
ATOM    100  F   UNL A   1      46.170  33.612  26.754  1.00  0.00    -0.203 F 
ATOM    101  C   UNL A   1      46.863  34.967  28.550  1.00  0.00     0.198 A 
ATOM    102  C   UNL A   1      47.407  33.974  30.666  1.00  0.00     0.198 A 
ATOM    103  F   UNL A   1      47.286  31.640  30.937  1.00  0.00    -0.203 F 
ATOM    104  F   UNL A   1      46.758  36.052  27.769  1.00  0.00    -0.200 F 
ATOM    105  C   UNL A   1      47.273  35.100  29.867  1.00  0.00     0.200 A 
ATOM    106  F   UNL A   1      47.789  34.101  31.944  1.00  0.00    -0.200 F 
ATOM    107  F   UNL A   1      47.542  36.313  30.369  1.00  0.00    -0.200 F 
ENDBRANCH  74  97
ENDBRANCH  48  49
ENDBRANCH  41  43
ENDBRANCH  40  41
ENDBRANCH  39  40
ENDBRANCH  38  39
ENDBRANCH  37  38
ENDBRANCH  36  37
ENDBRANCH   1  36
TORSDOF 22
ENDMDL
MODEL 3
REMARK VINA RESULT:     -11.5      6.205     12.172
REMARK SMILES O=C(Cn1c2ccccc2c(=O)c2ccccc21)N[C@@H](Cc1ccccc1)C(=O)OCCOCCOCCOC(=O)c1ccc(-c2c3nc(c(-c4c(F)c(F)c(F)c(F)c4F)c4ccc([nH]4)c(-c4c(F)c(F)c(F)c(F)c4F)c4nc(c(-c5c(F)c(F)c(F)c(F)c5F)c5ccc2[nH]5)C=C4)C=C3)cc1
REMARK SMILES IDX 34 1 33 2 32 3 31 4 30 5 28 6 29 7 20 8 19 9 1 10 2 11 3 13
REMARK SMILES IDX 4 14 5 15 18 16 6 17 10 18 13 19 17 20 7 21 9 22 11 23 14 24
REMARK SMILES IDX 16 25 8 26 12 27 15 28 21 29 22 30 23 31 27 32 24 33 26 34
REMARK SMILES IDX 25 35 35 36 36 37 37 38 38 39 39 40 40 41 41 42 42 43 43 44
REMARK SMILES IDX 104 45 44 46 103 47 45 48 46 49 47 50 97 51 48 52 102 53
REMARK SMILES IDX 96 54 98 55 49 56 101 57 95 58 94 59 50 61 82 62 62 63 81 64
REMARK SMILES IDX 63 65 66 66 80 67 99 68 64 69 65 70 79 72 100 73 67 74 51 75
REMARK SMILES IDX 52 76 60 77 53 78 54 79 58 80 61 81 55 82 56 83 59 84 57 85
REMARK SMILES IDX 83 86 84 87 92 88 85 89 86 90 90 91 93 92 87 93 88 94 91 95
REMARK SMILES IDX 89 96 68 97 69 98 77 99 70 100 71 101 75 102 78 103 72 104
REMARK SMILES IDX 73 105 76 106 74 107
REMARK H PARENT 19 12 98 60 66 71
REMARK Flexibility Score: inf
ROOT
ATOM      1  C   UNL A   1      40.348  21.681  26.138  1.00  0.00     0.188 C 
ENDROOT
BRANCH   1   2
ATOM      2  O   UNL A   1      39.193  22.374  26.602  1.00  0.00    -0.376 OA
BRANCH   2   3
ATOM      3  C   UNL A   1      38.063  22.470  25.740  1.00  0.00     0.202 C 
BRANCH   3   4
ATOM      4  C   UNL A   1      36.996  23.474  26.165  1.00  0.00     0.261 C 
BRANCH   4   5
ATOM      5  O   UNL A   1      35.685  23.068  25.725  1.00  0.00    -0.462 OA
BRANCH   5   6
ATOM      6  C   UNL A   1      34.751  22.875  26.694  1.00  0.00     0.329 C 
ATOM      7  O   UNL A   1      35.001  22.738  27.887  1.00  0.00    -0.250 OA
BRANCH   6   8
ATOM      8  C   UNL A   1      33.340  22.679  26.114  1.00  0.00     0.196 C 
BRANCH   8   9
ATOM      9  N   UNL A   1      32.403  23.817  26.216  1.00  0.00    -0.341 N 
ATOM     10  O   UNL A   1      30.456  22.686  25.879  1.00  0.00    -0.273 OA
ATOM     11  C   UNL A   1      31.051  23.762  25.934  1.00  0.00     0.240 C 
ATOM     12  H   UNL A   1      32.772  24.681  26.509  1.00  0.00     0.164 HD
BRANCH  11  13
ATOM     13  C   UNL A   1      30.370  25.096  25.509  1.00  0.00     0.222 C 
BRANCH  13  14
ATOM     14  N   UNL A   1      31.238  26.126  24.875  1.00  0.00    -0.331 N 
ATOM     15  C   UNL A   1      31.746  25.940  23.560  1.00  0.00     0.053 A 
ATOM     16  C   UNL A   1      31.578  27.275  25.633  1.00  0.00     0.053 A 
ATOM     17  C   UNL A   1      31.610  24.762  22.802  1.00  0.00     0.027 A 
ATOM     18  C   UNL A   1      32.491  26.974  22.943  1.00  0.00     0.046 A 
ATOM     19  C   UNL A   1      32.164  28.390  25.016  1.00  0.00     0.046 A 
ATOM     20  C   UNL A   1      31.401  27.378  27.018  1.00  0.00     0.027 A 
ATOM     21  C   UNL A   1      32.196  24.621  21.529  1.00  0.00     0.002 A 
ATOM     22  C   UNL A   1      33.076  26.838  21.671  1.00  0.00     0.014 A 
ATOM     23  C   UNL A   1      32.651  28.270  23.632  1.00  0.00     0.197 A 
ATOM     24  C   UNL A   1      32.368  29.601  25.697  1.00  0.00     0.014 A 
ATOM     25  C   UNL A   1      31.569  28.586  27.706  1.00  0.00     0.002 A 
ATOM     26  C   UNL A   1      32.931  25.656  20.964  1.00  0.00     0.001 A 
ATOM     27  O   UNL A   1      33.224  29.215  23.094  1.00  0.00    -0.288 OA
ATOM     28  C   UNL A   1      32.023  29.711  27.036  1.00  0.00     0.001 A 
ENDBRANCH  13  14
ENDBRANCH  11  13
ENDBRANCH   8   9
BRANCH   8  29
ATOM     29  C   UNL A   1      33.525  22.271  24.628  1.00  0.00     0.072 C 
BRANCH  29  30
ATOM     30  C   UNL A   1      33.422  20.773  24.385  1.00  0.00    -0.045 A 
ATOM     31  C   UNL A   1      32.328  20.239  23.693  1.00  0.00     0.004 A 
ATOM     32  C   UNL A   1      34.449  19.907  24.791  1.00  0.00     0.004 A 
ATOM     33  C   UNL A   1      32.289  18.885  23.356  1.00  0.00     0.000 A 
ATOM     34  C   UNL A   1      34.402  18.549  24.464  1.00  0.00     0.000 A 
ATOM     35  C   UNL A   1      33.331  18.042  23.732  1.00  0.00     0.000 A 
ENDBRANCH  29  30
ENDBRANCH   8  29
ENDBRANCH   6   8
ENDBRANCH   5   6
ENDBRANCH   4   5
ENDBRANCH   3   4
ENDBRANCH   2   3
ENDBRANCH   1   2
BRANCH   1  36
ATOM     36  C   UNL A   1      40.434  20.167  26.374  1.00  0.00     0.188 C 
BRANCH  36  37
ATOM     37  O   UNL A   1      41.431  19.447  25.669  1.00  0.00    -0.376 OA
BRANCH  37  38
ATOM     38  C   UNL A   1      42.525  18.930  26.414  1.00  0.00     0.202 C 
BRANCH  38  39
ATOM     39  C   UNL A   1      43.487  18.107  25.564  1.00  0.00     0.261 C 
BRANCH  39  40
ATOM     40  O   UNL A   1      44.759  18.772  25.537  1.00  0.00    -0.460 OA
BRANCH  40  41
ATOM     41  C   UNL A   1      45.023  19.507  24.435  1.00  0.00     0.338 C 
ATOM     42  O   UNL A   1      45.119  19.128  23.284  1.00  0.00    -0.246 OA
BRANCH  41  43
ATOM     43  C   UNL A   1      44.967  20.925  24.814  1.00  0.00     0.060 A 
ATOM     44  C   UNL A   1      45.245  21.311  26.124  1.00  0.00     0.016 A 
ATOM     45  C   UNL A   1      44.607  21.866  23.839  1.00  0.00     0.016 A 
ATOM     46  C   UNL A   1      45.184  22.657  26.457  1.00  0.00     0.010 A 
ATOM     47  C   UNL A   1      44.546  23.216  24.174  1.00  0.00     0.010 A 
ATOM     48  C   UNL A   1      44.859  23.614  25.479  1.00  0.00    -0.014 A 
BRANCH  48  49
ATOM     49  C   UNL A   1      45.046  25.039  25.809  1.00  0.00     0.031 A 
ATOM     50  C   UNL A   1      43.944  25.857  26.391  1.00  0.00     0.074 A 
ATOM     51  C   UNL A   1      46.278  25.548  25.631  1.00  0.00     0.049 A 
ATOM     52  N   UNL A   1      44.007  27.049  26.924  1.00  0.00    -0.248 NA
ATOM     53  C   UNL A   1      42.597  25.270  26.374  1.00  0.00     0.031 C 
ATOM     54  C   UNL A   1      47.403  24.820  25.039  1.00  0.00     0.029 A 
ATOM     55  N   UNL A   1      46.804  26.768  25.959  1.00  0.00    -0.354 N 
ATOM     56  C   UNL A   1      42.719  27.345  27.339  1.00  0.00     0.074 A 
ATOM     57  C   UNL A   1      41.880  26.230  26.947  1.00  0.00     0.031 C 
ATOM     58  C   UNL A   1      48.499  25.588  25.092  1.00  0.00     0.029 A 
ATOM     59  C   UNL A   1      48.148  26.866  25.703  1.00  0.00     0.049 A 
ATOM     60  H   UNL A   1      46.269  27.503  26.339  1.00  0.00     0.167 HD
ATOM     61  C   UNL A   1      42.294  28.443  28.005  1.00  0.00     0.037 A 
ATOM     62  C   UNL A   1      49.007  27.869  25.959  1.00  0.00     0.037 A 
ATOM     63  C   UNL A   1      43.148  29.549  28.361  1.00  0.00     0.049 A 
ATOM     64  C   UNL A   1      48.495  29.089  26.666  1.00  0.00     0.074 A 
ATOM     65  C   UNL A   1      42.824  30.700  29.058  1.00  0.00     0.029 A 
ATOM     66  N   UNL A   1      44.494  29.648  28.032  1.00  0.00    -0.354 N 
ATOM     67  N   UNL A   1      47.293  29.330  27.132  1.00  0.00    -0.248 NA
ATOM     68  C   UNL A   1      49.457  30.176  26.890  1.00  0.00     0.031 C 
ATOM     69  C   UNL A   1      43.958  31.517  29.105  1.00  0.00     0.029 A 
ATOM     70  C   UNL A   1      45.006  30.854  28.484  1.00  0.00     0.049 A 
ATOM     71  H   UNL A   1      45.008  28.961  27.549  1.00  0.00     0.167 HD
ATOM     72  C   UNL A   1      47.355  30.586  27.716  1.00  0.00     0.074 A 
ATOM     73  C   UNL A   1      48.721  31.047  27.568  1.00  0.00     0.031 C 
ATOM     74  C   UNL A   1      46.368  31.296  28.317  1.00  0.00     0.037 A 
BRANCH  61  75
ATOM     75  C   UNL A   1      40.850  28.508  28.406  1.00  0.00     0.064 A 
ATOM     76  C   UNL A   1      40.434  28.121  29.691  1.00  0.00     0.173 A 
ATOM     77  C   UNL A   1      39.886  29.040  27.537  1.00  0.00     0.173 A 
ATOM     78  F   UNL A   1      41.315  27.602  30.558  1.00  0.00    -0.203 F 
ATOM     79  C   UNL A   1      39.106  28.257  30.084  1.00  0.00     0.198 A 
ATOM     80  C   UNL A   1      38.563  29.197  27.943  1.00  0.00     0.198 A 
ATOM     81  F   UNL A   1      40.233  29.432  26.302  1.00  0.00    -0.203 F 
ATOM     82  F   UNL A   1      38.727  27.862  31.308  1.00  0.00    -0.200 F 
ATOM     83  C   UNL A   1      38.174  28.804  29.215  1.00  0.00     0.200 A 
ATOM     84  F   UNL A   1      37.668  29.739  27.108  1.00  0.00    -0.200 F 
ATOM     85  F   UNL A   1      36.900  28.954  29.603  1.00  0.00    -0.200 F 
ENDBRANCH  61  75
BRANCH  62  86
ATOM     86  C   UNL A   1      50.436  27.719  25.587  1.00  0.00     0.064 A 
ATOM     87  C   UNL A   1      51.391  27.329  26.535  1.00  0.00     0.173 A 
ATOM     88  C   UNL A   1      50.869  27.921  24.267  1.00  0.00     0.173 A 
ATOM     89  F   UNL A   1      51.027  27.135  27.811  1.00  0.00    -0.203 F 
ATOM     90  C   UNL A   1      52.727  27.155  26.178  1.00  0.00     0.198 A 
ATOM     91  C   UNL A   1      52.198  27.720  23.907  1.00  0.00     0.198 A 
ATOM     92  F   UNL A   1      49.990  28.287  23.321  1.00  0.00    -0.203 F 
ATOM     93  F   UNL A   1      53.626  26.810  27.110  1.00  0.00    -0.200 F 
ATOM     94  C   UNL A   1      53.127  27.342  24.864  1.00  0.00     0.200 A 
ATOM     95  F   UNL A   1      52.576  27.883  22.632  1.00  0.00    -0.200 F 
ATOM     96  F   UNL A   1      54.410  27.161  24.520  1.00  0.00    -0.200 F 
ENDBRANCH  62  86
BRANCH  74  97
ATOM     97  C   UNL A   1      46.728  32.649  28.854  1.00  0.00     0.064 A 
ATOM     98  C   UNL A   1      47.234  32.808  30.151  1.00  0.00     0.173 A 
ATOM     99  C   UNL A   1      46.628  33.789  28.041  1.00  0.00     0.173 A 
ATOM    100  F   UNL A   1      47.333  31.750  30.972  1.00  0.00    -0.203 F 
ATOM    101  C   UNL A   1      47.612  34.062  30.622  1.00  0.00     0.198 A 
ATOM    102  C   UNL A   1      47.036  35.036  28.505  1.00  0.00     0.198 A 
ATOM    103  F   UNL A   1      46.156  33.688  26.790  1.00  0.00    -0.203 F 
ATOM    104  F   UNL A   1      48.058  34.196  31.880  1.00  0.00    -0.200 F 
ATOM    105  C   UNL A   1      47.524  35.172  29.797  1.00  0.00     0.200 A 
ATOM    106  F   UNL A   1      46.964  36.105  27.701  1.00  0.00    -0.200 F 
ATOM    107  F   UNL A   1      47.904  36.376  30.246  1.00  0.00    -0.200 F 
ENDBRANCH  74  97
ENDBRANCH  48  49
ENDBRANCH  41  43
ENDBRANCH  40  41
ENDBRANCH  39  40
ENDBRANCH  38  39
ENDBRANCH  37  38
ENDBRANCH  36  37
ENDBRANCH   1  36
TORSDOF 22
ENDMDL
