MODEL 1
REMARK VINA RESULT:      -9.6      0.000      0.000
REMARK SMILES [N-]=[N+]=NC[C@H](NC=O)C(=O)OCCOCCOCCOC(=O)c1ccc(-c2c3nc(c(-c4c(F)c(F)c(F)c(F)c4F)c4ccc([nH]4)c(-c4c(F)c(F)c(F)c(F)c4F)c4nc(c(-c5c(F)c(F)c(F)c(F)c5F)c5ccc2[nH]5)C=C4)C=C3)cc1
REMARK SMILES IDX 15 1 14 2 13 3 12 4 11 5 9 6 10 7 5 8 4 9 3 10 1 11 2 12
REMARK SMILES IDX 6 13 7 14 8 16 16 17 17 18 18 19 19 20 20 21 21 22 22 23
REMARK SMILES IDX 23 24 24 25 85 26 25 27 84 28 26 29 27 30 28 31 78 32 29 33
REMARK SMILES IDX 83 34 77 35 79 36 30 37 82 38 76 39 75 40 31 42 63 43 43 44
REMARK SMILES IDX 62 45 44 46 47 47 61 48 80 49 45 50 46 51 60 53 81 54 48 55
REMARK SMILES IDX 32 56 33 57 41 58 34 59 35 60 39 61 42 62 36 63 37 64 40 65
REMARK SMILES IDX 38 66 64 67 65 68 73 69 66 70 67 71 71 72 74 73 68 74 69 75
REMARK SMILES IDX 72 76 70 77 49 78 50 79 58 80 51 81 52 82 56 83 59 84 53 85
REMARK SMILES IDX 54 86 57 87 55 88
REMARK H PARENT 6 15 79 41 47 52
REMARK Flexibility Score: inf
ROOT
ATOM      1  C   UNL A   1      33.703  26.902  22.718  1.00  0.00     0.188 C 
ENDROOT
BRANCH   1   2
ATOM      2  O   UNL A   1      33.646  25.932  21.684  1.00  0.00    -0.376 OA
BRANCH   2   3
ATOM      3  C   UNL A   1      32.707  24.867  21.783  1.00  0.00     0.202 C 
BRANCH   3   4
ATOM      4  C   UNL A   1      33.183  23.471  22.228  1.00  0.00     0.261 C 
BRANCH   4   5
ATOM      5  O   UNL A   1      34.612  23.319  22.377  1.00  0.00    -0.462 OA
BRANCH   5   6
ATOM      6  C   UNL A   1      35.061  22.965  23.612  1.00  0.00     0.328 C 
ATOM      7  O   UNL A   1      36.244  22.896  23.929  1.00  0.00    -0.250 OA
BRANCH   6   8
ATOM      8  C   UNL A   1      33.930  22.633  24.609  1.00  0.00     0.197 C 
BRANCH   8   9
ATOM      9  C   UNL A   1      34.172  23.419  25.905  1.00  0.00     0.127 C 
BRANCH   9  10
ATOM     10  N   UNL A   1      33.843  24.858  25.806  1.00  0.00    -0.091 NA
ATOM     11  N   UNL A   1      31.567  25.470  25.446  1.00  0.00    -0.003 NA
ATOM     12  N   UNL A   1      32.663  25.180  25.598  1.00  0.00     0.001 N 
ENDBRANCH   9  10
ENDBRANCH   8   9
BRANCH   8  13
ATOM     13  N   UNL A   1      33.633  21.234  24.923  1.00  0.00    -0.345 N 
ATOM     14  C   UNL A   1      32.384  20.688  24.817  1.00  0.00     0.337 C 
ATOM     15  H   UNL A   1      34.371  20.656  25.225  1.00  0.00     0.164 HD
ATOM     16  O   UNL A   1      32.154  19.498  24.969  1.00  0.00    -0.279 OA
ENDBRANCH   8  13
ENDBRANCH   6   8
ENDBRANCH   5   6
ENDBRANCH   4   5
ENDBRANCH   3   4
ENDBRANCH   2   3
ENDBRANCH   1   2
BRANCH   1  17
ATOM     17  C   UNL A   1      34.032  28.361  22.366  1.00  0.00     0.188 C 
BRANCH  17  18
ATOM     18  O   UNL A   1      33.421  29.329  23.179  1.00  0.00    -0.376 OA
BRANCH  18  19
ATOM     19  C   UNL A   1      33.118  28.981  24.519  1.00  0.00     0.202 C 
BRANCH  19  20
ATOM     20  C   UNL A   1      32.140  29.793  25.400  1.00  0.00     0.261 C 
BRANCH  20  21
ATOM     21  O   UNL A   1      32.502  30.041  26.770  1.00  0.00    -0.460 OA
BRANCH  21  22
ATOM     22  C   UNL A   1      33.075  31.234  27.066  1.00  0.00     0.338 C 
ATOM     23  O   UNL A   1      32.582  32.339  26.948  1.00  0.00    -0.246 OA
BRANCH  22  24
ATOM     24  C   UNL A   1      34.352  30.952  27.768  1.00  0.00     0.060 A 
ATOM     25  C   UNL A   1      34.691  29.630  28.100  1.00  0.00     0.016 A 
ATOM     26  C   UNL A   1      35.228  31.995  28.065  1.00  0.00     0.016 A 
ATOM     27  C   UNL A   1      35.920  29.347  28.706  1.00  0.00     0.010 A 
ATOM     28  C   UNL A   1      36.439  31.714  28.704  1.00  0.00     0.010 A 
ATOM     29  C   UNL A   1      36.792  30.392  29.033  1.00  0.00    -0.014 A 
BRANCH  29  30
ATOM     30  C   UNL A   1      38.010  30.152  29.846  1.00  0.00     0.031 A 
ATOM     31  C   UNL A   1      39.066  29.230  29.306  1.00  0.00     0.074 A 
ATOM     32  C   UNL A   1      38.160  30.697  31.067  1.00  0.00     0.049 A 
ATOM     33  N   UNL A   1      40.127  28.738  29.893  1.00  0.00    -0.248 NA
ATOM     34  C   UNL A   1      38.890  28.800  27.911  1.00  0.00     0.031 C 
ATOM     35  C   UNL A   1      37.245  31.651  31.684  1.00  0.00     0.029 A 
ATOM     36  N   UNL A   1      39.134  30.499  32.016  1.00  0.00    -0.354 N 
ATOM     37  C   UNL A   1      40.738  27.929  28.943  1.00  0.00     0.074 A 
ATOM     38  C   UNL A   1      39.913  27.974  27.755  1.00  0.00     0.031 C 
ATOM     39  C   UNL A   1      37.689  31.944  32.919  1.00  0.00     0.029 A 
ATOM     40  C   UNL A   1      38.890  31.157  33.196  1.00  0.00     0.049 A 
ATOM     41  H   UNL A   1      39.929  29.938  31.864  1.00  0.00     0.167 HD
ATOM     42  C   UNL A   1      41.886  27.216  29.054  1.00  0.00     0.037 A 
ATOM     43  C   UNL A   1      39.543  31.098  34.376  1.00  0.00     0.037 A 
ATOM     44  C   UNL A   1      42.691  27.157  30.245  1.00  0.00     0.049 A 
ATOM     45  C   UNL A   1      40.741  30.193  34.519  1.00  0.00     0.074 A 
ATOM     46  C   UNL A   1      43.875  26.474  30.455  1.00  0.00     0.029 A 
ATOM     47  N   UNL A   1      42.381  27.794  31.440  1.00  0.00    -0.354 N 
ATOM     48  N   UNL A   1      41.331  29.446  33.617  1.00  0.00    -0.248 NA
ATOM     49  C   UNL A   1      41.357  30.113  35.853  1.00  0.00     0.031 C 
ATOM     50  C   UNL A   1      44.245  26.639  31.795  1.00  0.00     0.029 A 
ATOM     51  C   UNL A   1      43.327  27.481  32.403  1.00  0.00     0.049 A 
ATOM     52  H   UNL A   1      41.603  28.380  31.582  1.00  0.00     0.167 HD
ATOM     53  C   UNL A   1      42.398  28.832  34.262  1.00  0.00     0.074 A 
ATOM     54  C   UNL A   1      42.384  29.303  35.631  1.00  0.00     0.031 C 
ATOM     55  C   UNL A   1      43.306  27.956  33.765  1.00  0.00     0.037 A 
BRANCH  42  56
ATOM     56  C   UNL A   1      42.304  26.404  27.860  1.00  0.00     0.064 A 
ATOM     57  C   UNL A   1      43.244  26.881  26.932  1.00  0.00     0.173 A 
ATOM     58  C   UNL A   1      41.754  25.132  27.637  1.00  0.00     0.173 A 
ATOM     59  F   UNL A   1      43.794  28.095  27.091  1.00  0.00    -0.203 F 
ATOM     60  C   UNL A   1      43.576  26.138  25.802  1.00  0.00     0.198 A 
ATOM     61  C   UNL A   1      42.119  24.375  26.528  1.00  0.00     0.198 A 
ATOM     62  F   UNL A   1      40.859  24.621  28.497  1.00  0.00    -0.203 F 
ATOM     63  F   UNL A   1      44.419  26.647  24.893  1.00  0.00    -0.200 F 
ATOM     64  C   UNL A   1      43.018  24.884  25.603  1.00  0.00     0.200 A 
ATOM     65  F   UNL A   1      41.591  23.156  26.347  1.00  0.00    -0.200 F 
ATOM     66  F   UNL A   1      43.338  24.173  24.514  1.00  0.00    -0.200 F 
ENDBRANCH  42  56
BRANCH  43  67
ATOM     67  C   UNL A   1      39.068  31.911  35.528  1.00  0.00     0.064 A 
ATOM     68  C   UNL A   1      39.453  33.253  35.663  1.00  0.00     0.173 A 
ATOM     69  C   UNL A   1      38.236  31.370  36.519  1.00  0.00     0.173 A 
ATOM     70  F   UNL A   1      40.275  33.806  34.759  1.00  0.00    -0.203 F 
ATOM     71  C   UNL A   1      39.030  34.018  36.748  1.00  0.00     0.198 A 
ATOM     72  C   UNL A   1      37.788  32.146  37.587  1.00  0.00     0.198 A 
ATOM     73  F   UNL A   1      37.847  30.089  36.445  1.00  0.00    -0.203 F 
ATOM     74  F   UNL A   1      39.447  35.285  36.873  1.00  0.00    -0.200 F 
ATOM     75  C   UNL A   1      38.190  33.468  37.703  1.00  0.00     0.200 A 
ATOM     76  F   UNL A   1      36.970  31.612  38.504  1.00  0.00    -0.200 F 
ATOM     77  F   UNL A   1      37.777  34.208  38.741  1.00  0.00    -0.200 F 
ENDBRANCH  43  67
BRANCH  55  78
ATOM     78  C   UNL A   1      44.381  27.459  34.692  1.00  0.00     0.064 A 
ATOM     79  C   UNL A   1      44.238  26.264  35.412  1.00  0.00     0.173 A 
ATOM     80  C   UNL A   1      45.598  28.151  34.808  1.00  0.00     0.173 A 
ATOM     81  F   UNL A   1      43.091  25.572  35.351  1.00  0.00    -0.203 F 
ATOM     82  C   UNL A   1      45.266  25.788  36.224  1.00  0.00     0.198 A 
ATOM     83  C   UNL A   1      46.635  27.655  35.593  1.00  0.00     0.198 A 
ATOM     84  F   UNL A   1      45.791  29.297  34.138  1.00  0.00    -0.203 F 
ATOM     85  F   UNL A   1      45.092  24.664  36.933  1.00  0.00    -0.200 F 
ATOM     86  C   UNL A   1      46.467  26.477  36.304  1.00  0.00     0.200 A 
ATOM     87  F   UNL A   1      47.801  28.314  35.655  1.00  0.00    -0.200 F 
ATOM     88  F   UNL A   1      47.462  26.007  37.070  1.00  0.00    -0.200 F 
ENDBRANCH  55  78
ENDBRANCH  29  30
ENDBRANCH  22  24
ENDBRANCH  21  22
ENDBRANCH  20  21
ENDBRANCH  19  20
ENDBRANCH  18  19
ENDBRANCH  17  18
ENDBRANCH   1  17
TORSDOF 20
ENDMDL
MODEL 2
REMARK VINA RESULT:      -9.2      0.908      2.165
REMARK SMILES [N-]=[N+]=NC[C@H](NC=O)C(=O)OCCOCCOCCOC(=O)c1ccc(-c2c3nc(c(-c4c(F)c(F)c(F)c(F)c4F)c4ccc([nH]4)c(-c4c(F)c(F)c(F)c(F)c4F)c4nc(c(-c5c(F)c(F)c(F)c(F)c5F)c5ccc2[nH]5)C=C4)C=C3)cc1
REMARK SMILES IDX 15 1 14 2 13 3 12 4 11 5 9 6 10 7 5 8 4 9 3 10 1 11 2 12
REMARK SMILES IDX 6 13 7 14 8 16 16 17 17 18 18 19 19 20 20 21 21 22 22 23
REMARK SMILES IDX 23 24 24 25 85 26 25 27 84 28 26 29 27 30 28 31 78 32 29 33
REMARK SMILES IDX 83 34 77 35 79 36 30 37 82 38 76 39 75 40 31 42 63 43 43 44
REMARK SMILES IDX 62 45 44 46 47 47 61 48 80 49 45 50 46 51 60 53 81 54 48 55
REMARK SMILES IDX 32 56 33 57 41 58 34 59 35 60 39 61 42 62 36 63 37 64 40 65
REMARK SMILES IDX 38 66 64 67 65 68 73 69 66 70 67 71 71 72 74 73 68 74 69 75
REMARK SMILES IDX 72 76 70 77 49 78 50 79 58 80 51 81 52 82 56 83 59 84 53 85
REMARK SMILES IDX 54 86 57 87 55 88
REMARK H PARENT 6 15 79 41 47 52
REMARK Flexibility Score: inf
ROOT
ATOM      1  C   UNL A   1      33.622  26.979  22.835  1.00  0.00     0.188 C 
ENDROOT
BRANCH   1   2
ATOM      2  O   UNL A   1      33.648  26.092  21.728  1.00  0.00    -0.376 OA
BRANCH   2   3
ATOM      3  C   UNL A   1      32.622  25.113  21.599  1.00  0.00     0.202 C 
BRANCH   3   4
ATOM      4  C   UNL A   1      32.967  23.622  21.778  1.00  0.00     0.261 C 
BRANCH   4   5
ATOM      5  O   UNL A   1      33.432  23.243  23.093  1.00  0.00    -0.462 OA
BRANCH   5   6
ATOM      6  C   UNL A   1      33.044  22.021  23.547  1.00  0.00     0.328 C 
ATOM      7  O   UNL A   1      32.329  21.243  22.925  1.00  0.00    -0.250 OA
BRANCH   6   8
ATOM      8  C   UNL A   1      33.581  21.686  24.955  1.00  0.00     0.197 C 
BRANCH   8   9
ATOM      9  C   UNL A   1      34.004  20.211  24.981  1.00  0.00     0.127 C 
BRANCH   9  10
ATOM     10  N   UNL A   1      35.469  20.005  25.003  1.00  0.00    -0.091 NA
ATOM     11  N   UNL A   1      36.850  21.827  25.680  1.00  0.00    -0.003 NA
ATOM     12  N   UNL A   1      36.192  20.958  25.335  1.00  0.00     0.001 N 
ENDBRANCH   9  10
ENDBRANCH   8   9
BRANCH   8  13
ATOM     13  N   UNL A   1      32.762  21.990  26.130  1.00  0.00    -0.345 N 
ATOM     14  C   UNL A   1      33.284  22.214  27.374  1.00  0.00     0.337 C 
ATOM     15  H   UNL A   1      31.784  22.036  26.019  1.00  0.00     0.164 HD
ATOM     16  O   UNL A   1      32.616  22.578  28.329  1.00  0.00    -0.279 OA
ENDBRANCH   8  13
ENDBRANCH   6   8
ENDBRANCH   5   6
ENDBRANCH   4   5
ENDBRANCH   3   4
ENDBRANCH   2   3
ENDBRANCH   1   2
BRANCH   1  17
ATOM     17  C   UNL A   1      34.045  28.443  22.638  1.00  0.00     0.188 C 
BRANCH  17  18
ATOM     18  O   UNL A   1      33.366  29.378  23.434  1.00  0.00    -0.376 OA
BRANCH  18  19
ATOM     19  C   UNL A   1      33.012  29.000  24.753  1.00  0.00     0.202 C 
BRANCH  19  20
ATOM     20  C   UNL A   1      32.040  29.821  25.633  1.00  0.00     0.261 C 
BRANCH  20  21
ATOM     21  O   UNL A   1      32.456  30.171  26.965  1.00  0.00    -0.460 OA
BRANCH  21  22
ATOM     22  C   UNL A   1      33.107  31.350  27.133  1.00  0.00     0.338 C 
ATOM     23  O   UNL A   1      32.676  32.467  26.921  1.00  0.00    -0.246 OA
BRANCH  22  24
ATOM     24  C   UNL A   1      34.383  31.058  27.830  1.00  0.00     0.060 A 
ATOM     25  C   UNL A   1      34.692  29.739  28.202  1.00  0.00     0.016 A 
ATOM     26  C   UNL A   1      35.290  32.086  28.083  1.00  0.00     0.016 A 
ATOM     27  C   UNL A   1      35.920  29.442  28.803  1.00  0.00     0.010 A 
ATOM     28  C   UNL A   1      36.501  31.794  28.718  1.00  0.00     0.010 A 
ATOM     29  C   UNL A   1      36.823  30.475  29.087  1.00  0.00    -0.014 A 
BRANCH  29  30
ATOM     30  C   UNL A   1      38.044  30.228  29.894  1.00  0.00     0.031 A 
ATOM     31  C   UNL A   1      39.080  29.280  29.361  1.00  0.00     0.074 A 
ATOM     32  C   UNL A   1      38.213  30.793  31.103  1.00  0.00     0.049 A 
ATOM     33  N   UNL A   1      40.138  28.781  29.948  1.00  0.00    -0.248 NA
ATOM     34  C   UNL A   1      38.885  28.829  27.976  1.00  0.00     0.031 C 
ATOM     35  C   UNL A   1      37.318  31.773  31.710  1.00  0.00     0.029 A 
ATOM     36  N   UNL A   1      39.192  30.595  32.048  1.00  0.00    -0.354 N 
ATOM     37  C   UNL A   1      40.728  27.946  29.008  1.00  0.00     0.074 A 
ATOM     38  C   UNL A   1      39.893  27.984  27.826  1.00  0.00     0.031 C 
ATOM     39  C   UNL A   1      37.778  32.079  32.937  1.00  0.00     0.029 A 
ATOM     40  C   UNL A   1      38.968  31.278  33.218  1.00  0.00     0.049 A 
ATOM     41  H   UNL A   1      39.976  30.019  31.899  1.00  0.00     0.167 HD
ATOM     42  C   UNL A   1      41.865  27.217  29.122  1.00  0.00     0.037 A 
ATOM     43  C   UNL A   1      39.629  31.229  34.393  1.00  0.00     0.037 A 
ATOM     44  C   UNL A   1      42.679  27.166  30.308  1.00  0.00     0.049 A 
ATOM     45  C   UNL A   1      40.814  30.307  34.543  1.00  0.00     0.074 A 
ATOM     46  C   UNL A   1      43.853  26.467  30.520  1.00  0.00     0.029 A 
ATOM     47  N   UNL A   1      42.389  27.828  31.493  1.00  0.00    -0.354 N 
ATOM     48  N   UNL A   1      41.384  29.535  33.649  1.00  0.00    -0.248 NA
ATOM     49  C   UNL A   1      41.440  30.240  35.873  1.00  0.00     0.031 C 
ATOM     50  C   UNL A   1      44.237  26.649  31.853  1.00  0.00     0.029 A 
ATOM     51  C   UNL A   1      43.338  27.517  32.454  1.00  0.00     0.049 A 
ATOM     52  H   UNL A   1      41.622  28.429  31.631  1.00  0.00     0.167 HD
ATOM     53  C   UNL A   1      42.447  28.915  34.296  1.00  0.00     0.074 A 
ATOM     54  C   UNL A   1      42.452  29.411  35.657  1.00  0.00     0.031 C 
ATOM     55  C   UNL A   1      43.336  28.016  33.807  1.00  0.00     0.037 A 
BRANCH  42  56
ATOM     56  C   UNL A   1      42.260  26.377  27.940  1.00  0.00     0.064 A 
ATOM     57  C   UNL A   1      43.192  26.826  26.991  1.00  0.00     0.173 A 
ATOM     58  C   UNL A   1      41.694  25.107  27.749  1.00  0.00     0.173 A 
ATOM     59  F   UNL A   1      43.757  28.037  27.118  1.00  0.00    -0.203 F 
ATOM     60  C   UNL A   1      43.503  26.057  25.871  1.00  0.00     0.198 A 
ATOM     61  C   UNL A   1      42.038  24.324  26.650  1.00  0.00     0.198 A 
ATOM     62  F   UNL A   1      40.805  24.622  28.629  1.00  0.00    -0.203 F 
ATOM     63  F   UNL A   1      44.340  26.540  24.942  1.00  0.00    -0.200 F 
ATOM     64  C   UNL A   1      42.930  24.806  25.704  1.00  0.00     0.200 A 
ATOM     65  F   UNL A   1      41.495  23.108  26.499  1.00  0.00    -0.200 F 
ATOM     66  F   UNL A   1      43.229  24.070  24.625  1.00  0.00    -0.200 F 
ENDBRANCH  42  56
BRANCH  43  67
ATOM     67  C   UNL A   1      39.178  32.069  35.535  1.00  0.00     0.064 A 
ATOM     68  C   UNL A   1      38.313  31.548  36.508  1.00  0.00     0.173 A 
ATOM     69  C   UNL A   1      39.587  33.403  35.676  1.00  0.00     0.173 A 
ATOM     70  F   UNL A   1      37.868  30.288  36.400  1.00  0.00    -0.203 F 
ATOM     71  C   UNL A   1      37.870  32.330  37.572  1.00  0.00     0.198 A 
ATOM     72  C   UNL A   1      39.168  34.175  36.758  1.00  0.00     0.198 A 
ATOM     73  F   UNL A   1      40.405  33.955  34.768  1.00  0.00    -0.203 F 
ATOM     74  F   UNL A   1      37.011  31.819  38.464  1.00  0.00    -0.200 F 
ATOM     75  C   UNL A   1      38.304  33.640  37.702  1.00  0.00     0.200 A 
ATOM     76  F   UNL A   1      39.597  35.439  36.884  1.00  0.00    -0.200 F 
ATOM     77  F   UNL A   1      37.884  34.389  38.730  1.00  0.00    -0.200 F 
ENDBRANCH  43  67
BRANCH  55  78
ATOM     78  C   UNL A   1      44.411  27.517  34.735  1.00  0.00     0.064 A 
ATOM     79  C   UNL A   1      45.618  28.210  34.903  1.00  0.00     0.173 A 
ATOM     80  C   UNL A   1      44.200  26.371  35.518  1.00  0.00     0.173 A 
ATOM     81  F   UNL A   1      45.878  29.302  34.168  1.00  0.00    -0.203 F 
ATOM     82  C   UNL A   1      46.580  27.766  35.808  1.00  0.00     0.198 A 
ATOM     83  C   UNL A   1      45.148  25.950  36.446  1.00  0.00     0.198 A 
ATOM     84  F   UNL A   1      43.060  25.673  35.402  1.00  0.00    -0.203 F 
ATOM     85  F   UNL A   1      47.744  28.422  35.923  1.00  0.00    -0.200 F 
ATOM     86  C   UNL A   1      46.340  26.644  36.587  1.00  0.00     0.200 A 
ATOM     87  F   UNL A   1      44.905  24.874  37.210  1.00  0.00    -0.200 F 
ATOM     88  F   UNL A   1      47.258  26.229  37.470  1.00  0.00    -0.200 F 
ENDBRANCH  55  78
ENDBRANCH  29  30
ENDBRANCH  22  24
ENDBRANCH  21  22
ENDBRANCH  20  21
ENDBRANCH  19  20
ENDBRANCH  18  19
ENDBRANCH  17  18
ENDBRANCH   1  17
TORSDOF 20
ENDMDL
MODEL 3
REMARK VINA RESULT:      -9.2      1.185      2.087
REMARK SMILES [N-]=[N+]=NC[C@H](NC=O)C(=O)OCCOCCOCCOC(=O)c1ccc(-c2c3nc(c(-c4c(F)c(F)c(F)c(F)c4F)c4ccc([nH]4)c(-c4c(F)c(F)c(F)c(F)c4F)c4nc(c(-c5c(F)c(F)c(F)c(F)c5F)c5ccc2[nH]5)C=C4)C=C3)cc1
REMARK SMILES IDX 15 1 14 2 13 3 12 4 11 5 9 6 10 7 5 8 4 9 3 10 1 11 2 12
REMARK SMILES IDX 6 13 7 14 8 16 16 17 17 18 18 19 19 20 20 21 21 22 22 23
REMARK SMILES IDX 23 24 24 25 85 26 25 27 84 28 26 29 27 30 28 31 78 32 29 33
REMARK SMILES IDX 83 34 77 35 79 36 30 37 82 38 76 39 75 40 31 42 63 43 43 44
REMARK SMILES IDX 62 45 44 46 47 47 61 48 80 49 45 50 46 51 60 53 81 54 48 55
REMARK SMILES IDX 32 56 33 57 41 58 34 59 35 60 39 61 42 62 36 63 37 64 40 65
REMARK SMILES IDX 38 66 64 67 65 68 73 69 66 70 67 71 71 72 74 73 68 74 69 75
REMARK SMILES IDX 72 76 70 77 49 78 50 79 58 80 51 81 52 82 56 83 59 84 53 85
REMARK SMILES IDX 54 86 57 87 55 88
REMARK H PARENT 6 15 79 41 47 52
REMARK Flexibility Score: inf
ROOT
ATOM      1  C   UNL A   1      33.457  26.419  25.182  1.00  0.00     0.188 C 
ENDROOT
BRANCH   1   2
ATOM      2  O   UNL A   1      34.042  25.127  25.122  1.00  0.00    -0.376 OA
BRANCH   2   3
ATOM      3  C   UNL A   1      34.451  24.608  23.861  1.00  0.00     0.202 C 
BRANCH   3   4
ATOM      4  C   UNL A   1      33.971  23.212  23.421  1.00  0.00     0.261 C 
BRANCH   4   5
ATOM      5  O   UNL A   1      34.732  22.099  23.940  1.00  0.00    -0.462 OA
BRANCH   5   6
ATOM      6  C   UNL A   1      34.577  21.819  25.262  1.00  0.00     0.328 C 
ATOM      7  O   UNL A   1      35.390  22.105  26.134  1.00  0.00    -0.250 OA
BRANCH   6   8
ATOM      8  C   UNL A   1      33.262  21.078  25.586  1.00  0.00     0.197 C 
BRANCH   8   9
ATOM      9  C   UNL A   1      32.418  21.959  26.517  1.00  0.00     0.127 C 
BRANCH   9  10
ATOM     10  N   UNL A   1      31.183  22.483  25.893  1.00  0.00    -0.091 NA
ATOM     11  N   UNL A   1      29.696  23.764  27.247  1.00  0.00    -0.003 NA
ATOM     12  N   UNL A   1      30.396  23.132  26.600  1.00  0.00     0.001 N 
ENDBRANCH   9  10
ENDBRANCH   8   9
BRANCH   8  13
ATOM     13  N   UNL A   1      33.314  19.710  26.107  1.00  0.00    -0.345 N 
ATOM     14  C   UNL A   1      32.703  18.649  25.499  1.00  0.00     0.337 C 
ATOM     15  H   UNL A   1      33.817  19.546  26.939  1.00  0.00     0.164 HD
ATOM     16  O   UNL A   1      32.838  17.493  25.867  1.00  0.00    -0.279 OA
ENDBRANCH   8  13
ENDBRANCH   6   8
ENDBRANCH   5   6
ENDBRANCH   4   5
ENDBRANCH   3   4
ENDBRANCH   2   3
ENDBRANCH   1   2
BRANCH   1  17
ATOM     17  C   UNL A   1      32.502  26.761  26.336  1.00  0.00     0.188 C 
BRANCH  17  18
ATOM     18  O   UNL A   1      31.403  27.563  25.990  1.00  0.00    -0.376 OA
BRANCH  18  19
ATOM     19  C   UNL A   1      31.615  28.628  25.079  1.00  0.00     0.202 C 
BRANCH  19  20
ATOM     20  C   UNL A   1      32.043  30.046  25.526  1.00  0.00     0.261 C 
BRANCH  20  21
ATOM     21  O   UNL A   1      32.573  30.212  26.852  1.00  0.00    -0.460 OA
BRANCH  21  22
ATOM     22  C   UNL A   1      33.148  31.402  27.160  1.00  0.00     0.338 C 
ATOM     23  O   UNL A   1      32.646  32.507  27.076  1.00  0.00    -0.246 OA
BRANCH  22  24
ATOM     24  C   UNL A   1      34.442  31.113  27.825  1.00  0.00     0.060 A 
ATOM     25  C   UNL A   1      34.765  29.794  28.184  1.00  0.00     0.016 A 
ATOM     26  C   UNL A   1      35.349  32.145  28.060  1.00  0.00     0.016 A 
ATOM     27  C   UNL A   1      36.009  29.501  28.755  1.00  0.00     0.010 A 
ATOM     28  C   UNL A   1      36.577  31.856  28.665  1.00  0.00     0.010 A 
ATOM     29  C   UNL A   1      36.913  30.537  29.021  1.00  0.00    -0.014 A 
BRANCH  29  30
ATOM     30  C   UNL A   1      38.154  30.293  29.798  1.00  0.00     0.031 A 
ATOM     31  C   UNL A   1      39.188  29.363  29.231  1.00  0.00     0.074 A 
ATOM     32  C   UNL A   1      38.343  30.844  31.011  1.00  0.00     0.049 A 
ATOM     33  N   UNL A   1      40.264  28.868  29.787  1.00  0.00    -0.248 NA
ATOM     34  C   UNL A   1      38.967  28.928  27.844  1.00  0.00     0.031 C 
ATOM     35  C   UNL A   1      37.452  31.806  31.650  1.00  0.00     0.029 A 
ATOM     36  N   UNL A   1      39.345  30.645  31.931  1.00  0.00    -0.354 N 
ATOM     37  C   UNL A   1      40.841  28.052  28.824  1.00  0.00     0.074 A 
ATOM     38  C   UNL A   1      39.981  28.095  27.661  1.00  0.00     0.031 C 
ATOM     39  C   UNL A   1      37.935  32.102  32.870  1.00  0.00     0.029 A 
ATOM     40  C   UNL A   1      39.140  31.310  33.115  1.00  0.00     0.049 A 
ATOM     41  H   UNL A   1      40.132  30.079  31.758  1.00  0.00     0.167 HD
ATOM     42  C   UNL A   1      41.988  27.333  28.903  1.00  0.00     0.037 A 
ATOM     43  C   UNL A   1      39.827  31.253  34.274  1.00  0.00     0.037 A 
ATOM     44  C   UNL A   1      42.828  27.275  30.071  1.00  0.00     0.049 A 
ATOM     45  C   UNL A   1      41.025  30.342  34.386  1.00  0.00     0.074 A 
ATOM     46  C   UNL A   1      44.015  26.586  30.248  1.00  0.00     0.029 A 
ATOM     47  N   UNL A   1      42.558  27.919  31.270  1.00  0.00    -0.354 N 
ATOM     48  N   UNL A   1      41.583  29.588  33.470  1.00  0.00    -0.248 NA
ATOM     49  C   UNL A   1      41.680  30.265  35.701  1.00  0.00     0.031 C 
ATOM     50  C   UNL A   1      44.426  26.756  31.575  1.00  0.00     0.029 A 
ATOM     51  C   UNL A   1      43.531  27.606  32.206  1.00  0.00     0.049 A 
ATOM     52  H   UNL A   1      41.788  28.510  31.433  1.00  0.00     0.167 HD
ATOM     53  C   UNL A   1      42.666  28.970  34.086  1.00  0.00     0.074 A 
ATOM     54  C   UNL A   1      42.696  29.449  35.453  1.00  0.00     0.031 C 
ATOM     55  C   UNL A   1      43.554  28.087  33.566  1.00  0.00     0.037 A 
BRANCH  42  56
ATOM     56  C   UNL A   1      42.366  26.513  27.702  1.00  0.00     0.064 A 
ATOM     57  C   UNL A   1      41.786  25.260  27.447  1.00  0.00     0.173 A 
ATOM     58  C   UNL A   1      43.327  26.984  26.794  1.00  0.00     0.173 A 
ATOM     59  F   UNL A   1      40.870  24.757  28.288  1.00  0.00    -0.203 F 
ATOM     60  C   UNL A   1      42.191  24.490  26.360  1.00  0.00     0.198 A 
ATOM     61  C   UNL A   1      43.700  26.229  25.685  1.00  0.00     0.198 A 
ATOM     62  F   UNL A   1      43.907  28.179  26.981  1.00  0.00    -0.203 F 
ATOM     63  F   UNL A   1      41.676  23.266  26.180  1.00  0.00    -0.200 F 
ATOM     64  C   UNL A   1      43.144  24.976  25.477  1.00  0.00     0.200 A 
ATOM     65  F   UNL A   1      44.609  26.709  24.824  1.00  0.00    -0.200 F 
ATOM     66  F   UNL A   1      43.533  24.233  24.433  1.00  0.00    -0.200 F 
ENDBRANCH  42  56
BRANCH  43  67
ATOM     67  C   UNL A   1      39.392  32.074  35.437  1.00  0.00     0.064 A 
ATOM     68  C   UNL A   1      38.489  31.558  36.377  1.00  0.00     0.173 A 
ATOM     69  C   UNL A   1      39.857  33.383  35.630  1.00  0.00     0.173 A 
ATOM     70  F   UNL A   1      37.991  30.323  36.218  1.00  0.00    -0.203 F 
ATOM     71  C   UNL A   1      38.060  32.324  37.460  1.00  0.00     0.198 A 
ATOM     72  C   UNL A   1      39.451  34.136  36.730  1.00  0.00     0.198 A 
ATOM     73  F   UNL A   1      40.714  33.928  34.755  1.00  0.00    -0.203 F 
ATOM     74  F   UNL A   1      37.164  31.821  38.319  1.00  0.00    -0.200 F 
ATOM     75  C   UNL A   1      38.549  33.608  37.642  1.00  0.00     0.200 A 
ATOM     76  F   UNL A   1      39.933  35.374  36.907  1.00  0.00    -0.200 F 
ATOM     77  F   UNL A   1      38.143  34.340  38.688  1.00  0.00    -0.200 F 
ENDBRANCH  43  67
BRANCH  55  78
ATOM     78  C   UNL A   1      44.654  27.588  34.463  1.00  0.00     0.064 A 
ATOM     79  C   UNL A   1      44.451  26.527  35.356  1.00  0.00     0.173 A 
ATOM     80  C   UNL A   1      45.945  28.134  34.377  1.00  0.00     0.173 A 
ATOM     81  F   UNL A   1      43.234  25.980  35.490  1.00  0.00    -0.203 F 
ATOM     82  C   UNL A   1      45.495  26.040  36.140  1.00  0.00     0.198 A 
ATOM     83  C   UNL A   1      46.993  27.622  35.136  1.00  0.00     0.198 A 
ATOM     84  F   UNL A   1      46.197  29.148  33.535  1.00  0.00    -0.203 F 
ATOM     85  F   UNL A   1      45.269  25.050  37.015  1.00  0.00    -0.200 F 
ATOM     86  C   UNL A   1      46.767  26.579  36.021  1.00  0.00     0.200 A 
ATOM     87  F   UNL A   1      48.226  28.134  35.006  1.00  0.00    -0.200 F 
ATOM     88  F   UNL A   1      47.774  26.096  36.762  1.00  0.00    -0.200 F 
ENDBRANCH  55  78
ENDBRANCH  29  30
ENDBRANCH  22  24
ENDBRANCH  21  22
ENDBRANCH  20  21
ENDBRANCH  19  20
ENDBRANCH  18  19
ENDBRANCH  17  18
ENDBRANCH   1  17
TORSDOF 20
ENDMDL
