MODEL 1
REMARK VINA RESULT:     -12.2      0.000      0.000
REMARK SMILES CC1(C)[C@@]2(C(=O)OCCOCCOCCOC(=O)c3ccc(-c4c5nc(c(-c6c(F)c(F)c(F)c(F)c6F)c6ccc([nH]6)c(-c6c(F)c(F)c(F)c(F)c6F)c6nc(c(-c7c(F)c(F)c(F)c(F)c7F)c7ccc4[nH]7)C=C6)C=C5)cc3)CC[C@]1(C)/C(=N/NC(=O)c1ccc(Cl)cc1)C2
REMARK SMILES IDX 11 1 10 2 9 3 8 4 7 5 5 6 6 7 4 8 1 9 2 10 3 11 84 12 82 13
REMARK SMILES IDX 98 14 83 15 85 16 86 17 87 18 88 19 89 20 90 22 91 23 92 24
REMARK SMILES IDX 97 25 93 26 96 27 94 28 95 29 12 30 13 31 14 32 15 33 16 34
REMARK SMILES IDX 17 35 18 36 19 37 20 38 81 39 21 40 80 41 22 42 23 43 24 44
REMARK SMILES IDX 74 45 25 46 79 47 73 48 75 49 26 50 78 51 72 52 71 53 27 55
REMARK SMILES IDX 59 56 39 57 58 58 40 59 43 60 57 61 76 62 41 63 42 64 56 66
REMARK SMILES IDX 77 67 44 68 28 69 29 70 37 71 30 72 31 73 35 74 38 75 32 76
REMARK SMILES IDX 33 77 36 78 34 79 60 80 61 81 69 82 62 83 63 84 67 85 70 86
REMARK SMILES IDX 64 87 65 88 68 89 66 90 45 91 46 92 54 93 47 94 48 95 52 96
REMARK SMILES IDX 55 97 49 98 50 99 53 100 51 101
REMARK H PARENT 88 21 75 54 43 65
REMARK Flexibility Score: inf
ROOT
ATOM      1  C   UNL A   1      40.803  21.773  27.699  1.00  0.00     0.188 C 
ENDROOT
BRANCH   1   2
ATOM      2  O   UNL A   1      39.806  22.454  26.960  1.00  0.00    -0.376 OA
BRANCH   2   3
ATOM      3  C   UNL A   1      39.014  21.639  26.096  1.00  0.00     0.202 C 
BRANCH   3   4
ATOM      4  C   UNL A   1      37.898  22.381  25.350  1.00  0.00     0.261 C 
BRANCH   4   5
ATOM      5  O   UNL A   1      36.590  22.077  25.878  1.00  0.00    -0.463 OA
BRANCH   5   6
ATOM      6  C   UNL A   1      35.890  21.081  25.260  1.00  0.00     0.313 C 
ATOM      7  O   UNL A   1      36.333  19.971  25.006  1.00  0.00    -0.252 OA
BRANCH   6   8
ATOM      8  C   UNL A   1      34.494  21.542  24.888  1.00  0.00     0.079 C 
ATOM      9  C   UNL A   1      33.509  21.579  27.307  1.00  0.00     0.013 C 
ATOM     10  C   UNL A   1      33.651  22.306  25.954  1.00  0.00    -0.008 C 
ATOM     11  C   UNL A   1      34.119  23.744  26.279  1.00  0.00     0.013 C 
ATOM     12  C   UNL A   1      32.373  22.266  25.052  1.00  0.00     0.014 C 
ATOM     13  C   UNL A   1      33.628  20.279  24.584  1.00  0.00     0.021 C 
ATOM     14  C   UNL A   1      34.412  22.494  23.664  1.00  0.00     0.073 C 
ATOM     15  C   UNL A   1      32.181  20.770  24.752  1.00  0.00     0.014 C 
ATOM     16  C   UNL A   1      31.138  22.969  25.577  1.00  0.00     0.018 C 
ATOM     17  C   UNL A   1      32.943  22.827  23.726  1.00  0.00     0.046 C 
ATOM     18  N   UNL A   1      32.164  23.477  22.925  1.00  0.00    -0.181 NA
BRANCH  18  19
ATOM     19  N   UNL A   1      32.498  24.105  21.770  1.00  0.00    -0.243 N 
ATOM     20  C   UNL A   1      32.712  25.405  21.375  1.00  0.00     0.271 C 
ATOM     21  H   UNL A   1      32.618  23.470  21.029  1.00  0.00     0.194 HD
ATOM     22  O   UNL A   1      32.981  25.648  20.198  1.00  0.00    -0.267 OA
BRANCH  20  23
ATOM     23  C   UNL A   1      32.662  26.540  22.301  1.00  0.00     0.041 A 
ATOM     24  C   UNL A   1      31.542  27.385  22.226  1.00  0.00     0.015 A 
ATOM     25  C   UNL A   1      33.667  26.769  23.246  1.00  0.00     0.015 A 
ATOM     26  C   UNL A   1      31.377  28.400  23.168  1.00  0.00     0.021 A 
ATOM     27  C   UNL A   1      33.503  27.798  24.179  1.00  0.00     0.021 A 
ATOM     28  C   UNL A   1      32.348  28.588  24.152  1.00  0.00     0.041 A 
ATOM     29  Cl  UNL A   1      32.093  29.770  25.376  1.00  0.00    -0.084 Cl
ENDBRANCH  20  23
ENDBRANCH  18  19
ENDBRANCH   6   8
ENDBRANCH   5   6
ENDBRANCH   4   5
ENDBRANCH   3   4
ENDBRANCH   2   3
ENDBRANCH   1   2
BRANCH   1  30
ATOM     30  C   UNL A   1      41.180  20.397  27.186  1.00  0.00     0.188 C 
BRANCH  30  31
ATOM     31  O   UNL A   1      42.429  20.250  26.518  1.00  0.00    -0.376 OA
BRANCH  31  32
ATOM     32  C   UNL A   1      42.793  21.423  25.776  1.00  0.00     0.202 C 
BRANCH  32  33
ATOM     33  C   UNL A   1      44.310  21.661  25.574  1.00  0.00     0.261 C 
BRANCH  33  34
ATOM     34  O   UNL A   1      44.799  22.827  26.269  1.00  0.00    -0.460 OA
BRANCH  34  35
ATOM     35  C   UNL A   1      44.537  24.020  25.666  1.00  0.00     0.338 C 
ATOM     36  O   UNL A   1      44.602  24.259  24.477  1.00  0.00    -0.246 OA
BRANCH  35  37
ATOM     37  C   UNL A   1      43.893  24.950  26.642  1.00  0.00     0.060 A 
ATOM     38  C   UNL A   1      44.174  26.321  26.506  1.00  0.00     0.016 A 
ATOM     39  C   UNL A   1      42.961  24.530  27.595  1.00  0.00     0.016 A 
ATOM     40  C   UNL A   1      43.531  27.265  27.311  1.00  0.00     0.010 A 
ATOM     41  C   UNL A   1      42.342  25.475  28.425  1.00  0.00     0.010 A 
ATOM     42  C   UNL A   1      42.630  26.846  28.297  1.00  0.00    -0.014 A 
BRANCH  42  43
ATOM     43  C   UNL A   1      42.140  27.806  29.320  1.00  0.00     0.031 A 
ATOM     44  C   UNL A   1      42.908  27.918  30.608  1.00  0.00     0.074 A 
ATOM     45  C   UNL A   1      41.042  28.561  29.133  1.00  0.00     0.049 A 
ATOM     46  N   UNL A   1      42.610  28.571  31.703  1.00  0.00    -0.248 NA
ATOM     47  C   UNL A   1      44.188  27.197  30.664  1.00  0.00     0.031 C 
ATOM     48  C   UNL A   1      40.252  28.624  27.907  1.00  0.00     0.029 A 
ATOM     49  N   UNL A   1      40.395  29.415  29.996  1.00  0.00    -0.354 N 
ATOM     50  C   UNL A   1      43.658  28.326  32.581  1.00  0.00     0.074 A 
ATOM     51  C   UNL A   1      44.596  27.465  31.895  1.00  0.00     0.031 C 
ATOM     52  C   UNL A   1      39.210  29.454  28.103  1.00  0.00     0.029 A 
ATOM     53  C   UNL A   1      39.234  29.942  29.483  1.00  0.00     0.049 A 
ATOM     54  H   UNL A   1      40.733  29.629  30.896  1.00  0.00     0.167 HD
ATOM     55  C   UNL A   1      43.822  28.773  33.847  1.00  0.00     0.037 A 
ATOM     56  C   UNL A   1      38.281  30.693  30.075  1.00  0.00     0.037 A 
ATOM     57  C   UNL A   1      42.889  29.619  34.541  1.00  0.00     0.049 A 
ATOM     58  C   UNL A   1      38.421  31.067  31.532  1.00  0.00     0.074 A 
ATOM     59  C   UNL A   1      42.975  30.125  35.825  1.00  0.00     0.029 A 
ATOM     60  N   UNL A   1      41.691  30.072  34.010  1.00  0.00    -0.354 N 
ATOM     61  N   UNL A   1      39.410  30.833  32.360  1.00  0.00    -0.248 NA
ATOM     62  C   UNL A   1      37.297  31.795  32.144  1.00  0.00     0.031 C 
ATOM     63  C   UNL A   1      41.802  30.839  36.092  1.00  0.00     0.029 A 
ATOM     64  C   UNL A   1      41.011  30.820  34.956  1.00  0.00     0.049 A 
ATOM     65  H   UNL A   1      41.373  29.888  33.097  1.00  0.00     0.167 HD
ATOM     66  C   UNL A   1      39.041  31.403  33.573  1.00  0.00     0.074 A 
ATOM     67  C   UNL A   1      37.741  32.005  33.375  1.00  0.00     0.031 C 
ATOM     68  C   UNL A   1      39.720  31.425  34.747  1.00  0.00     0.037 A 
BRANCH  55  69
ATOM     69  C   UNL A   1      45.037  28.305  34.586  1.00  0.00     0.064 A 
ATOM     70  C   UNL A   1      46.238  29.030  34.568  1.00  0.00     0.173 A 
ATOM     71  C   UNL A   1      44.992  27.121  35.337  1.00  0.00     0.173 A 
ATOM     72  F   UNL A   1      46.334  30.158  33.848  1.00  0.00    -0.203 F 
ATOM     73  C   UNL A   1      47.357  28.574  35.259  1.00  0.00     0.198 A 
ATOM     74  C   UNL A   1      46.105  26.682  36.048  1.00  0.00     0.198 A 
ATOM     75  F   UNL A   1      43.867  26.393  35.384  1.00  0.00    -0.203 F 
ATOM     76  F   UNL A   1      48.507  29.257  35.192  1.00  0.00    -0.200 F 
ATOM     77  C   UNL A   1      47.287  27.404  36.002  1.00  0.00     0.200 A 
ATOM     78  F   UNL A   1      46.035  25.556  36.772  1.00  0.00    -0.200 F 
ATOM     79  F   UNL A   1      48.366  26.968  36.669  1.00  0.00    -0.200 F 
ENDBRANCH  55  69
BRANCH  56  80
ATOM     80  C   UNL A   1      37.070  31.107  29.318  1.00  0.00     0.064 A 
ATOM     81  C   UNL A   1      36.042  30.194  29.041  1.00  0.00     0.173 A 
ATOM     82  C   UNL A   1      36.941  32.406  28.804  1.00  0.00     0.173 A 
ATOM     83  F   UNL A   1      36.137  28.928  29.476  1.00  0.00    -0.203 F 
ATOM     84  C   UNL A   1      34.942  30.558  28.266  1.00  0.00     0.198 A 
ATOM     85  C   UNL A   1      35.828  32.777  28.052  1.00  0.00     0.198 A 
ATOM     86  F   UNL A   1      37.903  33.314  29.023  1.00  0.00    -0.203 F 
ATOM     87  F   UNL A   1      34.004  29.648  27.969  1.00  0.00    -0.200 F 
ATOM     88  C   UNL A   1      34.833  31.851  27.776  1.00  0.00     0.200 A 
ATOM     89  F   UNL A   1      35.726  34.027  27.581  1.00  0.00    -0.200 F 
ATOM     90  F   UNL A   1      33.780  32.198  27.024  1.00  0.00    -0.200 F 
ENDBRANCH  56  80
BRANCH  68  91
ATOM     91  C   UNL A   1      39.095  32.147  35.906  1.00  0.00     0.064 A 
ATOM     92  C   UNL A   1      38.251  31.490  36.812  1.00  0.00     0.173 A 
ATOM     93  C   UNL A   1      39.404  33.494  36.155  1.00  0.00     0.173 A 
ATOM     94  F   UNL A   1      37.914  30.207  36.612  1.00  0.00    -0.203 F 
ATOM     95  C   UNL A   1      37.729  32.157  37.918  1.00  0.00     0.198 A 
ATOM     96  C   UNL A   1      38.903  34.151  37.275  1.00  0.00     0.198 A 
ATOM     97  F   UNL A   1      40.214  34.166  35.323  1.00  0.00    -0.203 F 
ATOM     98  F   UNL A   1      36.898  31.519  38.753  1.00  0.00    -0.200 F 
ATOM     99  C   UNL A   1      38.063  33.483  38.154  1.00  0.00     0.200 A 
ATOM    100  F   UNL A   1      39.239  35.427  37.508  1.00  0.00    -0.200 F 
ATOM    101  F   UNL A   1      37.572  34.119  39.227  1.00  0.00    -0.200 F 
ENDBRANCH  68  91
ENDBRANCH  42  43
ENDBRANCH  35  37
ENDBRANCH  34  35
ENDBRANCH  33  34
ENDBRANCH  32  33
ENDBRANCH  31  32
ENDBRANCH  30  31
ENDBRANCH   1  30
TORSDOF 19
ENDMDL
MODEL 2
REMARK VINA RESULT:     -12.0      4.004      9.227
REMARK SMILES CC1(C)[C@@]2(C(=O)OCCOCCOCCOC(=O)c3ccc(-c4c5nc(c(-c6c(F)c(F)c(F)c(F)c6F)c6ccc([nH]6)c(-c6c(F)c(F)c(F)c(F)c6F)c6nc(c(-c7c(F)c(F)c(F)c(F)c7F)c7ccc4[nH]7)C=C6)C=C5)cc3)CC[C@]1(C)/C(=N/NC(=O)c1ccc(Cl)cc1)C2
REMARK SMILES IDX 11 1 10 2 9 3 8 4 7 5 5 6 6 7 4 8 1 9 2 10 3 11 84 12 82 13
REMARK SMILES IDX 98 14 83 15 85 16 86 17 87 18 88 19 89 20 90 22 91 23 92 24
REMARK SMILES IDX 97 25 93 26 96 27 94 28 95 29 12 30 13 31 14 32 15 33 16 34
REMARK SMILES IDX 17 35 18 36 19 37 20 38 81 39 21 40 80 41 22 42 23 43 24 44
REMARK SMILES IDX 74 45 25 46 79 47 73 48 75 49 26 50 78 51 72 52 71 53 27 55
REMARK SMILES IDX 59 56 39 57 58 58 40 59 43 60 57 61 76 62 41 63 42 64 56 66
REMARK SMILES IDX 77 67 44 68 28 69 29 70 37 71 30 72 31 73 35 74 38 75 32 76
REMARK SMILES IDX 33 77 36 78 34 79 60 80 61 81 69 82 62 83 63 84 67 85 70 86
REMARK SMILES IDX 64 87 65 88 68 89 66 90 45 91 46 92 54 93 47 94 48 95 52 96
REMARK SMILES IDX 55 97 49 98 50 99 53 100 51 101
REMARK H PARENT 88 21 75 54 43 65
REMARK Flexibility Score: inf
ROOT
ATOM      1  C   UNL A   1      34.695  32.788  29.409  1.00  0.00     0.188 C 
ENDROOT
BRANCH   1   2
ATOM      2  O   UNL A   1      34.717  31.529  28.760  1.00  0.00    -0.376 OA
BRANCH   2   3
ATOM      3  C   UNL A   1      33.885  31.417  27.605  1.00  0.00     0.202 C 
BRANCH   3   4
ATOM      4  C   UNL A   1      33.358  30.004  27.322  1.00  0.00     0.261 C 
BRANCH   4   5
ATOM      5  O   UNL A   1      33.221  29.743  25.910  1.00  0.00    -0.463 OA
BRANCH   5   6
ATOM      6  C   UNL A   1      31.963  29.825  25.386  1.00  0.00     0.313 C 
ATOM      7  O   UNL A   1      31.235  30.803  25.468  1.00  0.00    -0.252 OA
BRANCH   6   8
ATOM      8  C   UNL A   1      31.562  28.523  24.718  1.00  0.00     0.079 C 
ATOM      9  C   UNL A   1      33.187  28.691  22.680  1.00  0.00     0.013 C 
ATOM     10  C   UNL A   1      32.596  27.808  23.797  1.00  0.00    -0.008 C 
ATOM     11  C   UNL A   1      33.799  27.153  24.517  1.00  0.00     0.013 C 
ATOM     12  C   UNL A   1      31.530  26.768  23.315  1.00  0.00     0.014 C 
ATOM     13  C   UNL A   1      30.368  28.817  23.755  1.00  0.00     0.021 C 
ATOM     14  C   UNL A   1      31.139  27.384  25.683  1.00  0.00     0.073 C 
ATOM     15  C   UNL A   1      30.388  27.641  22.767  1.00  0.00     0.014 C 
ATOM     16  C   UNL A   1      32.006  25.682  22.373  1.00  0.00     0.018 C 
ATOM     17  C   UNL A   1      30.980  26.273  24.676  1.00  0.00     0.046 C 
ATOM     18  N   UNL A   1      30.524  25.067  24.774  1.00  0.00    -0.181 NA
BRANCH  18  19
ATOM     19  N   UNL A   1      30.081  24.437  25.890  1.00  0.00    -0.243 N 
ATOM     20  C   UNL A   1      30.504  23.383  26.667  1.00  0.00     0.271 C 
ATOM     21  H   UNL A   1      29.247  24.834  26.230  1.00  0.00     0.194 HD
ATOM     22  O   UNL A   1      29.827  23.029  27.633  1.00  0.00    -0.267 OA
BRANCH  20  23
ATOM     23  C   UNL A   1      31.753  22.658  26.418  1.00  0.00     0.041 A 
ATOM     24  C   UNL A   1      31.767  21.743  25.354  1.00  0.00     0.015 A 
ATOM     25  C   UNL A   1      32.901  22.881  27.185  1.00  0.00     0.015 A 
ATOM     26  C   UNL A   1      32.963  21.125  24.988  1.00  0.00     0.021 A 
ATOM     27  C   UNL A   1      34.095  22.246  26.822  1.00  0.00     0.021 A 
ATOM     28  C   UNL A   1      34.125  21.395  25.712  1.00  0.00     0.041 A 
ATOM     29  Cl  UNL A   1      35.619  20.715  25.197  1.00  0.00    -0.084 Cl
ENDBRANCH  20  23
ENDBRANCH  18  19
ENDBRANCH   6   8
ENDBRANCH   5   6
ENDBRANCH   4   5
ENDBRANCH   3   4
ENDBRANCH   2   3
ENDBRANCH   1   2
BRANCH   1  30
ATOM     30  C   UNL A   1      35.316  33.937  28.639  1.00  0.00     0.188 C 
BRANCH  30  31
ATOM     31  O   UNL A   1      34.627  35.183  28.622  1.00  0.00    -0.376 OA
BRANCH  31  32
ATOM     32  C   UNL A   1      33.280  35.067  29.104  1.00  0.00     0.202 C 
BRANCH  32  33
ATOM     33  C   UNL A   1      32.656  36.351  29.706  1.00  0.00     0.261 C 
BRANCH  33  34
ATOM     34  O   UNL A   1      33.163  36.666  31.020  1.00  0.00    -0.460 OA
BRANCH  34  35
ATOM     35  C   UNL A   1      32.759  35.832  32.018  1.00  0.00     0.338 C 
ATOM     36  O   UNL A   1      31.615  35.634  32.375  1.00  0.00    -0.246 OA
BRANCH  35  37
ATOM     37  C   UNL A   1      33.901  34.975  32.456  1.00  0.00     0.060 A 
ATOM     38  C   UNL A   1      35.188  35.535  32.392  1.00  0.00     0.016 A 
ATOM     39  C   UNL A   1      33.730  33.704  33.013  1.00  0.00     0.016 A 
ATOM     40  C   UNL A   1      36.296  34.838  32.881  1.00  0.00     0.010 A 
ATOM     41  C   UNL A   1      34.847  32.991  33.473  1.00  0.00     0.010 A 
ATOM     42  C   UNL A   1      36.138  33.547  33.399  1.00  0.00    -0.014 A 
BRANCH  42  43
ATOM     43  C   UNL A   1      37.326  32.702  33.682  1.00  0.00     0.031 A 
ATOM     44  C   UNL A   1      38.076  32.943  34.963  1.00  0.00     0.074 A 
ATOM     45  C   UNL A   1      37.749  31.745  32.835  1.00  0.00     0.049 A 
ATOM     46  N   UNL A   1      39.214  32.441  35.372  1.00  0.00    -0.248 NA
ATOM     47  C   UNL A   1      37.451  33.876  35.913  1.00  0.00     0.031 C 
ATOM     48  C   UNL A   1      37.076  31.341  31.604  1.00  0.00     0.029 A 
ATOM     49  N   UNL A   1      38.869  30.948  32.885  1.00  0.00    -0.354 N 
ATOM     50  C   UNL A   1      39.447  33.010  36.617  1.00  0.00     0.074 A 
ATOM     51  C   UNL A   1      38.337  33.894  36.896  1.00  0.00     0.031 C 
ATOM     52  C   UNL A   1      37.809  30.386  31.001  1.00  0.00     0.029 A 
ATOM     53  C   UNL A   1      39.026  30.149  31.778  1.00  0.00     0.049 A 
ATOM     54  H   UNL A   1      39.499  30.951  33.641  1.00  0.00     0.167 HD
ATOM     55  C   UNL A   1      40.495  32.817  37.451  1.00  0.00     0.037 A 
ATOM     56  C   UNL A   1      40.055  29.353  31.417  1.00  0.00     0.037 A 
ATOM     57  C   UNL A   1      41.608  31.950  37.176  1.00  0.00     0.049 A 
ATOM     58  C   UNL A   1      41.276  29.259  32.302  1.00  0.00     0.074 A 
ATOM     59  C   UNL A   1      42.713  31.690  37.965  1.00  0.00     0.029 A 
ATOM     60  N   UNL A   1      41.763  31.212  36.012  1.00  0.00    -0.354 N 
ATOM     61  N   UNL A   1      41.495  29.798  33.476  1.00  0.00    -0.248 NA
ATOM     62  C   UNL A   1      42.404  28.459  31.797  1.00  0.00     0.031 C 
ATOM     63  C   UNL A   1      43.565  30.837  37.256  1.00  0.00     0.029 A 
ATOM     64  C   UNL A   1      42.965  30.526  36.048  1.00  0.00     0.049 A 
ATOM     65  H   UNL A   1      41.114  31.182  35.273  1.00  0.00     0.167 HD
ATOM     66  C   UNL A   1      42.766  29.384  33.860  1.00  0.00     0.074 A 
ATOM     67  C   UNL A   1      43.269  28.539  32.799  1.00  0.00     0.031 C 
ATOM     68  C   UNL A   1      43.454  29.679  34.991  1.00  0.00     0.037 A 
BRANCH  55  69
ATOM     69  C   UNL A   1      40.511  33.609  38.723  1.00  0.00     0.064 A 
ATOM     70  C   UNL A   1      39.780  33.209  39.851  1.00  0.00     0.173 A 
ATOM     71  C   UNL A   1      41.285  34.775  38.817  1.00  0.00     0.173 A 
ATOM     72  F   UNL A   1      39.010  32.111  39.802  1.00  0.00    -0.203 F 
ATOM     73  C   UNL A   1      39.807  33.962  41.021  1.00  0.00     0.198 A 
ATOM     74  C   UNL A   1      41.330  35.510  39.997  1.00  0.00     0.198 A 
ATOM     75  F   UNL A   1      42.001  35.198  37.764  1.00  0.00    -0.203 F 
ATOM     76  F   UNL A   1      39.066  33.588  42.073  1.00  0.00    -0.200 F 
ATOM     77  C   UNL A   1      40.586  35.107  41.095  1.00  0.00     0.200 A 
ATOM     78  F   UNL A   1      42.089  36.613  40.069  1.00  0.00    -0.200 F 
ATOM     79  F   UNL A   1      40.612  35.830  42.224  1.00  0.00    -0.200 F 
ENDBRANCH  55  69
BRANCH  56  80
ATOM     80  C   UNL A   1      40.017  28.612  30.127  1.00  0.00     0.064 A 
ATOM     81  C   UNL A   1      39.452  27.331  30.046  1.00  0.00     0.173 A 
ATOM     82  C   UNL A   1      40.598  29.142  28.965  1.00  0.00     0.173 A 
ATOM     83  F   UNL A   1      38.920  26.764  31.139  1.00  0.00    -0.203 F 
ATOM     84  C   UNL A   1      39.484  26.602  28.858  1.00  0.00     0.198 A 
ATOM     85  C   UNL A   1      40.605  28.424  27.771  1.00  0.00     0.198 A 
ATOM     86  F   UNL A   1      41.169  30.354  28.993  1.00  0.00    -0.203 F 
ATOM     87  F   UNL A   1      38.988  25.358  28.824  1.00  0.00    -0.200 F 
ATOM     88  C   UNL A   1      40.056  27.151  27.720  1.00  0.00     0.200 A 
ATOM     89  F   UNL A   1      41.158  28.958  26.674  1.00  0.00    -0.200 F 
ATOM     90  F   UNL A   1      40.094  26.448  26.580  1.00  0.00    -0.200 F 
ENDBRANCH  56  80
BRANCH  68  91
ATOM     91  C   UNL A   1      44.813  29.063  35.166  1.00  0.00     0.064 A 
ATOM     92  C   UNL A   1      44.976  27.791  35.732  1.00  0.00     0.173 A 
ATOM     93  C   UNL A   1      45.958  29.723  34.694  1.00  0.00     0.173 A 
ATOM     94  F   UNL A   1      43.914  27.124  36.211  1.00  0.00    -0.203 F 
ATOM     95  C   UNL A   1      46.236  27.207  35.831  1.00  0.00     0.198 A 
ATOM     96  C   UNL A   1      47.214  29.126  34.769  1.00  0.00     0.198 A 
ATOM     97  F   UNL A   1      45.856  30.939  34.137  1.00  0.00    -0.203 F 
ATOM     98  F   UNL A   1      46.373  26.004  36.405  1.00  0.00    -0.200 F 
ATOM     99  C   UNL A   1      47.352  27.870  35.341  1.00  0.00     0.200 A 
ATOM    100  F   UNL A   1      48.288  29.762  34.282  1.00  0.00    -0.200 F 
ATOM    101  F   UNL A   1      48.563  27.299  35.422  1.00  0.00    -0.200 F 
ENDBRANCH  68  91
ENDBRANCH  42  43
ENDBRANCH  35  37
ENDBRANCH  34  35
ENDBRANCH  33  34
ENDBRANCH  32  33
ENDBRANCH  31  32
ENDBRANCH  30  31
ENDBRANCH   1  30
TORSDOF 19
ENDMDL
MODEL 3
REMARK VINA RESULT:     -11.8      5.442     10.968
REMARK SMILES CC1(C)[C@@]2(C(=O)OCCOCCOCCOC(=O)c3ccc(-c4c5nc(c(-c6c(F)c(F)c(F)c(F)c6F)c6ccc([nH]6)c(-c6c(F)c(F)c(F)c(F)c6F)c6nc(c(-c7c(F)c(F)c(F)c(F)c7F)c7ccc4[nH]7)C=C6)C=C5)cc3)CC[C@]1(C)/C(=N/NC(=O)c1ccc(Cl)cc1)C2
REMARK SMILES IDX 11 1 10 2 9 3 8 4 7 5 5 6 6 7 4 8 1 9 2 10 3 11 84 12 82 13
REMARK SMILES IDX 98 14 83 15 85 16 86 17 87 18 88 19 89 20 90 22 91 23 92 24
REMARK SMILES IDX 97 25 93 26 96 27 94 28 95 29 12 30 13 31 14 32 15 33 16 34
REMARK SMILES IDX 17 35 18 36 19 37 20 38 81 39 21 40 80 41 22 42 23 43 24 44
REMARK SMILES IDX 74 45 25 46 79 47 73 48 75 49 26 50 78 51 72 52 71 53 27 55
REMARK SMILES IDX 59 56 39 57 58 58 40 59 43 60 57 61 76 62 41 63 42 64 56 66
REMARK SMILES IDX 77 67 44 68 28 69 29 70 37 71 30 72 31 73 35 74 38 75 32 76
REMARK SMILES IDX 33 77 36 78 34 79 60 80 61 81 69 82 62 83 63 84 67 85 70 86
REMARK SMILES IDX 64 87 65 88 68 89 66 90 45 91 46 92 54 93 47 94 48 95 52 96
REMARK SMILES IDX 55 97 49 98 50 99 53 100 51 101
REMARK H PARENT 88 21 75 54 43 65
REMARK Flexibility Score: inf
ROOT
ATOM      1  C   UNL A   1      34.534  33.539  28.367  1.00  0.00     0.188 C 
ENDROOT
BRANCH   1   2
ATOM      2  O   UNL A   1      33.740  32.375  28.223  1.00  0.00    -0.376 OA
BRANCH   2   3
ATOM      3  C   UNL A   1      34.401  31.246  27.651  1.00  0.00     0.202 C 
BRANCH   3   4
ATOM      4  C   UNL A   1      33.528  29.993  27.504  1.00  0.00     0.261 C 
BRANCH   4   5
ATOM      5  O   UNL A   1      33.319  29.629  26.123  1.00  0.00    -0.463 OA
BRANCH   5   6
ATOM      6  C   UNL A   1      32.076  29.853  25.606  1.00  0.00     0.313 C 
ATOM      7  O   UNL A   1      31.443  30.890  25.735  1.00  0.00    -0.252 OA
BRANCH   6   8
ATOM      8  C   UNL A   1      31.556  28.627  24.880  1.00  0.00     0.079 C 
ATOM      9  C   UNL A   1      32.924  28.949  22.679  1.00  0.00     0.013 C 
ATOM     10  C   UNL A   1      32.447  27.978  23.777  1.00  0.00    -0.008 C 
ATOM     11  C   UNL A   1      33.708  27.236  24.281  1.00  0.00     0.013 C 
ATOM     12  C   UNL A   1      31.298  27.010  23.342  1.00  0.00     0.014 C 
ATOM     13  C   UNL A   1      30.263  29.032  24.103  1.00  0.00     0.021 C 
ATOM     14  C   UNL A   1      31.219  27.412  25.785  1.00  0.00     0.073 C 
ATOM     15  C   UNL A   1      30.125  27.951  23.019  1.00  0.00     0.014 C 
ATOM     16  C   UNL A   1      31.621  26.006  22.254  1.00  0.00     0.018 C 
ATOM     17  C   UNL A   1      30.903  26.402  24.711  1.00  0.00     0.046 C 
ATOM     18  N   UNL A   1      30.424  25.202  24.757  1.00  0.00    -0.181 NA
BRANCH  18  19
ATOM     19  N   UNL A   1      30.101  24.480  25.859  1.00  0.00    -0.243 N 
ATOM     20  C   UNL A   1      30.669  23.446  26.567  1.00  0.00     0.271 C 
ATOM     21  H   UNL A   1      29.246  24.769  26.250  1.00  0.00     0.194 HD
ATOM     22  O   UNL A   1      30.078  22.980  27.542  1.00  0.00    -0.267 OA
BRANCH  20  23
ATOM     23  C   UNL A   1      31.976  22.873  26.236  1.00  0.00     0.041 A 
ATOM     24  C   UNL A   1      33.113  23.635  26.550  1.00  0.00     0.015 A 
ATOM     25  C   UNL A   1      32.103  21.607  25.656  1.00  0.00     0.015 A 
ATOM     26  C   UNL A   1      34.383  23.086  26.380  1.00  0.00     0.021 A 
ATOM     27  C   UNL A   1      33.381  21.066  25.474  1.00  0.00     0.021 A 
ATOM     28  C   UNL A   1      34.510  21.796  25.862  1.00  0.00     0.041 A 
ATOM     29  Cl  UNL A   1      36.070  21.079  25.751  1.00  0.00    -0.084 Cl
ENDBRANCH  20  23
ENDBRANCH  18  19
ENDBRANCH   6   8
ENDBRANCH   5   6
ENDBRANCH   4   5
ENDBRANCH   3   4
ENDBRANCH   2   3
ENDBRANCH   1   2
BRANCH   1  30
ATOM     30  C   UNL A   1      34.356  34.300  29.666  1.00  0.00     0.188 C 
BRANCH  30  31
ATOM     31  O   UNL A   1      34.099  33.553  30.851  1.00  0.00    -0.376 OA
BRANCH  31  32
ATOM     32  C   UNL A   1      34.786  34.086  31.993  1.00  0.00     0.202 C 
BRANCH  32  33
ATOM     33  C   UNL A   1      34.886  33.155  33.227  1.00  0.00     0.261 C 
BRANCH  33  34
ATOM     34  O   UNL A   1      35.631  31.947  32.969  1.00  0.00    -0.460 OA
BRANCH  34  35
ATOM     35  C   UNL A   1      36.865  31.887  33.543  1.00  0.00     0.338 C 
ATOM     36  O   UNL A   1      37.113  31.942  34.730  1.00  0.00    -0.246 OA
BRANCH  35  37
ATOM     37  C   UNL A   1      37.878  31.476  32.525  1.00  0.00     0.060 A 
ATOM     38  C   UNL A   1      39.028  30.817  32.991  1.00  0.00     0.016 A 
ATOM     39  C   UNL A   1      37.680  31.625  31.149  1.00  0.00     0.016 A 
ATOM     40  C   UNL A   1      39.973  30.307  32.095  1.00  0.00     0.010 A 
ATOM     41  C   UNL A   1      38.645  31.144  30.252  1.00  0.00     0.010 A 
ATOM     42  C   UNL A   1      39.802  30.493  30.718  1.00  0.00    -0.014 A 
BRANCH  42  43
ATOM     43  C   UNL A   1      40.911  30.188  29.778  1.00  0.00     0.031 A 
ATOM     44  C   UNL A   1      40.943  28.826  29.142  1.00  0.00     0.074 A 
ATOM     45  C   UNL A   1      41.876  31.080  29.488  1.00  0.00     0.049 A 
ATOM     46  N   UNL A   1      41.871  28.271  28.404  1.00  0.00    -0.248 NA
ATOM     47  C   UNL A   1      39.763  27.978  29.368  1.00  0.00     0.031 C 
ATOM     48  C   UNL A   1      41.927  32.461  29.958  1.00  0.00     0.029 A 
ATOM     49  N   UNL A   1      43.016  30.938  28.731  1.00  0.00    -0.354 N 
ATOM     50  C   UNL A   1      41.393  27.005  28.092  1.00  0.00     0.074 A 
ATOM     51  C   UNL A   1      40.097  26.872  28.720  1.00  0.00     0.031 C 
ATOM     52  C   UNL A   1      43.055  33.036  29.498  1.00  0.00     0.029 A 
ATOM     53  C   UNL A   1      43.828  32.048  28.744  1.00  0.00     0.049 A 
ATOM     54  H   UNL A   1      43.231  30.119  28.228  1.00  0.00     0.167 HD
ATOM     55  C   UNL A   1      41.983  26.037  27.353  1.00  0.00     0.037 A 
ATOM     56  C   UNL A   1      45.067  32.226  28.241  1.00  0.00     0.037 A 
ATOM     57  C   UNL A   1      43.275  26.156  26.736  1.00  0.00     0.049 A 
ATOM     58  C   UNL A   1      45.762  31.084  27.536  1.00  0.00     0.074 A 
ATOM     59  C   UNL A   1      43.950  25.227  25.965  1.00  0.00     0.029 A 
ATOM     60  N   UNL A   1      44.095  27.270  26.831  1.00  0.00    -0.354 N 
ATOM     61  N   UNL A   1      45.309  29.889  27.245  1.00  0.00    -0.248 NA
ATOM     62  C   UNL A   1      47.152  31.312  27.108  1.00  0.00     0.031 C 
ATOM     63  C   UNL A   1      45.203  25.758  25.639  1.00  0.00     0.029 A 
ATOM     64  C   UNL A   1      45.285  27.037  26.164  1.00  0.00     0.049 A 
ATOM     65  H   UNL A   1      43.863  28.102  27.303  1.00  0.00     0.167 HD
ATOM     66  C   UNL A   1      46.342  29.237  26.581  1.00  0.00     0.074 A 
ATOM     67  C   UNL A   1      47.445  30.170  26.501  1.00  0.00     0.031 C 
ATOM     68  C   UNL A   1      46.374  27.976  26.082  1.00  0.00     0.037 A 
BRANCH  55  69
ATOM     69  C   UNL A   1      41.252  24.736  27.221  1.00  0.00     0.064 A 
ATOM     70  C   UNL A   1      40.119  24.606  26.405  1.00  0.00     0.173 A 
ATOM     71  C   UNL A   1      41.705  23.601  27.909  1.00  0.00     0.173 A 
ATOM     72  F   UNL A   1      39.637  25.668  25.743  1.00  0.00    -0.203 F 
ATOM     73  C   UNL A   1      39.452  23.388  26.300  1.00  0.00     0.198 A 
ATOM     74  C   UNL A   1      41.052  22.379  27.781  1.00  0.00     0.198 A 
ATOM     75  F   UNL A   1      42.784  23.677  28.703  1.00  0.00    -0.203 F 
ATOM     76  F   UNL A   1      38.345  23.295  25.551  1.00  0.00    -0.200 F 
ATOM     77  C   UNL A   1      39.923  22.276  26.983  1.00  0.00     0.200 A 
ATOM     78  F   UNL A   1      41.511  21.303  28.435  1.00  0.00    -0.200 F 
ATOM     79  F   UNL A   1      39.281  21.103  26.879  1.00  0.00    -0.200 F 
ENDBRANCH  55  69
BRANCH  56  80
ATOM     80  C   UNL A   1      45.776  33.521  28.426  1.00  0.00     0.064 A 
ATOM     81  C   UNL A   1      45.650  34.554  27.486  1.00  0.00     0.173 A 
ATOM     82  C   UNL A   1      46.638  33.732  29.512  1.00  0.00     0.173 A 
ATOM     83  F   UNL A   1      44.869  34.387  26.408  1.00  0.00    -0.203 F 
ATOM     84  C   UNL A   1      46.372  35.740  27.615  1.00  0.00     0.198 A 
ATOM     85  C   UNL A   1      47.339  34.928  29.656  1.00  0.00     0.198 A 
ATOM     86  F   UNL A   1      46.809  32.770  30.430  1.00  0.00    -0.203 F 
ATOM     87  F   UNL A   1      46.277  36.686  26.672  1.00  0.00    -0.200 F 
ATOM     88  C   UNL A   1      47.212  35.928  28.703  1.00  0.00     0.200 A 
ATOM     89  F   UNL A   1      48.149  35.105  30.708  1.00  0.00    -0.200 F 
ATOM     90  F   UNL A   1      47.913  37.064  28.823  1.00  0.00    -0.200 F 
ENDBRANCH  56  80
BRANCH  68  91
ATOM     91  C   UNL A   1      47.623  27.532  25.375  1.00  0.00     0.064 A 
ATOM     92  C   UNL A   1      47.786  27.705  23.994  1.00  0.00     0.173 A 
ATOM     93  C   UNL A   1      48.698  26.995  26.101  1.00  0.00     0.173 A 
ATOM     94  F   UNL A   1      46.784  28.202  23.252  1.00  0.00    -0.203 F 
ATOM     95  C   UNL A   1      48.974  27.346  23.362  1.00  0.00     0.198 A 
ATOM     96  C   UNL A   1      49.895  26.662  25.471  1.00  0.00     0.198 A 
ATOM     97  F   UNL A   1      48.596  26.816  27.426  1.00  0.00    -0.203 F 
ATOM     98  F   UNL A   1      49.097  27.490  22.035  1.00  0.00    -0.200 F 
ATOM     99  C   UNL A   1      50.030  26.834  24.102  1.00  0.00     0.200 A 
ATOM    100  F   UNL A   1      50.918  26.182  26.191  1.00  0.00    -0.200 F 
ATOM    101  F   UNL A   1      51.179  26.504  23.495  1.00  0.00    -0.200 F 
ENDBRANCH  68  91
ENDBRANCH  42  43
ENDBRANCH  35  37
ENDBRANCH  34  35
ENDBRANCH  33  34
ENDBRANCH  32  33
ENDBRANCH  31  32
ENDBRANCH  30  31
ENDBRANCH   1  30
TORSDOF 19
ENDMDL
