MODEL 1
REMARK VINA RESULT:     -10.7      0.000      0.000
REMARK SMILES C[C@@H](C(=O)OCCOCCOCCOC(=O)c1ccc(-c2c3nc(c(-c4c(F)c(F)c(F)c(F)c4F)c4ccc([nH]4)c(-c4c(F)c(F)c(F)c(F)c4F)c4nc(c(-c5c(F)c(F)c(F)c(F)c5F)c5ccc2[nH]5)C=C4)C=C3)cc1)c1ccc(-c2cccc(OC(=O)NCCCc3ccccc3)c2)c(F)c1
REMARK SMILES IDX 6 1 5 2 3 3 4 4 2 5 1 6 80 7 81 8 105 9 82 10 103 11 83 12
REMARK SMILES IDX 104 13 84 14 85 15 102 16 86 17 88 18 87 19 89 20 90 21
REMARK SMILES IDX 91 22 92 23 93 25 94 26 95 27 96 28 97 29 101 30 98 31
REMARK SMILES IDX 100 32 99 33 7 34 8 35 9 36 10 37 11 38 12 39 13 40 14 41
REMARK SMILES IDX 15 42 16 43 17 44 18 45 79 46 19 47 78 48 20 49 21 50 22 51
REMARK SMILES IDX 72 52 23 53 77 54 71 55 73 56 24 57 76 58 70 59 69 60 25 62
REMARK SMILES IDX 57 63 37 64 56 65 38 66 41 67 55 68 74 69 39 70 40 71 54 73
REMARK SMILES IDX 75 74 42 75 26 76 27 77 35 78 28 79 29 80 33 81 36 82 30 83
REMARK SMILES IDX 31 84 34 85 32 86 58 87 59 88 67 89 60 90 61 91 65 92 68 93
REMARK SMILES IDX 62 94 63 95 66 96 64 97 43 98 44 99 52 100 45 101 46 102
REMARK SMILES IDX 50 103 53 104 47 105 48 106 51 107 49 108
REMARK H PARENT 92 24 73 61 41 72
REMARK Flexibility Score: inf
ROOT
ATOM      1  C   UNL A   1      33.805  30.209  26.796  1.00  0.00     0.261 C 
ENDROOT
BRANCH   1   2
ATOM      2  O   UNL A   1      33.667  28.942  26.115  1.00  0.00    -0.463 OA
BRANCH   2   3
ATOM      3  C   UNL A   1      32.540  28.782  25.371  1.00  0.00     0.313 C 
ATOM      4  O   UNL A   1      32.391  29.256  24.249  1.00  0.00    -0.252 OA
BRANCH   3   5
ATOM      5  C   UNL A   1      31.436  27.965  26.065  1.00  0.00     0.126 C 
ATOM      6  C   UNL A   1      31.385  27.960  27.593  1.00  0.00     0.025 C 
BRANCH   5   7
ATOM      7  C   UNL A   1      31.376  26.549  25.504  1.00  0.00    -0.031 A 
ATOM      8  C   UNL A   1      30.958  25.457  26.280  1.00  0.00     0.005 A 
ATOM      9  C   UNL A   1      31.829  26.298  24.205  1.00  0.00     0.044 A 
ATOM     10  C   UNL A   1      31.067  24.145  25.801  1.00  0.00     0.012 A 
ATOM     11  C   UNL A   1      31.918  24.991  23.729  1.00  0.00     0.131 A 
ATOM     12  C   UNL A   1      31.581  23.885  24.524  1.00  0.00     0.018 A 
ATOM     13  F   UNL A   1      32.386  24.811  22.484  1.00  0.00    -0.206 F 
BRANCH  12  14
ATOM     14  C   UNL A   1      31.872  22.508  24.090  1.00  0.00    -0.012 A 
ATOM     15  C   UNL A   1      31.909  22.126  22.741  1.00  0.00     0.009 A 
ATOM     16  C   UNL A   1      32.071  21.515  25.064  1.00  0.00     0.056 A 
ATOM     17  C   UNL A   1      32.151  20.794  22.384  1.00  0.00     0.004 A 
ATOM     18  C   UNL A   1      32.276  20.183  24.713  1.00  0.00     0.133 A 
ATOM     19  C   UNL A   1      32.339  19.822  23.369  1.00  0.00     0.047 A 
BRANCH  18  20
ATOM     20  O   UNL A   1      32.483  19.152  25.665  1.00  0.00    -0.410 OA
BRANCH  20  21
ATOM     21  C   UNL A   1      32.959  17.883  25.327  1.00  0.00     0.412 C 
ATOM     22  O   UNL A   1      32.294  16.858  25.236  1.00  0.00    -0.224 OA
ATOM     23  N   UNL A   1      34.299  17.845  25.048  1.00  0.00    -0.321 N 
ATOM     24  H   UNL A   1      34.762  16.982  25.147  1.00  0.00     0.167 HD
BRANCH  23  25
ATOM     25  C   UNL A   1      35.081  18.976  24.623  1.00  0.00     0.120 C 
BRANCH  25  26
ATOM     26  C   UNL A   1      36.585  18.875  24.848  1.00  0.00     0.026 C 
BRANCH  26  27
ATOM     27  C   UNL A   1      37.342  20.196  25.035  1.00  0.00     0.037 C 
BRANCH  27  28
ATOM     28  C   UNL A   1      36.612  21.521  24.998  1.00  0.00    -0.048 A 
ATOM     29  C   UNL A   1      35.975  22.118  26.090  1.00  0.00     0.004 A 
ATOM     30  C   UNL A   1      36.570  22.201  23.768  1.00  0.00     0.004 A 
ATOM     31  C   UNL A   1      35.256  23.310  25.943  1.00  0.00     0.000 A 
ATOM     32  C   UNL A   1      35.880  23.408  23.626  1.00  0.00     0.000 A 
ATOM     33  C   UNL A   1      35.203  23.953  24.712  1.00  0.00     0.000 A 
ENDBRANCH  27  28
ENDBRANCH  26  27
ENDBRANCH  25  26
ENDBRANCH  23  25
ENDBRANCH  20  21
ENDBRANCH  18  20
ENDBRANCH  12  14
ENDBRANCH   5   7
ENDBRANCH   3   5
ENDBRANCH   2   3
ENDBRANCH   1   2
BRANCH   1  34
ATOM     34  C   UNL A   1      35.074  30.316  27.647  1.00  0.00     0.202 C 
BRANCH  34  35
ATOM     35  O   UNL A   1      35.063  31.275  28.700  1.00  0.00    -0.376 OA
BRANCH  35  36
ATOM     36  C   UNL A   1      35.658  32.546  28.468  1.00  0.00     0.188 C 
BRANCH  36  37
ATOM     37  C   UNL A   1      35.028  33.781  29.131  1.00  0.00     0.188 C 
BRANCH  37  38
ATOM     38  O   UNL A   1      35.424  33.956  30.480  1.00  0.00    -0.376 OA
BRANCH  38  39
ATOM     39  C   UNL A   1      34.405  33.821  31.455  1.00  0.00     0.202 C 
BRANCH  39  40
ATOM     40  C   UNL A   1      34.827  32.923  32.621  1.00  0.00     0.261 C 
BRANCH  40  41
ATOM     41  O   UNL A   1      35.884  31.997  32.307  1.00  0.00    -0.460 OA
BRANCH  41  42
ATOM     42  C   UNL A   1      36.935  31.960  33.163  1.00  0.00     0.338 C 
ATOM     43  O   UNL A   1      36.900  31.953  34.369  1.00  0.00    -0.246 OA
BRANCH  42  44
ATOM     44  C   UNL A   1      38.162  31.735  32.361  1.00  0.00     0.060 A 
ATOM     45  C   UNL A   1      38.178  32.150  31.024  1.00  0.00     0.016 A 
ATOM     46  C   UNL A   1      39.280  31.111  32.919  1.00  0.00     0.016 A 
ATOM     47  C   UNL A   1      39.308  31.915  30.235  1.00  0.00     0.010 A 
ATOM     48  C   UNL A   1      40.403  30.865  32.126  1.00  0.00     0.010 A 
ATOM     49  C   UNL A   1      40.416  31.247  30.774  1.00  0.00    -0.014 A 
BRANCH  49  50
ATOM     50  C   UNL A   1      41.527  30.805  29.896  1.00  0.00     0.031 A 
ATOM     51  C   UNL A   1      41.483  29.426  29.303  1.00  0.00     0.074 A 
ATOM     52  C   UNL A   1      42.589  31.592  29.656  1.00  0.00     0.049 A 
ATOM     53  N   UNL A   1      42.350  28.825  28.529  1.00  0.00    -0.248 NA
ATOM     54  C   UNL A   1      40.301  28.617  29.633  1.00  0.00     0.031 C 
ATOM     55  C   UNL A   1      42.767  32.948  30.162  1.00  0.00     0.029 A 
ATOM     56  N   UNL A   1      43.734  31.341  28.938  1.00  0.00    -0.354 N 
ATOM     57  C   UNL A   1      41.818  27.570  28.274  1.00  0.00     0.074 A 
ATOM     58  C   UNL A   1      40.564  27.487  28.994  1.00  0.00     0.031 C 
ATOM     59  C   UNL A   1      43.968  33.403  29.764  1.00  0.00     0.029 A 
ATOM     60  C   UNL A   1      44.659  32.354  29.013  1.00  0.00     0.049 A 
ATOM     61  H   UNL A   1      43.878  30.516  28.421  1.00  0.00     0.167 HD
ATOM     62  C   UNL A   1      42.322  26.574  27.509  1.00  0.00     0.037 A 
ATOM     63  C   UNL A   1      45.926  32.410  28.556  1.00  0.00     0.037 A 
ATOM     64  C   UNL A   1      43.577  26.622  26.810  1.00  0.00     0.049 A 
ATOM     65  C   UNL A   1      46.485  31.252  27.748  1.00  0.00     0.074 A 
ATOM     66  C   UNL A   1      44.152  25.656  26.001  1.00  0.00     0.029 A 
ATOM     67  N   UNL A   1      44.463  27.685  26.854  1.00  0.00    -0.354 N 
ATOM     68  N   UNL A   1      45.895  30.150  27.352  1.00  0.00    -0.248 NA
ATOM     69  C   UNL A   1      47.883  31.358  27.295  1.00  0.00     0.031 C 
ATOM     70  C   UNL A   1      45.410  26.114  25.596  1.00  0.00     0.029 A 
ATOM     71  C   UNL A   1      45.597  27.384  26.117  1.00  0.00     0.049 A 
ATOM     72  H   UNL A   1      44.310  28.528  27.338  1.00  0.00     0.167 HD
ATOM     73  C   UNL A   1      46.827  29.474  26.568  1.00  0.00     0.074 A 
ATOM     74  C   UNL A   1      48.001  30.309  26.498  1.00  0.00     0.031 C 
ATOM     75  C   UNL A   1      46.733  28.255  25.982  1.00  0.00     0.037 A 
BRANCH  62  76
ATOM     76  C   UNL A   1      41.513  25.318  27.414  1.00  0.00     0.064 A 
ATOM     77  C   UNL A   1      40.389  25.235  26.580  1.00  0.00     0.173 A 
ATOM     78  C   UNL A   1      41.879  24.182  28.148  1.00  0.00     0.173 A 
ATOM     79  F   UNL A   1      39.993  26.304  25.873  1.00  0.00    -0.203 F 
ATOM     80  C   UNL A   1      39.644  24.063  26.505  1.00  0.00     0.198 A 
ATOM     81  C   UNL A   1      41.146  23.004  28.051  1.00  0.00     0.198 A 
ATOM     82  F   UNL A   1      42.949  24.216  28.959  1.00  0.00    -0.203 F 
ATOM     83  F   UNL A   1      38.545  24.018  25.739  1.00  0.00    -0.200 F 
ATOM     84  C   UNL A   1      40.026  22.947  27.236  1.00  0.00     0.200 A 
ATOM     85  F   UNL A   1      41.522  21.924  28.751  1.00  0.00    -0.200 F 
ATOM     86  F   UNL A   1      39.308  21.819  27.161  1.00  0.00    -0.200 F 
ENDBRANCH  62  76
BRANCH  63  87
ATOM     87  C   UNL A   1      46.790  33.583  28.874  1.00  0.00     0.064 A 
ATOM     88  C   UNL A   1      46.898  34.659  27.987  1.00  0.00     0.173 A 
ATOM     89  C   UNL A   1      47.635  33.591  29.999  1.00  0.00     0.173 A 
ATOM     90  F   UNL A   1      46.123  34.720  26.894  1.00  0.00    -0.203 F 
ATOM     91  C   UNL A   1      47.894  35.614  28.143  1.00  0.00     0.198 A 
ATOM     92  C   UNL A   1      48.539  34.627  30.220  1.00  0.00     0.198 A 
ATOM     93  F   UNL A   1      47.612  32.572  30.869  1.00  0.00    -0.203 F 
ATOM     94  F   UNL A   1      48.132  36.474  27.143  1.00  0.00    -0.200 F 
ATOM     95  C   UNL A   1      48.688  35.625  29.275  1.00  0.00     0.200 A 
ATOM     96  F   UNL A   1      49.310  34.621  31.315  1.00  0.00    -0.200 F 
ATOM     97  F   UNL A   1      49.624  36.568  29.431  1.00  0.00    -0.200 F 
ENDBRANCH  63  87
BRANCH  75  98
ATOM     98  C   UNL A   1      47.896  27.783  25.150  1.00  0.00     0.064 A 
ATOM     99  C   UNL A   1      47.871  27.831  23.748  1.00  0.00     0.173 A 
ATOM    100  C   UNL A   1      49.063  27.302  25.765  1.00  0.00     0.173 A 
ATOM    101  F   UNL A   1      46.777  28.269  23.106  1.00  0.00    -0.203 F 
ATOM    102  C   UNL A   1      48.952  27.381  22.993  1.00  0.00     0.198 A 
ATOM    103  C   UNL A   1      50.156  26.885  25.008  1.00  0.00     0.198 A 
ATOM    104  F   UNL A   1      49.148  27.242  27.102  1.00  0.00    -0.203 F 
ATOM    105  F   UNL A   1      48.879  27.379  21.654  1.00  0.00    -0.200 F 
ATOM    106  C   UNL A   1      50.096  26.915  23.624  1.00  0.00     0.200 A 
ATOM    107  F   UNL A   1      51.266  26.451  25.620  1.00  0.00    -0.200 F 
ATOM    108  F   UNL A   1      51.137  26.487  22.896  1.00  0.00    -0.200 F 
ENDBRANCH  75  98
ENDBRANCH  49  50
ENDBRANCH  42  44
ENDBRANCH  41  42
ENDBRANCH  40  41
ENDBRANCH  39  40
ENDBRANCH  38  39
ENDBRANCH  37  38
ENDBRANCH  36  37
ENDBRANCH  35  36
ENDBRANCH  34  35
ENDBRANCH   1  34
TORSDOF 25
ENDMDL
MODEL 2
REMARK VINA RESULT:     -10.7      1.543      6.937
REMARK SMILES C[C@@H](C(=O)OCCOCCOCCOC(=O)c1ccc(-c2c3nc(c(-c4c(F)c(F)c(F)c(F)c4F)c4ccc([nH]4)c(-c4c(F)c(F)c(F)c(F)c4F)c4nc(c(-c5c(F)c(F)c(F)c(F)c5F)c5ccc2[nH]5)C=C4)C=C3)cc1)c1ccc(-c2cccc(OC(=O)NCCCc3ccccc3)c2)c(F)c1
REMARK SMILES IDX 6 1 5 2 3 3 4 4 2 5 1 6 80 7 81 8 105 9 82 10 103 11 83 12
REMARK SMILES IDX 104 13 84 14 85 15 102 16 86 17 88 18 87 19 89 20 90 21
REMARK SMILES IDX 91 22 92 23 93 25 94 26 95 27 96 28 97 29 101 30 98 31
REMARK SMILES IDX 100 32 99 33 7 34 8 35 9 36 10 37 11 38 12 39 13 40 14 41
REMARK SMILES IDX 15 42 16 43 17 44 18 45 79 46 19 47 78 48 20 49 21 50 22 51
REMARK SMILES IDX 72 52 23 53 77 54 71 55 73 56 24 57 76 58 70 59 69 60 25 62
REMARK SMILES IDX 57 63 37 64 56 65 38 66 41 67 55 68 74 69 39 70 40 71 54 73
REMARK SMILES IDX 75 74 42 75 26 76 27 77 35 78 28 79 29 80 33 81 36 82 30 83
REMARK SMILES IDX 31 84 34 85 32 86 58 87 59 88 67 89 60 90 61 91 65 92 68 93
REMARK SMILES IDX 62 94 63 95 66 96 64 97 43 98 44 99 52 100 45 101 46 102
REMARK SMILES IDX 50 103 53 104 47 105 48 106 51 107 49 108
REMARK H PARENT 92 24 73 61 41 72
REMARK Flexibility Score: inf
ROOT
ATOM      1  C   UNL A   1      32.426  30.480  26.340  1.00  0.00     0.261 C 
ENDROOT
BRANCH   1   2
ATOM      2  O   UNL A   1      32.581  29.288  25.538  1.00  0.00    -0.463 OA
BRANCH   2   3
ATOM      3  C   UNL A   1      31.448  28.571  25.306  1.00  0.00     0.313 C 
ATOM      4  O   UNL A   1      30.710  28.757  24.343  1.00  0.00    -0.252 OA
BRANCH   3   5
ATOM      5  C   UNL A   1      31.144  27.506  26.373  1.00  0.00     0.126 C 
ATOM      6  C   UNL A   1      31.945  27.529  27.675  1.00  0.00     0.025 C 
BRANCH   5   7
ATOM      7  C   UNL A   1      31.129  26.111  25.757  1.00  0.00    -0.031 A 
ATOM      8  C   UNL A   1      31.232  24.950  26.539  1.00  0.00     0.005 A 
ATOM      9  C   UNL A   1      31.098  25.968  24.366  1.00  0.00     0.044 A 
ATOM     10  C   UNL A   1      31.383  23.690  25.946  1.00  0.00     0.012 A 
ATOM     11  C   UNL A   1      31.231  24.708  23.784  1.00  0.00     0.131 A 
ATOM     12  C   UNL A   1      31.418  23.549  24.553  1.00  0.00     0.018 A 
ATOM     13  F   UNL A   1      31.222  24.637  22.444  1.00  0.00    -0.206 F 
BRANCH  12  14
ATOM     14  C   UNL A   1      31.763  22.260  23.929  1.00  0.00    -0.012 A 
ATOM     15  C   UNL A   1      31.688  22.038  22.546  1.00  0.00     0.009 A 
ATOM     16  C   UNL A   1      32.133  21.183  24.752  1.00  0.00     0.056 A 
ATOM     17  C   UNL A   1      31.989  20.781  22.008  1.00  0.00     0.004 A 
ATOM     18  C   UNL A   1      32.397  19.922  24.224  1.00  0.00     0.133 A 
ATOM     19  C   UNL A   1      32.348  19.722  22.847  1.00  0.00     0.047 A 
BRANCH  18  20
ATOM     20  O   UNL A   1      32.776  18.811  25.020  1.00  0.00    -0.410 OA
BRANCH  20  21
ATOM     21  C   UNL A   1      33.683  17.837  24.593  1.00  0.00     0.412 C 
ATOM     22  O   UNL A   1      33.410  16.807  23.989  1.00  0.00    -0.224 OA
ATOM     23  N   UNL A   1      34.990  18.130  24.873  1.00  0.00    -0.321 N 
ATOM     24  H   UNL A   1      35.625  17.379  24.928  1.00  0.00     0.167 HD
BRANCH  23  25
ATOM     25  C   UNL A   1      35.505  19.455  25.095  1.00  0.00     0.120 C 
BRANCH  25  26
ATOM     26  C   UNL A   1      36.952  19.690  24.680  1.00  0.00     0.026 C 
BRANCH  26  27
ATOM     27  C   UNL A   1      37.438  21.146  24.672  1.00  0.00     0.037 C 
BRANCH  27  28
ATOM     28  C   UNL A   1      36.451  22.292  24.598  1.00  0.00    -0.048 A 
ATOM     29  C   UNL A   1      35.864  22.772  23.424  1.00  0.00     0.004 A 
ATOM     30  C   UNL A   1      36.103  22.923  25.806  1.00  0.00     0.004 A 
ATOM     31  C   UNL A   1      35.021  23.889  23.443  1.00  0.00     0.000 A 
ATOM     32  C   UNL A   1      35.236  24.019  25.831  1.00  0.00     0.000 A 
ATOM     33  C   UNL A   1      34.710  24.517  24.644  1.00  0.00     0.000 A 
ENDBRANCH  27  28
ENDBRANCH  26  27
ENDBRANCH  25  26
ENDBRANCH  23  25
ENDBRANCH  20  21
ENDBRANCH  18  20
ENDBRANCH  12  14
ENDBRANCH   5   7
ENDBRANCH   3   5
ENDBRANCH   2   3
ENDBRANCH   1   2
BRANCH   1  34
ATOM     34  C   UNL A   1      33.697  30.884  27.093  1.00  0.00     0.202 C 
BRANCH  34  35
ATOM     35  O   UNL A   1      33.565  31.908  28.073  1.00  0.00    -0.376 OA
BRANCH  35  36
ATOM     36  C   UNL A   1      34.375  33.072  27.953  1.00  0.00     0.188 C 
BRANCH  36  37
ATOM     37  C   UNL A   1      33.725  34.444  28.191  1.00  0.00     0.188 C 
BRANCH  37  38
ATOM     38  O   UNL A   1      34.282  35.146  29.288  1.00  0.00    -0.376 OA
BRANCH  38  39
ATOM     39  C   UNL A   1      33.432  35.337  30.406  1.00  0.00     0.202 C 
BRANCH  39  40
ATOM     40  C   UNL A   1      34.174  35.183  31.736  1.00  0.00     0.261 C 
BRANCH  40  41
ATOM     41  O   UNL A   1      35.339  34.340  31.674  1.00  0.00    -0.460 OA
BRANCH  41  42
ATOM     42  C   UNL A   1      35.141  33.011  31.861  1.00  0.00     0.338 C 
ATOM     43  O   UNL A   1      34.118  32.461  32.186  1.00  0.00    -0.246 OA
BRANCH  42  44
ATOM     44  C   UNL A   1      36.365  32.305  31.413  1.00  0.00     0.060 A 
ATOM     45  C   UNL A   1      37.252  31.816  32.380  1.00  0.00     0.016 A 
ATOM     46  C   UNL A   1      36.641  32.139  30.054  1.00  0.00     0.016 A 
ATOM     47  C   UNL A   1      38.433  31.181  31.984  1.00  0.00     0.010 A 
ATOM     48  C   UNL A   1      37.827  31.516  29.661  1.00  0.00     0.010 A 
ATOM     49  C   UNL A   1      38.741  31.052  30.623  1.00  0.00    -0.014 A 
BRANCH  49  50
ATOM     50  C   UNL A   1      40.079  30.576  30.196  1.00  0.00     0.031 A 
ATOM     51  C   UNL A   1      41.217  31.554  30.143  1.00  0.00     0.074 A 
ATOM     52  C   UNL A   1      40.285  29.303  29.816  1.00  0.00     0.049 A 
ATOM     53  N   UNL A   1      42.461  31.364  29.781  1.00  0.00    -0.248 NA
ATOM     54  C   UNL A   1      40.906  32.932  30.550  1.00  0.00     0.031 C 
ATOM     55  C   UNL A   1      39.277  28.248  29.817  1.00  0.00     0.029 A 
ATOM     56  N   UNL A   1      41.418  28.695  29.330  1.00  0.00    -0.354 N 
ATOM     57  C   UNL A   1      43.083  32.596  29.921  1.00  0.00     0.074 A 
ATOM     58  C   UNL A   1      42.076  33.530  30.379  1.00  0.00     0.031 C 
ATOM     59  C   UNL A   1      39.829  27.126  29.324  1.00  0.00     0.029 A 
ATOM     60  C   UNL A   1      41.214  27.397  28.934  1.00  0.00     0.049 A 
ATOM     61  H   UNL A   1      42.290  29.147  29.271  1.00  0.00     0.167 HD
ATOM     62  C   UNL A   1      44.376  32.924  29.693  1.00  0.00     0.037 A 
ATOM     63  C   UNL A   1      42.040  26.541  28.300  1.00  0.00     0.037 A 
ATOM     64  C   UNL A   1      45.386  32.021  29.211  1.00  0.00     0.049 A 
ATOM     65  C   UNL A   1      43.471  26.957  28.005  1.00  0.00     0.074 A 
ATOM     66  C   UNL A   1      46.726  32.275  28.967  1.00  0.00     0.029 A 
ATOM     67  N   UNL A   1      45.164  30.696  28.878  1.00  0.00    -0.354 N 
ATOM     68  N   UNL A   1      44.098  28.064  28.321  1.00  0.00    -0.248 NA
ATOM     69  C   UNL A   1      44.321  25.990  27.289  1.00  0.00     0.031 C 
ATOM     70  C   UNL A   1      47.303  31.117  28.438  1.00  0.00     0.029 A 
ATOM     71  C   UNL A   1      46.333  30.130  28.395  1.00  0.00     0.049 A 
ATOM     72  H   UNL A   1      44.303  30.227  28.969  1.00  0.00     0.167 HD
ATOM     73  C   UNL A   1      45.414  27.896  27.895  1.00  0.00     0.074 A 
ATOM     74  C   UNL A   1      45.511  26.566  27.346  1.00  0.00     0.031 C 
ATOM     75  C   UNL A   1      46.445  28.775  27.924  1.00  0.00     0.037 A 
BRANCH  62  76
ATOM     76  C   UNL A   1      44.767  34.348  29.939  1.00  0.00     0.064 A 
ATOM     77  C   UNL A   1      44.983  34.832  31.237  1.00  0.00     0.173 A 
ATOM     78  C   UNL A   1      44.946  35.229  28.864  1.00  0.00     0.173 A 
ATOM     79  F   UNL A   1      44.806  34.027  32.296  1.00  0.00    -0.203 F 
ATOM     80  C   UNL A   1      45.341  36.159  31.451  1.00  0.00     0.198 A 
ATOM     81  C   UNL A   1      45.328  36.549  29.081  1.00  0.00     0.198 A 
ATOM     82  F   UNL A   1      44.750  34.809  27.605  1.00  0.00    -0.203 F 
ATOM     83  F   UNL A   1      45.498  36.615  32.702  1.00  0.00    -0.200 F 
ATOM     84  C   UNL A   1      45.519  37.014  30.374  1.00  0.00     0.200 A 
ATOM     85  F   UNL A   1      45.508  37.372  28.038  1.00  0.00    -0.200 F 
ATOM     86  F   UNL A   1      45.865  38.292  30.582  1.00  0.00    -0.200 F 
ENDBRANCH  62  76
BRANCH  63  87
ATOM     87  C   UNL A   1      41.544  25.207  27.852  1.00  0.00     0.064 A 
ATOM     88  C   UNL A   1      40.599  25.098  26.828  1.00  0.00     0.173 A 
ATOM     89  C   UNL A   1      41.894  24.026  28.532  1.00  0.00     0.173 A 
ATOM     90  F   UNL A   1      40.218  26.182  26.135  1.00  0.00    -0.203 F 
ATOM     91  C   UNL A   1      39.936  23.901  26.594  1.00  0.00     0.198 A 
ATOM     92  C   UNL A   1      41.323  22.801  28.198  1.00  0.00     0.198 A 
ATOM     93  F   UNL A   1      42.765  24.065  29.550  1.00  0.00    -0.203 F 
ATOM     94  F   UNL A   1      38.863  23.897  25.791  1.00  0.00    -0.200 F 
ATOM     95  C   UNL A   1      40.322  22.744  27.246  1.00  0.00     0.200 A 
ATOM     96  F   UNL A   1      41.697  21.689  28.844  1.00  0.00    -0.200 F 
ATOM     97  F   UNL A   1      39.698  21.587  26.991  1.00  0.00    -0.200 F 
ENDBRANCH  63  87
BRANCH  75  98
ATOM     98  C   UNL A   1      47.785  28.306  27.423  1.00  0.00     0.064 A 
ATOM     99  C   UNL A   1      48.787  27.856  28.297  1.00  0.00     0.173 A 
ATOM    100  C   UNL A   1      48.061  28.280  26.047  1.00  0.00     0.173 A 
ATOM    101  F   UNL A   1      48.583  27.870  29.623  1.00  0.00    -0.203 F 
ATOM    102  C   UNL A   1      50.025  27.434  27.816  1.00  0.00     0.198 A 
ATOM    103  C   UNL A   1      49.287  27.825  25.567  1.00  0.00     0.198 A 
ATOM    104  F   UNL A   1      47.138  28.689  25.164  1.00  0.00    -0.203 F 
ATOM    105  F   UNL A   1      50.986  27.068  28.676  1.00  0.00    -0.200 F 
ATOM    106  C   UNL A   1      50.271  27.413  26.452  1.00  0.00     0.200 A 
ATOM    107  F   UNL A   1      49.518  27.789  24.247  1.00  0.00    -0.200 F 
ATOM    108  F   UNL A   1      51.461  27.002  25.991  1.00  0.00    -0.200 F 
ENDBRANCH  75  98
ENDBRANCH  49  50
ENDBRANCH  42  44
ENDBRANCH  41  42
ENDBRANCH  40  41
ENDBRANCH  39  40
ENDBRANCH  38  39
ENDBRANCH  37  38
ENDBRANCH  36  37
ENDBRANCH  35  36
ENDBRANCH  34  35
ENDBRANCH   1  34
TORSDOF 25
ENDMDL
MODEL 3
REMARK VINA RESULT:     -10.3      6.038     14.359
REMARK SMILES C[C@@H](C(=O)OCCOCCOCCOC(=O)c1ccc(-c2c3nc(c(-c4c(F)c(F)c(F)c(F)c4F)c4ccc([nH]4)c(-c4c(F)c(F)c(F)c(F)c4F)c4nc(c(-c5c(F)c(F)c(F)c(F)c5F)c5ccc2[nH]5)C=C4)C=C3)cc1)c1ccc(-c2cccc(OC(=O)NCCCc3ccccc3)c2)c(F)c1
REMARK SMILES IDX 6 1 5 2 3 3 4 4 2 5 1 6 80 7 81 8 105 9 82 10 103 11 83 12
REMARK SMILES IDX 104 13 84 14 85 15 102 16 86 17 88 18 87 19 89 20 90 21
REMARK SMILES IDX 91 22 92 23 93 25 94 26 95 27 96 28 97 29 101 30 98 31
REMARK SMILES IDX 100 32 99 33 7 34 8 35 9 36 10 37 11 38 12 39 13 40 14 41
REMARK SMILES IDX 15 42 16 43 17 44 18 45 79 46 19 47 78 48 20 49 21 50 22 51
REMARK SMILES IDX 72 52 23 53 77 54 71 55 73 56 24 57 76 58 70 59 69 60 25 62
REMARK SMILES IDX 57 63 37 64 56 65 38 66 41 67 55 68 74 69 39 70 40 71 54 73
REMARK SMILES IDX 75 74 42 75 26 76 27 77 35 78 28 79 29 80 33 81 36 82 30 83
REMARK SMILES IDX 31 84 34 85 32 86 58 87 59 88 67 89 60 90 61 91 65 92 68 93
REMARK SMILES IDX 62 94 63 95 66 96 64 97 43 98 44 99 52 100 45 101 46 102
REMARK SMILES IDX 50 103 53 104 47 105 48 106 51 107 49 108
REMARK H PARENT 92 24 73 61 41 72
REMARK Flexibility Score: inf
ROOT
ATOM      1  C   UNL A   1      48.958  26.590  29.138  1.00  0.00     0.261 C 
ENDROOT
BRANCH   1   2
ATOM      2  O   UNL A   1      47.754  27.383  29.231  1.00  0.00    -0.463 OA
BRANCH   2   3
ATOM      3  C   UNL A   1      47.592  28.339  28.276  1.00  0.00     0.313 C 
ATOM      4  O   UNL A   1      48.436  29.191  28.016  1.00  0.00    -0.252 OA
BRANCH   3   5
ATOM      5  C   UNL A   1      46.238  28.282  27.548  1.00  0.00     0.126 C 
ATOM      6  C   UNL A   1      46.234  28.183  26.023  1.00  0.00     0.025 C 
BRANCH   5   7
ATOM      7  C   UNL A   1      45.315  29.395  28.033  1.00  0.00    -0.031 A 
ATOM      8  C   UNL A   1      44.180  29.789  27.309  1.00  0.00     0.005 A 
ATOM      9  C   UNL A   1      45.642  30.111  29.189  1.00  0.00     0.044 A 
ATOM     10  C   UNL A   1      43.441  30.919  27.684  1.00  0.00     0.012 A 
ATOM     11  C   UNL A   1      44.890  31.223  29.565  1.00  0.00     0.131 A 
ATOM     12  C   UNL A   1      43.802  31.678  28.804  1.00  0.00     0.018 A 
ATOM     13  F   UNL A   1      45.269  31.887  30.668  1.00  0.00    -0.206 F 
BRANCH  12  14
ATOM     14  C   UNL A   1      43.147  32.965  29.093  1.00  0.00    -0.012 A 
ATOM     15  C   UNL A   1      42.087  33.095  30.001  1.00  0.00     0.009 A 
ATOM     16  C   UNL A   1      43.560  34.111  28.391  1.00  0.00     0.056 A 
ATOM     17  C   UNL A   1      41.473  34.336  30.209  1.00  0.00     0.004 A 
ATOM     18  C   UNL A   1      42.927  35.339  28.567  1.00  0.00     0.133 A 
ATOM     19  C   UNL A   1      41.895  35.460  29.494  1.00  0.00     0.047 A 
BRANCH  18  20
ATOM     20  O   UNL A   1      43.315  36.517  27.880  1.00  0.00    -0.410 OA
BRANCH  20  21
ATOM     21  C   UNL A   1      44.299  37.390  28.354  1.00  0.00     0.412 C 
ATOM     22  O   UNL A   1      45.436  37.086  28.694  1.00  0.00    -0.224 OA
ATOM     23  N   UNL A   1      43.911  38.702  28.388  1.00  0.00    -0.321 N 
ATOM     24  H   UNL A   1      44.385  39.302  29.009  1.00  0.00     0.167 HD
BRANCH  23  25
ATOM     25  C   UNL A   1      42.861  39.269  27.585  1.00  0.00     0.120 C 
BRANCH  25  26
ATOM     26  C   UNL A   1      43.307  40.068  26.366  1.00  0.00     0.026 C 
BRANCH  26  27
ATOM     27  C   UNL A   1      42.239  40.932  25.682  1.00  0.00     0.037 C 
BRANCH  27  28
ATOM     28  C   UNL A   1      42.627  41.980  24.659  1.00  0.00    -0.048 A 
ATOM     29  C   UNL A   1      43.722  42.841  24.767  1.00  0.00     0.004 A 
ATOM     30  C   UNL A   1      41.818  42.094  23.515  1.00  0.00     0.004 A 
ATOM     31  C   UNL A   1      43.958  43.832  23.808  1.00  0.00     0.000 A 
ATOM     32  C   UNL A   1      42.070  43.063  22.539  1.00  0.00     0.000 A 
ATOM     33  C   UNL A   1      43.130  43.948  22.696  1.00  0.00     0.000 A 
ENDBRANCH  27  28
ENDBRANCH  26  27
ENDBRANCH  25  26
ENDBRANCH  23  25
ENDBRANCH  20  21
ENDBRANCH  18  20
ENDBRANCH  12  14
ENDBRANCH   5   7
ENDBRANCH   3   5
ENDBRANCH   2   3
ENDBRANCH   1   2
BRANCH   1  34
ATOM     34  C   UNL A   1      48.773  25.280  28.365  1.00  0.00     0.202 C 
BRANCH  34  35
ATOM     35  O   UNL A   1      48.681  25.377  26.948  1.00  0.00    -0.376 OA
BRANCH  35  36
ATOM     36  C   UNL A   1      47.553  24.801  26.299  1.00  0.00     0.188 C 
BRANCH  36  37
ATOM     37  C   UNL A   1      47.475  24.875  24.765  1.00  0.00     0.188 C 
BRANCH  37  38
ATOM     38  O   UNL A   1      46.259  24.370  24.241  1.00  0.00    -0.376 OA
BRANCH  38  39
ATOM     39  C   UNL A   1      46.026  22.984  24.423  1.00  0.00     0.202 C 
BRANCH  39  40
ATOM     40  C   UNL A   1      44.619  22.567  23.987  1.00  0.00     0.261 C 
BRANCH  40  41
ATOM     41  O   UNL A   1      43.586  23.511  24.324  1.00  0.00    -0.460 OA
BRANCH  41  42
ATOM     42  C   UNL A   1      42.700  23.130  25.277  1.00  0.00     0.338 C 
ATOM     43  O   UNL A   1      42.161  22.055  25.390  1.00  0.00    -0.246 OA
BRANCH  42  44
ATOM     44  C   UNL A   1      42.635  24.209  26.291  1.00  0.00     0.060 A 
ATOM     45  C   UNL A   1      41.944  23.970  27.486  1.00  0.00     0.016 A 
ATOM     46  C   UNL A   1      43.237  25.448  26.060  1.00  0.00     0.016 A 
ATOM     47  C   UNL A   1      41.834  24.984  28.442  1.00  0.00     0.010 A 
ATOM     48  C   UNL A   1      43.115  26.464  27.010  1.00  0.00     0.010 A 
ATOM     49  C   UNL A   1      42.395  26.246  28.197  1.00  0.00    -0.014 A 
BRANCH  49  50
ATOM     50  C   UNL A   1      42.105  27.385  29.101  1.00  0.00     0.031 A 
ATOM     51  C   UNL A   1      43.009  27.632  30.274  1.00  0.00     0.074 A 
ATOM     52  C   UNL A   1      41.030  28.171  28.920  1.00  0.00     0.049 A 
ATOM     53  N   UNL A   1      42.934  28.552  31.203  1.00  0.00    -0.248 NA
ATOM     54  C   UNL A   1      44.148  26.714  30.420  1.00  0.00     0.031 C 
ATOM     55  C   UNL A   1      40.070  28.049  27.829  1.00  0.00     0.029 A 
ATOM     56  N   UNL A   1      40.559  29.217  29.676  1.00  0.00    -0.354 N 
ATOM     57  C   UNL A   1      44.018  28.329  32.040  1.00  0.00     0.074 A 
ATOM     58  C   UNL A   1      44.721  27.173  31.522  1.00  0.00     0.031 C 
ATOM     59  C   UNL A   1      39.103  28.967  28.002  1.00  0.00     0.029 A 
ATOM     60  C   UNL A   1      39.355  29.710  29.238  1.00  0.00     0.049 A 
ATOM     61  H   UNL A   1      41.038  29.578  30.458  1.00  0.00     0.167 HD
ATOM     62  C   UNL A   1      44.399  29.020  33.139  1.00  0.00     0.037 A 
ATOM     63  C   UNL A   1      38.538  30.629  29.790  1.00  0.00     0.037 A 
ATOM     64  C   UNL A   1      43.701  30.151  33.687  1.00  0.00     0.049 A 
ATOM     65  C   UNL A   1      38.966  31.350  31.056  1.00  0.00     0.074 A 
ATOM     66  C   UNL A   1      44.032  30.917  34.793  1.00  0.00     0.029 A 
ATOM     67  N   UNL A   1      42.517  30.666  33.184  1.00  0.00    -0.354 N 
ATOM     68  N   UNL A   1      40.088  31.260  31.728  1.00  0.00    -0.248 NA
ATOM     69  C   UNL A   1      38.023  32.327  31.628  1.00  0.00     0.031 C 
ATOM     70  C   UNL A   1      43.021  31.864  34.990  1.00  0.00     0.029 A 
ATOM     71  C   UNL A   1      42.086  31.715  33.980  1.00  0.00     0.049 A 
ATOM     72  H   UNL A   1      42.052  30.335  32.383  1.00  0.00     0.167 HD
ATOM     73  C   UNL A   1      40.001  32.200  32.753  1.00  0.00     0.074 A 
ATOM     74  C   UNL A   1      38.743  32.886  32.587  1.00  0.00     0.031 C 
ATOM     75  C   UNL A   1      40.870  32.452  33.762  1.00  0.00     0.037 A 
BRANCH  62  76
ATOM     76  C   UNL A   1      45.629  28.544  33.846  1.00  0.00     0.064 A 
ATOM     77  C   UNL A   1      45.555  27.613  34.892  1.00  0.00     0.173 A 
ATOM     78  C   UNL A   1      46.893  29.008  33.459  1.00  0.00     0.173 A 
ATOM     79  F   UNL A   1      44.363  27.157  35.306  1.00  0.00    -0.203 F 
ATOM     80  C   UNL A   1      46.706  27.183  35.544  1.00  0.00     0.198 A 
ATOM     81  C   UNL A   1      48.044  28.556  34.096  1.00  0.00     0.198 A 
ATOM     82  F   UNL A   1      47.011  29.899  32.462  1.00  0.00    -0.203 F 
ATOM     83  F   UNL A   1      46.611  26.328  36.572  1.00  0.00    -0.200 F 
ATOM     84  C   UNL A   1      47.949  27.649  35.141  1.00  0.00     0.200 A 
ATOM     85  F   UNL A   1      49.245  29.001  33.701  1.00  0.00    -0.200 F 
ATOM     86  F   UNL A   1      49.057  27.232  35.770  1.00  0.00    -0.200 F 
ENDBRANCH  62  76
BRANCH  63  87
ATOM     87  C   UNL A   1      37.204  30.910  29.187  1.00  0.00     0.064 A 
ATOM     88  C   UNL A   1      36.241  29.903  29.069  1.00  0.00     0.173 A 
ATOM     89  C   UNL A   1      36.913  32.149  28.587  1.00  0.00     0.173 A 
ATOM     90  F   UNL A   1      36.448  28.695  29.617  1.00  0.00    -0.203 F 
ATOM     91  C   UNL A   1      35.117  30.080  28.273  1.00  0.00     0.198 A 
ATOM     92  C   UNL A   1      35.718  32.362  27.905  1.00  0.00     0.198 A 
ATOM     93  F   UNL A   1      37.807  33.146  28.628  1.00  0.00    -0.203 F 
ATOM     94  F   UNL A   1      34.357  29.018  27.975  1.00  0.00    -0.200 F 
ATOM     95  C   UNL A   1      34.832  31.317  27.724  1.00  0.00     0.200 A 
ATOM     96  F   UNL A   1      35.457  33.562  27.368  1.00  0.00    -0.200 F 
ATOM     97  F   UNL A   1      33.729  31.487  26.985  1.00  0.00    -0.200 F 
ENDBRANCH  63  87
BRANCH  75  98
ATOM     98  C   UNL A   1      40.532  33.565  34.718  1.00  0.00     0.064 A 
ATOM     99  C   UNL A   1      39.680  33.366  35.816  1.00  0.00     0.173 A 
ATOM    100  C   UNL A   1      41.090  34.842  34.550  1.00  0.00     0.173 A 
ATOM    101  F   UNL A   1      39.108  32.170  36.018  1.00  0.00    -0.203 F 
ATOM    102  C   UNL A   1      39.371  34.410  36.685  1.00  0.00     0.198 A 
ATOM    103  C   UNL A   1      40.806  35.875  35.442  1.00  0.00     0.198 A 
ATOM    104  F   UNL A   1      41.919  35.089  33.525  1.00  0.00    -0.203 F 
ATOM    105  F   UNL A   1      38.505  34.209  37.689  1.00  0.00    -0.200 F 
ATOM    106  C   UNL A   1      39.939  35.661  36.501  1.00  0.00     0.200 A 
ATOM    107  F   UNL A   1      41.370  37.079  35.272  1.00  0.00    -0.200 F 
ATOM    108  F   UNL A   1      39.644  36.663  37.342  1.00  0.00    -0.200 F 
ENDBRANCH  75  98
ENDBRANCH  49  50
ENDBRANCH  42  44
ENDBRANCH  41  42
ENDBRANCH  40  41
ENDBRANCH  39  40
ENDBRANCH  38  39
ENDBRANCH  37  38
ENDBRANCH  36  37
ENDBRANCH  35  36
ENDBRANCH  34  35
ENDBRANCH   1  34
TORSDOF 25
ENDMDL
