MODEL 1
REMARK VINA RESULT:     -12.3      0.000      0.000
REMARK SMILES O=C(C[C@]1(C(=O)NC2CCCCC2)CC(c2ccc([N+](=O)[O-])cc2)=NO1)OCCOCCOCCOC(=O)c1ccc(-c2c3nc(c(-c4c(F)c(F)c(F)c(F)c4F)c4ccc([nH]4)c(-c4c(F)c(F)c(F)c(F)c4F)c4nc(c(-c5c(F)c(F)c(F)c(F)c5F)c5ccc2[nH]5)C=C4)C=C3)cc1
REMARK SMILES IDX 31 1 30 2 29 3 28 4 27 5 2 6 1 7 3 8 4 9 14 10 26 11 15 12
REMARK SMILES IDX 25 13 5 14 6 15 7 16 8 18 9 19 13 20 10 21 12 22 11 23 16 24
REMARK SMILES IDX 17 25 24 26 18 27 23 28 19 29 20 30 21 31 22 32 32 33 33 34
REMARK SMILES IDX 34 35 35 36 36 37 37 38 38 39 39 40 40 41 101 42 41 43
REMARK SMILES IDX 100 44 42 45 43 46 44 47 94 48 45 49 99 50 93 51 95 52 46 53
REMARK SMILES IDX 98 54 92 55 91 56 47 58 79 59 59 60 78 61 60 62 63 63 77 64
REMARK SMILES IDX 96 65 61 66 62 67 76 69 97 70 64 71 48 72 49 73 57 74 50 75
REMARK SMILES IDX 51 76 55 77 58 78 52 79 53 80 56 81 54 82 80 83 81 84 89 85
REMARK SMILES IDX 82 86 83 87 87 88 90 89 84 90 85 91 88 92 86 93 65 94 66 95
REMARK SMILES IDX 74 96 67 97 68 98 72 99 75 100 69 101 70 102 73 103 71 104
REMARK H PARENT 7 17 95 57 63 68
REMARK Flexibility Score: inf
ROOT
ATOM      1  C   UNL A   1      40.384  21.879  27.247  1.00  0.00     0.188 C 
ENDROOT
BRANCH   1   2
ATOM      2  O   UNL A   1      39.504  21.911  26.126  1.00  0.00    -0.376 OA
BRANCH   2   3
ATOM      3  C   UNL A   1      38.472  22.895  26.126  1.00  0.00     0.202 C 
BRANCH   3   4
ATOM      4  C   UNL A   1      37.021  22.459  25.929  1.00  0.00     0.261 C 
BRANCH   4   5
ATOM      5  O   UNL A   1      36.038  23.471  25.660  1.00  0.00    -0.463 OA
BRANCH   5   6
ATOM      6  C   UNL A   1      34.713  23.419  25.867  1.00  0.00     0.310 C 
ATOM      7  O   UNL A   1      34.293  23.275  27.014  1.00  0.00    -0.252 OA
BRANCH   6   8
ATOM      8  C   UNL A   1      33.764  23.491  24.712  1.00  0.00     0.185 C 
BRANCH   8   9
ATOM      9  C   UNL A   1      32.341  22.974  24.926  1.00  0.00     0.231 C 
ATOM     10  C   UNL A   1      32.272  21.628  25.644  1.00  0.00     0.123 C 
ATOM     11  O   UNL A   1      31.794  22.626  23.641  1.00  0.00    -0.378 OA
ATOM     12  C   UNL A   1      32.514  20.753  24.467  1.00  0.00     0.092 C 
ATOM     13  N   UNL A   1      32.229  21.308  23.333  1.00  0.00    -0.089 NA
BRANCH   9  14
ATOM     14  C   UNL A   1      31.412  23.966  25.669  1.00  0.00     0.268 C 
ATOM     15  O   UNL A   1      30.838  23.589  26.704  1.00  0.00    -0.270 OA
ATOM     16  N   UNL A   1      31.178  25.267  25.365  1.00  0.00    -0.350 N 
ATOM     17  H   UNL A   1      30.416  25.619  25.880  1.00  0.00     0.163 HD
BRANCH  16  18
ATOM     18  C   UNL A   1      31.742  26.301  24.483  1.00  0.00     0.082 C 
ATOM     19  C   UNL A   1      31.093  26.252  23.096  1.00  0.00     0.025 C 
ATOM     20  C   UNL A   1      31.986  27.660  25.153  1.00  0.00     0.025 C 
ATOM     21  C   UNL A   1      30.465  27.531  22.593  1.00  0.00     0.002 C 
ATOM     22  C   UNL A   1      31.583  28.867  24.315  1.00  0.00     0.002 C 
ATOM     23  C   UNL A   1      30.253  28.577  23.655  1.00  0.00     0.000 C 
ENDBRANCH  16  18
ENDBRANCH   9  14
BRANCH  12  24
ATOM     24  C   UNL A   1      33.030  19.385  24.628  1.00  0.00    -0.000 A 
ATOM     25  C   UNL A   1      32.169  18.371  25.058  1.00  0.00     0.017 A 
ATOM     26  C   UNL A   1      34.376  19.105  24.358  1.00  0.00     0.017 A 
ATOM     27  C   UNL A   1      32.656  17.074  25.242  1.00  0.00     0.086 A 
ATOM     28  C   UNL A   1      34.871  17.814  24.548  1.00  0.00     0.086 A 
ATOM     29  C   UNL A   1      34.011  16.804  25.002  1.00  0.00     0.269 A 
BRANCH  29  30
ATOM     30  N   UNL A   1      34.545  15.460  25.249  1.00  0.00     0.062 N 
ATOM     31  O   UNL A   1      33.735  14.528  25.354  1.00  0.00    -0.258 OA
ATOM     32  O   UNL A   1      35.774  15.339  25.351  1.00  0.00    -0.258 OA
ENDBRANCH  29  30
ENDBRANCH  12  24
ENDBRANCH   8   9
ENDBRANCH   6   8
ENDBRANCH   5   6
ENDBRANCH   4   5
ENDBRANCH   3   4
ENDBRANCH   2   3
ENDBRANCH   1   2
BRANCH   1  33
ATOM     33  C   UNL A   1      41.441  20.784  27.102  1.00  0.00     0.188 C 
BRANCH  33  34
ATOM     34  O   UNL A   1      42.162  20.771  25.872  1.00  0.00    -0.376 OA
BRANCH  34  35
ATOM     35  C   UNL A   1      43.508  21.222  25.912  1.00  0.00     0.202 C 
BRANCH  35  36
ATOM     36  C   UNL A   1      44.002  22.120  24.766  1.00  0.00     0.261 C 
BRANCH  36  37
ATOM     37  O   UNL A   1      43.346  23.389  24.609  1.00  0.00    -0.460 OA
BRANCH  37  38
ATOM     38  C   UNL A   1      44.112  24.470  24.916  1.00  0.00     0.338 C 
ATOM     39  O   UNL A   1      45.256  24.691  24.570  1.00  0.00    -0.246 OA
BRANCH  38  40
ATOM     40  C   UNL A   1      43.349  25.399  25.775  1.00  0.00     0.060 A 
ATOM     41  C   UNL A   1      43.802  26.709  25.971  1.00  0.00     0.016 A 
ATOM     42  C   UNL A   1      42.223  24.937  26.463  1.00  0.00     0.016 A 
ATOM     43  C   UNL A   1      43.132  27.562  26.865  1.00  0.00     0.010 A 
ATOM     44  C   UNL A   1      41.551  25.793  27.349  1.00  0.00     0.010 A 
ATOM     45  C   UNL A   1      42.017  27.104  27.585  1.00  0.00    -0.014 A 
BRANCH  45  46
ATOM     46  C   UNL A   1      41.506  27.861  28.771  1.00  0.00     0.031 A 
ATOM     47  C   UNL A   1      42.247  27.690  30.063  1.00  0.00     0.074 A 
ATOM     48  C   UNL A   1      40.427  28.668  28.753  1.00  0.00     0.049 A 
ATOM     49  N   UNL A   1      42.000  28.208  31.237  1.00  0.00    -0.248 NA
ATOM     50  C   UNL A   1      43.419  26.801  30.026  1.00  0.00     0.031 C 
ATOM     51  C   UNL A   1      39.632  28.952  27.578  1.00  0.00     0.029 A 
ATOM     52  N   UNL A   1      39.799  29.392  29.742  1.00  0.00    -0.354 N 
ATOM     53  C   UNL A   1      42.983  27.707  32.075  1.00  0.00     0.074 A 
ATOM     54  C   UNL A   1      43.783  26.790  31.295  1.00  0.00     0.031 C 
ATOM     55  C   UNL A   1      38.614  29.767  27.886  1.00  0.00     0.029 A 
ATOM     56  C   UNL A   1      38.677  30.067  29.310  1.00  0.00     0.049 A 
ATOM     57  H   UNL A   1      40.121  29.424  30.671  1.00  0.00     0.167 HD
ATOM     58  C   UNL A   1      43.217  28.006  33.373  1.00  0.00     0.037 A 
ATOM     59  C   UNL A   1      37.799  30.842  29.977  1.00  0.00     0.037 A 
ATOM     60  C   UNL A   1      42.414  28.909  34.151  1.00  0.00     0.049 A 
ATOM     61  C   UNL A   1      38.033  31.104  31.438  1.00  0.00     0.074 A 
ATOM     62  C   UNL A   1      42.585  29.294  35.468  1.00  0.00     0.029 A 
ATOM     63  N   UNL A   1      41.273  29.554  33.689  1.00  0.00    -0.354 N 
ATOM     64  N   UNL A   1      38.999  30.668  32.207  1.00  0.00    -0.248 NA
ATOM     65  C   UNL A   1      37.071  31.982  32.119  1.00  0.00     0.031 C 
ATOM     66  C   UNL A   1      41.512  30.120  35.824  1.00  0.00     0.029 A 
ATOM     67  C   UNL A   1      40.714  30.312  34.707  1.00  0.00     0.049 A 
ATOM     68  H   UNL A   1      40.916  29.484  32.775  1.00  0.00     0.167 HD
ATOM     69  C   UNL A   1      38.795  31.255  33.448  1.00  0.00     0.074 A 
ATOM     70  C   UNL A   1      37.610  32.080  33.327  1.00  0.00     0.031 C 
ATOM     71  C   UNL A   1      39.535  31.131  34.577  1.00  0.00     0.037 A 
BRANCH  58  72
ATOM     72  C   UNL A   1      44.375  27.307  34.019  1.00  0.00     0.064 A 
ATOM     73  C   UNL A   1      45.671  27.850  34.001  1.00  0.00     0.173 A 
ATOM     74  C   UNL A   1      44.196  26.052  34.618  1.00  0.00     0.173 A 
ATOM     75  F   UNL A   1      45.900  29.035  33.415  1.00  0.00    -0.203 F 
ATOM     76  C   UNL A   1      46.752  27.137  34.510  1.00  0.00     0.198 A 
ATOM     77  C   UNL A   1      45.273  25.361  35.163  1.00  0.00     0.198 A 
ATOM     78  F   UNL A   1      42.981  25.488  34.657  1.00  0.00    -0.203 F 
ATOM     79  F   UNL A   1      47.992  27.634  34.402  1.00  0.00    -0.200 F 
ATOM     80  C   UNL A   1      46.551  25.896  35.096  1.00  0.00     0.200 A 
ATOM     81  F   UNL A   1      45.076  24.166  35.736  1.00  0.00    -0.200 F 
ATOM     82  F   UNL A   1      47.594  25.205  35.579  1.00  0.00    -0.200 F 
ENDBRANCH  58  72
BRANCH  59  83
ATOM     83  C   UNL A   1      36.649  31.467  29.263  1.00  0.00     0.064 A 
ATOM     84  C   UNL A   1      36.626  32.843  28.996  1.00  0.00     0.173 A 
ATOM     85  C   UNL A   1      35.549  30.707  28.837  1.00  0.00     0.173 A 
ATOM     86  F   UNL A   1      37.640  33.621  29.406  1.00  0.00    -0.203 F 
ATOM     87  C   UNL A   1      35.545  33.438  28.346  1.00  0.00     0.198 A 
ATOM     88  C   UNL A   1      34.479  31.298  28.163  1.00  0.00     0.198 A 
ATOM     89  F   UNL A   1      35.515  29.386  29.069  1.00  0.00    -0.203 F 
ATOM     90  F   UNL A   1      35.532  34.763  28.145  1.00  0.00    -0.200 F 
ATOM     91  C   UNL A   1      34.475  32.663  27.923  1.00  0.00     0.200 A 
ATOM     92  F   UNL A   1      33.452  30.544  27.750  1.00  0.00    -0.200 F 
ATOM     93  F   UNL A   1      33.439  33.234  27.294  1.00  0.00    -0.200 F 
ENDBRANCH  59  83
BRANCH  71  94
ATOM     94  C   UNL A   1      39.119  31.954  35.762  1.00  0.00     0.064 A 
ATOM     95  C   UNL A   1      39.547  33.279  35.938  1.00  0.00     0.173 A 
ATOM     96  C   UNL A   1      38.258  31.409  36.728  1.00  0.00     0.173 A 
ATOM     97  F   UNL A   1      40.382  33.843  35.052  1.00  0.00    -0.203 F 
ATOM     98  C   UNL A   1      39.157  34.014  37.055  1.00  0.00     0.198 A 
ATOM     99  C   UNL A   1      37.839  32.160  37.821  1.00  0.00     0.198 A 
ATOM    100  F   UNL A   1      37.814  30.149  36.604  1.00  0.00    -0.203 F 
ATOM    101  F   UNL A   1      39.627  35.256  37.234  1.00  0.00    -0.200 F 
ATOM    102  C   UNL A   1      38.298  33.457  37.991  1.00  0.00     0.200 A 
ATOM    103  F   UNL A   1      36.996  31.625  38.716  1.00  0.00    -0.200 F 
ATOM    104  F   UNL A   1      37.920  34.168  39.062  1.00  0.00    -0.200 F 
ENDBRANCH  71  94
ENDBRANCH  45  46
ENDBRANCH  38  40
ENDBRANCH  37  38
ENDBRANCH  36  37
ENDBRANCH  35  36
ENDBRANCH  34  35
ENDBRANCH  33  34
ENDBRANCH   1  33
TORSDOF 22
ENDMDL
MODEL 2
REMARK VINA RESULT:     -11.9      4.061     10.032
REMARK SMILES O=C(C[C@]1(C(=O)NC2CCCCC2)CC(c2ccc([N+](=O)[O-])cc2)=NO1)OCCOCCOCCOC(=O)c1ccc(-c2c3nc(c(-c4c(F)c(F)c(F)c(F)c4F)c4ccc([nH]4)c(-c4c(F)c(F)c(F)c(F)c4F)c4nc(c(-c5c(F)c(F)c(F)c(F)c5F)c5ccc2[nH]5)C=C4)C=C3)cc1
REMARK SMILES IDX 31 1 30 2 29 3 28 4 27 5 2 6 1 7 3 8 4 9 14 10 26 11 15 12
REMARK SMILES IDX 25 13 5 14 6 15 7 16 8 18 9 19 13 20 10 21 12 22 11 23 16 24
REMARK SMILES IDX 17 25 24 26 18 27 23 28 19 29 20 30 21 31 22 32 32 33 33 34
REMARK SMILES IDX 34 35 35 36 36 37 37 38 38 39 39 40 40 41 101 42 41 43
REMARK SMILES IDX 100 44 42 45 43 46 44 47 94 48 45 49 99 50 93 51 95 52 46 53
REMARK SMILES IDX 98 54 92 55 91 56 47 58 79 59 59 60 78 61 60 62 63 63 77 64
REMARK SMILES IDX 96 65 61 66 62 67 76 69 97 70 64 71 48 72 49 73 57 74 50 75
REMARK SMILES IDX 51 76 55 77 58 78 52 79 53 80 56 81 54 82 80 83 81 84 89 85
REMARK SMILES IDX 82 86 83 87 87 88 90 89 84 90 85 91 88 92 86 93 65 94 66 95
REMARK SMILES IDX 74 96 67 97 68 98 72 99 75 100 69 101 70 102 73 103 71 104
REMARK H PARENT 7 17 95 57 63 68
REMARK Flexibility Score: inf
ROOT
ATOM      1  C   UNL A   1      34.003  32.620  28.008  1.00  0.00     0.188 C 
ENDROOT
BRANCH   1   2
ATOM      2  O   UNL A   1      34.347  31.337  27.490  1.00  0.00    -0.376 OA
BRANCH   2   3
ATOM      3  C   UNL A   1      33.280  30.481  27.089  1.00  0.00     0.202 C 
BRANCH   3   4
ATOM      4  C   UNL A   1      33.590  29.232  26.265  1.00  0.00     0.261 C 
BRANCH   4   5
ATOM      5  O   UNL A   1      33.457  29.309  24.838  1.00  0.00    -0.463 OA
BRANCH   5   6
ATOM      6  C   UNL A   1      33.744  28.369  23.924  1.00  0.00     0.310 C 
ATOM      7  O   UNL A   1      34.290  28.703  22.873  1.00  0.00    -0.252 OA
BRANCH   6   8
ATOM      8  C   UNL A   1      33.364  26.940  24.164  1.00  0.00     0.185 C 
BRANCH   8   9
ATOM      9  C   UNL A   1      32.340  26.308  23.220  1.00  0.00     0.231 C 
ATOM     10  C   UNL A   1      31.689  27.299  22.257  1.00  0.00     0.123 C 
ATOM     11  O   UNL A   1      31.203  25.900  24.002  1.00  0.00    -0.378 OA
ATOM     12  C   UNL A   1      30.651  27.830  23.179  1.00  0.00     0.092 C 
ATOM     13  N   UNL A   1      30.362  27.035  24.158  1.00  0.00    -0.089 NA
BRANCH   9  14
ATOM     14  C   UNL A   1      32.892  25.121  22.391  1.00  0.00     0.268 C 
ATOM     15  O   UNL A   1      33.346  25.343  21.257  1.00  0.00    -0.270 OA
ATOM     16  N   UNL A   1      33.010  23.826  22.777  1.00  0.00    -0.350 N 
ATOM     17  H   UNL A   1      33.219  23.246  22.008  1.00  0.00     0.163 HD
BRANCH  16  18
ATOM     18  C   UNL A   1      32.915  23.044  24.019  1.00  0.00     0.082 C 
ATOM     19  C   UNL A   1      32.876  21.543  23.719  1.00  0.00     0.025 C 
ATOM     20  C   UNL A   1      33.782  23.559  25.176  1.00  0.00     0.025 C 
ATOM     21  C   UNL A   1      33.921  20.685  24.395  1.00  0.00     0.002 C 
ATOM     22  C   UNL A   1      34.505  22.475  25.964  1.00  0.00     0.002 C 
ATOM     23  C   UNL A   1      35.067  21.460  24.992  1.00  0.00     0.000 C 
ENDBRANCH  16  18
ENDBRANCH   9  14
BRANCH  12  24
ATOM     24  C   UNL A   1      30.037  29.148  22.955  1.00  0.00    -0.000 A 
ATOM     25  C   UNL A   1      29.574  29.484  21.679  1.00  0.00     0.017 A 
ATOM     26  C   UNL A   1      29.922  30.059  24.013  1.00  0.00     0.017 A 
ATOM     27  C   UNL A   1      29.016  30.744  21.449  1.00  0.00     0.086 A 
ATOM     28  C   UNL A   1      29.372  31.323  23.788  1.00  0.00     0.086 A 
ATOM     29  C   UNL A   1      28.932  31.666  22.503  1.00  0.00     0.269 A 
BRANCH  29  30
ATOM     30  N   UNL A   1      28.401  33.011  22.257  1.00  0.00     0.062 N 
ATOM     31  O   UNL A   1      28.681  33.900  23.073  1.00  0.00    -0.258 OA
ATOM     32  O   UNL A   1      27.693  33.175  21.252  1.00  0.00    -0.258 OA
ENDBRANCH  29  30
ENDBRANCH  12  24
ENDBRANCH   8   9
ENDBRANCH   6   8
ENDBRANCH   5   6
ENDBRANCH   4   5
ENDBRANCH   3   4
ENDBRANCH   2   3
ENDBRANCH   1   2
BRANCH   1  33
ATOM     33  C   UNL A   1      35.063  33.138  28.981  1.00  0.00     0.188 C 
BRANCH  33  34
ATOM     34  O   UNL A   1      35.156  34.555  29.107  1.00  0.00    -0.376 OA
BRANCH  34  35
ATOM     35  C   UNL A   1      34.108  35.321  28.533  1.00  0.00     0.202 C 
BRANCH  35  36
ATOM     36  C   UNL A   1      33.050  35.917  29.476  1.00  0.00     0.261 C 
BRANCH  36  37
ATOM     37  O   UNL A   1      32.572  35.068  30.532  1.00  0.00    -0.460 OA
BRANCH  37  38
ATOM     38  C   UNL A   1      32.730  35.570  31.786  1.00  0.00     0.338 C 
ATOM     39  O   UNL A   1      32.038  36.396  32.348  1.00  0.00    -0.246 OA
BRANCH  38  40
ATOM     40  C   UNL A   1      33.917  34.964  32.424  1.00  0.00     0.060 A 
ATOM     41  C   UNL A   1      35.145  35.638  32.411  1.00  0.00     0.016 A 
ATOM     42  C   UNL A   1      33.832  33.676  32.960  1.00  0.00     0.016 A 
ATOM     43  C   UNL A   1      36.295  35.021  32.930  1.00  0.00     0.010 A 
ATOM     44  C   UNL A   1      34.981  33.064  33.485  1.00  0.00     0.010 A 
ATOM     45  C   UNL A   1      36.232  33.717  33.446  1.00  0.00    -0.014 A 
BRANCH  45  46
ATOM     46  C   UNL A   1      37.480  32.924  33.682  1.00  0.00     0.031 A 
ATOM     47  C   UNL A   1      38.239  33.204  34.945  1.00  0.00     0.074 A 
ATOM     48  C   UNL A   1      37.963  31.994  32.836  1.00  0.00     0.049 A 
ATOM     49  N   UNL A   1      39.356  32.680  35.376  1.00  0.00    -0.248 NA
ATOM     50  C   UNL A   1      37.664  34.225  35.835  1.00  0.00     0.031 C 
ATOM     51  C   UNL A   1      37.328  31.598  31.599  1.00  0.00     0.029 A 
ATOM     52  N   UNL A   1      39.100  31.218  32.869  1.00  0.00    -0.354 N 
ATOM     53  C   UNL A   1      39.617  33.308  36.582  1.00  0.00     0.074 A 
ATOM     54  C   UNL A   1      38.585  34.301  36.779  1.00  0.00     0.031 C 
ATOM     55  C   UNL A   1      38.064  30.673  30.968  1.00  0.00     0.029 A 
ATOM     56  C   UNL A   1      39.253  30.407  31.765  1.00  0.00     0.049 A 
ATOM     57  H   UNL A   1      39.744  31.239  33.614  1.00  0.00     0.167 HD
ATOM     58  C   UNL A   1      40.611  33.060  37.464  1.00  0.00     0.037 A 
ATOM     59  C   UNL A   1      40.232  29.544  31.429  1.00  0.00     0.037 A 
ATOM     60  C   UNL A   1      41.644  32.082  37.262  1.00  0.00     0.049 A 
ATOM     61  C   UNL A   1      41.370  29.336  32.388  1.00  0.00     0.074 A 
ATOM     62  C   UNL A   1      42.684  31.741  38.108  1.00  0.00     0.029 A 
ATOM     63  N   UNL A   1      41.782  31.298  36.123  1.00  0.00    -0.354 N 
ATOM     64  N   UNL A   1      41.577  29.896  33.553  1.00  0.00    -0.248 NA
ATOM     65  C   UNL A   1      42.399  28.361  31.999  1.00  0.00     0.031 C 
ATOM     66  C   UNL A   1      43.487  30.800  37.456  1.00  0.00     0.029 A 
ATOM     67  C   UNL A   1      42.907  30.496  36.234  1.00  0.00     0.049 A 
ATOM     68  H   UNL A   1      41.170  31.310  35.352  1.00  0.00     0.167 HD
ATOM     69  C   UNL A   1      42.727  29.310  34.062  1.00  0.00     0.074 A 
ATOM     70  C   UNL A   1      43.174  28.349  33.075  1.00  0.00     0.031 C 
ATOM     71  C   UNL A   1      43.344  29.540  35.247  1.00  0.00     0.037 A 
BRANCH  58  72
ATOM     72  C   UNL A   1      40.628  33.903  38.704  1.00  0.00     0.064 A 
ATOM     73  C   UNL A   1      39.870  33.566  39.838  1.00  0.00     0.173 A 
ATOM     74  C   UNL A   1      41.370  35.092  38.738  1.00  0.00     0.173 A 
ATOM     75  F   UNL A   1      39.120  32.453  39.844  1.00  0.00    -0.203 F 
ATOM     76  C   UNL A   1      39.813  34.416  40.938  1.00  0.00     0.198 A 
ATOM     77  C   UNL A   1      41.343  35.918  39.857  1.00  0.00     0.198 A 
ATOM     78  F   UNL A   1      42.106  35.461  37.681  1.00  0.00    -0.203 F 
ATOM     79  F   UNL A   1      39.013  34.119  41.972  1.00  0.00    -0.200 F 
ATOM     80  C   UNL A   1      40.554  35.588  40.949  1.00  0.00     0.200 A 
ATOM     81  F   UNL A   1      42.066  37.046  39.870  1.00  0.00    -0.200 F 
ATOM     82  F   UNL A   1      40.492  36.411  42.006  1.00  0.00    -0.200 F 
ENDBRANCH  58  72
BRANCH  59  83
ATOM     83  C   UNL A   1      40.156  28.775  30.154  1.00  0.00     0.064 A 
ATOM     84  C   UNL A   1      39.502  27.536  30.096  1.00  0.00     0.173 A 
ATOM     85  C   UNL A   1      40.738  29.255  28.971  1.00  0.00     0.173 A 
ATOM     86  F   UNL A   1      38.952  27.017  31.204  1.00  0.00    -0.203 F 
ATOM     87  C   UNL A   1      39.444  26.802  28.911  1.00  0.00     0.198 A 
ATOM     88  C   UNL A   1      40.657  28.533  27.780  1.00  0.00     0.198 A 
ATOM     89  F   UNL A   1      41.381  30.433  28.969  1.00  0.00    -0.203 F 
ATOM     90  F   UNL A   1      38.850  25.600  28.898  1.00  0.00    -0.200 F 
ATOM     91  C   UNL A   1      40.016  27.305  27.752  1.00  0.00     0.200 A 
ATOM     92  F   UNL A   1      41.205  29.027  26.661  1.00  0.00    -0.200 F 
ATOM     93  F   UNL A   1      39.956  26.601  26.613  1.00  0.00    -0.200 F 
ENDBRANCH  59  83
BRANCH  71  94
ATOM     94  C   UNL A   1      44.540  28.693  35.572  1.00  0.00     0.064 A 
ATOM     95  C   UNL A   1      45.846  29.085  35.238  1.00  0.00     0.173 A 
ATOM     96  C   UNL A   1      44.375  27.475  36.250  1.00  0.00     0.173 A 
ATOM     97  F   UNL A   1      46.058  30.233  34.577  1.00  0.00    -0.203 F 
ATOM     98  C   UNL A   1      46.936  28.273  35.540  1.00  0.00     0.198 A 
ATOM     99  C   UNL A   1      45.470  26.685  36.584  1.00  0.00     0.198 A 
ATOM    100  F   UNL A   1      43.149  27.056  36.598  1.00  0.00    -0.203 F 
ATOM    101  F   UNL A   1      48.167  28.639  35.157  1.00  0.00    -0.200 F 
ATOM    102  C   UNL A   1      46.748  27.078  36.219  1.00  0.00     0.200 A 
ATOM    103  F   UNL A   1      45.287  25.538  37.255  1.00  0.00    -0.200 F 
ATOM    104  F   UNL A   1      47.799  26.300  36.512  1.00  0.00    -0.200 F 
ENDBRANCH  71  94
ENDBRANCH  45  46
ENDBRANCH  38  40
ENDBRANCH  37  38
ENDBRANCH  36  37
ENDBRANCH  35  36
ENDBRANCH  34  35
ENDBRANCH  33  34
ENDBRANCH   1  33
TORSDOF 22
ENDMDL
MODEL 3
REMARK VINA RESULT:     -11.4      1.137      2.246
REMARK SMILES O=C(C[C@]1(C(=O)NC2CCCCC2)CC(c2ccc([N+](=O)[O-])cc2)=NO1)OCCOCCOCCOC(=O)c1ccc(-c2c3nc(c(-c4c(F)c(F)c(F)c(F)c4F)c4ccc([nH]4)c(-c4c(F)c(F)c(F)c(F)c4F)c4nc(c(-c5c(F)c(F)c(F)c(F)c5F)c5ccc2[nH]5)C=C4)C=C3)cc1
REMARK SMILES IDX 31 1 30 2 29 3 28 4 27 5 2 6 1 7 3 8 4 9 14 10 26 11 15 12
REMARK SMILES IDX 25 13 5 14 6 15 7 16 8 18 9 19 13 20 10 21 12 22 11 23 16 24
REMARK SMILES IDX 17 25 24 26 18 27 23 28 19 29 20 30 21 31 22 32 32 33 33 34
REMARK SMILES IDX 34 35 35 36 36 37 37 38 38 39 39 40 40 41 101 42 41 43
REMARK SMILES IDX 100 44 42 45 43 46 44 47 94 48 45 49 99 50 93 51 95 52 46 53
REMARK SMILES IDX 98 54 92 55 91 56 47 58 79 59 59 60 78 61 60 62 63 63 77 64
REMARK SMILES IDX 96 65 61 66 62 67 76 69 97 70 64 71 48 72 49 73 57 74 50 75
REMARK SMILES IDX 51 76 55 77 58 78 52 79 53 80 56 81 54 82 80 83 81 84 89 85
REMARK SMILES IDX 82 86 83 87 87 88 90 89 84 90 85 91 88 92 86 93 65 94 66 95
REMARK SMILES IDX 74 96 67 97 68 98 72 99 75 100 69 101 70 102 73 103 71 104
REMARK H PARENT 7 17 95 57 63 68
REMARK Flexibility Score: inf
ROOT
ATOM      1  C   UNL A   1      39.940  22.273  26.977  1.00  0.00     0.188 C 
ENDROOT
BRANCH   1   2
ATOM      2  O   UNL A   1      39.417  23.380  26.246  1.00  0.00    -0.376 OA
BRANCH   2   3
ATOM      3  C   UNL A   1      38.012  23.610  26.314  1.00  0.00     0.202 C 
BRANCH   3   4
ATOM      4  C   UNL A   1      37.059  22.636  25.622  1.00  0.00     0.261 C 
BRANCH   4   5
ATOM      5  O   UNL A   1      35.942  23.176  24.901  1.00  0.00    -0.463 OA
BRANCH   5   6
ATOM      6  C   UNL A   1      35.677  23.086  23.588  1.00  0.00     0.310 C 
ATOM      7  O   UNL A   1      36.612  22.980  22.796  1.00  0.00    -0.252 OA
BRANCH   6   8
ATOM      8  C   UNL A   1      34.265  23.159  23.095  1.00  0.00     0.185 C 
BRANCH   8   9
ATOM      9  C   UNL A   1      33.145  23.134  24.136  1.00  0.00     0.231 C 
ATOM     10  C   UNL A   1      33.219  21.950  25.098  1.00  0.00     0.123 C 
ATOM     11  O   UNL A   1      31.908  22.856  23.455  1.00  0.00    -0.378 OA
ATOM     12  C   UNL A   1      32.562  20.938  24.230  1.00  0.00     0.092 C 
ATOM     13  N   UNL A   1      31.807  21.445  23.309  1.00  0.00    -0.089 NA
BRANCH   9  14
ATOM     14  C   UNL A   1      33.031  24.432  24.974  1.00  0.00     0.268 C 
ATOM     15  O   UNL A   1      33.238  24.375  26.197  1.00  0.00    -0.270 OA
ATOM     16  N   UNL A   1      32.786  25.688  24.525  1.00  0.00    -0.350 N 
ATOM     17  H   UNL A   1      32.585  26.297  25.273  1.00  0.00     0.163 HD
BRANCH  16  18
ATOM     18  C   UNL A   1      32.736  26.398  23.237  1.00  0.00     0.082 C 
ATOM     19  C   UNL A   1      31.305  26.445  22.693  1.00  0.00     0.025 C 
ATOM     20  C   UNL A   1      33.616  27.653  23.156  1.00  0.00     0.025 C 
ATOM     21  C   UNL A   1      30.744  27.811  22.371  1.00  0.00     0.002 C 
ATOM     22  C   UNL A   1      32.962  28.847  22.474  1.00  0.00     0.002 C 
ATOM     23  C   UNL A   1      31.530  28.957  22.952  1.00  0.00     0.000 C 
ENDBRANCH  16  18
ENDBRANCH   9  14
BRANCH  12  24
ATOM     24  C   UNL A   1      32.783  19.499  24.439  1.00  0.00    -0.000 A 
ATOM     25  C   UNL A   1      32.765  18.981  25.738  1.00  0.00     0.017 A 
ATOM     26  C   UNL A   1      33.014  18.656  23.344  1.00  0.00     0.017 A 
ATOM     27  C   UNL A   1      33.002  17.620  25.951  1.00  0.00     0.086 A 
ATOM     28  C   UNL A   1      33.260  17.297  23.550  1.00  0.00     0.086 A 
ATOM     29  C   UNL A   1      33.265  16.786  24.855  1.00  0.00     0.269 A 
BRANCH  29  30
ATOM     30  N   UNL A   1      33.573  15.368  25.073  1.00  0.00     0.062 N 
ATOM     31  O   UNL A   1      34.765  15.044  25.169  1.00  0.00    -0.258 OA
ATOM     32  O   UNL A   1      32.621  14.576  25.135  1.00  0.00    -0.258 OA
ENDBRANCH  29  30
ENDBRANCH  12  24
ENDBRANCH   8   9
ENDBRANCH   6   8
ENDBRANCH   5   6
ENDBRANCH   4   5
ENDBRANCH   3   4
ENDBRANCH   2   3
ENDBRANCH   1   2
BRANCH   1  33
ATOM     33  C   UNL A   1      40.600  21.249  26.053  1.00  0.00     0.188 C 
BRANCH  33  34
ATOM     34  O   UNL A   1      41.836  20.703  26.507  1.00  0.00    -0.376 OA
BRANCH  34  35
ATOM     35  C   UNL A   1      42.976  21.546  26.432  1.00  0.00     0.202 C 
BRANCH  35  36
ATOM     36  C   UNL A   1      43.259  22.259  25.100  1.00  0.00     0.261 C 
BRANCH  36  37
ATOM     37  O   UNL A   1      42.967  23.666  25.044  1.00  0.00    -0.460 OA
BRANCH  37  38
ATOM     38  C   UNL A   1      43.843  24.459  25.717  1.00  0.00     0.338 C 
ATOM     39  O   UNL A   1      45.056  24.404  25.703  1.00  0.00    -0.246 OA
BRANCH  38  40
ATOM     40  C   UNL A   1      43.103  25.452  26.524  1.00  0.00     0.060 A 
ATOM     41  C   UNL A   1      43.415  26.813  26.423  1.00  0.00     0.016 A 
ATOM     42  C   UNL A   1      42.153  25.018  27.453  1.00  0.00     0.016 A 
ATOM     43  C   UNL A   1      42.781  27.747  27.260  1.00  0.00     0.010 A 
ATOM     44  C   UNL A   1      41.515  25.954  28.282  1.00  0.00     0.010 A 
ATOM     45  C   UNL A   1      41.845  27.324  28.217  1.00  0.00    -0.014 A 
BRANCH  45  46
ATOM     46  C   UNL A   1      41.421  28.234  29.329  1.00  0.00     0.031 A 
ATOM     47  C   UNL A   1      42.229  28.193  30.592  1.00  0.00     0.074 A 
ATOM     48  C   UNL A   1      40.364  29.067  29.270  1.00  0.00     0.049 A 
ATOM     49  N   UNL A   1      42.061  28.855  31.706  1.00  0.00    -0.248 NA
ATOM     50  C   UNL A   1      43.373  27.269  30.601  1.00  0.00     0.031 C 
ATOM     51  C   UNL A   1      39.513  29.235  28.113  1.00  0.00     0.029 A 
ATOM     52  N   UNL A   1      39.811  29.923  30.196  1.00  0.00    -0.354 N 
ATOM     53  C   UNL A   1      43.075  28.426  32.546  1.00  0.00     0.074 A 
ATOM     54  C   UNL A   1      43.807  27.397  31.842  1.00  0.00     0.031 C 
ATOM     55  C   UNL A   1      38.534  30.113  28.373  1.00  0.00     0.029 A 
ATOM     56  C   UNL A   1      38.685  30.578  29.745  1.00  0.00     0.049 A 
ATOM     57  H   UNL A   1      40.185  30.055  31.096  1.00  0.00     0.167 HD
ATOM     58  C   UNL A   1      43.389  28.870  33.784  1.00  0.00     0.037 A 
ATOM     59  C   UNL A   1      37.866  31.454  30.358  1.00  0.00     0.037 A 
ATOM     60  C   UNL A   1      42.654  29.884  34.488  1.00  0.00     0.049 A 
ATOM     61  C   UNL A   1      38.187  31.881  31.763  1.00  0.00     0.074 A 
ATOM     62  C   UNL A   1      42.908  30.418  35.739  1.00  0.00     0.029 A 
ATOM     63  N   UNL A   1      41.507  30.506  34.013  1.00  0.00    -0.354 N 
ATOM     64  N   UNL A   1      39.183  31.509  32.528  1.00  0.00    -0.248 NA
ATOM     65  C   UNL A   1      37.288  32.865  32.383  1.00  0.00     0.031 C 
ATOM     66  C   UNL A   1      41.879  31.314  36.048  1.00  0.00     0.029 A 
ATOM     67  C   UNL A   1      41.025  31.398  34.959  1.00  0.00     0.049 A 
ATOM     68  H   UNL A   1      41.097  30.339  33.133  1.00  0.00     0.167 HD
ATOM     69  C   UNL A   1      39.064  32.246  33.698  1.00  0.00     0.074 A 
ATOM     70  C   UNL A   1      37.896  33.088  33.540  1.00  0.00     0.031 C 
ATOM     71  C   UNL A   1      39.862  32.233  34.793  1.00  0.00     0.037 A 
BRANCH  58  72
ATOM     72  C   UNL A   1      44.563  28.215  34.448  1.00  0.00     0.064 A 
ATOM     73  C   UNL A   1      44.412  27.088  35.273  1.00  0.00     0.173 A 
ATOM     74  C   UNL A   1      45.848  28.754  34.300  1.00  0.00     0.173 A 
ATOM     75  F   UNL A   1      43.199  26.551  35.471  1.00  0.00    -0.203 F 
ATOM     76  C   UNL A   1      45.497  26.560  35.967  1.00  0.00     0.198 A 
ATOM     77  C   UNL A   1      46.938  28.198  34.962  1.00  0.00     0.198 A 
ATOM     78  F   UNL A   1      46.045  29.832  33.527  1.00  0.00    -0.203 F 
ATOM     79  F   UNL A   1      45.315  25.541  36.818  1.00  0.00    -0.200 F 
ATOM     80  C   UNL A   1      46.759  27.112  35.807  1.00  0.00     0.200 A 
ATOM     81  F   UNL A   1      48.158  28.727  34.800  1.00  0.00    -0.200 F 
ATOM     82  F   UNL A   1      47.802  26.609  36.482  1.00  0.00    -0.200 F 
ENDBRANCH  58  72
BRANCH  59  83
ATOM     83  C   UNL A   1      36.694  32.027  29.635  1.00  0.00     0.064 A 
ATOM     84  C   UNL A   1      35.601  31.223  29.279  1.00  0.00     0.173 A 
ATOM     85  C   UNL A   1      36.642  33.383  29.279  1.00  0.00     0.173 A 
ATOM     86  F   UNL A   1      35.611  29.913  29.571  1.00  0.00    -0.203 F 
ATOM     87  C   UNL A   1      34.511  31.747  28.586  1.00  0.00     0.198 A 
ATOM     88  C   UNL A   1      35.539  33.914  28.609  1.00  0.00     0.198 A 
ATOM     89  F   UNL A   1      37.661  34.198  29.590  1.00  0.00    -0.203 F 
ATOM     90  F   UNL A   1      33.501  30.945  28.221  1.00  0.00    -0.200 F 
ATOM     91  C   UNL A   1      34.478  33.094  28.257  1.00  0.00     0.200 A 
ATOM     92  F   UNL A   1      35.509  35.217  28.300  1.00  0.00    -0.200 F 
ATOM     93  F   UNL A   1      33.428  33.599  27.595  1.00  0.00    -0.200 F 
ENDBRANCH  59  83
BRANCH  71  94
ATOM     94  C   UNL A   1      39.534  33.205  35.890  1.00  0.00     0.064 A 
ATOM     95  C   UNL A   1      38.711  32.859  36.973  1.00  0.00     0.173 A 
ATOM     96  C   UNL A   1      40.074  34.500  35.865  1.00  0.00     0.173 A 
ATOM     97  F   UNL A   1      38.157  31.638  37.037  1.00  0.00    -0.203 F 
ATOM     98  C   UNL A   1      38.412  33.785  37.969  1.00  0.00     0.198 A 
ATOM     99  C   UNL A   1      39.806  35.410  36.883  1.00  0.00     0.198 A 
ATOM    100  F   UNL A   1      40.873  34.880  34.857  1.00  0.00    -0.203 F 
ATOM    101  F   UNL A   1      37.574  33.451  38.961  1.00  0.00    -0.200 F 
ATOM    102  C   UNL A   1      38.966  35.055  37.928  1.00  0.00     0.200 A 
ATOM    103  F   UNL A   1      40.355  36.632  36.849  1.00  0.00    -0.200 F 
ATOM    104  F   UNL A   1      38.681  35.944  38.890  1.00  0.00    -0.200 F 
ENDBRANCH  71  94
ENDBRANCH  45  46
ENDBRANCH  38  40
ENDBRANCH  37  38
ENDBRANCH  36  37
ENDBRANCH  35  36
ENDBRANCH  34  35
ENDBRANCH  33  34
ENDBRANCH   1  33
TORSDOF 22
ENDMDL
