MODEL 1
REMARK VINA RESULT:     -10.8      0.000      0.000
REMARK SMILES CS(=O)(=O)[C@@H]1CCC[C@@H](Sc2ccc(C(=O)OCCOCCOCCOC(=O)c3ccc(-c4c5nc(c(-c6c(F)c(F)c(F)c(F)c6F)c6ccc([nH]6)c(-c6c(F)c(F)c(F)c(F)c6F)c6nc(c(-c7c(F)c(F)c(F)c(F)c7F)c7ccc4[nH]7)C=C6)C=C5)cc3)cn2)C1
REMARK SMILES IDX 21 1 20 2 19 3 18 4 17 5 15 6 16 7 14 8 11 9 12 10 93 11
REMARK SMILES IDX 13 12 92 13 10 14 9 15 5 16 6 17 94 18 7 19 8 20 2 21 1 22
REMARK SMILES IDX 3 23 4 24 22 25 23 26 24 27 25 28 26 29 27 30 28 31 29 32
REMARK SMILES IDX 30 33 91 34 31 35 90 36 32 37 33 38 34 39 84 40 35 41 89 42
REMARK SMILES IDX 83 43 85 44 36 45 88 46 82 47 81 48 37 50 69 51 49 52 68 53
REMARK SMILES IDX 50 54 53 55 67 56 86 57 51 58 52 59 66 61 87 62 54 63 38 64
REMARK SMILES IDX 39 65 47 66 40 67 41 68 45 69 48 70 42 71 43 72 46 73 44 74
REMARK SMILES IDX 70 75 71 76 79 77 72 78 73 79 77 80 80 81 74 82 75 83 78 84
REMARK SMILES IDX 76 85 55 86 56 87 64 88 57 89 58 90 62 91 65 92 59 93 60 94
REMARK SMILES IDX 63 95 61 96
REMARK H PARENT 85 49 53 60
REMARK Flexibility Score: inf
ROOT
ATOM      1  C   UNL A   1      40.412  21.221  26.043  1.00  0.00     0.188 C 
ENDROOT
BRANCH   1   2
ATOM      2  O   UNL A   1      39.101  21.775  26.019  1.00  0.00    -0.376 OA
BRANCH   2   3
ATOM      3  C   UNL A   1      38.812  22.976  26.715  1.00  0.00     0.202 C 
BRANCH   3   4
ATOM      4  C   UNL A   1      37.799  23.940  26.090  1.00  0.00     0.261 C 
BRANCH   4   5
ATOM      5  O   UNL A   1      37.032  23.369  25.027  1.00  0.00    -0.460 OA
BRANCH   5   6
ATOM      6  C   UNL A   1      35.940  22.644  25.378  1.00  0.00     0.339 C 
ATOM      7  O   UNL A   1      35.913  21.566  25.946  1.00  0.00    -0.246 OA
BRANCH   6   8
ATOM      8  C   UNL A   1      34.744  23.448  25.076  1.00  0.00     0.078 A 
ATOM      9  C   UNL A   1      32.614  25.181  24.626  1.00  0.00     0.096 A 
ATOM     10  C   UNL A   1      33.413  24.759  23.585  1.00  0.00     0.036 A 
ATOM     11  N   UNL A   1      32.861  24.739  25.885  1.00  0.00    -0.249 NA
ATOM     12  C   UNL A   1      34.468  23.879  23.790  1.00  0.00     0.020 A 
ATOM     13  C   UNL A   1      33.907  23.887  26.088  1.00  0.00     0.128 A 
BRANCH   9  14
ATOM     14  S   UNL A   1      31.327  26.397  24.506  1.00  0.00    -0.103 SA
BRANCH  14  15
ATOM     15  C   UNL A   1      31.976  28.057  23.958  1.00  0.00     0.054 C 
ATOM     16  C   UNL A   1      30.018  29.656  23.700  1.00  0.00     0.109 C 
ATOM     17  C   UNL A   1      30.688  30.660  24.653  1.00  0.00     0.020 C 
ATOM     18  C   UNL A   1      31.059  28.810  22.984  1.00  0.00     0.034 C 
ATOM     19  C   UNL A   1      31.790  30.103  25.564  1.00  0.00     0.002 C 
ATOM     20  C   UNL A   1      32.641  28.972  24.988  1.00  0.00     0.015 C 
BRANCH  16  21
ATOM     21  S   UNL A   1      28.895  30.472  22.551  1.00  0.00     0.150 S 
ATOM     22  C   UNL A   1      27.316  29.766  22.977  1.00  0.00     0.158 C 
ATOM     23  O   UNL A   1      29.207  30.012  21.212  1.00  0.00    -0.229 OA
ATOM     24  O   UNL A   1      28.851  31.887  22.858  1.00  0.00    -0.229 OA
ENDBRANCH  16  21
ENDBRANCH  14  15
ENDBRANCH   9  14
ENDBRANCH   6   8
ENDBRANCH   5   6
ENDBRANCH   4   5
ENDBRANCH   3   4
ENDBRANCH   2   3
ENDBRANCH   1   2
BRANCH   1  25
ATOM     25  C   UNL A   1      41.276  21.245  27.322  1.00  0.00     0.188 C 
BRANCH  25  26
ATOM     26  O   UNL A   1      42.654  20.995  27.108  1.00  0.00    -0.376 OA
BRANCH  26  27
ATOM     27  C   UNL A   1      43.080  20.897  25.756  1.00  0.00     0.202 C 
BRANCH  27  28
ATOM     28  C   UNL A   1      44.036  21.998  25.275  1.00  0.00     0.261 C 
BRANCH  28  29
ATOM     29  O   UNL A   1      43.406  23.203  24.810  1.00  0.00    -0.460 OA
BRANCH  29  30
ATOM     30  C   UNL A   1      44.094  24.355  24.969  1.00  0.00     0.338 C 
ATOM     31  O   UNL A   1      45.089  24.700  24.358  1.00  0.00    -0.246 OA
BRANCH  30  32
ATOM     32  C   UNL A   1      43.331  25.230  25.890  1.00  0.00     0.060 A 
ATOM     33  C   UNL A   1      43.849  26.495  26.189  1.00  0.00     0.016 A 
ATOM     34  C   UNL A   1      42.122  24.813  26.458  1.00  0.00     0.016 A 
ATOM     35  C   UNL A   1      43.189  27.323  27.100  1.00  0.00     0.010 A 
ATOM     36  C   UNL A   1      41.467  25.640  27.379  1.00  0.00     0.010 A 
ATOM     37  C   UNL A   1      42.021  26.880  27.738  1.00  0.00    -0.014 A 
BRANCH  37  38
ATOM     38  C   UNL A   1      41.522  27.624  28.925  1.00  0.00     0.031 A 
ATOM     39  C   UNL A   1      42.266  27.477  30.224  1.00  0.00     0.074 A 
ATOM     40  C   UNL A   1      40.468  28.454  28.851  1.00  0.00     0.049 A 
ATOM     41  N   UNL A   1      42.075  28.080  31.371  1.00  0.00    -0.248 NA
ATOM     42  C   UNL A   1      43.377  26.513  30.231  1.00  0.00     0.031 C 
ATOM     43  C   UNL A   1      39.662  28.694  27.659  1.00  0.00     0.029 A 
ATOM     44  N   UNL A   1      39.900  29.254  29.813  1.00  0.00    -0.354 N 
ATOM     45  C   UNL A   1      43.049  27.582  32.226  1.00  0.00     0.074 A 
ATOM     46  C   UNL A   1      43.795  26.588  31.484  1.00  0.00     0.031 C 
ATOM     47  C   UNL A   1      38.695  29.580  27.960  1.00  0.00     0.029 A 
ATOM     48  C   UNL A   1      38.812  29.962  29.368  1.00  0.00     0.049 A 
ATOM     49  H   UNL A   1      40.241  29.314  30.735  1.00  0.00     0.167 HD
ATOM     50  C   UNL A   1      43.316  27.930  33.508  1.00  0.00     0.037 A 
ATOM     51  C   UNL A   1      38.005  30.822  30.022  1.00  0.00     0.037 A 
ATOM     52  C   UNL A   1      42.567  28.902  34.259  1.00  0.00     0.049 A 
ATOM     53  C   UNL A   1      38.294  31.172  31.459  1.00  0.00     0.074 A 
ATOM     54  C   UNL A   1      42.761  29.327  35.560  1.00  0.00     0.029 A 
ATOM     55  N   UNL A   1      41.466  29.593  33.773  1.00  0.00    -0.354 N 
ATOM     56  N   UNL A   1      39.248  30.735  32.245  1.00  0.00    -0.248 NA
ATOM     57  C   UNL A   1      37.404  32.155  32.094  1.00  0.00     0.031 C 
ATOM     58  C   UNL A   1      41.751  30.242  35.879  1.00  0.00     0.029 A 
ATOM     59  C   UNL A   1      40.959  30.428  34.757  1.00  0.00     0.049 A 
ATOM     60  H   UNL A   1      41.099  29.503  32.864  1.00  0.00     0.167 HD
ATOM     61  C   UNL A   1      39.093  31.407  33.451  1.00  0.00     0.074 A 
ATOM     62  C   UNL A   1      37.957  32.292  33.290  1.00  0.00     0.031 C 
ATOM     63  C   UNL A   1      39.828  31.305  34.587  1.00  0.00     0.037 A 
BRANCH  50  64
ATOM     64  C   UNL A   1      44.459  27.225  34.177  1.00  0.00     0.064 A 
ATOM     65  C   UNL A   1      44.270  26.029  34.888  1.00  0.00     0.173 A 
ATOM     66  C   UNL A   1      45.755  27.759  34.126  1.00  0.00     0.173 A 
ATOM     67  F   UNL A   1      43.046  25.486  34.983  1.00  0.00    -0.203 F 
ATOM     68  C   UNL A   1      45.328  25.417  35.556  1.00  0.00     0.198 A 
ATOM     69  C   UNL A   1      46.816  27.128  34.770  1.00  0.00     0.198 A 
ATOM     70  F   UNL A   1      45.991  28.898  33.459  1.00  0.00    -0.203 F 
ATOM     71  F   UNL A   1      45.110  24.313  36.284  1.00  0.00    -0.200 F 
ATOM     72  C   UNL A   1      46.599  25.966  35.494  1.00  0.00     0.200 A 
ATOM     73  F   UNL A   1      48.046  27.654  34.702  1.00  0.00    -0.200 F 
ATOM     74  F   UNL A   1      47.615  25.381  36.145  1.00  0.00    -0.200 F 
ENDBRANCH  50  64
BRANCH  51  75
ATOM     75  C   UNL A   1      36.849  31.426  29.311  1.00  0.00     0.064 A 
ATOM     76  C   UNL A   1      35.717  30.667  28.986  1.00  0.00     0.173 A 
ATOM     77  C   UNL A   1      36.857  32.779  28.942  1.00  0.00     0.173 A 
ATOM     78  F   UNL A   1      35.675  29.362  29.290  1.00  0.00    -0.203 F 
ATOM     79  C   UNL A   1      34.638  31.237  28.311  1.00  0.00     0.198 A 
ATOM     80  C   UNL A   1      35.769  33.354  28.289  1.00  0.00     0.198 A 
ATOM     81  F   UNL A   1      37.921  33.545  29.224  1.00  0.00    -0.203 F 
ATOM     82  F   UNL A   1      33.583  30.482  27.977  1.00  0.00    -0.200 F 
ATOM     83  C   UNL A   1      34.662  32.581  27.971  1.00  0.00     0.200 A 
ATOM     84  F   UNL A   1      35.793  34.654  27.967  1.00  0.00    -0.200 F 
ATOM     85  F   UNL A   1      33.623  33.131  27.327  1.00  0.00    -0.200 F 
ENDBRANCH  51  75
BRANCH  63  86
ATOM     86  C   UNL A   1      39.452  32.197  35.737  1.00  0.00     0.064 A 
ATOM     87  C   UNL A   1      40.014  33.473  35.897  1.00  0.00     0.173 A 
ATOM     88  C   UNL A   1      38.496  31.781  36.675  1.00  0.00     0.173 A 
ATOM     89  F   UNL A   1      40.941  33.917  35.034  1.00  0.00    -0.203 F 
ATOM     90  C   UNL A   1      39.655  34.284  36.971  1.00  0.00     0.198 A 
ATOM     91  C   UNL A   1      38.118  32.605  37.731  1.00  0.00     0.198 A 
ATOM     92  F   UNL A   1      37.921  30.573  36.564  1.00  0.00    -0.203 F 
ATOM     93  F   UNL A   1      40.243  35.478  37.133  1.00  0.00    -0.200 F 
ATOM     94  C   UNL A   1      38.705  33.852  37.884  1.00  0.00     0.200 A 
ATOM     95  F   UNL A   1      37.189  32.191  38.604  1.00  0.00    -0.200 F 
ATOM     96  F   UNL A   1      38.361  34.634  38.916  1.00  0.00    -0.200 F 
ENDBRANCH  63  86
ENDBRANCH  37  38
ENDBRANCH  30  32
ENDBRANCH  29  30
ENDBRANCH  28  29
ENDBRANCH  27  28
ENDBRANCH  26  27
ENDBRANCH  25  26
ENDBRANCH   1  25
TORSDOF 20
ENDMDL
MODEL 2
REMARK VINA RESULT:     -10.8      1.325      2.013
REMARK SMILES CS(=O)(=O)[C@@H]1CCC[C@@H](Sc2ccc(C(=O)OCCOCCOCCOC(=O)c3ccc(-c4c5nc(c(-c6c(F)c(F)c(F)c(F)c6F)c6ccc([nH]6)c(-c6c(F)c(F)c(F)c(F)c6F)c6nc(c(-c7c(F)c(F)c(F)c(F)c7F)c7ccc4[nH]7)C=C6)C=C5)cc3)cn2)C1
REMARK SMILES IDX 21 1 20 2 19 3 18 4 17 5 15 6 16 7 14 8 11 9 12 10 93 11
REMARK SMILES IDX 13 12 92 13 10 14 9 15 5 16 6 17 94 18 7 19 8 20 2 21 1 22
REMARK SMILES IDX 3 23 4 24 22 25 23 26 24 27 25 28 26 29 27 30 28 31 29 32
REMARK SMILES IDX 30 33 91 34 31 35 90 36 32 37 33 38 34 39 84 40 35 41 89 42
REMARK SMILES IDX 83 43 85 44 36 45 88 46 82 47 81 48 37 50 69 51 49 52 68 53
REMARK SMILES IDX 50 54 53 55 67 56 86 57 51 58 52 59 66 61 87 62 54 63 38 64
REMARK SMILES IDX 39 65 47 66 40 67 41 68 45 69 48 70 42 71 43 72 46 73 44 74
REMARK SMILES IDX 70 75 71 76 79 77 72 78 73 79 77 80 80 81 74 82 75 83 78 84
REMARK SMILES IDX 76 85 55 86 56 87 64 88 57 89 58 90 62 91 65 92 59 93 60 94
REMARK SMILES IDX 63 95 61 96
REMARK H PARENT 85 49 53 60
REMARK Flexibility Score: inf
ROOT
ATOM      1  C   UNL A   1      40.405  21.248  26.066  1.00  0.00     0.188 C 
ENDROOT
BRANCH   1   2
ATOM      2  O   UNL A   1      39.057  21.704  26.021  1.00  0.00    -0.376 OA
BRANCH   2   3
ATOM      3  C   UNL A   1      38.718  23.001  26.481  1.00  0.00     0.202 C 
BRANCH   3   4
ATOM      4  C   UNL A   1      37.452  23.652  25.918  1.00  0.00     0.261 C 
BRANCH   4   5
ATOM      5  O   UNL A   1      36.794  22.875  24.914  1.00  0.00    -0.460 OA
BRANCH   5   6
ATOM      6  C   UNL A   1      35.863  21.983  25.340  1.00  0.00     0.339 C 
ATOM      7  O   UNL A   1      36.026  21.039  26.092  1.00  0.00    -0.246 OA
BRANCH   6   8
ATOM      8  C   UNL A   1      34.550  22.423  24.840  1.00  0.00     0.078 A 
ATOM      9  C   UNL A   1      32.142  23.512  23.970  1.00  0.00     0.096 A 
ATOM     10  C   UNL A   1      33.083  23.067  23.065  1.00  0.00     0.036 A 
ATOM     11  N   UNL A   1      32.387  23.410  25.300  1.00  0.00    -0.249 NA
ATOM     12  C   UNL A   1      34.282  22.503  23.485  1.00  0.00     0.020 A 
ATOM     13  C   UNL A   1      33.571  22.871  25.710  1.00  0.00     0.128 A 
BRANCH   9  14
ATOM     14  S   UNL A   1      30.641  24.363  23.554  1.00  0.00    -0.103 SA
BRANCH  14  15
ATOM     15  C   UNL A   1      30.964  26.065  22.863  1.00  0.00     0.054 C 
ATOM     16  C   UNL A   1      32.749  27.196  24.272  1.00  0.00     0.109 C 
ATOM     17  C   UNL A   1      33.603  27.453  23.020  1.00  0.00     0.020 C 
ATOM     18  C   UNL A   1      31.272  27.135  23.919  1.00  0.00     0.034 C 
ATOM     19  C   UNL A   1      33.279  26.597  21.788  1.00  0.00     0.002 C 
ATOM     20  C   UNL A   1      31.815  26.204  21.599  1.00  0.00     0.015 C 
BRANCH  16  21
ATOM     21  S   UNL A   1      33.090  28.398  25.571  1.00  0.00     0.150 S 
ATOM     22  C   UNL A   1      31.704  28.189  26.672  1.00  0.00     0.158 C 
ATOM     23  O   UNL A   1      32.969  29.725  25.000  1.00  0.00    -0.229 OA
ATOM     24  O   UNL A   1      34.288  28.001  26.280  1.00  0.00    -0.229 OA
ENDBRANCH  16  21
ENDBRANCH  14  15
ENDBRANCH   9  14
ENDBRANCH   6   8
ENDBRANCH   5   6
ENDBRANCH   4   5
ENDBRANCH   3   4
ENDBRANCH   2   3
ENDBRANCH   1   2
BRANCH   1  25
ATOM     25  C   UNL A   1      41.273  21.418  27.331  1.00  0.00     0.188 C 
BRANCH  25  26
ATOM     26  O   UNL A   1      42.652  21.151  27.142  1.00  0.00    -0.376 OA
BRANCH  26  27
ATOM     27  C   UNL A   1      43.095  21.026  25.798  1.00  0.00     0.202 C 
BRANCH  27  28
ATOM     28  C   UNL A   1      44.020  22.144  25.294  1.00  0.00     0.261 C 
BRANCH  28  29
ATOM     29  O   UNL A   1      43.359  23.335  24.839  1.00  0.00    -0.460 OA
BRANCH  29  30
ATOM     30  C   UNL A   1      44.023  24.502  24.988  1.00  0.00     0.338 C 
ATOM     31  O   UNL A   1      45.006  24.865  24.368  1.00  0.00    -0.246 OA
BRANCH  30  32
ATOM     32  C   UNL A   1      43.250  25.363  25.914  1.00  0.00     0.060 A 
ATOM     33  C   UNL A   1      43.763  26.625  26.234  1.00  0.00     0.016 A 
ATOM     34  C   UNL A   1      42.037  24.935  26.466  1.00  0.00     0.016 A 
ATOM     35  C   UNL A   1      43.093  27.439  27.149  1.00  0.00     0.010 A 
ATOM     36  C   UNL A   1      41.372  25.749  27.392  1.00  0.00     0.010 A 
ATOM     37  C   UNL A   1      41.920  26.986  27.771  1.00  0.00    -0.014 A 
BRANCH  37  38
ATOM     38  C   UNL A   1      41.409  27.713  28.963  1.00  0.00     0.031 A 
ATOM     39  C   UNL A   1      42.134  27.542  30.270  1.00  0.00     0.074 A 
ATOM     40  C   UNL A   1      40.359  28.549  28.889  1.00  0.00     0.049 A 
ATOM     41  N   UNL A   1      41.931  28.128  31.424  1.00  0.00    -0.248 NA
ATOM     42  C   UNL A   1      43.242  26.573  30.275  1.00  0.00     0.031 C 
ATOM     43  C   UNL A   1      39.570  28.812  27.690  1.00  0.00     0.029 A 
ATOM     44  N   UNL A   1      39.782  29.337  29.856  1.00  0.00    -0.354 N 
ATOM     45  C   UNL A   1      42.892  27.611  32.283  1.00  0.00     0.074 A 
ATOM     46  C   UNL A   1      43.643  26.626  31.535  1.00  0.00     0.031 C 
ATOM     47  C   UNL A   1      38.603  29.697  27.993  1.00  0.00     0.029 A 
ATOM     48  C   UNL A   1      38.704  30.057  29.408  1.00  0.00     0.049 A 
ATOM     49  H   UNL A   1      40.112  29.380  30.783  1.00  0.00     0.167 HD
ATOM     50  C   UNL A   1      43.144  27.938  33.573  1.00  0.00     0.037 A 
ATOM     51  C   UNL A   1      37.892  30.909  30.065  1.00  0.00     0.037 A 
ATOM     52  C   UNL A   1      42.389  28.901  34.330  1.00  0.00     0.049 A 
ATOM     53  C   UNL A   1      38.163  31.235  31.511  1.00  0.00     0.074 A 
ATOM     54  C   UNL A   1      42.568  29.305  35.641  1.00  0.00     0.029 A 
ATOM     55  N   UNL A   1      41.298  29.606  33.841  1.00  0.00    -0.354 N 
ATOM     56  N   UNL A   1      39.106  30.782  32.302  1.00  0.00    -0.248 NA
ATOM     57  C   UNL A   1      37.269  32.213  32.150  1.00  0.00     0.031 C 
ATOM     58  C   UNL A   1      41.558  30.220  35.961  1.00  0.00     0.029 A 
ATOM     59  C   UNL A   1      40.782  30.427  34.832  1.00  0.00     0.049 A 
ATOM     60  H   UNL A   1      40.942  29.531  32.926  1.00  0.00     0.167 HD
ATOM     61  C   UNL A   1      38.938  31.435  33.517  1.00  0.00     0.074 A 
ATOM     62  C   UNL A   1      37.807  32.328  33.356  1.00  0.00     0.031 C 
ATOM     63  C   UNL A   1      39.657  31.312  34.661  1.00  0.00     0.037 A 
BRANCH  50  64
ATOM     64  C   UNL A   1      44.275  27.217  34.247  1.00  0.00     0.064 A 
ATOM     65  C   UNL A   1      45.583  27.727  34.232  1.00  0.00     0.173 A 
ATOM     66  C   UNL A   1      44.055  25.994  34.896  1.00  0.00     0.173 A 
ATOM     67  F   UNL A   1      45.850  28.884  33.609  1.00  0.00    -0.203 F 
ATOM     68  C   UNL A   1      46.635  27.018  34.808  1.00  0.00     0.198 A 
ATOM     69  C   UNL A   1      45.103  25.303  35.497  1.00  0.00     0.198 A 
ATOM     70  F   UNL A   1      42.823  25.464  34.941  1.00  0.00    -0.203 F 
ATOM     71  F   UNL A   1      47.886  27.492  34.724  1.00  0.00    -0.200 F 
ATOM     72  C   UNL A   1      46.393  25.809  35.441  1.00  0.00     0.200 A 
ATOM     73  F   UNL A   1      44.867  24.139  36.117  1.00  0.00    -0.200 F 
ATOM     74  F   UNL A   1      47.407  25.123  35.987  1.00  0.00    -0.200 F 
ENDBRANCH  50  64
BRANCH  51  75
ATOM     75  C   UNL A   1      36.748  31.530  29.348  1.00  0.00     0.064 A 
ATOM     76  C   UNL A   1      35.626  30.777  28.977  1.00  0.00     0.173 A 
ATOM     77  C   UNL A   1      36.757  32.893  29.022  1.00  0.00     0.173 A 
ATOM     78  F   UNL A   1      35.584  29.463  29.240  1.00  0.00    -0.203 F 
ATOM     79  C   UNL A   1      34.559  31.363  28.297  1.00  0.00     0.198 A 
ATOM     80  C   UNL A   1      35.680  33.484  28.363  1.00  0.00     0.198 A 
ATOM     81  F   UNL A   1      37.811  33.655  29.349  1.00  0.00    -0.203 F 
ATOM     82  F   UNL A   1      33.515  30.613  27.918  1.00  0.00    -0.200 F 
ATOM     83  C   UNL A   1      34.584  32.717  27.999  1.00  0.00     0.200 A 
ATOM     84  F   UNL A   1      35.705  34.793  28.082  1.00  0.00    -0.200 F 
ATOM     85  F   UNL A   1      33.556  33.282  27.350  1.00  0.00    -0.200 F 
ENDBRANCH  51  75
BRANCH  63  86
ATOM     86  C   UNL A   1      39.270  32.188  35.819  1.00  0.00     0.064 A 
ATOM     87  C   UNL A   1      39.793  33.480  35.977  1.00  0.00     0.173 A 
ATOM     88  C   UNL A   1      38.341  31.738  36.769  1.00  0.00     0.173 A 
ATOM     89  F   UNL A   1      40.693  33.956  35.102  1.00  0.00    -0.203 F 
ATOM     90  C   UNL A   1      39.425  34.275  37.059  1.00  0.00     0.198 A 
ATOM     91  C   UNL A   1      37.953  32.545  37.835  1.00  0.00     0.198 A 
ATOM     92  F   UNL A   1      37.803  30.513  36.662  1.00  0.00    -0.203 F 
ATOM     93  F   UNL A   1      39.978  35.486  37.218  1.00  0.00    -0.200 F 
ATOM     94  C   UNL A   1      38.502  33.810  37.984  1.00  0.00     0.200 A 
ATOM     95  F   UNL A   1      37.050  32.100  38.719  1.00  0.00    -0.200 F 
ATOM     96  F   UNL A   1      38.149  34.577  39.025  1.00  0.00    -0.200 F 
ENDBRANCH  63  86
ENDBRANCH  37  38
ENDBRANCH  30  32
ENDBRANCH  29  30
ENDBRANCH  28  29
ENDBRANCH  27  28
ENDBRANCH  26  27
ENDBRANCH  25  26
ENDBRANCH   1  25
TORSDOF 20
ENDMDL
MODEL 3
REMARK VINA RESULT:     -10.5      1.895      3.593
REMARK SMILES CS(=O)(=O)[C@@H]1CCC[C@@H](Sc2ccc(C(=O)OCCOCCOCCOC(=O)c3ccc(-c4c5nc(c(-c6c(F)c(F)c(F)c(F)c6F)c6ccc([nH]6)c(-c6c(F)c(F)c(F)c(F)c6F)c6nc(c(-c7c(F)c(F)c(F)c(F)c7F)c7ccc4[nH]7)C=C6)C=C5)cc3)cn2)C1
REMARK SMILES IDX 21 1 20 2 19 3 18 4 17 5 15 6 16 7 14 8 11 9 12 10 93 11
REMARK SMILES IDX 13 12 92 13 10 14 9 15 5 16 6 17 94 18 7 19 8 20 2 21 1 22
REMARK SMILES IDX 3 23 4 24 22 25 23 26 24 27 25 28 26 29 27 30 28 31 29 32
REMARK SMILES IDX 30 33 91 34 31 35 90 36 32 37 33 38 34 39 84 40 35 41 89 42
REMARK SMILES IDX 83 43 85 44 36 45 88 46 82 47 81 48 37 50 69 51 49 52 68 53
REMARK SMILES IDX 50 54 53 55 67 56 86 57 51 58 52 59 66 61 87 62 54 63 38 64
REMARK SMILES IDX 39 65 47 66 40 67 41 68 45 69 48 70 42 71 43 72 46 73 44 74
REMARK SMILES IDX 70 75 71 76 79 77 72 78 73 79 77 80 80 81 74 82 75 83 78 84
REMARK SMILES IDX 76 85 55 86 56 87 64 88 57 89 58 90 62 91 65 92 59 93 60 94
REMARK SMILES IDX 63 95 61 96
REMARK H PARENT 85 49 53 60
REMARK Flexibility Score: inf
ROOT
ATOM      1  C   UNL A   1      45.504  18.599  25.437  1.00  0.00     0.188 C 
ENDROOT
BRANCH   1   2
ATOM      2  O   UNL A   1      44.174  18.367  25.888  1.00  0.00    -0.376 OA
BRANCH   2   3
ATOM      3  C   UNL A   1      43.096  19.132  25.377  1.00  0.00     0.202 C 
BRANCH   3   4
ATOM      4  C   UNL A   1      42.826  20.501  26.009  1.00  0.00     0.261 C 
BRANCH   4   5
ATOM      5  O   UNL A   1      41.510  21.005  25.764  1.00  0.00    -0.460 OA
BRANCH   5   6
ATOM      6  C   UNL A   1      40.790  21.394  26.848  1.00  0.00     0.339 C 
ATOM      7  O   UNL A   1      41.169  21.477  28.003  1.00  0.00    -0.246 OA
BRANCH   6   8
ATOM      8  C   UNL A   1      39.468  21.843  26.378  1.00  0.00     0.078 A 
ATOM      9  C   UNL A   1      37.107  22.868  25.325  1.00  0.00     0.096 A 
ATOM     10  C   UNL A   1      37.534  21.600  24.995  1.00  0.00     0.036 A 
ATOM     11  N   UNL A   1      37.839  23.624  26.181  1.00  0.00    -0.249 NA
ATOM     12  C   UNL A   1      38.701  21.067  25.528  1.00  0.00     0.020 A 
ATOM     13  C   UNL A   1      38.993  23.105  26.691  1.00  0.00     0.128 A 
BRANCH   9  14
ATOM     14  S   UNL A   1      35.710  23.699  24.611  1.00  0.00    -0.103 SA
BRANCH  14  15
ATOM     15  C   UNL A   1      34.107  23.218  25.434  1.00  0.00     0.054 C 
ATOM     16  C   UNL A   1      32.340  24.950  24.858  1.00  0.00     0.109 C 
ATOM     17  C   UNL A   1      31.410  23.849  24.321  1.00  0.00     0.020 C 
ATOM     18  C   UNL A   1      33.266  24.401  25.932  1.00  0.00     0.034 C 
ATOM     19  C   UNL A   1      32.072  22.512  23.966  1.00  0.00     0.002 C 
ATOM     20  C   UNL A   1      33.267  22.096  24.823  1.00  0.00     0.015 C 
BRANCH  16  21
ATOM     21  S   UNL A   1      31.415  26.388  25.426  1.00  0.00     0.150 S 
ATOM     22  C   UNL A   1      32.531  27.734  25.080  1.00  0.00     0.158 C 
ATOM     23  O   UNL A   1      31.298  26.309  26.869  1.00  0.00    -0.229 OA
ATOM     24  O   UNL A   1      30.242  26.555  24.593  1.00  0.00    -0.229 OA
ENDBRANCH  16  21
ENDBRANCH  14  15
ENDBRANCH   9  14
ENDBRANCH   6   8
ENDBRANCH   5   6
ENDBRANCH   4   5
ENDBRANCH   3   4
ENDBRANCH   2   3
ENDBRANCH   1   2
BRANCH   1  25
ATOM     25  C   UNL A   1      45.799  19.488  24.211  1.00  0.00     0.188 C 
BRANCH  25  26
ATOM     26  O   UNL A   1      46.623  20.610  24.479  1.00  0.00    -0.376 OA
BRANCH  26  27
ATOM     27  C   UNL A   1      46.028  21.674  25.210  1.00  0.00     0.202 C 
BRANCH  27  28
ATOM     28  C   UNL A   1      45.671  22.925  24.395  1.00  0.00     0.261 C 
BRANCH  28  29
ATOM     29  O   UNL A   1      45.243  24.061  25.164  1.00  0.00    -0.460 OA
BRANCH  29  30
ATOM     30  C   UNL A   1      43.911  24.264  25.268  1.00  0.00     0.338 C 
ATOM     31  O   UNL A   1      43.044  23.791  24.557  1.00  0.00    -0.246 OA
BRANCH  30  32
ATOM     32  C   UNL A   1      43.652  25.020  26.516  1.00  0.00     0.060 A 
ATOM     33  C   UNL A   1      42.908  24.401  27.527  1.00  0.00     0.016 A 
ATOM     34  C   UNL A   1      44.130  26.324  26.692  1.00  0.00     0.016 A 
ATOM     35  C   UNL A   1      42.593  25.104  28.692  1.00  0.00     0.010 A 
ATOM     36  C   UNL A   1      43.804  27.030  27.856  1.00  0.00     0.010 A 
ATOM     37  C   UNL A   1      42.997  26.439  28.842  1.00  0.00    -0.014 A 
BRANCH  37  38
ATOM     38  C   UNL A   1      42.385  27.260  29.920  1.00  0.00     0.031 A 
ATOM     39  C   UNL A   1      43.025  27.243  31.282  1.00  0.00     0.074 A 
ATOM     40  C   UNL A   1      41.319  28.046  29.696  1.00  0.00     0.049 A 
ATOM     41  N   UNL A   1      42.727  27.931  32.356  1.00  0.00    -0.248 NA
ATOM     42  C   UNL A   1      44.158  26.320  31.455  1.00  0.00     0.031 C 
ATOM     43  C   UNL A   1      40.605  28.162  28.428  1.00  0.00     0.029 A 
ATOM     44  N   UNL A   1      40.655  28.904  30.540  1.00  0.00    -0.354 N 
ATOM     45  C   UNL A   1      43.642  27.536  33.322  1.00  0.00     0.074 A 
ATOM     46  C   UNL A   1      44.471  26.510  32.726  1.00  0.00     0.031 C 
ATOM     47  C   UNL A   1      39.595  29.038  28.578  1.00  0.00     0.029 A 
ATOM     48  C   UNL A   1      39.589  29.537  29.954  1.00  0.00     0.049 A 
ATOM     49  H   UNL A   1      40.919  29.049  31.477  1.00  0.00     0.167 HD
ATOM     50  C   UNL A   1      43.796  27.996  34.587  1.00  0.00     0.037 A 
ATOM     51  C   UNL A   1      38.709  30.420  30.469  1.00  0.00     0.037 A 
ATOM     52  C   UNL A   1      42.964  29.001  35.194  1.00  0.00     0.049 A 
ATOM     53  C   UNL A   1      38.872  30.895  31.890  1.00  0.00     0.074 A 
ATOM     54  C   UNL A   1      43.042  29.536  36.467  1.00  0.00     0.029 A 
ATOM     55  N   UNL A   1      41.888  29.614  34.568  1.00  0.00    -0.354 N 
ATOM     56  N   UNL A   1      39.772  30.555  32.781  1.00  0.00    -0.248 NA
ATOM     57  C   UNL A   1      37.909  31.898  32.369  1.00  0.00     0.031 C 
ATOM     58  C   UNL A   1      41.987  30.441  36.628  1.00  0.00     0.029 A 
ATOM     59  C   UNL A   1      41.282  30.510  35.436  1.00  0.00     0.049 A 
ATOM     60  H   UNL A   1      41.598  29.439  33.644  1.00  0.00     0.167 HD
ATOM     61  C   UNL A   1      39.503  31.318  33.911  1.00  0.00     0.074 A 
ATOM     62  C   UNL A   1      38.360  32.149  33.589  1.00  0.00     0.031 C 
ATOM     63  C   UNL A   1      40.146  31.332  35.106  1.00  0.00     0.037 A 
BRANCH  50  64
ATOM     64  C   UNL A   1      44.900  27.385  35.401  1.00  0.00     0.064 A 
ATOM     65  C   UNL A   1      46.195  27.930  35.409  1.00  0.00     0.173 A 
ATOM     66  C   UNL A   1      44.669  26.233  36.165  1.00  0.00     0.173 A 
ATOM     67  F   UNL A   1      46.472  29.022  34.681  1.00  0.00    -0.203 F 
ATOM     68  C   UNL A   1      47.224  27.318  36.120  1.00  0.00     0.198 A 
ATOM     69  C   UNL A   1      45.694  25.641  36.898  1.00  0.00     0.198 A 
ATOM     70  F   UNL A   1      43.450  25.673  36.193  1.00  0.00    -0.203 F 
ATOM     71  F   UNL A   1      48.467  27.818  36.059  1.00  0.00    -0.200 F 
ATOM     72  C   UNL A   1      46.972  26.177  36.865  1.00  0.00     0.200 A 
ATOM     73  F   UNL A   1      45.447  24.543  37.625  1.00  0.00    -0.200 F 
ATOM     74  F   UNL A   1      47.966  25.584  37.541  1.00  0.00    -0.200 F 
ENDBRANCH  50  64
BRANCH  51  75
ATOM     75  C   UNL A   1      37.599  30.926  29.622  1.00  0.00     0.064 A 
ATOM     76  C   UNL A   1      37.602  32.236  29.122  1.00  0.00     0.173 A 
ATOM     77  C   UNL A   1      36.510  30.106  29.295  1.00  0.00     0.173 A 
ATOM     78  F   UNL A   1      38.607  33.069  29.433  1.00  0.00    -0.203 F 
ATOM     79  C   UNL A   1      36.553  32.708  28.335  1.00  0.00     0.198 A 
ATOM     80  C   UNL A   1      35.473  30.570  28.488  1.00  0.00     0.198 A 
ATOM     81  F   UNL A   1      36.457  28.847  29.755  1.00  0.00    -0.203 F 
ATOM     82  F   UNL A   1      36.561  33.976  27.902  1.00  0.00    -0.200 F 
ATOM     83  C   UNL A   1      35.495  31.873  28.012  1.00  0.00     0.200 A 
ATOM     84  F   UNL A   1      34.456  29.758  28.173  1.00  0.00    -0.200 F 
ATOM     85  F   UNL A   1      34.489  32.325  27.250  1.00  0.00    -0.200 F 
ENDBRANCH  51  75
BRANCH  63  86
ATOM     86  C   UNL A   1      39.657  32.303  36.144  1.00  0.00     0.064 A 
ATOM     87  C   UNL A   1      40.245  33.565  36.312  1.00  0.00     0.173 A 
ATOM     88  C   UNL A   1      38.565  31.975  36.962  1.00  0.00     0.173 A 
ATOM     89  F   UNL A   1      41.298  33.925  35.563  1.00  0.00    -0.203 F 
ATOM     90  C   UNL A   1      39.779  34.449  37.282  1.00  0.00     0.198 A 
ATOM     91  C   UNL A   1      38.083  32.872  37.911  1.00  0.00     0.198 A 
ATOM     92  F   UNL A   1      37.959  30.784  36.836  1.00  0.00    -0.203 F 
ATOM     93  F   UNL A   1      40.390  35.629  37.461  1.00  0.00    -0.200 F 
ATOM     94  C   UNL A   1      38.695  34.104  38.077  1.00  0.00     0.200 A 
ATOM     95  F   UNL A   1      37.027  32.542  38.667  1.00  0.00    -0.200 F 
ATOM     96  F   UNL A   1      38.248  34.957  39.009  1.00  0.00    -0.200 F 
ENDBRANCH  63  86
ENDBRANCH  37  38
ENDBRANCH  30  32
ENDBRANCH  29  30
ENDBRANCH  28  29
ENDBRANCH  27  28
ENDBRANCH  26  27
ENDBRANCH  25  26
ENDBRANCH   1  25
TORSDOF 20
ENDMDL
