MODEL 1
REMARK VINA RESULT:     -11.4      0.000      0.000
REMARK SMILES Cc1ccc(Cl)c(Nc2ccccc2C(=O)NCC(=O)OCCOCCOCCOC(=O)c2ccc(-c3c4nc(c(-c5c(F)c(F)c(F)c(F)c5F)c5ccc([nH]5)c(-c5c(F)c(F)c(F)c(F)c5F)c5nc(c(-c6c(F)c(F)c(F)c(F)c6F)c6ccc3[nH]6)C=C5)C=C4)cc2)c1Cl
REMARK SMILES IDX 25 1 24 2 23 3 22 4 21 5 19 6 20 7 18 8 17 9 15 10 16 11
REMARK SMILES IDX 14 13 9 14 10 15 11 16 13 17 12 18 8 19 7 21 1 22 2 23 3 24
REMARK SMILES IDX 96 25 4 26 97 27 5 28 6 29 26 30 27 31 28 32 29 33 30 34
REMARK SMILES IDX 31 35 32 36 33 37 34 38 95 39 35 40 94 41 36 42 37 43 38 44
REMARK SMILES IDX 88 45 39 46 93 47 87 48 89 49 40 50 92 51 86 52 85 53 41 55
REMARK SMILES IDX 73 56 53 57 72 58 54 59 57 60 71 61 90 62 55 63 56 64 70 66
REMARK SMILES IDX 91 67 58 68 42 69 43 70 51 71 44 72 45 73 49 74 52 75 46 76
REMARK SMILES IDX 47 77 50 78 48 79 74 80 75 81 83 82 76 83 77 84 81 85 84 86
REMARK SMILES IDX 78 87 79 88 82 89 80 90 59 91 60 92 68 93 61 94 62 95 66 96
REMARK SMILES IDX 69 97 63 98 64 99 67 100 65 101
REMARK H PARENT 17 12 8 20 89 54 57 65
REMARK Flexibility Score: inf
ROOT
ATOM      1  C   UNL A   1      29.560  28.594  22.525  1.00  0.00     0.188 C 
ENDROOT
BRANCH   1   2
ATOM      2  O   UNL A   1      28.385  28.159  23.176  1.00  0.00    -0.376 OA
BRANCH   2   3
ATOM      3  C   UNL A   1      28.313  26.827  23.675  1.00  0.00     0.202 C 
BRANCH   3   4
ATOM      4  C   UNL A   1      29.559  25.997  24.028  1.00  0.00     0.261 C 
BRANCH   4   5
ATOM      5  O   UNL A   1      30.173  26.305  25.287  1.00  0.00    -0.462 OA
BRANCH   5   6
ATOM      6  C   UNL A   1      29.991  25.322  26.203  1.00  0.00     0.325 C 
ATOM      7  O   UNL A   1      28.990  25.218  26.914  1.00  0.00    -0.250 OA
BRANCH   6   8
ATOM      8  C   UNL A   1      30.952  24.159  26.096  1.00  0.00     0.239 C 
BRANCH   8   9
ATOM      9  N   UNL A   1      31.358  23.186  27.082  1.00  0.00    -0.341 N 
ATOM     10  C   UNL A   1      32.672  22.804  27.310  1.00  0.00     0.253 C 
ATOM     11  O   UNL A   1      32.973  22.264  28.372  1.00  0.00    -0.269 OA
ATOM     12  H   UNL A   1      30.656  22.766  27.629  1.00  0.00     0.164 HD
BRANCH  10  13
ATOM     13  C   UNL A   1      33.664  22.835  26.187  1.00  0.00     0.063 A 
ATOM     14  C   UNL A   1      33.705  21.992  25.052  1.00  0.00     0.051 A 
ATOM     15  C   UNL A   1      34.909  21.953  24.316  1.00  0.00     0.027 A 
ATOM     16  C   UNL A   1      35.996  22.769  24.631  1.00  0.00     0.002 A 
ATOM     17  C   UNL A   1      34.740  23.708  26.449  1.00  0.00     0.016 A 
ATOM     18  C   UNL A   1      35.896  23.678  25.673  1.00  0.00     0.001 A 
BRANCH  14  19
ATOM     19  N   UNL A   1      32.659  21.179  24.553  1.00  0.00    -0.352 N 
ATOM     20  H   UNL A   1      31.779  21.620  24.584  1.00  0.00     0.167 HD
BRANCH  19  21
ATOM     21  C   UNL A   1      32.604  19.868  24.020  1.00  0.00     0.077 A 
ATOM     22  C   UNL A   1      33.373  16.203  24.870  1.00  0.00     0.046 C 
ATOM     23  C   UNL A   1      32.999  17.445  24.108  1.00  0.00    -0.030 A 
ATOM     24  C   UNL A   1      32.755  17.350  22.731  1.00  0.00     0.006 A 
ATOM     25  C   UNL A   1      32.896  18.700  24.752  1.00  0.00     0.069 A 
ATOM     26  C   UNL A   1      32.390  18.476  22.003  1.00  0.00     0.023 A 
ATOM     27  Cl  UNL A   1      32.969  18.746  26.490  1.00  0.00    -0.082 Cl
ATOM     28  C   UNL A   1      32.308  19.713  22.642  1.00  0.00     0.066 A 
ATOM     29  Cl  UNL A   1      31.864  21.080  21.668  1.00  0.00    -0.082 Cl
ENDBRANCH  19  21
ENDBRANCH  14  19
ENDBRANCH  10  13
ENDBRANCH   8   9
ENDBRANCH   6   8
ENDBRANCH   5   6
ENDBRANCH   4   5
ENDBRANCH   3   4
ENDBRANCH   2   3
ENDBRANCH   1   2
BRANCH   1  30
ATOM     30  C   UNL A   1      29.958  30.049  22.833  1.00  0.00     0.188 C 
BRANCH  30  31
ATOM     31  O   UNL A   1      30.015  30.540  24.163  1.00  0.00    -0.376 OA
BRANCH  31  32
ATOM     32  C   UNL A   1      31.084  30.106  25.003  1.00  0.00     0.202 C 
BRANCH  32  33
ATOM     33  C   UNL A   1      31.527  30.908  26.248  1.00  0.00     0.261 C 
BRANCH  33  34
ATOM     34  O   UNL A   1      32.892  30.742  26.660  1.00  0.00    -0.460 OA
BRANCH  34  35
ATOM     35  C   UNL A   1      33.434  31.811  27.300  1.00  0.00     0.338 C 
ATOM     36  O   UNL A   1      32.884  32.853  27.605  1.00  0.00    -0.246 OA
BRANCH  35  37
ATOM     37  C   UNL A   1      34.778  31.447  27.796  1.00  0.00     0.060 A 
ATOM     38  C   UNL A   1      35.009  30.111  28.160  1.00  0.00     0.016 A 
ATOM     39  C   UNL A   1      35.779  32.405  27.947  1.00  0.00     0.016 A 
ATOM     40  C   UNL A   1      36.242  29.724  28.679  1.00  0.00     0.010 A 
ATOM     41  C   UNL A   1      37.002  32.024  28.510  1.00  0.00     0.010 A 
ATOM     42  C   UNL A   1      37.227  30.690  28.900  1.00  0.00    -0.014 A 
BRANCH  42  43
ATOM     43  C   UNL A   1      38.399  30.357  29.743  1.00  0.00     0.031 A 
ATOM     44  C   UNL A   1      39.402  29.379  29.202  1.00  0.00     0.074 A 
ATOM     45  C   UNL A   1      38.576  30.904  30.957  1.00  0.00     0.049 A 
ATOM     46  N   UNL A   1      40.432  28.828  29.790  1.00  0.00    -0.248 NA
ATOM     47  C   UNL A   1      39.208  28.962  27.804  1.00  0.00     0.031 C 
ATOM     48  C   UNL A   1      37.713  31.914  31.563  1.00  0.00     0.029 A 
ATOM     49  N   UNL A   1      39.537  30.660  31.906  1.00  0.00    -0.354 N 
ATOM     50  C   UNL A   1      40.994  27.982  28.843  1.00  0.00     0.074 A 
ATOM     51  C   UNL A   1      40.184  28.083  27.648  1.00  0.00     0.031 C 
ATOM     52  C   UNL A   1      38.165  32.180  32.802  1.00  0.00     0.029 A 
ATOM     53  C   UNL A   1      39.319  31.326  33.086  1.00  0.00     0.049 A 
ATOM     54  H   UNL A   1      40.307  30.066  31.755  1.00  0.00     0.167 HD
ATOM     55  C   UNL A   1      42.084  27.188  28.962  1.00  0.00     0.037 A 
ATOM     56  C   UNL A   1      39.952  31.221  34.271  1.00  0.00     0.037 A 
ATOM     57  C   UNL A   1      42.880  27.087  30.157  1.00  0.00     0.049 A 
ATOM     58  C   UNL A   1      41.112  30.267  34.412  1.00  0.00     0.074 A 
ATOM     59  C   UNL A   1      44.014  26.325  30.374  1.00  0.00     0.029 A 
ATOM     60  N   UNL A   1      42.614  27.757  31.342  1.00  0.00    -0.354 N 
ATOM     61  N   UNL A   1      41.647  29.473  33.516  1.00  0.00    -0.248 NA
ATOM     62  C   UNL A   1      41.756  30.195  35.733  1.00  0.00     0.031 C 
ATOM     63  C   UNL A   1      44.396  26.484  31.711  1.00  0.00     0.029 A 
ATOM     64  C   UNL A   1      43.543  27.400  32.307  1.00  0.00     0.049 A 
ATOM     65  H   UNL A   1      41.874  28.393  31.478  1.00  0.00     0.167 HD
ATOM     66  C   UNL A   1      42.704  28.830  34.153  1.00  0.00     0.074 A 
ATOM     67  C   UNL A   1      42.739  29.333  35.510  1.00  0.00     0.031 C 
ATOM     68  C   UNL A   1      43.568  27.911  33.655  1.00  0.00     0.037 A 
BRANCH  55  69
ATOM     69  C   UNL A   1      42.435  26.324  27.786  1.00  0.00     0.064 A 
ATOM     70  C   UNL A   1      41.833  25.074  27.573  1.00  0.00     0.173 A 
ATOM     71  C   UNL A   1      43.400  26.752  26.862  1.00  0.00     0.173 A 
ATOM     72  F   UNL A   1      40.918  24.609  28.436  1.00  0.00    -0.203 F 
ATOM     73  C   UNL A   1      42.213  24.270  26.502  1.00  0.00     0.198 A 
ATOM     74  C   UNL A   1      43.753  25.961  25.773  1.00  0.00     0.198 A 
ATOM     75  F   UNL A   1      44.006  27.940  27.018  1.00  0.00    -0.203 F 
ATOM     76  F   UNL A   1      41.674  23.052  26.356  1.00  0.00    -0.200 F 
ATOM     77  C   UNL A   1      43.169  24.716  25.600  1.00  0.00     0.200 A 
ATOM     78  F   UNL A   1      44.665  26.401  24.895  1.00  0.00    -0.200 F 
ATOM     79  F   UNL A   1      43.535  23.941  24.571  1.00  0.00    -0.200 F 
ENDBRANCH  55  69
BRANCH  56  80
ATOM     80  C   UNL A   1      39.477  32.018  35.432  1.00  0.00     0.064 A 
ATOM     81  C   UNL A   1      38.587  31.476  36.369  1.00  0.00     0.173 A 
ATOM     82  C   UNL A   1      39.907  33.340  35.630  1.00  0.00     0.173 A 
ATOM     83  F   UNL A   1      38.126  30.228  36.209  1.00  0.00    -0.203 F 
ATOM     84  C   UNL A   1      38.138  32.228  37.454  1.00  0.00     0.198 A 
ATOM     85  C   UNL A   1      39.480  34.080  36.729  1.00  0.00     0.198 A 
ATOM     86  F   UNL A   1      40.756  33.907  34.760  1.00  0.00    -0.203 F 
ATOM     87  F   UNL A   1      37.258  31.699  38.313  1.00  0.00    -0.200 F 
ATOM     88  C   UNL A   1      38.592  33.526  37.638  1.00  0.00     0.200 A 
ATOM     89  F   UNL A   1      39.933  35.329  36.910  1.00  0.00    -0.200 F 
ATOM     90  F   UNL A   1      38.169  34.243  38.688  1.00  0.00    -0.200 F 
ENDBRANCH  56  80
BRANCH  68  91
ATOM     91  C   UNL A   1      44.659  27.415  34.565  1.00  0.00     0.064 A 
ATOM     92  C   UNL A   1      45.883  28.088  34.692  1.00  0.00     0.173 A 
ATOM     93  C   UNL A   1      44.452  26.277  35.362  1.00  0.00     0.173 A 
ATOM     94  F   UNL A   1      46.137  29.173  33.944  1.00  0.00    -0.203 F 
ATOM     95  C   UNL A   1      46.867  27.628  35.564  1.00  0.00     0.198 A 
ATOM     96  C   UNL A   1      45.425  25.840  36.258  1.00  0.00     0.198 A 
ATOM     97  F   UNL A   1      43.296  25.601  35.288  1.00  0.00    -0.203 F 
ATOM     98  F   UNL A   1      48.046  28.260  35.635  1.00  0.00    -0.200 F 
ATOM     99  C   UNL A   1      46.633  26.510  36.352  1.00  0.00     0.200 A 
ATOM    100  F   UNL A   1      45.189  24.770  37.031  1.00  0.00    -0.200 F 
ATOM    101  F   UNL A   1      47.577  26.077  37.200  1.00  0.00    -0.200 F 
ENDBRANCH  68  91
ENDBRANCH  42  43
ENDBRANCH  35  37
ENDBRANCH  34  35
ENDBRANCH  33  34
ENDBRANCH  32  33
ENDBRANCH  31  32
ENDBRANCH  30  31
ENDBRANCH   1  30
TORSDOF 21
ENDMDL
MODEL 2
REMARK VINA RESULT:     -11.3      1.262      2.681
REMARK SMILES Cc1ccc(Cl)c(Nc2ccccc2C(=O)NCC(=O)OCCOCCOCCOC(=O)c2ccc(-c3c4nc(c(-c5c(F)c(F)c(F)c(F)c5F)c5ccc([nH]5)c(-c5c(F)c(F)c(F)c(F)c5F)c5nc(c(-c6c(F)c(F)c(F)c(F)c6F)c6ccc3[nH]6)C=C5)C=C4)cc2)c1Cl
REMARK SMILES IDX 25 1 24 2 23 3 22 4 21 5 19 6 20 7 18 8 17 9 15 10 16 11
REMARK SMILES IDX 14 13 9 14 10 15 11 16 13 17 12 18 8 19 7 21 1 22 2 23 3 24
REMARK SMILES IDX 96 25 4 26 97 27 5 28 6 29 26 30 27 31 28 32 29 33 30 34
REMARK SMILES IDX 31 35 32 36 33 37 34 38 95 39 35 40 94 41 36 42 37 43 38 44
REMARK SMILES IDX 88 45 39 46 93 47 87 48 89 49 40 50 92 51 86 52 85 53 41 55
REMARK SMILES IDX 73 56 53 57 72 58 54 59 57 60 71 61 90 62 55 63 56 64 70 66
REMARK SMILES IDX 91 67 58 68 42 69 43 70 51 71 44 72 45 73 49 74 52 75 46 76
REMARK SMILES IDX 47 77 50 78 48 79 74 80 75 81 83 82 76 83 77 84 81 85 84 86
REMARK SMILES IDX 78 87 79 88 82 89 80 90 59 91 60 92 68 93 61 94 62 95 66 96
REMARK SMILES IDX 69 97 63 98 64 99 67 100 65 101
REMARK H PARENT 17 12 8 20 89 54 57 65
REMARK Flexibility Score: inf
ROOT
ATOM      1  C   UNL A   1      30.074  27.735  22.792  1.00  0.00     0.188 C 
ENDROOT
BRANCH   1   2
ATOM      2  O   UNL A   1      28.961  27.389  23.589  1.00  0.00    -0.376 OA
BRANCH   2   3
ATOM      3  C   UNL A   1      28.928  26.119  24.232  1.00  0.00     0.202 C 
BRANCH   3   4
ATOM      4  C   UNL A   1      30.187  25.269  24.474  1.00  0.00     0.261 C 
BRANCH   4   5
ATOM      5  O   UNL A   1      30.767  25.379  25.781  1.00  0.00    -0.462 OA
BRANCH   5   6
ATOM      6  C   UNL A   1      30.560  24.267  26.530  1.00  0.00     0.325 C 
ATOM      7  O   UNL A   1      29.527  24.044  27.163  1.00  0.00    -0.250 OA
BRANCH   6   8
ATOM      8  C   UNL A   1      31.552  23.148  26.303  1.00  0.00     0.239 C 
BRANCH   8   9
ATOM      9  N   UNL A   1      32.469  22.510  27.218  1.00  0.00    -0.341 N 
ATOM     10  C   UNL A   1      33.520  21.693  26.830  1.00  0.00     0.253 C 
ATOM     11  O   UNL A   1      34.448  21.485  27.607  1.00  0.00    -0.269 OA
ATOM     12  H   UNL A   1      32.340  22.665  28.181  1.00  0.00     0.164 HD
BRANCH  10  13
ATOM     13  C   UNL A   1      33.413  20.885  25.571  1.00  0.00     0.063 A 
ATOM     14  C   UNL A   1      33.706  21.305  24.252  1.00  0.00     0.051 A 
ATOM     15  C   UNL A   1      33.202  20.519  23.194  1.00  0.00     0.027 A 
ATOM     16  C   UNL A   1      32.512  19.326  23.421  1.00  0.00     0.002 A 
ATOM     17  C   UNL A   1      32.782  19.643  25.786  1.00  0.00     0.016 A 
ATOM     18  C   UNL A   1      32.339  18.867  24.719  1.00  0.00     0.001 A 
BRANCH  14  19
ATOM     19  N   UNL A   1      34.468  22.432  23.864  1.00  0.00    -0.352 N 
ATOM     20  H   UNL A   1      35.393  22.205  23.610  1.00  0.00     0.167 HD
BRANCH  19  21
ATOM     21  C   UNL A   1      34.190  23.817  23.761  1.00  0.00     0.077 A 
ATOM     22  C   UNL A   1      34.168  27.075  25.795  1.00  0.00     0.046 C 
ATOM     23  C   UNL A   1      33.965  26.084  24.680  1.00  0.00    -0.030 A 
ATOM     24  C   UNL A   1      33.290  26.492  23.522  1.00  0.00     0.006 A 
ATOM     25  C   UNL A   1      34.436  24.755  24.784  1.00  0.00     0.069 A 
ATOM     26  C   UNL A   1      33.102  25.606  22.469  1.00  0.00     0.023 A 
ATOM     27  Cl  UNL A   1      35.473  24.346  26.121  1.00  0.00    -0.082 Cl
ATOM     28  C   UNL A   1      33.554  24.292  22.586  1.00  0.00     0.066 A 
ATOM     29  Cl  UNL A   1      33.272  23.234  21.238  1.00  0.00    -0.082 Cl
ENDBRANCH  19  21
ENDBRANCH  14  19
ENDBRANCH  10  13
ENDBRANCH   8   9
ENDBRANCH   6   8
ENDBRANCH   5   6
ENDBRANCH   4   5
ENDBRANCH   3   4
ENDBRANCH   2   3
ENDBRANCH   1   2
BRANCH   1  30
ATOM     30  C   UNL A   1      30.500  29.211  22.898  1.00  0.00     0.188 C 
BRANCH  30  31
ATOM     31  O   UNL A   1      30.507  29.896  24.139  1.00  0.00    -0.376 OA
BRANCH  31  32
ATOM     32  C   UNL A   1      31.343  29.402  25.185  1.00  0.00     0.202 C 
BRANCH  32  33
ATOM     33  C   UNL A   1      31.854  30.311  26.327  1.00  0.00     0.261 C 
BRANCH  33  34
ATOM     34  O   UNL A   1      33.278  30.457  26.435  1.00  0.00    -0.460 OA
BRANCH  34  35
ATOM     35  C   UNL A   1      33.692  31.462  27.251  1.00  0.00     0.338 C 
ATOM     36  O   UNL A   1      33.039  32.402  27.664  1.00  0.00    -0.246 OA
BRANCH  35  37
ATOM     37  C   UNL A   1      35.035  31.135  27.776  1.00  0.00     0.060 A 
ATOM     38  C   UNL A   1      35.332  29.789  28.041  1.00  0.00     0.016 A 
ATOM     39  C   UNL A   1      35.969  32.133  28.047  1.00  0.00     0.016 A 
ATOM     40  C   UNL A   1      36.565  29.432  28.581  1.00  0.00     0.010 A 
ATOM     41  C   UNL A   1      37.189  31.778  28.632  1.00  0.00     0.010 A 
ATOM     42  C   UNL A   1      37.480  30.431  28.922  1.00  0.00    -0.014 A 
BRANCH  42  43
ATOM     43  C   UNL A   1      38.636  30.097  29.787  1.00  0.00     0.031 A 
ATOM     44  C   UNL A   1      39.651  29.123  29.261  1.00  0.00     0.074 A 
ATOM     45  C   UNL A   1      38.787  30.639  31.006  1.00  0.00     0.049 A 
ATOM     46  N   UNL A   1      40.671  28.572  29.867  1.00  0.00    -0.248 NA
ATOM     47  C   UNL A   1      39.486  28.712  27.858  1.00  0.00     0.031 C 
ATOM     48  C   UNL A   1      37.910  31.645  31.599  1.00  0.00     0.029 A 
ATOM     49  N   UNL A   1      39.730  30.393  31.973  1.00  0.00    -0.354 N 
ATOM     50  C   UNL A   1      41.253  27.732  28.928  1.00  0.00     0.074 A 
ATOM     51  C   UNL A   1      40.467  27.836  27.718  1.00  0.00     0.031 C 
ATOM     52  C   UNL A   1      38.337  31.907  32.848  1.00  0.00     0.029 A 
ATOM     53  C   UNL A   1      39.487  31.054  33.151  1.00  0.00     0.049 A 
ATOM     54  H   UNL A   1      40.504  29.802  31.834  1.00  0.00     0.167 HD
ATOM     55  C   UNL A   1      42.343  26.940  29.065  1.00  0.00     0.037 A 
ATOM     56  C   UNL A   1      40.098  30.944  34.348  1.00  0.00     0.037 A 
ATOM     57  C   UNL A   1      43.115  26.835  30.275  1.00  0.00     0.049 A 
ATOM     58  C   UNL A   1      41.257  29.993  34.508  1.00  0.00     0.074 A 
ATOM     59  C   UNL A   1      44.247  26.075  30.511  1.00  0.00     0.029 A 
ATOM     60  N   UNL A   1      42.825  27.499  31.457  1.00  0.00    -0.354 N 
ATOM     61  N   UNL A   1      41.812  29.204  33.619  1.00  0.00    -0.248 NA
ATOM     62  C   UNL A   1      41.875  29.916  35.841  1.00  0.00     0.031 C 
ATOM     63  C   UNL A   1      44.602  26.229  31.856  1.00  0.00     0.029 A 
ATOM     64  C   UNL A   1      43.735  27.140  32.439  1.00  0.00     0.049 A 
ATOM     65  H   UNL A   1      42.081  28.133  31.581  1.00  0.00     0.167 HD
ATOM     66  C   UNL A   1      42.857  28.561  34.274  1.00  0.00     0.074 A 
ATOM     67  C   UNL A   1      42.864  29.058  35.633  1.00  0.00     0.031 C 
ATOM     68  C   UNL A   1      43.733  27.645  33.789  1.00  0.00     0.037 A 
BRANCH  55  69
ATOM     69  C   UNL A   1      42.719  26.082  27.893  1.00  0.00     0.064 A 
ATOM     70  C   UNL A   1      42.145  24.819  27.677  1.00  0.00     0.173 A 
ATOM     71  C   UNL A   1      43.680  26.529  26.973  1.00  0.00     0.173 A 
ATOM     72  F   UNL A   1      41.234  24.336  28.536  1.00  0.00    -0.203 F 
ATOM     73  C   UNL A   1      42.548  24.021  26.610  1.00  0.00     0.198 A 
ATOM     74  C   UNL A   1      44.056  25.744  25.887  1.00  0.00     0.198 A 
ATOM     75  F   UNL A   1      44.260  27.729  27.131  1.00  0.00    -0.203 F 
ATOM     76  F   UNL A   1      42.035  22.792  26.462  1.00  0.00    -0.200 F 
ATOM     77  C   UNL A   1      43.499  24.487  25.713  1.00  0.00     0.200 A 
ATOM     78  F   UNL A   1      44.964  26.202  25.015  1.00  0.00    -0.200 F 
ATOM     79  F   UNL A   1      43.888  23.718  24.687  1.00  0.00    -0.200 F 
ENDBRANCH  55  69
BRANCH  56  80
ATOM     80  C   UNL A   1      39.598  31.736  35.503  1.00  0.00     0.064 A 
ATOM     81  C   UNL A   1      40.165  32.974  35.833  1.00  0.00     0.173 A 
ATOM     82  C   UNL A   1      38.541  31.269  36.300  1.00  0.00     0.173 A 
ATOM     83  F   UNL A   1      41.195  33.450  35.120  1.00  0.00    -0.203 F 
ATOM     84  C   UNL A   1      39.699  33.712  36.921  1.00  0.00     0.198 A 
ATOM     85  C   UNL A   1      38.058  32.020  37.369  1.00  0.00     0.198 A 
ATOM     86  F   UNL A   1      37.966  30.087  36.029  1.00  0.00    -0.203 F 
ATOM     87  F   UNL A   1      40.284  34.874  37.237  1.00  0.00    -0.200 F 
ATOM     88  C   UNL A   1      38.640  33.238  37.682  1.00  0.00     0.200 A 
ATOM     89  F   UNL A   1      37.025  31.565  38.093  1.00  0.00    -0.200 F 
ATOM     90  F   UNL A   1      38.185  33.954  38.719  1.00  0.00    -0.200 F 
ENDBRANCH  56  80
BRANCH  68  91
ATOM     91  C   UNL A   1      44.807  27.148  34.718  1.00  0.00     0.064 A 
ATOM     92  C   UNL A   1      46.027  27.822  34.870  1.00  0.00     0.173 A 
ATOM     93  C   UNL A   1      44.586  26.008  35.508  1.00  0.00     0.173 A 
ATOM     94  F   UNL A   1      46.294  28.909  34.131  1.00  0.00    -0.203 F 
ATOM     95  C   UNL A   1      46.995  27.361  35.760  1.00  0.00     0.198 A 
ATOM     96  C   UNL A   1      45.542  25.569  36.421  1.00  0.00     0.198 A 
ATOM     97  F   UNL A   1      43.432  25.330  35.409  1.00  0.00    -0.203 F 
ATOM     98  F   UNL A   1      48.172  27.994  35.855  1.00  0.00    -0.200 F 
ATOM     99  C   UNL A   1      46.747  26.240  36.540  1.00  0.00     0.200 A 
ATOM    100  F   UNL A   1      45.292  24.497  37.186  1.00  0.00    -0.200 F 
ATOM    101  F   UNL A   1      47.675  25.805  37.404  1.00  0.00    -0.200 F 
ENDBRANCH  68  91
ENDBRANCH  42  43
ENDBRANCH  35  37
ENDBRANCH  34  35
ENDBRANCH  33  34
ENDBRANCH  32  33
ENDBRANCH  31  32
ENDBRANCH  30  31
ENDBRANCH   1  30
TORSDOF 21
ENDMDL
MODEL 3
REMARK VINA RESULT:     -11.1      5.494      9.569
REMARK SMILES Cc1ccc(Cl)c(Nc2ccccc2C(=O)NCC(=O)OCCOCCOCCOC(=O)c2ccc(-c3c4nc(c(-c5c(F)c(F)c(F)c(F)c5F)c5ccc([nH]5)c(-c5c(F)c(F)c(F)c(F)c5F)c5nc(c(-c6c(F)c(F)c(F)c(F)c6F)c6ccc3[nH]6)C=C5)C=C4)cc2)c1Cl
REMARK SMILES IDX 25 1 24 2 23 3 22 4 21 5 19 6 20 7 18 8 17 9 15 10 16 11
REMARK SMILES IDX 14 13 9 14 10 15 11 16 13 17 12 18 8 19 7 21 1 22 2 23 3 24
REMARK SMILES IDX 96 25 4 26 97 27 5 28 6 29 26 30 27 31 28 32 29 33 30 34
REMARK SMILES IDX 31 35 32 36 33 37 34 38 95 39 35 40 94 41 36 42 37 43 38 44
REMARK SMILES IDX 88 45 39 46 93 47 87 48 89 49 40 50 92 51 86 52 85 53 41 55
REMARK SMILES IDX 73 56 53 57 72 58 54 59 57 60 71 61 90 62 55 63 56 64 70 66
REMARK SMILES IDX 91 67 58 68 42 69 43 70 51 71 44 72 45 73 49 74 52 75 46 76
REMARK SMILES IDX 47 77 50 78 48 79 74 80 75 81 83 82 76 83 77 84 81 85 84 86
REMARK SMILES IDX 78 87 79 88 82 89 80 90 59 91 60 92 68 93 61 94 62 95 66 96
REMARK SMILES IDX 69 97 63 98 64 99 67 100 65 101
REMARK H PARENT 17 12 8 20 89 54 57 65
REMARK Flexibility Score: inf
ROOT
ATOM      1  C   UNL A   1      40.134  22.322  27.232  1.00  0.00     0.188 C 
ENDROOT
BRANCH   1   2
ATOM      2  O   UNL A   1      40.045  23.709  27.485  1.00  0.00    -0.376 OA
BRANCH   2   3
ATOM      3  C   UNL A   1      38.903  24.431  27.034  1.00  0.00     0.202 C 
BRANCH   3   4
ATOM      4  C   UNL A   1      37.648  23.745  26.468  1.00  0.00     0.261 C 
BRANCH   4   5
ATOM      5  O   UNL A   1      37.561  23.695  25.037  1.00  0.00    -0.462 OA
BRANCH   5   6
ATOM      6  C   UNL A   1      37.151  22.483  24.588  1.00  0.00     0.325 C 
ATOM      7  O   UNL A   1      37.808  21.448  24.700  1.00  0.00    -0.250 OA
BRANCH   6   8
ATOM      8  C   UNL A   1      35.688  22.400  24.212  1.00  0.00     0.239 C 
BRANCH   8   9
ATOM      9  N   UNL A   1      34.980  22.951  23.081  1.00  0.00    -0.341 N 
ATOM     10  C   UNL A   1      34.200  24.096  23.129  1.00  0.00     0.253 C 
ATOM     11  O   UNL A   1      33.931  24.693  22.089  1.00  0.00    -0.269 OA
ATOM     12  H   UNL A   1      35.055  22.482  22.219  1.00  0.00     0.164 HD
BRANCH  10  13
ATOM     13  C   UNL A   1      33.498  24.470  24.399  1.00  0.00     0.063 A 
ATOM     14  C   UNL A   1      32.334  23.879  24.945  1.00  0.00     0.051 A 
ATOM     15  C   UNL A   1      31.644  24.603  25.941  1.00  0.00     0.027 A 
ATOM     16  C   UNL A   1      32.122  25.816  26.439  1.00  0.00     0.002 A 
ATOM     17  C   UNL A   1      34.009  25.657  24.963  1.00  0.00     0.016 A 
ATOM     18  C   UNL A   1      33.329  26.323  25.979  1.00  0.00     0.001 A 
BRANCH  14  19
ATOM     19  N   UNL A   1      31.780  22.619  24.614  1.00  0.00    -0.352 N 
ATOM     20  H   UNL A   1      30.830  22.672  24.355  1.00  0.00     0.167 HD
BRANCH  19  21
ATOM     21  C   UNL A   1      32.293  21.300  24.574  1.00  0.00     0.077 A 
ATOM     22  C   UNL A   1      32.405  18.144  22.388  1.00  0.00     0.046 C 
ATOM     23  C   UNL A   1      32.565  19.082  23.554  1.00  0.00    -0.030 A 
ATOM     24  C   UNL A   1      33.087  18.587  24.757  1.00  0.00     0.006 A 
ATOM     25  C   UNL A   1      32.195  20.443  23.459  1.00  0.00     0.069 A 
ATOM     26  C   UNL A   1      33.264  19.432  25.846  1.00  0.00     0.023 A 
ATOM     27  Cl  UNL A   1      31.779  21.080  21.894  1.00  0.00    -0.082 Cl
ATOM     28  C   UNL A   1      32.879  20.769  25.750  1.00  0.00     0.066 A 
ATOM     29  Cl  UNL A   1      33.112  21.763  27.154  1.00  0.00    -0.082 Cl
ENDBRANCH  19  21
ENDBRANCH  14  19
ENDBRANCH  10  13
ENDBRANCH   8   9
ENDBRANCH   6   8
ENDBRANCH   5   6
ENDBRANCH   4   5
ENDBRANCH   3   4
ENDBRANCH   2   3
ENDBRANCH   1   2
BRANCH   1  30
ATOM     30  C   UNL A   1      41.342  21.907  26.372  1.00  0.00     0.188 C 
BRANCH  30  31
ATOM     31  O   UNL A   1      41.408  20.636  25.747  1.00  0.00    -0.376 OA
BRANCH  31  32
ATOM     32  C   UNL A   1      41.895  19.530  26.505  1.00  0.00     0.202 C 
BRANCH  32  33
ATOM     33  C   UNL A   1      42.919  18.525  25.929  1.00  0.00     0.261 C 
BRANCH  33  34
ATOM     34  O   UNL A   1      44.258  19.010  25.755  1.00  0.00    -0.460 OA
BRANCH  34  35
ATOM     35  C   UNL A   1      44.498  19.624  24.566  1.00  0.00     0.338 C 
ATOM     36  O   UNL A   1      44.251  19.207  23.450  1.00  0.00    -0.246 OA
BRANCH  35  37
ATOM     37  C   UNL A   1      44.913  21.020  24.819  1.00  0.00     0.060 A 
ATOM     38  C   UNL A   1      45.297  21.370  26.123  1.00  0.00     0.016 A 
ATOM     39  C   UNL A   1      44.882  21.980  23.809  1.00  0.00     0.016 A 
ATOM     40  C   UNL A   1      45.652  22.682  26.427  1.00  0.00     0.010 A 
ATOM     41  C   UNL A   1      45.194  23.306  24.125  1.00  0.00     0.010 A 
ATOM     42  C   UNL A   1      45.555  23.664  25.438  1.00  0.00    -0.014 A 
BRANCH  42  43
ATOM     43  C   UNL A   1      45.608  25.094  25.823  1.00  0.00     0.031 A 
ATOM     44  C   UNL A   1      46.930  25.800  25.733  1.00  0.00     0.074 A 
ATOM     45  C   UNL A   1      44.516  25.754  26.242  1.00  0.00     0.049 A 
ATOM     46  N   UNL A   1      47.264  27.000  26.133  1.00  0.00    -0.248 NA
ATOM     47  C   UNL A   1      48.026  25.042  25.112  1.00  0.00     0.031 C 
ATOM     48  C   UNL A   1      43.166  25.201  26.307  1.00  0.00     0.029 A 
ATOM     49  N   UNL A   1      44.384  27.036  26.715  1.00  0.00    -0.354 N 
ATOM     50  C   UNL A   1      48.613  27.131  25.833  1.00  0.00     0.074 A 
ATOM     51  C   UNL A   1      49.038  25.885  25.231  1.00  0.00     0.031 C 
ATOM     52  C   UNL A   1      42.344  26.130  26.827  1.00  0.00     0.029 A 
ATOM     53  C   UNL A   1      43.121  27.321  27.171  1.00  0.00     0.049 A 
ATOM     54  H   UNL A   1      45.122  27.686  26.727  1.00  0.00     0.167 HD
ATOM     55  C   UNL A   1      49.426  28.192  26.047  1.00  0.00     0.037 A 
ATOM     56  C   UNL A   1      42.661  28.403  27.831  1.00  0.00     0.037 A 
ATOM     57  C   UNL A   1      48.999  29.425  26.655  1.00  0.00     0.049 A 
ATOM     58  C   UNL A   1      43.601  29.542  28.138  1.00  0.00     0.074 A 
ATOM     59  C   UNL A   1      49.740  30.567  26.900  1.00  0.00     0.029 A 
ATOM     60  N   UNL A   1      47.718  29.669  27.128  1.00  0.00    -0.354 N 
ATOM     61  N   UNL A   1      44.874  29.669  27.849  1.00  0.00    -0.248 NA
ATOM     62  C   UNL A   1      43.038  30.690  28.866  1.00  0.00     0.031 C 
ATOM     63  C   UNL A   1      48.924  31.477  27.581  1.00  0.00     0.029 A 
ATOM     64  C   UNL A   1      47.655  30.932  27.696  1.00  0.00     0.049 A 
ATOM     65  H   UNL A   1      46.963  29.038  27.069  1.00  0.00     0.167 HD
ATOM     66  C   UNL A   1      45.257  30.916  28.332  1.00  0.00     0.074 A 
ATOM     67  C   UNL A   1      44.078  31.511  28.926  1.00  0.00     0.031 C 
ATOM     68  C   UNL A   1      46.473  31.514  28.282  1.00  0.00     0.037 A 
BRANCH  55  69
ATOM     69  C   UNL A   1      50.872  28.035  25.676  1.00  0.00     0.064 A 
ATOM     70  C   UNL A   1      51.867  27.788  26.634  1.00  0.00     0.173 A 
ATOM     71  C   UNL A   1      51.269  28.144  24.334  1.00  0.00     0.173 A 
ATOM     72  F   UNL A   1      51.543  27.693  27.933  1.00  0.00    -0.203 F 
ATOM     73  C   UNL A   1      53.207  27.697  26.269  1.00  0.00     0.198 A 
ATOM     74  C   UNL A   1      52.605  28.017  23.968  1.00  0.00     0.198 A 
ATOM     75  F   UNL A   1      50.359  28.379  23.376  1.00  0.00    -0.203 F 
ATOM     76  F   UNL A   1      54.146  27.527  27.210  1.00  0.00    -0.200 F 
ATOM     77  C   UNL A   1      53.575  27.806  24.936  1.00  0.00     0.200 A 
ATOM     78  F   UNL A   1      52.956  28.110  22.677  1.00  0.00    -0.200 F 
ATOM     79  F   UNL A   1      54.865  27.720  24.586  1.00  0.00    -0.200 F 
ENDBRANCH  55  69
BRANCH  56  80
ATOM     80  C   UNL A   1      41.244  28.444  28.278  1.00  0.00     0.064 A 
ATOM     81  C   UNL A   1      40.874  28.005  29.556  1.00  0.00     0.173 A 
ATOM     82  C   UNL A   1      40.230  28.926  27.436  1.00  0.00     0.173 A 
ATOM     83  F   UNL A   1      41.802  27.510  30.388  1.00  0.00    -0.203 F 
ATOM     84  C   UNL A   1      39.544  28.039  29.972  1.00  0.00     0.198 A 
ATOM     85  C   UNL A   1      38.906  28.985  27.861  1.00  0.00     0.198 A 
ATOM     86  F   UNL A   1      40.531  29.354  26.200  1.00  0.00    -0.203 F 
ATOM     87  F   UNL A   1      39.212  27.578  31.185  1.00  0.00    -0.200 F 
ATOM     88  C   UNL A   1      38.562  28.537  29.128  1.00  0.00     0.200 A 
ATOM     89  F   UNL A   1      37.964  29.481  27.047  1.00  0.00    -0.200 F 
ATOM     90  F   UNL A   1      37.286  28.580  29.532  1.00  0.00    -0.200 F 
ENDBRANCH  56  80
BRANCH  68  91
ATOM     91  C   UNL A   1      46.590  32.904  28.846  1.00  0.00     0.064 A 
ATOM     92  C   UNL A   1      46.979  33.136  30.173  1.00  0.00     0.173 A 
ATOM     93  C   UNL A   1      46.363  34.021  28.026  1.00  0.00     0.173 A 
ATOM     94  F   UNL A   1      47.197  32.104  31.003  1.00  0.00    -0.203 F 
ATOM     95  C   UNL A   1      47.112  34.433  30.665  1.00  0.00     0.198 A 
ATOM     96  C   UNL A   1      46.529  35.315  28.511  1.00  0.00     0.198 A 
ATOM     97  F   UNL A   1      45.998  33.856  26.745  1.00  0.00    -0.203 F 
ATOM     98  F   UNL A   1      47.439  34.631  31.949  1.00  0.00    -0.200 F 
ATOM     99  C   UNL A   1      46.895  35.520  29.831  1.00  0.00     0.200 A 
ATOM    100  F   UNL A   1      46.336  36.363  27.698  1.00  0.00    -0.200 F 
ATOM    101  F   UNL A   1      47.036  36.767  30.303  1.00  0.00    -0.200 F 
ENDBRANCH  68  91
ENDBRANCH  42  43
ENDBRANCH  35  37
ENDBRANCH  34  35
ENDBRANCH  33  34
ENDBRANCH  32  33
ENDBRANCH  31  32
ENDBRANCH  30  31
ENDBRANCH   1  30
TORSDOF 21
ENDMDL
