MODEL 1
REMARK VINA RESULT:     -11.7      0.000      0.000
REMARK SMILES O=C(OCCOCCOCCOC(=O)c1cccc(NC(=S)N/N=C\c2c[nH]c3ccccc23)c1)c1ccc(-c2c3nc(c(-c4c(F)c(F)c(F)c(F)c4F)c4ccc([nH]4)c(-c4c(F)c(F)c(F)c(F)c4F)c4nc(c(-c5c(F)c(F)c(F)c(F)c5F)c5ccc2[nH]5)C=C4)C=C3)cc1
REMARK SMILES IDX 9 1 8 2 7 3 6 4 5 5 4 6 3 7 2 8 1 9 36 10 37 11 98 12 38 13
REMARK SMILES IDX 97 14 39 15 40 16 41 17 91 18 42 19 96 20 90 21 92 22 43 23
REMARK SMILES IDX 95 24 89 25 88 26 44 28 76 29 56 30 75 31 57 32 60 33 74 34
REMARK SMILES IDX 93 35 58 36 59 37 73 39 94 40 61 41 45 42 46 43 54 44 47 45
REMARK SMILES IDX 48 46 52 47 55 48 49 49 50 50 53 51 51 52 77 53 78 54 86 55
REMARK SMILES IDX 79 56 80 57 84 58 87 59 81 60 82 61 85 62 83 63 62 64 63 65
REMARK SMILES IDX 71 66 64 67 65 68 69 69 72 70 66 71 67 72 70 73 68 74 10 75
REMARK SMILES IDX 11 76 12 77 13 78 14 79 15 80 16 81 35 82 17 83 19 84 18 85
REMARK SMILES IDX 20 86 21 88 22 89 23 90 24 92 25 93 26 94 27 95 34 96 28 97
REMARK SMILES IDX 29 98 33 99 30 101 32 102 31 103
REMARK H PARENT 92 27 60 38 20 87 23 91 28 100
REMARK Flexibility Score: inf
ROOT
ATOM      1  O   UNL A   1      40.090  21.206  26.987  1.00  0.00    -0.376 OA
ENDROOT
BRANCH   1   2
ATOM      2  C   UNL A   1      40.971  20.500  26.125  1.00  0.00     0.188 C 
BRANCH   2   3
ATOM      3  C   UNL A   1      41.853  19.407  26.721  1.00  0.00     0.188 C 
BRANCH   3   4
ATOM      4  O   UNL A   1      43.259  19.607  26.595  1.00  0.00    -0.376 OA
BRANCH   4   5
ATOM      5  C   UNL A   1      43.752  19.617  25.251  1.00  0.00     0.202 C 
BRANCH   5   6
ATOM      6  C   UNL A   1      44.505  20.876  24.767  1.00  0.00     0.261 C 
BRANCH   6   7
ATOM      7  O   UNL A   1      43.758  22.114  24.744  1.00  0.00    -0.460 OA
BRANCH   7   8
ATOM      8  C   UNL A   1      44.131  23.410  24.852  1.00  0.00     0.338 C 
ATOM      9  O   UNL A   1      45.065  23.823  24.167  1.00  0.00    -0.246 OA
BRANCH   8  10
ATOM     10  C   UNL A   1      43.451  24.374  25.752  1.00  0.00     0.060 A 
ATOM     11  C   UNL A   1      43.630  25.746  25.678  1.00  0.00     0.016 A 
ATOM     12  C   UNL A   1      42.519  23.884  26.678  1.00  0.00     0.016 A 
ATOM     13  C   UNL A   1      43.074  26.601  26.612  1.00  0.00     0.010 A 
ATOM     14  C   UNL A   1      41.859  24.756  27.556  1.00  0.00     0.010 A 
ATOM     15  C   UNL A   1      42.180  26.122  27.563  1.00  0.00    -0.014 A 
BRANCH  15  16
ATOM     16  C   UNL A   1      41.732  27.041  28.634  1.00  0.00     0.031 A 
ATOM     17  C   UNL A   1      42.536  27.124  29.892  1.00  0.00     0.074 A 
ATOM     18  C   UNL A   1      40.788  27.979  28.426  1.00  0.00     0.049 A 
ATOM     19  N   UNL A   1      42.312  27.831  30.968  1.00  0.00    -0.248 NA
ATOM     20  C   UNL A   1      43.794  26.360  29.917  1.00  0.00     0.031 C 
ATOM     21  C   UNL A   1      40.135  28.245  27.149  1.00  0.00     0.029 A 
ATOM     22  N   UNL A   1      40.274  28.939  29.266  1.00  0.00    -0.354 N 
ATOM     23  C   UNL A   1      43.397  27.602  31.794  1.00  0.00     0.074 A 
ATOM     24  C   UNL A   1      44.266  26.666  31.114  1.00  0.00     0.031 C 
ATOM     25  C   UNL A   1      39.355  29.326  27.294  1.00  0.00     0.029 A 
ATOM     26  C   UNL A   1      39.280  29.690  28.687  1.00  0.00     0.049 A 
ATOM     27  H   UNL A   1      40.587  29.074  30.190  1.00  0.00     0.167 HD
ATOM     28  C   UNL A   1      43.651  28.145  33.005  1.00  0.00     0.037 A 
ATOM     29  C   UNL A   1      38.362  30.499  29.242  1.00  0.00     0.037 A 
ATOM     30  C   UNL A   1      42.794  29.085  33.673  1.00  0.00     0.049 A 
ATOM     31  C   UNL A   1      38.470  30.810  30.690  1.00  0.00     0.074 A 
ATOM     32  C   UNL A   1      42.956  29.670  34.916  1.00  0.00     0.029 A 
ATOM     33  N   UNL A   1      41.603  29.569  33.158  1.00  0.00    -0.354 N 
ATOM     34  N   UNL A   1      39.393  30.450  31.537  1.00  0.00    -0.248 NA
ATOM     35  C   UNL A   1      37.412  31.665  31.248  1.00  0.00     0.031 C 
ATOM     36  C   UNL A   1      41.824  30.444  35.188  1.00  0.00     0.029 A 
ATOM     37  C   UNL A   1      40.994  30.402  34.084  1.00  0.00     0.049 A 
ATOM     38  H   UNL A   1      41.243  29.354  32.267  1.00  0.00     0.167 HD
ATOM     39  C   UNL A   1      39.055  31.071  32.721  1.00  0.00     0.074 A 
ATOM     40  C   UNL A   1      37.828  31.802  32.494  1.00  0.00     0.031 C 
ATOM     41  C   UNL A   1      39.744  31.074  33.880  1.00  0.00     0.037 A 
BRANCH  28  42
ATOM     42  C   UNL A   1      44.867  27.651  33.719  1.00  0.00     0.064 A 
ATOM     43  C   UNL A   1      44.839  26.536  34.568  1.00  0.00     0.173 A 
ATOM     44  C   UNL A   1      46.082  28.330  33.553  1.00  0.00     0.173 A 
ATOM     45  F   UNL A   1      43.691  25.877  34.785  1.00  0.00    -0.203 F 
ATOM     46  C   UNL A   1      45.985  26.133  35.247  1.00  0.00     0.198 A 
ATOM     47  C   UNL A   1      47.231  27.905  34.206  1.00  0.00     0.198 A 
ATOM     48  F   UNL A   1      46.150  29.410  32.760  1.00  0.00    -0.203 F 
ATOM     49  F   UNL A   1      45.928  25.103  36.103  1.00  0.00    -0.200 F 
ATOM     50  C   UNL A   1      47.181  26.813  35.058  1.00  0.00     0.200 A 
ATOM     51  F   UNL A   1      48.384  28.561  34.019  1.00  0.00    -0.200 F 
ATOM     52  F   UNL A   1      48.284  26.423  35.713  1.00  0.00    -0.200 F 
ENDBRANCH  28  42
BRANCH  29  53
ATOM     53  C   UNL A   1      37.114  30.930  28.573  1.00  0.00     0.064 A 
ATOM     54  C   UNL A   1      36.775  32.274  28.367  1.00  0.00     0.173 A 
ATOM     55  C   UNL A   1      36.124  29.956  28.348  1.00  0.00     0.173 A 
ATOM     56  F   UNL A   1      37.664  33.239  28.640  1.00  0.00    -0.203 F 
ATOM     57  C   UNL A   1      35.494  32.626  27.932  1.00  0.00     0.198 A 
ATOM     58  C   UNL A   1      34.844  30.315  27.943  1.00  0.00     0.198 A 
ATOM     59  F   UNL A   1      36.399  28.657  28.542  1.00  0.00    -0.203 F 
ATOM     60  F   UNL A   1      35.181  33.914  27.742  1.00  0.00    -0.200 F 
ATOM     61  C   UNL A   1      34.532  31.646  27.717  1.00  0.00     0.200 A 
ATOM     62  F   UNL A   1      33.916  29.369  27.777  1.00  0.00    -0.200 F 
ATOM     63  F   UNL A   1      33.308  31.980  27.284  1.00  0.00    -0.200 F 
ENDBRANCH  29  53
BRANCH  41  64
ATOM     64  C   UNL A   1      39.194  31.957  34.948  1.00  0.00     0.064 A 
ATOM     65  C   UNL A   1      39.479  33.328  34.996  1.00  0.00     0.173 A 
ATOM     66  C   UNL A   1      38.457  31.390  35.996  1.00  0.00     0.173 A 
ATOM     67  F   UNL A   1      40.241  33.894  34.047  1.00  0.00    -0.203 F 
ATOM     68  C   UNL A   1      39.073  34.096  36.080  1.00  0.00     0.198 A 
ATOM     69  C   UNL A   1      38.018  32.169  37.058  1.00  0.00     0.198 A 
ATOM     70  F   UNL A   1      38.195  30.074  36.007  1.00  0.00    -0.203 F 
ATOM     71  F   UNL A   1      39.436  35.385  36.158  1.00  0.00    -0.200 F 
ATOM     72  C   UNL A   1      38.336  33.519  37.104  1.00  0.00     0.200 A 
ATOM     73  F   UNL A   1      37.312  31.609  38.048  1.00  0.00    -0.200 F 
ATOM     74  F   UNL A   1      37.954  34.259  38.154  1.00  0.00    -0.200 F 
ENDBRANCH  41  64
ENDBRANCH  15  16
ENDBRANCH   8  10
ENDBRANCH   7   8
ENDBRANCH   6   7
ENDBRANCH   5   6
ENDBRANCH   4   5
ENDBRANCH   3   4
ENDBRANCH   2   3
ENDBRANCH   1   2
BRANCH   1  75
ATOM     75  C   UNL A   1      39.232  22.190  26.422  1.00  0.00     0.202 C 
BRANCH  75  76
ATOM     76  C   UNL A   1      38.159  21.746  25.422  1.00  0.00     0.261 C 
BRANCH  76  77
ATOM     77  O   UNL A   1      36.837  22.165  25.756  1.00  0.00    -0.460 OA
BRANCH  77  78
ATOM     78  C   UNL A   1      35.832  21.466  25.167  1.00  0.00     0.338 C 
ATOM     79  O   UNL A   1      35.726  20.274  25.001  1.00  0.00    -0.246 OA
BRANCH  78  80
ATOM     80  C   UNL A   1      34.884  22.471  24.684  1.00  0.00     0.062 A 
ATOM     81  C   UNL A   1      34.991  23.177  23.487  1.00  0.00     0.016 A 
ATOM     82  C   UNL A   1      33.853  22.717  25.560  1.00  0.00     0.041 A 
ATOM     83  C   UNL A   1      34.010  24.123  23.165  1.00  0.00     0.003 A 
ATOM     84  C   UNL A   1      32.948  23.721  25.282  1.00  0.00     0.041 A 
ATOM     85  C   UNL A   1      32.982  24.400  24.070  1.00  0.00     0.026 A 
BRANCH  84  86
ATOM     86  N   UNL A   1      32.086  23.928  26.332  1.00  0.00    -0.331 N 
ATOM     87  H   UNL A   1      32.511  23.762  27.204  1.00  0.00     0.169 HD
BRANCH  86  88
ATOM     88  C   UNL A   1      30.818  24.298  26.452  1.00  0.00     0.191 C 
ATOM     89  S   UNL A   1      29.862  22.981  26.876  1.00  0.00    -0.039 S 
BRANCH  88  90
ATOM     90  N   UNL A   1      30.373  25.577  26.424  1.00  0.00    -0.254 N 
ATOM     91  H   UNL A   1      29.451  25.743  26.119  1.00  0.00     0.193 HD
BRANCH  90  92
ATOM     92  N   UNL A   1      31.142  26.664  26.800  1.00  0.00    -0.181 NA
ATOM     93  C   UNL A   1      31.500  27.567  25.915  1.00  0.00     0.143 C 
BRANCH  93  94
ATOM     94  C   UNL A   1      31.032  27.690  24.523  1.00  0.00     0.020 A 
ATOM     95  C   UNL A   1      31.919  27.967  23.501  1.00  0.00     0.093 A 
ATOM     96  C   UNL A   1      29.900  28.389  23.969  1.00  0.00     0.008 A 
ATOM     97  N   UNL A   1      31.604  29.328  23.308  1.00  0.00    -0.361 N 
ATOM     98  C   UNL A   1      30.445  29.675  24.076  1.00  0.00     0.046 A 
ATOM     99  C   UNL A   1      29.145  28.276  22.746  1.00  0.00     0.011 A 
ATOM    100  H   UNL A   1      32.107  29.950  22.732  1.00  0.00     0.166 HD
ATOM    101  C   UNL A   1      29.654  30.795  23.877  1.00  0.00     0.027 A 
ATOM    102  C   UNL A   1      28.735  29.466  22.093  1.00  0.00     0.001 A 
ATOM    103  C   UNL A   1      28.921  30.710  22.703  1.00  0.00     0.002 A 
ENDBRANCH  93  94
ENDBRANCH  90  92
ENDBRANCH  88  90
ENDBRANCH  86  88
ENDBRANCH  84  86
ENDBRANCH  78  80
ENDBRANCH  77  78
ENDBRANCH  76  77
ENDBRANCH  75  76
ENDBRANCH   1  75
TORSDOF 22
ENDMDL
MODEL 2
REMARK VINA RESULT:     -11.1      4.685      6.702
REMARK SMILES O=C(OCCOCCOCCOC(=O)c1cccc(NC(=S)N/N=C\c2c[nH]c3ccccc23)c1)c1ccc(-c2c3nc(c(-c4c(F)c(F)c(F)c(F)c4F)c4ccc([nH]4)c(-c4c(F)c(F)c(F)c(F)c4F)c4nc(c(-c5c(F)c(F)c(F)c(F)c5F)c5ccc2[nH]5)C=C4)C=C3)cc1
REMARK SMILES IDX 9 1 8 2 7 3 6 4 5 5 4 6 3 7 2 8 1 9 36 10 37 11 98 12 38 13
REMARK SMILES IDX 97 14 39 15 40 16 41 17 91 18 42 19 96 20 90 21 92 22 43 23
REMARK SMILES IDX 95 24 89 25 88 26 44 28 76 29 56 30 75 31 57 32 60 33 74 34
REMARK SMILES IDX 93 35 58 36 59 37 73 39 94 40 61 41 45 42 46 43 54 44 47 45
REMARK SMILES IDX 48 46 52 47 55 48 49 49 50 50 53 51 51 52 77 53 78 54 86 55
REMARK SMILES IDX 79 56 80 57 84 58 87 59 81 60 82 61 85 62 83 63 62 64 63 65
REMARK SMILES IDX 71 66 64 67 65 68 69 69 72 70 66 71 67 72 70 73 68 74 10 75
REMARK SMILES IDX 11 76 12 77 13 78 14 79 15 80 16 81 35 82 17 83 19 84 18 85
REMARK SMILES IDX 20 86 21 88 22 89 23 90 24 92 25 93 26 94 27 95 34 96 28 97
REMARK SMILES IDX 29 98 33 99 30 101 32 102 31 103
REMARK H PARENT 92 27 60 38 20 87 23 91 28 100
REMARK Flexibility Score: inf
ROOT
ATOM      1  O   UNL A   1      39.975  22.305  26.716  1.00  0.00    -0.376 OA
ENDROOT
BRANCH   1   2
ATOM      2  C   UNL A   1      40.946  22.125  27.737  1.00  0.00     0.188 C 
BRANCH   2   3
ATOM      3  C   UNL A   1      42.073  21.124  27.503  1.00  0.00     0.188 C 
BRANCH   3   4
ATOM      4  O   UNL A   1      41.667  19.790  27.208  1.00  0.00    -0.376 OA
BRANCH   4   5
ATOM      5  C   UNL A   1      42.147  19.270  25.964  1.00  0.00     0.202 C 
BRANCH   5   6
ATOM      6  C   UNL A   1      43.338  18.287  26.002  1.00  0.00     0.261 C 
BRANCH   6   7
ATOM      7  O   UNL A   1      44.303  18.389  24.930  1.00  0.00    -0.460 OA
BRANCH   7   8
ATOM      8  C   UNL A   1      44.616  19.389  24.074  1.00  0.00     0.338 C 
ATOM      9  O   UNL A   1      44.621  19.163  22.865  1.00  0.00    -0.246 OA
BRANCH   8  10
ATOM     10  C   UNL A   1      44.942  20.765  24.524  1.00  0.00     0.060 A 
ATOM     11  C   UNL A   1      45.505  21.053  25.757  1.00  0.00     0.016 A 
ATOM     12  C   UNL A   1      44.744  21.827  23.630  1.00  0.00     0.016 A 
ATOM     13  C   UNL A   1      45.680  22.355  26.188  1.00  0.00     0.010 A 
ATOM     14  C   UNL A   1      45.028  23.146  24.015  1.00  0.00     0.010 A 
ATOM     15  C   UNL A   1      45.448  23.420  25.325  1.00  0.00    -0.014 A 
BRANCH  15  16
ATOM     16  C   UNL A   1      45.500  24.794  25.875  1.00  0.00     0.031 A 
ATOM     17  C   UNL A   1      46.805  25.524  25.866  1.00  0.00     0.074 A 
ATOM     18  C   UNL A   1      44.385  25.500  26.146  1.00  0.00     0.049 A 
ATOM     19  N   UNL A   1      47.087  26.714  26.325  1.00  0.00    -0.248 NA
ATOM     20  C   UNL A   1      47.927  24.850  25.193  1.00  0.00     0.031 C 
ATOM     21  C   UNL A   1      43.022  25.046  25.898  1.00  0.00     0.029 A 
ATOM     22  N   UNL A   1      44.225  26.784  26.613  1.00  0.00    -0.354 N 
ATOM     23  C   UNL A   1      48.411  26.934  25.994  1.00  0.00     0.074 A 
ATOM     24  C   UNL A   1      48.892  25.744  25.326  1.00  0.00     0.031 C 
ATOM     25  C   UNL A   1      42.186  26.058  26.169  1.00  0.00     0.029 A 
ATOM     26  C   UNL A   1      42.910  27.131  26.803  1.00  0.00     0.049 A 
ATOM     27  H   UNL A   1      44.978  27.393  26.793  1.00  0.00     0.167 HD
ATOM     28  C   UNL A   1      49.152  28.044  26.214  1.00  0.00     0.037 A 
ATOM     29  C   UNL A   1      42.367  28.149  27.494  1.00  0.00     0.037 A 
ATOM     30  C   UNL A   1      48.669  29.229  26.866  1.00  0.00     0.049 A 
ATOM     31  C   UNL A   1      43.265  29.201  28.034  1.00  0.00     0.074 A 
ATOM     32  C   UNL A   1      49.355  30.395  27.157  1.00  0.00     0.029 A 
ATOM     33  N   UNL A   1      47.379  29.398  27.341  1.00  0.00    -0.354 N 
ATOM     34  N   UNL A   1      44.553  29.330  27.889  1.00  0.00    -0.248 NA
ATOM     35  C   UNL A   1      42.617  30.264  28.816  1.00  0.00     0.031 C 
ATOM     36  C   UNL A   1      48.504  31.236  27.880  1.00  0.00     0.029 A 
ATOM     37  C   UNL A   1      47.267  30.627  27.973  1.00  0.00     0.049 A 
ATOM     38  H   UNL A   1      46.650  28.742  27.244  1.00  0.00     0.167 HD
ATOM     39  C   UNL A   1      44.870  30.512  28.523  1.00  0.00     0.074 A 
ATOM     40  C   UNL A   1      43.647  31.047  29.081  1.00  0.00     0.031 C 
ATOM     41  C   UNL A   1      46.069  31.125  28.582  1.00  0.00     0.037 A 
BRANCH  28  42
ATOM     42  C   UNL A   1      50.592  27.975  25.825  1.00  0.00     0.064 A 
ATOM     43  C   UNL A   1      51.613  27.749  26.759  1.00  0.00     0.173 A 
ATOM     44  C   UNL A   1      50.948  28.159  24.482  1.00  0.00     0.173 A 
ATOM     45  F   UNL A   1      51.323  27.603  28.060  1.00  0.00    -0.203 F 
ATOM     46  C   UNL A   1      52.947  27.734  26.361  1.00  0.00     0.198 A 
ATOM     47  C   UNL A   1      52.277  28.110  24.083  1.00  0.00     0.198 A 
ATOM     48  F   UNL A   1      50.004  28.392  23.558  1.00  0.00    -0.203 F 
ATOM     49  F   UNL A   1      53.915  27.578  27.274  1.00  0.00    -0.200 F 
ATOM     50  C   UNL A   1      53.276  27.906  25.023  1.00  0.00     0.200 A 
ATOM     51  F   UNL A   1      52.592  28.273  22.791  1.00  0.00    -0.200 F 
ATOM     52  F   UNL A   1      54.561  27.891  24.642  1.00  0.00    -0.200 F 
ENDBRANCH  28  42
BRANCH  29  53
ATOM     53  C   UNL A   1      40.961  28.191  27.953  1.00  0.00     0.064 A 
ATOM     54  C   UNL A   1      39.953  28.898  27.286  1.00  0.00     0.173 A 
ATOM     55  C   UNL A   1      40.681  27.694  29.240  1.00  0.00     0.173 A 
ATOM     56  F   UNL A   1      40.200  29.451  26.091  1.00  0.00    -0.203 F 
ATOM     57  C   UNL A   1      38.701  29.083  27.880  1.00  0.00     0.198 A 
ATOM     58  C   UNL A   1      39.443  27.906  29.836  1.00  0.00     0.198 A 
ATOM     59  F   UNL A   1      41.619  27.020  29.922  1.00  0.00    -0.203 F 
ATOM     60  F   UNL A   1      37.745  29.763  27.233  1.00  0.00    -0.200 F 
ATOM     61  C   UNL A   1      38.446  28.584  29.152  1.00  0.00     0.200 A 
ATOM     62  F   UNL A   1      39.223  27.457  31.074  1.00  0.00    -0.200 F 
ATOM     63  F   UNL A   1      37.242  28.746  29.717  1.00  0.00    -0.200 F 
ENDBRANCH  29  53
BRANCH  41  64
ATOM     64  C   UNL A   1      46.068  32.472  29.223  1.00  0.00     0.064 A 
ATOM     65  C   UNL A   1      45.803  33.639  28.493  1.00  0.00     0.173 A 
ATOM     66  C   UNL A   1      46.444  32.593  30.567  1.00  0.00     0.173 A 
ATOM     67  F   UNL A   1      45.508  33.568  27.186  1.00  0.00    -0.203 F 
ATOM     68  C   UNL A   1      45.951  34.889  29.083  1.00  0.00     0.198 A 
ATOM     69  C   UNL A   1      46.551  33.843  31.164  1.00  0.00     0.198 A 
ATOM     70  F   UNL A   1      46.743  31.503  31.289  1.00  0.00    -0.203 F 
ATOM     71  F   UNL A   1      45.788  35.997  28.347  1.00  0.00    -0.200 F 
ATOM     72  C   UNL A   1      46.315  34.989  30.418  1.00  0.00     0.200 A 
ATOM     73  F   UNL A   1      46.909  33.937  32.450  1.00  0.00    -0.200 F 
ATOM     74  F   UNL A   1      46.467  36.194  30.982  1.00  0.00    -0.200 F 
ENDBRANCH  41  64
ENDBRANCH  15  16
ENDBRANCH   8  10
ENDBRANCH   7   8
ENDBRANCH   6   7
ENDBRANCH   5   6
ENDBRANCH   4   5
ENDBRANCH   3   4
ENDBRANCH   2   3
ENDBRANCH   1   2
BRANCH   1  75
ATOM     75  C   UNL A   1      39.440  23.607  26.509  1.00  0.00     0.202 C 
BRANCH  75  76
ATOM     76  C   UNL A   1      37.938  23.752  26.236  1.00  0.00     0.261 C 
BRANCH  76  77
ATOM     77  O   UNL A   1      37.360  22.647  25.543  1.00  0.00    -0.460 OA
BRANCH  77  78
ATOM     78  C   UNL A   1      36.433  22.963  24.603  1.00  0.00     0.338 C 
ATOM     79  O   UNL A   1      36.568  23.097  23.410  1.00  0.00    -0.246 OA
BRANCH  78  80
ATOM     80  C   UNL A   1      35.188  23.191  25.339  1.00  0.00     0.062 A 
ATOM     81  C   UNL A   1      34.563  22.272  26.180  1.00  0.00     0.016 A 
ATOM     82  C   UNL A   1      34.624  24.421  25.092  1.00  0.00     0.041 A 
ATOM     83  C   UNL A   1      33.363  22.629  26.805  1.00  0.00     0.003 A 
ATOM     84  C   UNL A   1      33.391  24.726  25.633  1.00  0.00     0.041 A 
ATOM     85  C   UNL A   1      32.770  23.864  26.528  1.00  0.00     0.026 A 
BRANCH  84  86
ATOM     86  N   UNL A   1      32.914  25.924  25.159  1.00  0.00    -0.331 N 
ATOM     87  H   UNL A   1      33.546  26.362  24.544  1.00  0.00     0.169 HD
BRANCH  86  88
ATOM     88  C   UNL A   1      31.808  26.633  25.332  1.00  0.00     0.191 C 
ATOM     89  S   UNL A   1      31.956  27.631  26.678  1.00  0.00    -0.039 S 
BRANCH  88  90
ATOM     90  N   UNL A   1      30.774  26.693  24.458  1.00  0.00    -0.254 N 
ATOM     91  H   UNL A   1      29.861  26.577  24.807  1.00  0.00     0.193 HD
BRANCH  90  92
ATOM     92  N   UNL A   1      30.932  26.911  23.101  1.00  0.00    -0.181 NA
ATOM     93  C   UNL A   1      30.216  27.824  22.483  1.00  0.00     0.143 C 
BRANCH  93  94
ATOM     94  C   UNL A   1      29.334  28.833  23.095  1.00  0.00     0.020 A 
ATOM     95  C   UNL A   1      27.971  28.623  23.177  1.00  0.00     0.093 A 
ATOM     96  C   UNL A   1      29.283  30.264  22.930  1.00  0.00     0.008 A 
ATOM     97  N   UNL A   1      27.561  29.476  22.131  1.00  0.00    -0.361 N 
ATOM     98  C   UNL A   1      28.674  30.251  21.668  1.00  0.00     0.046 A 
ATOM     99  C   UNL A   1      28.760  31.352  23.718  1.00  0.00     0.011 A 
ATOM    100  H   UNL A   1      26.645  29.532  21.771  1.00  0.00     0.166 HD
ATOM    101  C   UNL A   1      28.588  31.411  20.915  1.00  0.00     0.027 A 
ATOM    102  C   UNL A   1      28.092  32.409  23.049  1.00  0.00     0.001 A 
ATOM    103  C   UNL A   1      28.083  32.472  21.652  1.00  0.00     0.002 A 
ENDBRANCH  93  94
ENDBRANCH  90  92
ENDBRANCH  88  90
ENDBRANCH  86  88
ENDBRANCH  84  86
ENDBRANCH  78  80
ENDBRANCH  77  78
ENDBRANCH  76  77
ENDBRANCH  75  76
ENDBRANCH   1  75
TORSDOF 22
ENDMDL
MODEL 3
REMARK VINA RESULT:     -10.9      4.687      6.798
REMARK SMILES O=C(OCCOCCOCCOC(=O)c1cccc(NC(=S)N/N=C\c2c[nH]c3ccccc23)c1)c1ccc(-c2c3nc(c(-c4c(F)c(F)c(F)c(F)c4F)c4ccc([nH]4)c(-c4c(F)c(F)c(F)c(F)c4F)c4nc(c(-c5c(F)c(F)c(F)c(F)c5F)c5ccc2[nH]5)C=C4)C=C3)cc1
REMARK SMILES IDX 9 1 8 2 7 3 6 4 5 5 4 6 3 7 2 8 1 9 36 10 37 11 98 12 38 13
REMARK SMILES IDX 97 14 39 15 40 16 41 17 91 18 42 19 96 20 90 21 92 22 43 23
REMARK SMILES IDX 95 24 89 25 88 26 44 28 76 29 56 30 75 31 57 32 60 33 74 34
REMARK SMILES IDX 93 35 58 36 59 37 73 39 94 40 61 41 45 42 46 43 54 44 47 45
REMARK SMILES IDX 48 46 52 47 55 48 49 49 50 50 53 51 51 52 77 53 78 54 86 55
REMARK SMILES IDX 79 56 80 57 84 58 87 59 81 60 82 61 85 62 83 63 62 64 63 65
REMARK SMILES IDX 71 66 64 67 65 68 69 69 72 70 66 71 67 72 70 73 68 74 10 75
REMARK SMILES IDX 11 76 12 77 13 78 14 79 15 80 16 81 35 82 17 83 19 84 18 85
REMARK SMILES IDX 20 86 21 88 22 89 23 90 24 92 25 93 26 94 27 95 34 96 28 97
REMARK SMILES IDX 29 98 33 99 30 101 32 102 31 103
REMARK H PARENT 92 27 60 38 20 87 23 91 28 100
REMARK Flexibility Score: inf
ROOT
ATOM      1  O   UNL A   1      40.402  22.920  26.721  1.00  0.00    -0.376 OA
ENDROOT
BRANCH   1   2
ATOM      2  C   UNL A   1      40.987  22.211  27.803  1.00  0.00     0.188 C 
BRANCH   2   3
ATOM      3  C   UNL A   1      42.150  21.267  27.512  1.00  0.00     0.188 C 
BRANCH   3   4
ATOM      4  O   UNL A   1      41.801  19.903  27.289  1.00  0.00    -0.376 OA
BRANCH   4   5
ATOM      5  C   UNL A   1      42.199  19.374  26.019  1.00  0.00     0.202 C 
BRANCH   5   6
ATOM      6  C   UNL A   1      43.305  18.297  25.999  1.00  0.00     0.261 C 
BRANCH   6   7
ATOM      7  O   UNL A   1      44.286  18.389  24.939  1.00  0.00    -0.460 OA
BRANCH   7   8
ATOM      8  C   UNL A   1      44.607  19.378  24.074  1.00  0.00     0.338 C 
ATOM      9  O   UNL A   1      44.623  19.137  22.869  1.00  0.00    -0.246 OA
BRANCH   8  10
ATOM     10  C   UNL A   1      44.929  20.759  24.510  1.00  0.00     0.060 A 
ATOM     11  C   UNL A   1      45.573  21.055  25.701  1.00  0.00     0.016 A 
ATOM     12  C   UNL A   1      44.638  21.821  23.642  1.00  0.00     0.016 A 
ATOM     13  C   UNL A   1      45.746  22.359  26.128  1.00  0.00     0.010 A 
ATOM     14  C   UNL A   1      44.915  23.145  24.016  1.00  0.00     0.010 A 
ATOM     15  C   UNL A   1      45.423  23.422  25.294  1.00  0.00    -0.014 A 
BRANCH  15  16
ATOM     16  C   UNL A   1      45.479  24.794  25.849  1.00  0.00     0.031 A 
ATOM     17  C   UNL A   1      46.786  25.521  25.839  1.00  0.00     0.074 A 
ATOM     18  C   UNL A   1      44.366  25.500  26.126  1.00  0.00     0.049 A 
ATOM     19  N   UNL A   1      47.071  26.708  26.302  1.00  0.00    -0.248 NA
ATOM     20  C   UNL A   1      47.905  24.847  25.160  1.00  0.00     0.031 C 
ATOM     21  C   UNL A   1      43.001  25.050  25.880  1.00  0.00     0.029 A 
ATOM     22  N   UNL A   1      44.210  26.783  26.599  1.00  0.00    -0.354 N 
ATOM     23  C   UNL A   1      48.395  26.928  25.969  1.00  0.00     0.074 A 
ATOM     24  C   UNL A   1      48.872  25.739  25.295  1.00  0.00     0.031 C 
ATOM     25  C   UNL A   1      42.168  26.063  26.158  1.00  0.00     0.029 A 
ATOM     26  C   UNL A   1      42.896  27.132  26.794  1.00  0.00     0.049 A 
ATOM     27  H   UNL A   1      44.965  27.389  26.780  1.00  0.00     0.167 HD
ATOM     28  C   UNL A   1      49.138  28.035  26.191  1.00  0.00     0.037 A 
ATOM     29  C   UNL A   1      42.358  28.147  27.491  1.00  0.00     0.037 A 
ATOM     30  C   UNL A   1      48.660  29.218  26.849  1.00  0.00     0.049 A 
ATOM     31  C   UNL A   1      43.259  29.195  28.033  1.00  0.00     0.074 A 
ATOM     32  C   UNL A   1      49.349  30.382  27.144  1.00  0.00     0.029 A 
ATOM     33  N   UNL A   1      47.371  29.387  27.329  1.00  0.00    -0.354 N 
ATOM     34  N   UNL A   1      44.547  29.322  27.885  1.00  0.00    -0.248 NA
ATOM     35  C   UNL A   1      42.616  30.256  28.822  1.00  0.00     0.031 C 
ATOM     36  C   UNL A   1      48.502  31.221  27.873  1.00  0.00     0.029 A 
ATOM     37  C   UNL A   1      47.264  30.614  27.967  1.00  0.00     0.049 A 
ATOM     38  H   UNL A   1      46.641  28.734  27.232  1.00  0.00     0.167 HD
ATOM     39  C   UNL A   1      44.868  30.502  28.523  1.00  0.00     0.074 A 
ATOM     40  C   UNL A   1      43.647  31.036  29.087  1.00  0.00     0.031 C 
ATOM     41  C   UNL A   1      46.069  31.112  28.582  1.00  0.00     0.037 A 
BRANCH  28  42
ATOM     42  C   UNL A   1      50.577  27.965  25.798  1.00  0.00     0.064 A 
ATOM     43  C   UNL A   1      51.006  28.155  24.477  1.00  0.00     0.173 A 
ATOM     44  C   UNL A   1      51.541  27.682  26.776  1.00  0.00     0.173 A 
ATOM     45  F   UNL A   1      50.116  28.392  23.502  1.00  0.00    -0.203 F 
ATOM     46  C   UNL A   1      52.353  28.040  24.145  1.00  0.00     0.198 A 
ATOM     47  C   UNL A   1      52.888  27.600  26.447  1.00  0.00     0.198 A 
ATOM     48  F   UNL A   1      51.173  27.479  28.049  1.00  0.00    -0.203 F 
ATOM     49  F   UNL A   1      52.740  28.163  22.868  1.00  0.00    -0.200 F 
ATOM     50  C   UNL A   1      53.292  27.771  25.132  1.00  0.00     0.200 A 
ATOM     51  F   UNL A   1      53.792  27.344  27.402  1.00  0.00    -0.200 F 
ATOM     52  F   UNL A   1      54.589  27.661  24.810  1.00  0.00    -0.200 F 
ENDBRANCH  28  42
BRANCH  29  53
ATOM     53  C   UNL A   1      40.953  28.190  27.955  1.00  0.00     0.064 A 
ATOM     54  C   UNL A   1      39.944  28.901  27.293  1.00  0.00     0.173 A 
ATOM     55  C   UNL A   1      40.676  27.690  29.241  1.00  0.00     0.173 A 
ATOM     56  F   UNL A   1      40.189  29.458  26.099  1.00  0.00    -0.203 F 
ATOM     57  C   UNL A   1      38.694  29.086  27.891  1.00  0.00     0.198 A 
ATOM     58  C   UNL A   1      39.440  27.902  29.841  1.00  0.00     0.198 A 
ATOM     59  F   UNL A   1      41.614  27.012  29.918  1.00  0.00    -0.203 F 
ATOM     60  F   UNL A   1      37.738  29.770  27.249  1.00  0.00    -0.200 F 
ATOM     61  C   UNL A   1      38.442  28.584  29.162  1.00  0.00     0.200 A 
ATOM     62  F   UNL A   1      39.223  27.449  31.078  1.00  0.00    -0.200 F 
ATOM     63  F   UNL A   1      37.240  28.746  29.731  1.00  0.00    -0.200 F 
ENDBRANCH  29  53
BRANCH  41  64
ATOM     64  C   UNL A   1      46.072  32.456  29.228  1.00  0.00     0.064 A 
ATOM     65  C   UNL A   1      45.814  33.628  28.503  1.00  0.00     0.173 A 
ATOM     66  C   UNL A   1      46.446  32.570  30.574  1.00  0.00     0.173 A 
ATOM     67  F   UNL A   1      45.522  33.563  27.195  1.00  0.00    -0.203 F 
ATOM     68  C   UNL A   1      45.966  34.874  29.099  1.00  0.00     0.198 A 
ATOM     69  C   UNL A   1      46.556  33.816  31.176  1.00  0.00     0.198 A 
ATOM     70  F   UNL A   1      46.738  31.475  31.292  1.00  0.00    -0.203 F 
ATOM     71  F   UNL A   1      45.810  35.986  28.367  1.00  0.00    -0.200 F 
ATOM     72  C   UNL A   1      46.327  34.967  30.435  1.00  0.00     0.200 A 
ATOM     73  F   UNL A   1      46.912  33.904  32.464  1.00  0.00    -0.200 F 
ATOM     74  F   UNL A   1      46.484  36.169  31.005  1.00  0.00    -0.200 F 
ENDBRANCH  41  64
ENDBRANCH  15  16
ENDBRANCH   8  10
ENDBRANCH   7   8
ENDBRANCH   6   7
ENDBRANCH   5   6
ENDBRANCH   4   5
ENDBRANCH   3   4
ENDBRANCH   2   3
ENDBRANCH   1   2
BRANCH   1  75
ATOM     75  C   UNL A   1      39.013  22.747  26.467  1.00  0.00     0.202 C 
BRANCH  75  76
ATOM     76  C   UNL A   1      38.555  21.504  25.695  1.00  0.00     0.261 C 
BRANCH  76  77
ATOM     77  O   UNL A   1      37.139  21.350  25.619  1.00  0.00    -0.460 OA
BRANCH  77  78
ATOM     78  C   UNL A   1      36.552  21.852  24.503  1.00  0.00     0.338 C 
ATOM     79  O   UNL A   1      37.051  22.454  23.582  1.00  0.00    -0.246 OA
BRANCH  78  80
ATOM     80  C   UNL A   1      35.122  21.579  24.653  1.00  0.00     0.062 A 
ATOM     81  C   UNL A   1      34.556  20.327  24.889  1.00  0.00     0.016 A 
ATOM     82  C   UNL A   1      34.332  22.692  24.487  1.00  0.00     0.041 A 
ATOM     83  C   UNL A   1      33.164  20.219  24.994  1.00  0.00     0.003 A 
ATOM     84  C   UNL A   1      32.958  22.559  24.492  1.00  0.00     0.041 A 
ATOM     85  C   UNL A   1      32.358  21.342  24.790  1.00  0.00     0.026 A 
BRANCH  84  86
ATOM     86  N   UNL A   1      32.336  23.739  24.160  1.00  0.00    -0.331 N 
ATOM     87  H   UNL A   1      31.957  24.196  24.944  1.00  0.00     0.169 HD
BRANCH  86  88
ATOM     88  C   UNL A   1      32.124  24.408  23.035  1.00  0.00     0.191 C 
ATOM     89  S   UNL A   1      32.962  23.694  21.763  1.00  0.00    -0.039 S 
BRANCH  88  90
ATOM     90  N   UNL A   1      31.222  25.408  22.879  1.00  0.00    -0.254 N 
ATOM     91  H   UNL A   1      30.369  25.345  23.366  1.00  0.00     0.193 HD
BRANCH  90  92
ATOM     92  N   UNL A   1      31.437  26.512  22.074  1.00  0.00    -0.181 NA
ATOM     93  C   UNL A   1      31.269  27.726  22.547  1.00  0.00     0.143 C 
BRANCH  93  94
ATOM     94  C   UNL A   1      31.035  28.115  23.949  1.00  0.00     0.020 A 
ATOM     95  C   UNL A   1      30.723  29.420  24.278  1.00  0.00     0.093 A 
ATOM     96  C   UNL A   1      31.769  27.801  25.149  1.00  0.00     0.008 A 
ATOM     97  N   UNL A   1      31.975  29.815  24.793  1.00  0.00    -0.361 N 
ATOM     98  C   UNL A   1      32.837  28.676  24.909  1.00  0.00     0.046 A 
ATOM     99  C   UNL A   1      31.449  27.791  26.554  1.00  0.00     0.011 A 
ATOM    100  H   UNL A   1      32.221  30.737  25.038  1.00  0.00     0.166 HD
ATOM    101  C   UNL A   1      33.988  28.613  25.678  1.00  0.00     0.027 A 
ATOM    102  C   UNL A   1      32.416  28.277  27.471  1.00  0.00     0.001 A 
ATOM    103  C   UNL A   1      33.703  28.607  27.036  1.00  0.00     0.002 A 
ENDBRANCH  93  94
ENDBRANCH  90  92
ENDBRANCH  88  90
ENDBRANCH  86  88
ENDBRANCH  84  86
ENDBRANCH  78  80
ENDBRANCH  77  78
ENDBRANCH  76  77
ENDBRANCH  75  76
ENDBRANCH   1  75
TORSDOF 22
ENDMDL
