MODEL 1
REMARK VINA RESULT:     -10.3      0.000      0.000
REMARK SMILES CCN(C)S(=O)(=O)c1ccc(C(=O)OCCOCCOCCOC(=O)c2ccc(-c3c4nc(c(-c5c(F)c(F)c(F)c(F)c5F)c5ccc([nH]5)c(-c5c(F)c(F)c(F)c(F)c5F)c5nc(c(-c6c(F)c(F)c(F)c(F)c6F)c6ccc3[nH]6)C=C5)C=C4)cc2)cc1
REMARK SMILES IDX 18 1 17 2 16 3 15 4 14 5 12 6 13 7 11 8 8 9 9 10 90 11 10 12
REMARK SMILES IDX 89 13 5 14 6 15 7 16 3 17 4 18 2 19 1 20 19 21 20 22 21 23
REMARK SMILES IDX 22 24 23 25 24 26 25 27 26 28 27 29 88 30 28 31 87 32 29 33
REMARK SMILES IDX 30 34 31 35 81 36 32 37 86 38 80 39 82 40 33 41 85 42 79 43
REMARK SMILES IDX 78 44 34 46 66 47 46 48 65 49 47 50 50 51 64 52 83 53 48 54
REMARK SMILES IDX 49 55 63 57 84 58 51 59 35 60 36 61 44 62 37 63 38 64 42 65
REMARK SMILES IDX 45 66 39 67 40 68 43 69 41 70 67 71 68 72 76 73 69 74 70 75
REMARK SMILES IDX 74 76 77 77 71 78 72 79 75 80 73 81 52 82 53 83 61 84 54 85
REMARK SMILES IDX 55 86 59 87 62 88 56 89 57 90 60 91 58 92
REMARK H PARENT 82 45 50 56
REMARK Flexibility Score: inf
ROOT
ATOM      1  C   UNL A   1      40.049  21.791  26.927  1.00  0.00     0.188 C 
ENDROOT
BRANCH   1   2
ATOM      2  O   UNL A   1      39.717  23.155  27.026  1.00  0.00    -0.376 OA
BRANCH   2   3
ATOM      3  C   UNL A   1      38.499  23.649  26.493  1.00  0.00     0.202 C 
BRANCH   3   4
ATOM      4  C   UNL A   1      37.539  22.883  25.561  1.00  0.00     0.261 C 
BRANCH   4   5
ATOM      5  O   UNL A   1      36.325  22.374  26.123  1.00  0.00    -0.460 OA
BRANCH   5   6
ATOM      6  C   UNL A   1      35.431  21.892  25.223  1.00  0.00     0.338 C 
ATOM      7  O   UNL A   1      35.090  20.728  25.090  1.00  0.00    -0.246 OA
BRANCH   6   8
ATOM      8  C   UNL A   1      34.729  23.006  24.544  1.00  0.00     0.060 A 
ATOM      9  C   UNL A   1      33.475  25.042  23.096  1.00  0.00     0.082 A 
ATOM     10  C   UNL A   1      33.513  23.743  22.578  1.00  0.00     0.022 A 
ATOM     11  C   UNL A   1      34.026  25.317  24.357  1.00  0.00     0.022 A 
ATOM     12  C   UNL A   1      34.136  22.728  23.303  1.00  0.00     0.017 A 
ATOM     13  C   UNL A   1      34.648  24.294  25.088  1.00  0.00     0.017 A 
BRANCH   9  14
ATOM     14  S   UNL A   1      33.015  26.385  22.009  1.00  0.00     0.242 S 
ATOM     15  O   UNL A   1      33.276  25.952  20.654  1.00  0.00    -0.207 OA
ATOM     16  O   UNL A   1      33.656  27.573  22.541  1.00  0.00    -0.207 OA
BRANCH  14  17
ATOM     17  N   UNL A   1      31.309  26.560  22.168  1.00  0.00    -0.201 NA
ATOM     18  C   UNL A   1      30.864  27.965  22.379  1.00  0.00     0.124 C 
BRANCH  17  19
ATOM     19  C   UNL A   1      30.725  25.696  23.255  1.00  0.00     0.099 C 
ATOM     20  C   UNL A   1      29.987  26.482  24.322  1.00  0.00     0.022 C 
ENDBRANCH  17  19
ENDBRANCH  14  17
ENDBRANCH   9  14
ENDBRANCH   6   8
ENDBRANCH   5   6
ENDBRANCH   4   5
ENDBRANCH   3   4
ENDBRANCH   2   3
ENDBRANCH   1   2
BRANCH   1  21
ATOM     21  C   UNL A   1      41.380  21.415  26.245  1.00  0.00     0.188 C 
BRANCH  21  22
ATOM     22  O   UNL A   1      42.191  20.388  26.775  1.00  0.00    -0.376 OA
BRANCH  22  23
ATOM     23  C   UNL A   1      42.199  19.106  26.170  1.00  0.00     0.202 C 
BRANCH  23  24
ATOM     24  C   UNL A   1      43.477  18.400  25.680  1.00  0.00     0.261 C 
BRANCH  24  25
ATOM     25  O   UNL A   1      43.884  18.656  24.332  1.00  0.00    -0.460 OA
BRANCH  25  26
ATOM     26  C   UNL A   1      45.081  19.276  24.191  1.00  0.00     0.338 C 
ATOM     27  O   UNL A   1      46.103  18.828  23.700  1.00  0.00    -0.246 OA
BRANCH  26  28
ATOM     28  C   UNL A   1      44.932  20.686  24.587  1.00  0.00     0.060 A 
ATOM     29  C   UNL A   1      44.399  21.607  23.671  1.00  0.00     0.016 A 
ATOM     30  C   UNL A   1      45.357  21.097  25.848  1.00  0.00     0.016 A 
ATOM     31  C   UNL A   1      44.288  22.953  24.018  1.00  0.00     0.010 A 
ATOM     32  C   UNL A   1      45.272  22.448  26.182  1.00  0.00     0.010 A 
ATOM     33  C   UNL A   1      44.758  23.384  25.264  1.00  0.00    -0.014 A 
BRANCH  33  34
ATOM     34  C   UNL A   1      44.897  24.825  25.570  1.00  0.00     0.031 A 
ATOM     35  C   UNL A   1      46.252  25.451  25.411  1.00  0.00     0.074 A 
ATOM     36  C   UNL A   1      43.865  25.543  26.044  1.00  0.00     0.049 A 
ATOM     37  N   UNL A   1      46.683  26.619  25.813  1.00  0.00    -0.248 NA
ATOM     38  C   UNL A   1      47.262  24.640  24.713  1.00  0.00     0.031 C 
ATOM     39  C   UNL A   1      42.494  25.062  26.186  1.00  0.00     0.029 A 
ATOM     40  N   UNL A   1      43.827  26.827  26.529  1.00  0.00    -0.354 N 
ATOM     41  C   UNL A   1      48.020  26.670  25.443  1.00  0.00     0.074 A 
ATOM     42  C   UNL A   1      48.334  25.415  24.797  1.00  0.00     0.031 C 
ATOM     43  C   UNL A   1      41.752  26.027  26.757  1.00  0.00     0.029 A 
ATOM     44  C   UNL A   1      42.611  27.170  27.068  1.00  0.00     0.049 A 
ATOM     45  H   UNL A   1      44.596  27.441  26.495  1.00  0.00     0.167 HD
ATOM     46  C   UNL A   1      48.905  27.676  25.632  1.00  0.00     0.037 A 
ATOM     47  C   UNL A   1      42.252  28.262  27.774  1.00  0.00     0.037 A 
ATOM     48  C   UNL A   1      48.583  28.916  26.285  1.00  0.00     0.049 A 
ATOM     49  C   UNL A   1      43.279  29.332  28.053  1.00  0.00     0.074 A 
ATOM     50  C   UNL A   1      49.403  30.006  26.519  1.00  0.00     0.029 A 
ATOM     51  N   UNL A   1      47.340  29.226  26.821  1.00  0.00    -0.354 N 
ATOM     52  N   UNL A   1      44.540  29.385  27.697  1.00  0.00    -0.248 NA
ATOM     53  C   UNL A   1      42.833  30.495  28.837  1.00  0.00     0.031 C 
ATOM     54  C   UNL A   1      48.676  30.948  27.252  1.00  0.00     0.029 A 
ATOM     55  C   UNL A   1      47.380  30.480  27.405  1.00  0.00     0.049 A 
ATOM     56  H   UNL A   1      46.550  28.641  26.789  1.00  0.00     0.167 HD
ATOM     57  C   UNL A   1      45.023  30.600  28.167  1.00  0.00     0.074 A 
ATOM     58  C   UNL A   1      43.922  31.253  28.842  1.00  0.00     0.031 C 
ATOM     59  C   UNL A   1      46.263  31.132  28.042  1.00  0.00     0.037 A 
BRANCH  46  60
ATOM     60  C   UNL A   1      50.315  27.460  25.167  1.00  0.00     0.064 A 
ATOM     61  C   UNL A   1      50.696  27.668  23.833  1.00  0.00     0.173 A 
ATOM     62  C   UNL A   1      51.308  27.067  26.078  1.00  0.00     0.173 A 
ATOM     63  F   UNL A   1      49.783  28.029  22.918  1.00  0.00    -0.203 F 
ATOM     64  C   UNL A   1      52.012  27.466  23.424  1.00  0.00     0.198 A 
ATOM     65  C   UNL A   1      52.629  26.900  25.673  1.00  0.00     0.198 A 
ATOM     66  F   UNL A   1      51.000  26.857  27.366  1.00  0.00    -0.203 F 
ATOM     67  F   UNL A   1      52.340  27.619  22.133  1.00  0.00    -0.200 F 
ATOM     68  C   UNL A   1      52.977  27.090  24.345  1.00  0.00     0.200 A 
ATOM     69  F   UNL A   1      53.563  26.553  26.568  1.00  0.00    -0.200 F 
ATOM     70  F   UNL A   1      54.245  26.906  23.950  1.00  0.00    -0.200 F 
ENDBRANCH  46  60
BRANCH  47  71
ATOM     71  C   UNL A   1      40.863  28.391  28.291  1.00  0.00     0.064 A 
ATOM     72  C   UNL A   1      39.849  28.948  27.499  1.00  0.00     0.173 A 
ATOM     73  C   UNL A   1      40.524  27.988  29.592  1.00  0.00     0.173 A 
ATOM     74  F   UNL A   1      40.127  29.374  26.259  1.00  0.00    -0.203 F 
ATOM     75  C   UNL A   1      38.557  29.116  27.995  1.00  0.00     0.198 A 
ATOM     76  C   UNL A   1      39.226  28.125  30.075  1.00  0.00     0.198 A 
ATOM     77  F   UNL A   1      41.458  27.452  30.393  1.00  0.00    -0.203 F 
ATOM     78  F   UNL A   1      37.622  29.701  27.236  1.00  0.00    -0.200 F 
ATOM     79  C   UNL A   1      38.244  28.698  29.280  1.00  0.00     0.200 A 
ATOM     80  F   UNL A   1      38.925  27.709  31.313  1.00  0.00    -0.200 F 
ATOM     81  F   UNL A   1      37.002  28.860  29.756  1.00  0.00    -0.200 F 
ENDBRANCH  47  71
BRANCH  59  82
ATOM     82  C   UNL A   1      46.494  32.522  28.565  1.00  0.00     0.064 A 
ATOM     83  C   UNL A   1      46.262  33.662  27.783  1.00  0.00     0.173 A 
ATOM     84  C   UNL A   1      46.861  32.709  29.908  1.00  0.00     0.173 A 
ATOM     85  F   UNL A   1      45.922  33.537  26.492  1.00  0.00    -0.203 F 
ATOM     86  C   UNL A   1      46.397  34.938  28.325  1.00  0.00     0.198 A 
ATOM     87  C   UNL A   1      46.963  33.984  30.454  1.00  0.00     0.198 A 
ATOM     88  F   UNL A   1      47.087  31.649  30.700  1.00  0.00    -0.203 F 
ATOM     89  F   UNL A   1      46.199  36.016  27.553  1.00  0.00    -0.200 F 
ATOM     90  C   UNL A   1      46.734  35.098  29.662  1.00  0.00     0.200 A 
ATOM     91  F   UNL A   1      47.269  34.134  31.750  1.00  0.00    -0.200 F 
ATOM     92  F   UNL A   1      46.837  36.327  30.187  1.00  0.00    -0.200 F 
ENDBRANCH  59  82
ENDBRANCH  33  34
ENDBRANCH  26  28
ENDBRANCH  25  26
ENDBRANCH  24  25
ENDBRANCH  23  24
ENDBRANCH  22  23
ENDBRANCH  21  22
ENDBRANCH   1  21
TORSDOF 20
ENDMDL
MODEL 2
REMARK VINA RESULT:     -10.2      0.512      2.112
REMARK SMILES CCN(C)S(=O)(=O)c1ccc(C(=O)OCCOCCOCCOC(=O)c2ccc(-c3c4nc(c(-c5c(F)c(F)c(F)c(F)c5F)c5ccc([nH]5)c(-c5c(F)c(F)c(F)c(F)c5F)c5nc(c(-c6c(F)c(F)c(F)c(F)c6F)c6ccc3[nH]6)C=C5)C=C4)cc2)cc1
REMARK SMILES IDX 18 1 17 2 16 3 15 4 14 5 12 6 13 7 11 8 8 9 9 10 90 11 10 12
REMARK SMILES IDX 89 13 5 14 6 15 7 16 3 17 4 18 2 19 1 20 19 21 20 22 21 23
REMARK SMILES IDX 22 24 23 25 24 26 25 27 26 28 27 29 88 30 28 31 87 32 29 33
REMARK SMILES IDX 30 34 31 35 81 36 32 37 86 38 80 39 82 40 33 41 85 42 79 43
REMARK SMILES IDX 78 44 34 46 66 47 46 48 65 49 47 50 50 51 64 52 83 53 48 54
REMARK SMILES IDX 49 55 63 57 84 58 51 59 35 60 36 61 44 62 37 63 38 64 42 65
REMARK SMILES IDX 45 66 39 67 40 68 43 69 41 70 67 71 68 72 76 73 69 74 70 75
REMARK SMILES IDX 74 76 77 77 71 78 72 79 75 80 73 81 52 82 53 83 61 84 54 85
REMARK SMILES IDX 55 86 59 87 62 88 56 89 57 90 60 91 58 92
REMARK H PARENT 82 45 50 56
REMARK Flexibility Score: inf
ROOT
ATOM      1  C   UNL A   1      40.755  22.060  27.613  1.00  0.00     0.188 C 
ENDROOT
BRANCH   1   2
ATOM      2  O   UNL A   1      39.970  22.436  26.508  1.00  0.00    -0.376 OA
BRANCH   2   3
ATOM      3  C   UNL A   1      38.940  21.589  26.025  1.00  0.00     0.202 C 
BRANCH   3   4
ATOM      4  C   UNL A   1      37.727  22.028  25.180  1.00  0.00     0.261 C 
BRANCH   4   5
ATOM      5  O   UNL A   1      36.481  22.230  25.854  1.00  0.00    -0.460 OA
BRANCH   5   6
ATOM      6  C   UNL A   1      35.381  21.839  25.162  1.00  0.00     0.338 C 
ATOM      7  O   UNL A   1      34.825  20.755  25.234  1.00  0.00    -0.246 OA
BRANCH   6   8
ATOM      8  C   UNL A   1      34.782  22.992  24.448  1.00  0.00     0.060 A 
ATOM      9  C   UNL A   1      33.571  25.217  23.268  1.00  0.00     0.082 A 
ATOM     10  C   UNL A   1      34.121  25.324  24.550  1.00  0.00     0.022 A 
ATOM     11  C   UNL A   1      33.664  24.011  22.557  1.00  0.00     0.022 A 
ATOM     12  C   UNL A   1      34.727  24.213  25.136  1.00  0.00     0.017 A 
ATOM     13  C   UNL A   1      34.279  22.896  23.145  1.00  0.00     0.017 A 
BRANCH   9  14
ATOM     14  S   UNL A   1      32.485  26.514  22.690  1.00  0.00     0.242 S 
ATOM     15  O   UNL A   1      31.777  26.002  21.537  1.00  0.00    -0.207 OA
ATOM     16  O   UNL A   1      33.301  27.708  22.584  1.00  0.00    -0.207 OA
BRANCH  14  17
ATOM     17  N   UNL A   1      31.322  26.750  23.938  1.00  0.00    -0.201 NA
ATOM     18  C   UNL A   1      30.215  25.754  23.927  1.00  0.00     0.124 C 
BRANCH  17  19
ATOM     19  C   UNL A   1      30.729  28.135  23.939  1.00  0.00     0.099 C 
ATOM     20  C   UNL A   1      29.610  28.315  22.931  1.00  0.00     0.022 C 
ENDBRANCH  17  19
ENDBRANCH  14  17
ENDBRANCH   9  14
ENDBRANCH   6   8
ENDBRANCH   5   6
ENDBRANCH   4   5
ENDBRANCH   3   4
ENDBRANCH   2   3
ENDBRANCH   1   2
BRANCH   1  21
ATOM     21  C   UNL A   1      41.954  21.122  27.367  1.00  0.00     0.188 C 
BRANCH  21  22
ATOM     22  O   UNL A   1      41.773  19.722  27.324  1.00  0.00    -0.376 OA
BRANCH  22  23
ATOM     23  C   UNL A   1      42.027  19.010  26.125  1.00  0.00     0.202 C 
BRANCH  23  24
ATOM     24  C   UNL A   1      43.414  18.469  25.729  1.00  0.00     0.261 C 
BRANCH  24  25
ATOM     25  O   UNL A   1      43.820  18.657  24.370  1.00  0.00    -0.460 OA
BRANCH  25  26
ATOM     26  C   UNL A   1      45.015  19.272  24.197  1.00  0.00     0.338 C 
ATOM     27  O   UNL A   1      46.022  18.822  23.679  1.00  0.00    -0.246 OA
BRANCH  26  28
ATOM     28  C   UNL A   1      44.883  20.682  24.600  1.00  0.00     0.060 A 
ATOM     29  C   UNL A   1      44.326  21.606  23.702  1.00  0.00     0.016 A 
ATOM     30  C   UNL A   1      45.346  21.090  25.849  1.00  0.00     0.016 A 
ATOM     31  C   UNL A   1      44.230  22.953  24.054  1.00  0.00     0.010 A 
ATOM     32  C   UNL A   1      45.275  22.441  26.187  1.00  0.00     0.010 A 
ATOM     33  C   UNL A   1      44.738  23.380  25.286  1.00  0.00    -0.014 A 
BRANCH  33  34
ATOM     34  C   UNL A   1      44.891  24.820  25.591  1.00  0.00     0.031 A 
ATOM     35  C   UNL A   1      46.250  25.434  25.425  1.00  0.00     0.074 A 
ATOM     36  C   UNL A   1      43.867  25.547  26.068  1.00  0.00     0.049 A 
ATOM     37  N   UNL A   1      46.693  26.598  25.825  1.00  0.00    -0.248 NA
ATOM     38  C   UNL A   1      47.250  24.614  24.724  1.00  0.00     0.031 C 
ATOM     39  C   UNL A   1      42.492  25.078  26.216  1.00  0.00     0.029 A 
ATOM     40  N   UNL A   1      43.842  26.832  26.552  1.00  0.00    -0.354 N 
ATOM     41  C   UNL A   1      48.029  26.637  25.449  1.00  0.00     0.074 A 
ATOM     42  C   UNL A   1      48.329  25.379  24.803  1.00  0.00     0.031 C 
ATOM     43  C   UNL A   1      41.761  26.051  26.790  1.00  0.00     0.029 A 
ATOM     44  C   UNL A   1      42.631  27.186  27.095  1.00  0.00     0.049 A 
ATOM     45  H   UNL A   1      44.616  27.440  26.515  1.00  0.00     0.167 HD
ATOM     46  C   UNL A   1      48.924  27.636  25.634  1.00  0.00     0.037 A 
ATOM     47  C   UNL A   1      42.285  28.282  27.802  1.00  0.00     0.037 A 
ATOM     48  C   UNL A   1      48.615  28.880  26.287  1.00  0.00     0.049 A 
ATOM     49  C   UNL A   1      43.323  29.343  28.076  1.00  0.00     0.074 A 
ATOM     50  C   UNL A   1      49.445  29.962  26.516  1.00  0.00     0.029 A 
ATOM     51  N   UNL A   1      47.377  29.201  26.827  1.00  0.00    -0.354 N 
ATOM     52  N   UNL A   1      44.582  29.385  27.715  1.00  0.00    -0.248 NA
ATOM     53  C   UNL A   1      42.890  30.510  28.861  1.00  0.00     0.031 C 
ATOM     54  C   UNL A   1      48.730  30.911  27.251  1.00  0.00     0.029 A 
ATOM     55  C   UNL A   1      47.430  30.455  27.410  1.00  0.00     0.049 A 
ATOM     56  H   UNL A   1      46.582  28.622  26.799  1.00  0.00     0.167 HD
ATOM     57  C   UNL A   1      45.077  30.596  28.182  1.00  0.00     0.074 A 
ATOM     58  C   UNL A   1      43.985  31.259  28.861  1.00  0.00     0.031 C 
ATOM     59  C   UNL A   1      46.322  31.117  28.051  1.00  0.00     0.037 A 
BRANCH  46  60
ATOM     60  C   UNL A   1      50.329  27.407  25.162  1.00  0.00     0.064 A 
ATOM     61  C   UNL A   1      51.345  26.989  26.035  1.00  0.00     0.173 A 
ATOM     62  C   UNL A   1      50.658  27.577  23.808  1.00  0.00     0.173 A 
ATOM     63  F   UNL A   1      51.089  26.825  27.341  1.00  0.00    -0.203 F 
ATOM     64  C   UNL A   1      52.643  26.777  25.574  1.00  0.00     0.198 A 
ATOM     65  C   UNL A   1      51.946  27.331  23.345  1.00  0.00     0.198 A 
ATOM     66  F   UNL A   1      49.724  27.973  22.930  1.00  0.00    -0.203 F 
ATOM     67  F   UNL A   1      53.609  26.431  26.436  1.00  0.00    -0.200 F 
ATOM     68  C   UNL A   1      52.940  26.941  24.229  1.00  0.00     0.200 A 
ATOM     69  F   UNL A   1      52.227  27.475  22.043  1.00  0.00    -0.200 F 
ATOM     70  F   UNL A   1      54.187  26.727  23.787  1.00  0.00    -0.200 F 
ENDBRANCH  46  60
BRANCH  47  71
ATOM     71  C   UNL A   1      40.899  28.424  28.325  1.00  0.00     0.064 A 
ATOM     72  C   UNL A   1      40.575  28.013  29.626  1.00  0.00     0.173 A 
ATOM     73  C   UNL A   1      39.866  28.947  27.532  1.00  0.00     0.173 A 
ATOM     74  F   UNL A   1      41.520  27.481  30.414  1.00  0.00    -0.203 F 
ATOM     75  C   UNL A   1      39.268  28.099  30.105  1.00  0.00     0.198 A 
ATOM     76  C   UNL A   1      38.568  29.063  28.023  1.00  0.00     0.198 A 
ATOM     77  F   UNL A   1      40.121  29.351  26.278  1.00  0.00    -0.203 F 
ATOM     78  F   UNL A   1      38.977  27.648  31.332  1.00  0.00    -0.200 F 
ATOM     79  C   UNL A   1      38.268  28.631  29.306  1.00  0.00     0.200 A 
ATOM     80  F   UNL A   1      37.606  29.589  27.251  1.00  0.00    -0.200 F 
ATOM     81  F   UNL A   1      37.013  28.714  29.767  1.00  0.00    -0.200 F 
ENDBRANCH  47  71
BRANCH  59  82
ATOM     82  C   UNL A   1      46.567  32.505  28.572  1.00  0.00     0.064 A 
ATOM     83  C   UNL A   1      47.013  32.745  29.879  1.00  0.00     0.173 A 
ATOM     84  C   UNL A   1      46.445  33.605  27.707  1.00  0.00     0.173 A 
ATOM     85  F   UNL A   1      47.134  31.730  30.748  1.00  0.00    -0.203 F 
ATOM     86  C   UNL A   1      47.320  34.036  30.303  1.00  0.00     0.198 A 
ATOM     87  C   UNL A   1      46.784  34.889  28.124  1.00  0.00     0.198 A 
ATOM     88  F   UNL A   1      46.031  33.428  26.443  1.00  0.00    -0.203 F 
ATOM     89  F   UNL A   1      47.717  34.247  31.565  1.00  0.00    -0.200 F 
ATOM     90  C   UNL A   1      47.218  35.103  29.422  1.00  0.00     0.200 A 
ATOM     91  F   UNL A   1      46.704  35.914  27.265  1.00  0.00    -0.200 F 
ATOM     92  F   UNL A   1      47.540  36.341  29.825  1.00  0.00    -0.200 F 
ENDBRANCH  59  82
ENDBRANCH  33  34
ENDBRANCH  26  28
ENDBRANCH  25  26
ENDBRANCH  24  25
ENDBRANCH  23  24
ENDBRANCH  22  23
ENDBRANCH  21  22
ENDBRANCH   1  21
TORSDOF 20
ENDMDL
MODEL 3
REMARK VINA RESULT:     -10.1      6.605     11.017
REMARK SMILES CCN(C)S(=O)(=O)c1ccc(C(=O)OCCOCCOCCOC(=O)c2ccc(-c3c4nc(c(-c5c(F)c(F)c(F)c(F)c5F)c5ccc([nH]5)c(-c5c(F)c(F)c(F)c(F)c5F)c5nc(c(-c6c(F)c(F)c(F)c(F)c6F)c6ccc3[nH]6)C=C5)C=C4)cc2)cc1
REMARK SMILES IDX 18 1 17 2 16 3 15 4 14 5 12 6 13 7 11 8 8 9 9 10 90 11 10 12
REMARK SMILES IDX 89 13 5 14 6 15 7 16 3 17 4 18 2 19 1 20 19 21 20 22 21 23
REMARK SMILES IDX 22 24 23 25 24 26 25 27 26 28 27 29 88 30 28 31 87 32 29 33
REMARK SMILES IDX 30 34 31 35 81 36 32 37 86 38 80 39 82 40 33 41 85 42 79 43
REMARK SMILES IDX 78 44 34 46 66 47 46 48 65 49 47 50 50 51 64 52 83 53 48 54
REMARK SMILES IDX 49 55 63 57 84 58 51 59 35 60 36 61 44 62 37 63 38 64 42 65
REMARK SMILES IDX 45 66 39 67 40 68 43 69 41 70 67 71 68 72 76 73 69 74 70 75
REMARK SMILES IDX 74 76 77 77 71 78 72 79 75 80 73 81 52 82 53 83 61 84 54 85
REMARK SMILES IDX 55 86 59 87 62 88 56 89 57 90 60 91 58 92
REMARK H PARENT 82 45 50 56
REMARK Flexibility Score: inf
ROOT
ATOM      1  C   UNL A   1      33.770  27.724  25.689  1.00  0.00     0.188 C 
ENDROOT
BRANCH   1   2
ATOM      2  O   UNL A   1      34.255  28.574  24.678  1.00  0.00    -0.376 OA
BRANCH   2   3
ATOM      3  C   UNL A   1      33.898  28.369  23.320  1.00  0.00     0.202 C 
BRANCH   3   4
ATOM      4  C   UNL A   1      32.639  28.920  22.621  1.00  0.00     0.261 C 
BRANCH   4   5
ATOM      5  O   UNL A   1      31.428  28.988  23.381  1.00  0.00    -0.460 OA
BRANCH   5   6
ATOM      6  C   UNL A   1      30.438  28.160  22.962  1.00  0.00     0.338 C 
ATOM      7  O   UNL A   1      29.701  28.334  22.004  1.00  0.00    -0.246 OA
BRANCH   6   8
ATOM      8  C   UNL A   1      30.496  26.872  23.692  1.00  0.00     0.060 A 
ATOM      9  C   UNL A   1      30.698  24.535  25.212  1.00  0.00     0.082 A 
ATOM     10  C   UNL A   1      30.400  25.748  25.841  1.00  0.00     0.022 A 
ATOM     11  C   UNL A   1      30.854  24.479  23.819  1.00  0.00     0.022 A 
ATOM     12  C   UNL A   1      30.297  26.913  25.080  1.00  0.00     0.017 A 
ATOM     13  C   UNL A   1      30.744  25.650  23.054  1.00  0.00     0.017 A 
BRANCH   9  14
ATOM     14  S   UNL A   1      31.191  23.144  26.222  1.00  0.00     0.242 S 
ATOM     15  O   UNL A   1      30.212  22.098  26.023  1.00  0.00    -0.207 OA
ATOM     16  O   UNL A   1      31.444  23.676  27.547  1.00  0.00    -0.207 OA
BRANCH  14  17
ATOM     17  N   UNL A   1      32.678  22.581  25.560  1.00  0.00    -0.201 NA
ATOM     18  C   UNL A   1      32.681  21.129  25.232  1.00  0.00     0.124 C 
BRANCH  17  19
ATOM     19  C   UNL A   1      33.867  22.884  26.436  1.00  0.00     0.099 C 
ATOM     20  C   UNL A   1      34.340  21.693  27.247  1.00  0.00     0.022 C 
ENDBRANCH  17  19
ENDBRANCH  14  17
ENDBRANCH   9  14
ENDBRANCH   6   8
ENDBRANCH   5   6
ENDBRANCH   4   5
ENDBRANCH   3   4
ENDBRANCH   2   3
ENDBRANCH   1   2
BRANCH   1  21
ATOM     21  C   UNL A   1      33.302  28.363  27.012  1.00  0.00     0.188 C 
BRANCH  21  22
ATOM     22  O   UNL A   1      33.729  29.660  27.372  1.00  0.00    -0.376 OA
BRANCH  22  23
ATOM     23  C   UNL A   1      32.878  30.773  27.157  1.00  0.00     0.202 C 
BRANCH  23  24
ATOM     24  C   UNL A   1      33.336  32.237  27.293  1.00  0.00     0.261 C 
BRANCH  24  25
ATOM     25  O   UNL A   1      32.525  33.099  28.098  1.00  0.00    -0.460 OA
BRANCH  25  26
ATOM     26  C   UNL A   1      33.095  34.277  28.450  1.00  0.00     0.338 C 
ATOM     27  O   UNL A   1      32.656  35.402  28.281  1.00  0.00    -0.246 OA
BRANCH  26  28
ATOM     28  C   UNL A   1      34.303  33.998  29.243  1.00  0.00     0.060 A 
ATOM     29  C   UNL A   1      35.550  34.451  28.783  1.00  0.00     0.016 A 
ATOM     30  C   UNL A   1      34.202  33.256  30.417  1.00  0.00     0.016 A 
ATOM     31  C   UNL A   1      36.709  34.160  29.504  1.00  0.00     0.010 A 
ATOM     32  C   UNL A   1      35.365  32.941  31.120  1.00  0.00     0.010 A 
ATOM     33  C   UNL A   1      36.622  33.373  30.658  1.00  0.00    -0.014 A 
BRANCH  33  34
ATOM     34  C   UNL A   1      37.838  32.829  31.303  1.00  0.00     0.031 A 
ATOM     35  C   UNL A   1      38.522  31.665  30.647  1.00  0.00     0.074 A 
ATOM     36  C   UNL A   1      38.283  33.311  32.475  1.00  0.00     0.049 A 
ATOM     37  N   UNL A   1      39.458  30.879  31.113  1.00  0.00    -0.248 NA
ATOM     38  C   UNL A   1      38.077  31.336  29.284  1.00  0.00     0.031 C 
ATOM     39  C   UNL A   1      37.739  34.471  33.176  1.00  0.00     0.029 A 
ATOM     40  N   UNL A   1      39.279  32.851  33.301  1.00  0.00    -0.354 N 
ATOM     41  C   UNL A   1      39.692  29.946  30.111  1.00  0.00     0.074 A 
ATOM     42  C   UNL A   1      38.794  30.254  29.021  1.00  0.00     0.031 C 
ATOM     43  C   UNL A   1      38.385  34.612  34.347  1.00  0.00     0.029 A 
ATOM     44  C   UNL A   1      39.347  33.522  34.498  1.00  0.00     0.049 A 
ATOM     45  H   UNL A   1      39.885  32.113  33.060  1.00  0.00     0.167 HD
ATOM     46  C   UNL A   1      40.577  28.922  30.109  1.00  0.00     0.037 A 
ATOM     47  C   UNL A   1      40.070  33.251  35.604  1.00  0.00     0.037 A 
ATOM     48  C   UNL A   1      41.459  28.620  31.205  1.00  0.00     0.049 A 
ATOM     49  C   UNL A   1      40.984  32.050  35.614  1.00  0.00     0.074 A 
ATOM     50  C   UNL A   1      42.401  27.612  31.301  1.00  0.00     0.029 A 
ATOM     51  N   UNL A   1      41.497  29.321  32.402  1.00  0.00    -0.354 N 
ATOM     52  N   UNL A   1      41.213  31.173  34.666  1.00  0.00    -0.248 NA
ATOM     53  C   UNL A   1      41.740  31.798  36.851  1.00  0.00     0.031 C 
ATOM     54  C   UNL A   1      42.963  27.662  32.579  1.00  0.00     0.029 A 
ATOM     55  C   UNL A   1      42.429  28.751  33.251  1.00  0.00     0.049 A 
ATOM     56  H   UNL A   1      40.943  30.106  32.615  1.00  0.00     0.167 HD
ATOM     57  C   UNL A   1      42.168  30.299  35.171  1.00  0.00     0.074 A 
ATOM     58  C   UNL A   1      42.473  30.745  36.513  1.00  0.00     0.031 C 
ATOM     59  C   UNL A   1      42.748  29.230  34.573  1.00  0.00     0.037 A 
BRANCH  46  60
ATOM     60  C   UNL A   1      40.604  28.028  28.905  1.00  0.00     0.064 A 
ATOM     61  C   UNL A   1      39.834  26.858  28.832  1.00  0.00     0.173 A 
ATOM     62  C   UNL A   1      41.389  28.365  27.791  1.00  0.00     0.173 A 
ATOM     63  F   UNL A   1      39.077  26.481  29.874  1.00  0.00    -0.203 F 
ATOM     64  C   UNL A   1      39.870  26.045  27.701  1.00  0.00     0.198 A 
ATOM     65  C   UNL A   1      41.396  27.571  26.649  1.00  0.00     0.198 A 
ATOM     66  F   UNL A   1      42.142  29.475  27.805  1.00  0.00    -0.203 F 
ATOM     67  F   UNL A   1      39.168  24.904  27.676  1.00  0.00    -0.200 F 
ATOM     68  C   UNL A   1      40.644  26.406  26.609  1.00  0.00     0.200 A 
ATOM     69  F   UNL A   1      42.132  27.929  25.589  1.00  0.00    -0.200 F 
ATOM     70  F   UNL A   1      40.670  25.628  25.518  1.00  0.00    -0.200 F 
ENDBRANCH  46  60
BRANCH  47  71
ATOM     71  C   UNL A   1      39.944  34.117  36.807  1.00  0.00     0.064 A 
ATOM     72  C   UNL A   1      40.701  35.291  36.931  1.00  0.00     0.173 A 
ATOM     73  C   UNL A   1      39.089  33.780  37.867  1.00  0.00     0.173 A 
ATOM     74  F   UNL A   1      41.553  35.644  35.958  1.00  0.00    -0.203 F 
ATOM     75  C   UNL A   1      40.622  36.082  38.078  1.00  0.00     0.198 A 
ATOM     76  C   UNL A   1      38.987  34.587  38.997  1.00  0.00     0.198 A 
ATOM     77  F   UNL A   1      38.346  32.664  37.802  1.00  0.00    -0.203 F 
ATOM     78  F   UNL A   1      41.397  37.168  38.193  1.00  0.00    -0.200 F 
ATOM     79  C   UNL A   1      39.761  35.733  39.106  1.00  0.00     0.200 A 
ATOM     80  F   UNL A   1      38.144  34.252  39.984  1.00  0.00    -0.200 F 
ATOM     81  F   UNL A   1      39.686  36.493  40.207  1.00  0.00    -0.200 F 
ENDBRANCH  47  71
BRANCH  59  82
ATOM     82  C   UNL A   1      43.836  28.507  35.315  1.00  0.00     0.064 A 
ATOM     83  C   UNL A   1      45.187  28.861  35.192  1.00  0.00     0.173 A 
ATOM     84  C   UNL A   1      43.500  27.504  36.240  1.00  0.00     0.173 A 
ATOM     85  F   UNL A   1      45.561  29.804  34.314  1.00  0.00    -0.203 F 
ATOM     86  C   UNL A   1      46.162  28.233  35.963  1.00  0.00     0.198 A 
ATOM     87  C   UNL A   1      44.473  26.902  37.031  1.00  0.00     0.198 A 
ATOM     88  F   UNL A   1      42.220  27.135  36.401  1.00  0.00    -0.203 F 
ATOM     89  F   UNL A   1      47.451  28.565  35.810  1.00  0.00    -0.200 F 
ATOM     90  C   UNL A   1      45.803  27.264  36.890  1.00  0.00     0.200 A 
ATOM     91  F   UNL A   1      44.121  25.982  37.940  1.00  0.00    -0.200 F 
ATOM     92  F   UNL A   1      46.742  26.680  37.649  1.00  0.00    -0.200 F 
ENDBRANCH  59  82
ENDBRANCH  33  34
ENDBRANCH  26  28
ENDBRANCH  25  26
ENDBRANCH  24  25
ENDBRANCH  23  24
ENDBRANCH  22  23
ENDBRANCH  21  22
ENDBRANCH   1  21
TORSDOF 20
ENDMDL
