MODEL 1
REMARK VINA RESULT:     -10.9      0.000      0.000
REMARK SMILES CC(C)CSc1cc2c(cc1Cl)C=C(C(=O)OCCOCCOCCOC(=O)c1ccc(-c3c4nc(c(-c5c(F)c(F)c(F)c(F)c5F)c5ccc([nH]5)c(-c5c(F)c(F)c(F)c(F)c5F)c5nc(c(-c6c(F)c(F)c(F)c(F)c6F)c6ccc3[nH]6)C=C5)C=C4)cc1)[C@@H](C(F)(F)F)O2
REMARK SMILES IDX 21 1 20 2 19 3 18 4 17 5 15 6 16 7 14 8 6 9 7 10 11 11 8 12
REMARK SMILES IDX 10 13 12 14 9 15 97 16 13 17 92 18 5 19 4 20 2 21 1 22 3 23
REMARK SMILES IDX 93 24 94 25 95 26 96 27 22 28 23 29 24 30 25 31 26 32 27 33
REMARK SMILES IDX 28 34 29 35 30 36 91 37 31 38 90 39 32 40 33 41 34 42 84 43
REMARK SMILES IDX 35 44 89 45 83 46 85 47 36 48 88 49 82 50 81 51 37 53 69 54
REMARK SMILES IDX 49 55 68 56 50 57 53 58 67 59 86 60 51 61 52 62 66 64 87 65
REMARK SMILES IDX 54 66 38 67 39 68 47 69 40 70 41 71 45 72 48 73 42 74 43 75
REMARK SMILES IDX 46 76 44 77 70 78 71 79 79 80 72 81 73 82 77 83 80 84 74 85
REMARK SMILES IDX 75 86 78 87 76 88 55 89 56 90 64 91 57 92 58 93 62 94 65 95
REMARK SMILES IDX 59 96 60 97 63 98 61 99
REMARK H PARENT 85 52 53 63
REMARK Flexibility Score: inf
ROOT
ATOM      1  C   UNL A   1      29.716  30.107  22.268  1.00  0.00     0.188 C 
ENDROOT
BRANCH   1   2
ATOM      2  O   UNL A   1      29.881  28.708  22.203  1.00  0.00    -0.376 OA
BRANCH   2   3
ATOM      3  C   UNL A   1      29.919  27.912  23.374  1.00  0.00     0.202 C 
BRANCH   3   4
ATOM      4  C   UNL A   1      30.992  28.044  24.463  1.00  0.00     0.261 C 
BRANCH   4   5
ATOM      5  O   UNL A   1      31.630  26.827  24.860  1.00  0.00    -0.460 OA
BRANCH   5   6
ATOM      6  C   UNL A   1      32.816  26.578  24.254  1.00  0.00     0.338 C 
ATOM      7  O   UNL A   1      33.535  27.385  23.690  1.00  0.00    -0.246 OA
BRANCH   6   8
ATOM      8  C   UNL A   1      33.220  25.185  24.521  1.00  0.00     0.087 C 
ATOM      9  C   UNL A   1      35.888  20.979  25.102  1.00  0.00     0.030 A 
ATOM     10  C   UNL A   1      34.520  21.264  24.950  1.00  0.00     0.063 A 
ATOM     11  C   UNL A   1      36.768  22.042  25.350  1.00  0.00     0.055 A 
ATOM     12  C   UNL A   1      34.063  22.581  24.900  1.00  0.00     0.129 A 
ATOM     13  C   UNL A   1      36.310  23.364  25.294  1.00  0.00     0.033 A 
ATOM     14  Cl  UNL A   1      38.435  21.816  25.751  1.00  0.00    -0.083 Cl
ATOM     15  C   UNL A   1      34.965  23.633  25.024  1.00  0.00     0.019 A 
ATOM     16  O   UNL A   1      32.724  22.746  24.694  1.00  0.00    -0.475 OA
ATOM     17  C   UNL A   1      34.514  24.995  24.810  1.00  0.00     0.027 C 
ATOM     18  C   UNL A   1      32.196  24.084  24.473  1.00  0.00     0.316 C 
BRANCH   9  19
ATOM     19  S   UNL A   1      36.355  19.262  24.920  1.00  0.00    -0.124 SA
BRANCH  19  20
ATOM     20  C   UNL A   1      34.736  18.438  24.626  1.00  0.00     0.078 C 
BRANCH  20  21
ATOM     21  C   UNL A   1      34.754  16.904  24.465  1.00  0.00    -0.007 C 
ATOM     22  C   UNL A   1      33.777  16.172  25.385  1.00  0.00     0.008 C 
ATOM     23  C   UNL A   1      34.403  16.553  23.011  1.00  0.00     0.008 C 
ENDBRANCH  20  21
ENDBRANCH  19  20
ENDBRANCH   9  19
BRANCH  18  24
ATOM     24  C   UNL A   1      31.409  24.077  23.155  1.00  0.00     0.430 C 
ATOM     25  F   UNL A   1      31.048  22.821  22.802  1.00  0.00    -0.167 F 
ATOM     26  F   UNL A   1      30.267  24.799  23.247  1.00  0.00    -0.167 F 
ATOM     27  F   UNL A   1      32.132  24.595  22.136  1.00  0.00    -0.167 F 
ENDBRANCH  18  24
ENDBRANCH   6   8
ENDBRANCH   5   6
ENDBRANCH   4   5
ENDBRANCH   3   4
ENDBRANCH   2   3
ENDBRANCH   1   2
BRANCH   1  28
ATOM     28  C   UNL A   1      28.898  30.755  23.405  1.00  0.00     0.188 C 
BRANCH  28  29
ATOM     29  O   UNL A   1      29.497  31.672  24.293  1.00  0.00    -0.376 OA
BRANCH  29  30
ATOM     30  C   UNL A   1      30.584  31.261  25.108  1.00  0.00     0.202 C 
BRANCH  30  31
ATOM     31  C   UNL A   1      31.036  32.033  26.358  1.00  0.00     0.261 C 
BRANCH  31  32
ATOM     32  O   UNL A   1      32.337  31.707  26.862  1.00  0.00    -0.460 OA
BRANCH  32  33
ATOM     33  C   UNL A   1      33.015  32.743  27.430  1.00  0.00     0.338 C 
ATOM     34  O   UNL A   1      32.643  33.885  27.568  1.00  0.00    -0.246 OA
BRANCH  33  35
ATOM     35  C   UNL A   1      34.237  32.202  28.060  1.00  0.00     0.060 A 
ATOM     36  C   UNL A   1      35.315  33.036  28.356  1.00  0.00     0.016 A 
ATOM     37  C   UNL A   1      34.296  30.830  28.345  1.00  0.00     0.016 A 
ATOM     38  C   UNL A   1      36.457  32.493  28.949  1.00  0.00     0.010 A 
ATOM     39  C   UNL A   1      35.447  30.286  28.917  1.00  0.00     0.010 A 
ATOM     40  C   UNL A   1      36.530  31.118  29.236  1.00  0.00    -0.014 A 
BRANCH  40  41
ATOM     41  C   UNL A   1      37.679  30.578  30.002  1.00  0.00     0.031 A 
ATOM     42  C   UNL A   1      38.643  29.601  29.398  1.00  0.00     0.074 A 
ATOM     43  C   UNL A   1      37.836  30.979  31.276  1.00  0.00     0.049 A 
ATOM     44  N   UNL A   1      39.716  29.072  29.929  1.00  0.00    -0.248 NA
ATOM     45  C   UNL A   1      38.366  29.158  28.025  1.00  0.00     0.031 C 
ATOM     46  C   UNL A   1      36.948  31.910  31.974  1.00  0.00     0.029 A 
ATOM     47  N   UNL A   1      38.792  30.662  32.208  1.00  0.00    -0.354 N 
ATOM     48  C   UNL A   1      40.261  28.251  28.952  1.00  0.00     0.074 A 
ATOM     49  C   UNL A   1      39.370  28.316  27.809  1.00  0.00     0.031 C 
ATOM     50  C   UNL A   1      37.410  32.104  33.218  1.00  0.00     0.029 A 
ATOM     51  C   UNL A   1      38.609  31.292  33.413  1.00  0.00     0.049 A 
ATOM     52  H   UNL A   1      39.535  30.043  32.029  1.00  0.00     0.167 HD
ATOM     53  C   UNL A   1      41.407  27.530  29.001  1.00  0.00     0.037 A 
ATOM     54  C   UNL A   1      39.326  31.225  34.550  1.00  0.00     0.037 A 
ATOM     55  C   UNL A   1      42.280  27.456  30.149  1.00  0.00     0.049 A 
ATOM     56  C   UNL A   1      40.561  30.369  34.594  1.00  0.00     0.074 A 
ATOM     57  C   UNL A   1      43.478  26.774  30.279  1.00  0.00     0.029 A 
ATOM     58  N   UNL A   1      42.044  28.073  31.370  1.00  0.00    -0.354 N 
ATOM     59  N   UNL A   1      41.102  29.649  33.643  1.00  0.00    -0.248 NA
ATOM     60  C   UNL A   1      41.288  30.325  35.870  1.00  0.00     0.031 C 
ATOM     61  C   UNL A   1      43.937  26.931  31.591  1.00  0.00     0.029 A 
ATOM     62  C   UNL A   1      43.058  27.762  32.265  1.00  0.00     0.049 A 
ATOM     63  H   UNL A   1      41.270  28.649  31.571  1.00  0.00     0.167 HD
ATOM     64  C   UNL A   1      42.243  29.081  34.197  1.00  0.00     0.074 A 
ATOM     65  C   UNL A   1      42.328  29.564  35.560  1.00  0.00     0.031 C 
ATOM     66  C   UNL A   1      43.134  28.235  33.625  1.00  0.00     0.037 A 
BRANCH  53  67
ATOM     67  C   UNL A   1      41.806  26.760  27.775  1.00  0.00     0.064 A 
ATOM     68  C   UNL A   1      42.761  27.261  26.877  1.00  0.00     0.173 A 
ATOM     69  C   UNL A   1      41.302  25.471  27.542  1.00  0.00     0.173 A 
ATOM     70  F   UNL A   1      43.274  28.488  27.052  1.00  0.00    -0.203 F 
ATOM     71  C   UNL A   1      43.187  26.505  25.787  1.00  0.00     0.198 A 
ATOM     72  C   UNL A   1      41.750  24.707  26.466  1.00  0.00     0.198 A 
ATOM     73  F   UNL A   1      40.395  24.939  28.375  1.00  0.00    -0.203 F 
ATOM     74  F   UNL A   1      44.080  27.016  24.928  1.00  0.00    -0.200 F 
ATOM     75  C   UNL A   1      42.689  25.226  25.588  1.00  0.00     0.200 A 
ATOM     76  F   UNL A   1      41.282  23.465  26.287  1.00  0.00    -0.200 F 
ATOM     77  F   UNL A   1      43.114  24.494  24.550  1.00  0.00    -0.200 F 
ENDBRANCH  53  67
BRANCH  54  78
ATOM     78  C   UNL A   1      38.903  32.023  35.729  1.00  0.00     0.064 A 
ATOM     79  C   UNL A   1      38.157  31.440  36.760  1.00  0.00     0.173 A 
ATOM     80  C   UNL A   1      39.257  33.374  35.858  1.00  0.00     0.173 A 
ATOM     81  F   UNL A   1      37.778  30.156  36.671  1.00  0.00    -0.203 F 
ATOM     82  C   UNL A   1      37.770  32.182  37.874  1.00  0.00     0.198 A 
ATOM     83  C   UNL A   1      38.896  34.106  36.986  1.00  0.00     0.198 A 
ATOM     84  F   UNL A   1      39.975  33.976  34.899  1.00  0.00    -0.203 F 
ATOM     85  F   UNL A   1      37.025  31.610  38.830  1.00  0.00    -0.200 F 
ATOM     86  C   UNL A   1      38.147  33.511  37.990  1.00  0.00     0.200 A 
ATOM     87  F   UNL A   1      39.277  35.386  37.103  1.00  0.00    -0.200 F 
ATOM     88  F   UNL A   1      37.786  34.220  39.070  1.00  0.00    -0.200 F 
ENDBRANCH  54  78
BRANCH  66  89
ATOM     89  C   UNL A   1      44.291  27.777  34.470  1.00  0.00     0.064 A 
ATOM     90  C   UNL A   1      44.274  26.539  35.131  1.00  0.00     0.173 A 
ATOM     91  C   UNL A   1      45.443  28.568  34.596  1.00  0.00     0.173 A 
ATOM     92  F   UNL A   1      43.192  25.749  35.056  1.00  0.00    -0.203 F 
ATOM     93  C   UNL A   1      45.353  26.124  35.907  1.00  0.00     0.198 A 
ATOM     94  C   UNL A   1      46.534  28.135  35.344  1.00  0.00     0.198 A 
ATOM     95  F   UNL A   1      45.517  29.758  33.981  1.00  0.00    -0.203 F 
ATOM     96  F   UNL A   1      45.291  24.960  36.570  1.00  0.00    -0.200 F 
ATOM     97  C   UNL A   1      46.485  26.918  36.006  1.00  0.00     0.200 A 
ATOM     98  F   UNL A   1      47.634  28.897  35.427  1.00  0.00    -0.200 F 
ATOM     99  F   UNL A   1      47.527  26.512  36.747  1.00  0.00    -0.200 F 
ENDBRANCH  66  89
ENDBRANCH  40  41
ENDBRANCH  33  35
ENDBRANCH  32  33
ENDBRANCH  31  32
ENDBRANCH  30  31
ENDBRANCH  29  30
ENDBRANCH  28  29
ENDBRANCH   1  28
TORSDOF 21
ENDMDL
MODEL 2
REMARK VINA RESULT:     -10.8      0.355      7.173
REMARK SMILES CC(C)CSc1cc2c(cc1Cl)C=C(C(=O)OCCOCCOCCOC(=O)c1ccc(-c3c4nc(c(-c5c(F)c(F)c(F)c(F)c5F)c5ccc([nH]5)c(-c5c(F)c(F)c(F)c(F)c5F)c5nc(c(-c6c(F)c(F)c(F)c(F)c6F)c6ccc3[nH]6)C=C5)C=C4)cc1)[C@@H](C(F)(F)F)O2
REMARK SMILES IDX 21 1 20 2 19 3 18 4 17 5 15 6 16 7 14 8 6 9 7 10 11 11 8 12
REMARK SMILES IDX 10 13 12 14 9 15 97 16 13 17 92 18 5 19 4 20 2 21 1 22 3 23
REMARK SMILES IDX 93 24 94 25 95 26 96 27 22 28 23 29 24 30 25 31 26 32 27 33
REMARK SMILES IDX 28 34 29 35 30 36 91 37 31 38 90 39 32 40 33 41 34 42 84 43
REMARK SMILES IDX 35 44 89 45 83 46 85 47 36 48 88 49 82 50 81 51 37 53 69 54
REMARK SMILES IDX 49 55 68 56 50 57 53 58 67 59 86 60 51 61 52 62 66 64 87 65
REMARK SMILES IDX 54 66 38 67 39 68 47 69 40 70 41 71 45 72 48 73 42 74 43 75
REMARK SMILES IDX 46 76 44 77 70 78 71 79 79 80 72 81 73 82 77 83 80 84 74 85
REMARK SMILES IDX 75 86 78 87 76 88 55 89 56 90 64 91 57 92 58 93 62 94 65 95
REMARK SMILES IDX 59 96 60 97 63 98 61 99
REMARK H PARENT 85 52 53 63
REMARK Flexibility Score: inf
ROOT
ATOM      1  C   UNL A   1      29.898  29.864  22.447  1.00  0.00     0.188 C 
ENDROOT
BRANCH   1   2
ATOM      2  O   UNL A   1      30.106  28.478  22.603  1.00  0.00    -0.376 OA
BRANCH   2   3
ATOM      3  C   UNL A   1      30.190  27.881  23.886  1.00  0.00     0.202 C 
BRANCH   3   4
ATOM      4  C   UNL A   1      31.284  28.211  24.911  1.00  0.00     0.261 C 
BRANCH   4   5
ATOM      5  O   UNL A   1      32.079  27.106  25.350  1.00  0.00    -0.460 OA
BRANCH   5   6
ATOM      6  C   UNL A   1      33.038  26.708  24.479  1.00  0.00     0.338 C 
ATOM      7  O   UNL A   1      33.675  27.415  23.717  1.00  0.00    -0.246 OA
BRANCH   6   8
ATOM      8  C   UNL A   1      33.343  25.282  24.703  1.00  0.00     0.087 C 
ATOM      9  C   UNL A   1      35.687  20.863  25.052  1.00  0.00     0.030 A 
ATOM     10  C   UNL A   1      34.340  21.261  24.998  1.00  0.00     0.063 A 
ATOM     11  C   UNL A   1      36.667  21.846  25.250  1.00  0.00     0.055 A 
ATOM     12  C   UNL A   1      33.991  22.613  24.994  1.00  0.00     0.129 A 
ATOM     13  C   UNL A   1      36.317  23.202  25.241  1.00  0.00     0.033 A 
ATOM     14  Cl  UNL A   1      38.332  21.478  25.533  1.00  0.00    -0.083 Cl
ATOM     15  C   UNL A   1      34.984  23.585  25.067  1.00  0.00     0.019 A 
ATOM     16  O   UNL A   1      32.660  22.890  24.883  1.00  0.00    -0.475 OA
ATOM     17  C   UNL A   1      34.634  24.982  24.900  1.00  0.00     0.027 C 
ATOM     18  C   UNL A   1      32.230  24.270  24.714  1.00  0.00     0.316 C 
BRANCH   9  19
ATOM     19  S   UNL A   1      35.996  19.117  24.819  1.00  0.00    -0.124 SA
BRANCH  19  20
ATOM     20  C   UNL A   1      34.303  18.443  24.563  1.00  0.00     0.078 C 
BRANCH  20  21
ATOM     21  C   UNL A   1      34.178  16.913  24.416  1.00  0.00    -0.007 C 
ATOM     22  C   UNL A   1      34.238  16.420  22.969  1.00  0.00     0.008 C 
ATOM     23  C   UNL A   1      35.316  16.243  25.202  1.00  0.00     0.008 C 
ENDBRANCH  20  21
ENDBRANCH  19  20
ENDBRANCH   9  19
BRANCH  18  24
ATOM     24  C   UNL A   1      31.358  24.350  23.452  1.00  0.00     0.430 C 
ATOM     25  F   UNL A   1      31.262  23.145  22.841  1.00  0.00    -0.167 F 
ATOM     26  F   UNL A   1      30.095  24.742  23.739  1.00  0.00    -0.167 F 
ATOM     27  F   UNL A   1      31.858  25.226  22.552  1.00  0.00    -0.167 F 
ENDBRANCH  18  24
ENDBRANCH   6   8
ENDBRANCH   5   6
ENDBRANCH   4   5
ENDBRANCH   3   4
ENDBRANCH   2   3
ENDBRANCH   1   2
BRANCH   1  28
ATOM     28  C   UNL A   1      28.962  30.636  23.401  1.00  0.00     0.188 C 
BRANCH  28  29
ATOM     29  O   UNL A   1      29.479  31.588  24.304  1.00  0.00    -0.376 OA
BRANCH  29  30
ATOM     30  C   UNL A   1      30.647  31.292  25.053  1.00  0.00     0.202 C 
BRANCH  30  31
ATOM     31  C   UNL A   1      31.050  32.062  26.321  1.00  0.00     0.261 C 
BRANCH  31  32
ATOM     32  O   UNL A   1      32.351  31.772  26.846  1.00  0.00    -0.460 OA
BRANCH  32  33
ATOM     33  C   UNL A   1      32.976  32.817  27.455  1.00  0.00     0.338 C 
ATOM     34  O   UNL A   1      32.550  33.935  27.631  1.00  0.00    -0.246 OA
BRANCH  33  35
ATOM     35  C   UNL A   1      34.220  32.312  28.074  1.00  0.00     0.060 A 
ATOM     36  C   UNL A   1      35.283  33.174  28.341  1.00  0.00     0.016 A 
ATOM     37  C   UNL A   1      34.313  30.946  28.378  1.00  0.00     0.016 A 
ATOM     38  C   UNL A   1      36.446  32.664  28.924  1.00  0.00     0.010 A 
ATOM     39  C   UNL A   1      35.484  30.436  28.939  1.00  0.00     0.010 A 
ATOM     40  C   UNL A   1      36.553  31.296  29.230  1.00  0.00    -0.014 A 
BRANCH  40  41
ATOM     41  C   UNL A   1      37.726  30.791  29.985  1.00  0.00     0.031 A 
ATOM     42  C   UNL A   1      37.992  31.205  31.401  1.00  0.00     0.074 A 
ATOM     43  C   UNL A   1      38.567  29.949  29.359  1.00  0.00     0.049 A 
ATOM     44  N   UNL A   1      38.953  30.818  32.202  1.00  0.00    -0.248 NA
ATOM     45  C   UNL A   1      37.067  32.180  31.993  1.00  0.00     0.031 C 
ATOM     46  C   UNL A   1      38.418  29.495  27.976  1.00  0.00     0.029 A 
ATOM     47  N   UNL A   1      39.707  29.326  29.799  1.00  0.00    -0.354 N 
ATOM     48  C   UNL A   1      38.738  31.480  33.403  1.00  0.00     0.074 A 
ATOM     49  C   UNL A   1      37.581  32.333  33.208  1.00  0.00     0.031 C 
ATOM     50  C   UNL A   1      39.419  28.649  27.685  1.00  0.00     0.029 A 
ATOM     51  C   UNL A   1      40.292  28.524  28.849  1.00  0.00     0.049 A 
ATOM     52  H   UNL A   1      40.070  29.442  30.705  1.00  0.00     0.167 HD
ATOM     53  C   UNL A   1      39.432  31.367  34.562  1.00  0.00     0.037 A 
ATOM     54  C   UNL A   1      41.406  27.773  28.909  1.00  0.00     0.037 A 
ATOM     55  C   UNL A   1      40.594  30.530  34.743  1.00  0.00     0.049 A 
ATOM     56  C   UNL A   1      42.190  27.714  30.191  1.00  0.00     0.074 A 
ATOM     57  C   UNL A   1      41.343  30.331  35.891  1.00  0.00     0.029 A 
ATOM     58  N   UNL A   1      41.186  29.763  33.748  1.00  0.00    -0.354 N 
ATOM     59  N   UNL A   1      41.940  28.293  31.339  1.00  0.00    -0.248 NA
ATOM     60  C   UNL A   1      43.405  26.890  30.184  1.00  0.00     0.031 C 
ATOM     61  C   UNL A   1      42.418  29.492  35.578  1.00  0.00     0.029 A 
ATOM     62  C   UNL A   1      42.306  29.115  34.250  1.00  0.00     0.049 A 
ATOM     63  H   UNL A   1      40.857  29.688  32.823  1.00  0.00     0.167 HD
ATOM     64  C   UNL A   1      42.955  27.889  32.198  1.00  0.00     0.074 A 
ATOM     65  C   UNL A   1      43.808  26.994  31.442  1.00  0.00     0.031 C 
ATOM     66  C   UNL A   1      43.160  28.234  33.492  1.00  0.00     0.037 A 
BRANCH  53  67
ATOM     67  C   UNL A   1      38.957  32.161  35.745  1.00  0.00     0.064 A 
ATOM     68  C   UNL A   1      38.187  31.570  36.758  1.00  0.00     0.173 A 
ATOM     69  C   UNL A   1      39.351  33.497  35.918  1.00  0.00     0.173 A 
ATOM     70  F   UNL A   1      37.781  30.297  36.642  1.00  0.00    -0.203 F 
ATOM     71  C   UNL A   1      37.819  32.290  37.893  1.00  0.00     0.198 A 
ATOM     72  C   UNL A   1      39.005  34.205  37.066  1.00  0.00     0.198 A 
ATOM     73  F   UNL A   1      40.097  34.108  34.986  1.00  0.00    -0.203 F 
ATOM     74  F   UNL A   1      37.060  31.712  38.834  1.00  0.00    -0.200 F 
ATOM     75  C   UNL A   1      38.236  33.603  38.051  1.00  0.00     0.200 A 
ATOM     76  F   UNL A   1      39.425  35.468  37.226  1.00  0.00    -0.200 F 
ATOM     77  F   UNL A   1      37.899  34.287  39.152  1.00  0.00    -0.200 F 
ENDBRANCH  53  67
BRANCH  54  78
ATOM     78  C   UNL A   1      41.822  26.988  27.719  1.00  0.00     0.064 A 
ATOM     79  C   UNL A   1      42.673  27.543  26.754  1.00  0.00     0.173 A 
ATOM     80  C   UNL A   1      41.399  25.664  27.535  1.00  0.00     0.173 A 
ATOM     81  F   UNL A   1      43.087  28.813  26.878  1.00  0.00    -0.203 F 
ATOM     82  C   UNL A   1      43.077  26.806  25.643  1.00  0.00     0.198 A 
ATOM     83  C   UNL A   1      41.828  24.918  26.440  1.00  0.00     0.198 A 
ATOM     84  F   UNL A   1      40.587  25.086  28.433  1.00  0.00    -0.203 F 
ATOM     85  F   UNL A   1      43.861  27.373  24.716  1.00  0.00    -0.200 F 
ATOM     86  C   UNL A   1      42.661  25.492  25.492  1.00  0.00     0.200 A 
ATOM     87  F   UNL A   1      41.438  23.643  26.306  1.00  0.00    -0.200 F 
ATOM     88  F   UNL A   1      43.062  24.779  24.430  1.00  0.00    -0.200 F 
ENDBRANCH  54  78
BRANCH  66  89
ATOM     89  C   UNL A   1      44.353  27.635  34.185  1.00  0.00     0.064 A 
ATOM     90  C   UNL A   1      45.589  28.298  34.226  1.00  0.00     0.173 A 
ATOM     91  C   UNL A   1      44.253  26.400  34.845  1.00  0.00     0.173 A 
ATOM     92  F   UNL A   1      45.745  29.475  33.600  1.00  0.00    -0.203 F 
ATOM     93  C   UNL A   1      46.685  27.735  34.875  1.00  0.00     0.198 A 
ATOM     94  C   UNL A   1      45.341  25.857  35.522  1.00  0.00     0.198 A 
ATOM     95  F   UNL A   1      43.093  25.725  34.844  1.00  0.00    -0.203 F 
ATOM     96  F   UNL A   1      47.869  28.364  34.854  1.00  0.00    -0.200 F 
ATOM     97  C   UNL A   1      46.558  26.520  35.529  1.00  0.00     0.200 A 
ATOM     98  F   UNL A   1      45.212  24.689  36.168  1.00  0.00    -0.200 F 
ATOM     99  F   UNL A   1      47.612  25.984  36.161  1.00  0.00    -0.200 F 
ENDBRANCH  66  89
ENDBRANCH  40  41
ENDBRANCH  33  35
ENDBRANCH  32  33
ENDBRANCH  31  32
ENDBRANCH  30  31
ENDBRANCH  29  30
ENDBRANCH  28  29
ENDBRANCH   1  28
TORSDOF 21
ENDMDL
MODEL 3
REMARK VINA RESULT:     -10.5      6.290     11.103
REMARK SMILES CC(C)CSc1cc2c(cc1Cl)C=C(C(=O)OCCOCCOCCOC(=O)c1ccc(-c3c4nc(c(-c5c(F)c(F)c(F)c(F)c5F)c5ccc([nH]5)c(-c5c(F)c(F)c(F)c(F)c5F)c5nc(c(-c6c(F)c(F)c(F)c(F)c6F)c6ccc3[nH]6)C=C5)C=C4)cc1)[C@@H](C(F)(F)F)O2
REMARK SMILES IDX 21 1 20 2 19 3 18 4 17 5 15 6 16 7 14 8 6 9 7 10 11 11 8 12
REMARK SMILES IDX 10 13 12 14 9 15 97 16 13 17 92 18 5 19 4 20 2 21 1 22 3 23
REMARK SMILES IDX 93 24 94 25 95 26 96 27 22 28 23 29 24 30 25 31 26 32 27 33
REMARK SMILES IDX 28 34 29 35 30 36 91 37 31 38 90 39 32 40 33 41 34 42 84 43
REMARK SMILES IDX 35 44 89 45 83 46 85 47 36 48 88 49 82 50 81 51 37 53 69 54
REMARK SMILES IDX 49 55 68 56 50 57 53 58 67 59 86 60 51 61 52 62 66 64 87 65
REMARK SMILES IDX 54 66 38 67 39 68 47 69 40 70 41 71 45 72 48 73 42 74 43 75
REMARK SMILES IDX 46 76 44 77 70 78 71 79 79 80 72 81 73 82 77 83 80 84 74 85
REMARK SMILES IDX 75 86 78 87 76 88 55 89 56 90 64 91 57 92 58 93 62 94 65 95
REMARK SMILES IDX 59 96 60 97 63 98 61 99
REMARK H PARENT 85 52 53 63
REMARK Flexibility Score: inf
ROOT
ATOM      1  C   UNL A   1      44.051  18.717  25.326  1.00  0.00     0.188 C 
ENDROOT
BRANCH   1   2
ATOM      2  O   UNL A   1      44.716  19.217  24.187  1.00  0.00    -0.376 OA
BRANCH   2   3
ATOM      3  C   UNL A   1      45.031  20.592  24.058  1.00  0.00     0.202 C 
BRANCH   3   4
ATOM      4  C   UNL A   1      46.243  21.257  24.725  1.00  0.00     0.261 C 
BRANCH   4   5
ATOM      5  O   UNL A   1      45.979  21.946  25.950  1.00  0.00    -0.460 OA
BRANCH   5   6
ATOM      6  C   UNL A   1      45.768  23.279  25.825  1.00  0.00     0.338 C 
ATOM      7  O   UNL A   1      45.202  23.848  24.907  1.00  0.00    -0.246 OA
BRANCH   6   8
ATOM      8  C   UNL A   1      46.176  23.959  27.068  1.00  0.00     0.087 C 
ATOM      9  C   UNL A   1      46.153  26.186  31.561  1.00  0.00     0.030 A 
ATOM     10  C   UNL A   1      47.070  26.124  30.498  1.00  0.00     0.063 A 
ATOM     11  C   UNL A   1      45.053  25.316  31.546  1.00  0.00     0.055 A 
ATOM     12  C   UNL A   1      46.821  25.324  29.382  1.00  0.00     0.129 A 
ATOM     13  C   UNL A   1      44.801  24.518  30.424  1.00  0.00     0.033 A 
ATOM     14  Cl  UNL A   1      43.962  25.149  32.877  1.00  0.00    -0.083 Cl
ATOM     15  C   UNL A   1      45.662  24.557  29.323  1.00  0.00     0.019 A 
ATOM     16  O   UNL A   1      47.750  25.379  28.383  1.00  0.00    -0.475 OA
ATOM     17  C   UNL A   1      45.327  23.855  28.099  1.00  0.00     0.027 C 
ATOM     18  C   UNL A   1      47.485  24.699  27.125  1.00  0.00     0.316 C 
BRANCH   9  19
ATOM     19  S   UNL A   1      46.488  27.419  32.812  1.00  0.00    -0.124 SA
BRANCH  19  20
ATOM     20  C   UNL A   1      45.570  28.885  32.183  1.00  0.00     0.078 C 
BRANCH  20  21
ATOM     21  C   UNL A   1      44.174  29.143  32.787  1.00  0.00    -0.007 C 
ATOM     22  C   UNL A   1      43.036  28.441  32.044  1.00  0.00     0.008 C 
ATOM     23  C   UNL A   1      44.167  28.663  34.246  1.00  0.00     0.008 C 
ENDBRANCH  20  21
ENDBRANCH  19  20
ENDBRANCH   9  19
BRANCH  18  24
ATOM     24  C   UNL A   1      47.626  25.721  25.987  1.00  0.00     0.430 C 
ATOM     25  F   UNL A   1      48.547  26.667  26.285  1.00  0.00    -0.167 F 
ATOM     26  F   UNL A   1      48.027  25.136  24.834  1.00  0.00    -0.167 F 
ATOM     27  F   UNL A   1      46.458  26.354  25.734  1.00  0.00    -0.167 F 
ENDBRANCH  18  24
ENDBRANCH   6   8
ENDBRANCH   5   6
ENDBRANCH   4   5
ENDBRANCH   3   4
ENDBRANCH   2   3
ENDBRANCH   1   2
BRANCH   1  28
ATOM     28  C   UNL A   1      42.587  19.105  25.623  1.00  0.00     0.188 C 
BRANCH  28  29
ATOM     29  O   UNL A   1      42.082  19.063  26.938  1.00  0.00    -0.376 OA
BRANCH  29  30
ATOM     30  C   UNL A   1      41.242  20.106  27.406  1.00  0.00     0.202 C 
BRANCH  30  31
ATOM     31  C   UNL A   1      40.366  20.962  26.477  1.00  0.00     0.261 C 
BRANCH  31  32
ATOM     32  O   UNL A   1      40.484  22.381  26.632  1.00  0.00    -0.460 OA
BRANCH  32  33
ATOM     33  C   UNL A   1      41.639  22.923  26.157  1.00  0.00     0.338 C 
ATOM     34  O   UNL A   1      42.357  22.490  25.286  1.00  0.00    -0.246 OA
BRANCH  33  35
ATOM     35  C   UNL A   1      41.790  24.272  26.741  1.00  0.00     0.060 A 
ATOM     36  C   UNL A   1      41.778  24.455  28.124  1.00  0.00     0.016 A 
ATOM     37  C   UNL A   1      41.932  25.367  25.877  1.00  0.00     0.016 A 
ATOM     38  C   UNL A   1      41.919  25.744  28.644  1.00  0.00     0.010 A 
ATOM     39  C   UNL A   1      42.050  26.656  26.398  1.00  0.00     0.010 A 
ATOM     40  C   UNL A   1      42.059  26.850  27.787  1.00  0.00    -0.014 A 
BRANCH  40  41
ATOM     41  C   UNL A   1      42.361  28.191  28.346  1.00  0.00     0.031 A 
ATOM     42  C   UNL A   1      43.759  28.726  28.407  1.00  0.00     0.074 A 
ATOM     43  C   UNL A   1      41.337  28.925  28.816  1.00  0.00     0.049 A 
ATOM     44  N   UNL A   1      44.173  29.893  28.830  1.00  0.00    -0.248 NA
ATOM     45  C   UNL A   1      44.831  27.838  27.937  1.00  0.00     0.031 C 
ATOM     46  C   UNL A   1      39.937  28.496  28.827  1.00  0.00     0.029 A 
ATOM     47  N   UNL A   1      41.310  30.179  29.370  1.00  0.00    -0.354 N 
ATOM     48  C   UNL A   1      45.550  29.896  28.657  1.00  0.00     0.074 A 
ATOM     49  C   UNL A   1      45.907  28.591  28.135  1.00  0.00     0.031 C 
ATOM     50  C   UNL A   1      39.184  29.479  29.344  1.00  0.00     0.029 A 
ATOM     51  C   UNL A   1      40.049  30.592  29.725  1.00  0.00     0.049 A 
ATOM     52  H   UNL A   1      42.115  30.729  29.501  1.00  0.00     0.167 HD
ATOM     53  C   UNL A   1      46.427  30.902  28.896  1.00  0.00     0.037 A 
ATOM     54  C   UNL A   1      39.636  31.739  30.294  1.00  0.00     0.037 A 
ATOM     55  C   UNL A   1      46.066  32.192  29.434  1.00  0.00     0.049 A 
ATOM     56  C   UNL A   1      40.640  32.815  30.602  1.00  0.00     0.074 A 
ATOM     57  C   UNL A   1      46.884  33.283  29.680  1.00  0.00     0.029 A 
ATOM     58  N   UNL A   1      44.786  32.564  29.822  1.00  0.00    -0.354 N 
ATOM     59  N   UNL A   1      41.930  32.831  30.375  1.00  0.00    -0.248 NA
ATOM     60  C   UNL A   1      40.126  34.035  31.239  1.00  0.00     0.031 C 
ATOM     61  C   UNL A   1      46.113  34.291  30.268  1.00  0.00     0.029 A 
ATOM     62  C   UNL A   1      44.800  33.855  30.333  1.00  0.00     0.049 A 
ATOM     63  H   UNL A   1      43.986  31.996  29.745  1.00  0.00     0.167 HD
ATOM     64  C   UNL A   1      42.380  34.067  30.821  1.00  0.00     0.074 A 
ATOM     65  C   UNL A   1      41.218  34.782  31.308  1.00  0.00     0.031 C 
ATOM     66  C   UNL A   1      43.643  34.560  30.829  1.00  0.00     0.037 A 
BRANCH  53  67
ATOM     67  C   UNL A   1      47.874  30.665  28.570  1.00  0.00     0.064 A 
ATOM     68  C   UNL A   1      48.450  31.174  27.396  1.00  0.00     0.173 A 
ATOM     69  C   UNL A   1      48.715  30.007  29.480  1.00  0.00     0.173 A 
ATOM     70  F   UNL A   1      47.690  31.809  26.491  1.00  0.00    -0.203 F 
ATOM     71  C   UNL A   1      49.811  31.020  27.140  1.00  0.00     0.198 A 
ATOM     72  C   UNL A   1      50.080  29.880  29.234  1.00  0.00     0.198 A 
ATOM     73  F   UNL A   1      48.219  29.510  30.623  1.00  0.00    -0.203 F 
ATOM     74  F   UNL A   1      50.334  31.491  25.999  1.00  0.00    -0.200 F 
ATOM     75  C   UNL A   1      50.627  30.383  28.063  1.00  0.00     0.200 A 
ATOM     76  F   UNL A   1      50.870  29.280  30.136  1.00  0.00    -0.200 F 
ATOM     77  F   UNL A   1      51.938  30.255  27.825  1.00  0.00    -0.200 F 
ENDBRANCH  53  67
BRANCH  54  78
ATOM     78  C   UNL A   1      38.191  31.935  30.576  1.00  0.00     0.064 A 
ATOM     79  C   UNL A   1      37.661  31.652  31.841  1.00  0.00     0.173 A 
ATOM     80  C   UNL A   1      37.318  32.431  29.597  1.00  0.00     0.173 A 
ATOM     81  F   UNL A   1      38.454  31.156  32.803  1.00  0.00    -0.203 F 
ATOM     82  C   UNL A   1      36.309  31.847  32.114  1.00  0.00     0.198 A 
ATOM     83  C   UNL A   1      35.974  32.655  29.880  1.00  0.00     0.198 A 
ATOM     84  F   UNL A   1      37.779  32.723  28.371  1.00  0.00    -0.203 F 
ATOM     85  F   UNL A   1      35.820  31.533  33.322  1.00  0.00    -0.200 F 
ATOM     86  C   UNL A   1      35.468  32.357  31.136  1.00  0.00     0.200 A 
ATOM     87  F   UNL A   1      35.168  33.164  28.937  1.00  0.00    -0.200 F 
ATOM     88  F   UNL A   1      34.171  32.557  31.404  1.00  0.00    -0.200 F 
ENDBRANCH  54  78
BRANCH  66  89
ATOM     89  C   UNL A   1      43.840  35.947  31.375  1.00  0.00     0.064 A 
ATOM     90  C   UNL A   1      44.057  36.174  32.743  1.00  0.00     0.173 A 
ATOM     91  C   UNL A   1      43.844  37.060  30.520  1.00  0.00     0.173 A 
ATOM     92  F   UNL A   1      44.049  35.147  33.607  1.00  0.00    -0.203 F 
ATOM     93  C   UNL A   1      44.243  37.463  33.236  1.00  0.00     0.198 A 
ATOM     94  C   UNL A   1      44.064  38.343  31.012  1.00  0.00     0.198 A 
ATOM     95  F   UNL A   1      43.647  36.901  29.202  1.00  0.00    -0.203 F 
ATOM     96  F   UNL A   1      44.396  37.658  34.554  1.00  0.00    -0.200 F 
ATOM     97  C   UNL A   1      44.254  38.545  32.370  1.00  0.00     0.200 A 
ATOM     98  F   UNL A   1      44.091  39.386  30.171  1.00  0.00    -0.200 F 
ATOM     99  F   UNL A   1      44.442  39.784  32.846  1.00  0.00    -0.200 F 
ENDBRANCH  66  89
ENDBRANCH  40  41
ENDBRANCH  33  35
ENDBRANCH  32  33
ENDBRANCH  31  32
ENDBRANCH  30  31
ENDBRANCH  29  30
ENDBRANCH  28  29
ENDBRANCH   1  28
TORSDOF 21
ENDMDL
