MODEL 1
REMARK VINA RESULT:     -11.2      0.000      0.000
REMARK SMILES O=C(OCCOCCOCCOC(=O)[C@@H]1Cc2[nH]cnc2CN1C(=O)NCC(F)(F)F)c1ccc(-c2c3nc(c(-c4c(F)c(F)c(F)c(F)c4F)c4ccc([nH]4)c(-c4c(F)c(F)c(F)c(F)c4F)c4nc(c(-c5c(F)c(F)c(F)c(F)c5F)c5ccc2[nH]5)C=C4)C=C3)cc1
REMARK SMILES IDX 8 1 7 2 6 3 5 4 4 5 3 6 2 7 1 8 32 9 33 10 94 11 34 12 93 13
REMARK SMILES IDX 35 14 36 15 37 16 87 17 38 18 92 19 86 20 88 21 39 22 91 23
REMARK SMILES IDX 85 24 84 25 40 27 72 28 52 29 71 30 53 31 56 32 70 33 89 34
REMARK SMILES IDX 54 35 55 36 69 38 90 39 57 40 41 41 42 42 50 43 43 44 44 45
REMARK SMILES IDX 48 46 51 47 45 48 46 49 49 50 47 51 73 52 74 53 82 54 75 55
REMARK SMILES IDX 76 56 80 57 83 58 77 59 78 60 81 61 79 62 58 63 59 64 67 65
REMARK SMILES IDX 60 66 61 67 65 68 68 69 62 70 63 71 66 72 64 73 9 74 10 75
REMARK SMILES IDX 11 76 12 77 13 78 14 79 15 80 16 81 23 82 17 83 22 84 18 85
REMARK SMILES IDX 21 86 19 87 20 89 24 90 25 91 26 92 27 94 28 95 29 96 30 97
REMARK SMILES IDX 31 98
REMARK H PARENT 88 26 56 37 18 88 26 93
REMARK Flexibility Score: inf
ROOT
ATOM      1  C   UNL A   1      39.586  22.475  26.760  1.00  0.00     0.188 C 
ENDROOT
BRANCH   1   2
ATOM      2  C   UNL A   1      40.103  21.070  26.381  1.00  0.00     0.188 C 
BRANCH   2   3
ATOM      3  O   UNL A   1      40.689  20.321  27.412  1.00  0.00    -0.376 OA
BRANCH   3   4
ATOM      4  C   UNL A   1      42.031  19.877  27.335  1.00  0.00     0.202 C 
BRANCH   4   5
ATOM      5  C   UNL A   1      42.561  19.047  26.156  1.00  0.00     0.261 C 
BRANCH   5   6
ATOM      6  O   UNL A   1      43.134  19.759  25.056  1.00  0.00    -0.460 OA
BRANCH   6   7
ATOM      7  C   UNL A   1      44.288  20.441  24.945  1.00  0.00     0.338 C 
ATOM      8  O   UNL A   1      45.309  19.825  24.643  1.00  0.00    -0.246 OA
BRANCH   7   9
ATOM      9  C   UNL A   1      44.454  21.870  25.337  1.00  0.00     0.060 A 
ATOM     10  C   UNL A   1      45.456  22.402  26.150  1.00  0.00     0.016 A 
ATOM     11  C   UNL A   1      43.444  22.728  24.850  1.00  0.00     0.016 A 
ATOM     12  C   UNL A   1      45.337  23.698  26.630  1.00  0.00     0.010 A 
ATOM     13  C   UNL A   1      43.326  24.023  25.315  1.00  0.00     0.010 A 
ATOM     14  C   UNL A   1      44.222  24.458  26.279  1.00  0.00    -0.014 A 
BRANCH  14  15
ATOM     15  C   UNL A   1      43.989  25.701  26.988  1.00  0.00     0.031 A 
ATOM     16  C   UNL A   1      44.966  26.779  26.711  1.00  0.00     0.074 A 
ATOM     17  C   UNL A   1      42.906  25.845  27.778  1.00  0.00     0.049 A 
ATOM     18  N   UNL A   1      45.804  27.319  27.532  1.00  0.00    -0.248 NA
ATOM     19  C   UNL A   1      45.112  27.230  25.319  1.00  0.00     0.031 C 
ATOM     20  C   UNL A   1      41.756  24.945  27.918  1.00  0.00     0.029 A 
ATOM     21  N   UNL A   1      42.564  26.894  28.572  1.00  0.00    -0.354 N 
ATOM     22  C   UNL A   1      46.465  28.309  26.808  1.00  0.00     0.074 A 
ATOM     23  C   UNL A   1      46.116  28.103  25.427  1.00  0.00     0.031 C 
ATOM     24  C   UNL A   1      40.754  25.593  28.555  1.00  0.00     0.029 A 
ATOM     25  C   UNL A   1      41.238  26.891  28.987  1.00  0.00     0.049 A 
ATOM     26  H   UNL A   1      43.203  27.596  28.833  1.00  0.00     0.167 HD
ATOM     27  C   UNL A   1      47.059  29.362  27.434  1.00  0.00     0.037 A 
ATOM     28  C   UNL A   1      40.585  27.929  29.566  1.00  0.00     0.037 A 
ATOM     29  C   UNL A   1      47.281  29.082  28.828  1.00  0.00     0.049 A 
ATOM     30  C   UNL A   1      41.616  28.853  30.111  1.00  0.00     0.074 A 
ATOM     31  C   UNL A   1      48.024  28.148  29.523  1.00  0.00     0.029 A 
ATOM     32  N   UNL A   1      46.398  29.606  29.739  1.00  0.00    -0.354 N 
ATOM     33  N   UNL A   1      42.390  28.552  31.117  1.00  0.00    -0.248 NA
ATOM     34  C   UNL A   1      42.115  29.899  29.230  1.00  0.00     0.031 C 
ATOM     35  C   UNL A   1      47.224  27.809  30.653  1.00  0.00     0.029 A 
ATOM     36  C   UNL A   1      46.078  28.603  30.617  1.00  0.00     0.049 A 
ATOM     37  H   UNL A   1      46.058  30.530  29.759  1.00  0.00     0.167 HD
ATOM     38  C   UNL A   1      43.637  29.048  30.765  1.00  0.00     0.074 A 
ATOM     39  C   UNL A   1      43.391  29.927  29.623  1.00  0.00     0.031 C 
ATOM     40  C   UNL A   1      44.782  28.474  31.236  1.00  0.00     0.037 A 
BRANCH  27  41
ATOM     41  C   UNL A   1      47.096  30.769  26.888  1.00  0.00     0.064 A 
ATOM     42  C   UNL A   1      48.312  31.482  26.915  1.00  0.00     0.173 A 
ATOM     43  C   UNL A   1      45.943  31.544  26.644  1.00  0.00     0.173 A 
ATOM     44  F   UNL A   1      49.471  30.848  27.150  1.00  0.00    -0.203 F 
ATOM     45  C   UNL A   1      48.355  32.874  26.804  1.00  0.00     0.198 A 
ATOM     46  C   UNL A   1      45.994  32.927  26.480  1.00  0.00     0.198 A 
ATOM     47  F   UNL A   1      44.711  31.021  26.669  1.00  0.00    -0.203 F 
ATOM     48  F   UNL A   1      49.516  33.520  26.973  1.00  0.00    -0.200 F 
ATOM     49  C   UNL A   1      47.194  33.597  26.596  1.00  0.00     0.200 A 
ATOM     50  F   UNL A   1      44.856  33.610  26.295  1.00  0.00    -0.200 F 
ATOM     51  F   UNL A   1      47.221  34.934  26.559  1.00  0.00    -0.200 F 
ENDBRANCH  27  41
BRANCH  28  52
ATOM     52  C   UNL A   1      39.177  28.345  29.347  1.00  0.00     0.064 A 
ATOM     53  C   UNL A   1      38.288  28.505  30.423  1.00  0.00     0.173 A 
ATOM     54  C   UNL A   1      38.751  28.859  28.105  1.00  0.00     0.173 A 
ATOM     55  F   UNL A   1      38.636  28.090  31.651  1.00  0.00    -0.203 F 
ATOM     56  C   UNL A   1      37.059  29.156  30.269  1.00  0.00     0.198 A 
ATOM     57  C   UNL A   1      37.523  29.502  27.951  1.00  0.00     0.198 A 
ATOM     58  F   UNL A   1      39.561  28.835  27.038  1.00  0.00    -0.203 F 
ATOM     59  F   UNL A   1      36.263  29.344  31.331  1.00  0.00    -0.200 F 
ATOM     60  C   UNL A   1      36.682  29.662  29.035  1.00  0.00     0.200 A 
ATOM     61  F   UNL A   1      37.191  30.021  26.762  1.00  0.00    -0.200 F 
ATOM     62  F   UNL A   1      35.533  30.339  28.900  1.00  0.00    -0.200 F 
ENDBRANCH  28  52
BRANCH  40  63
ATOM     63  C   UNL A   1      44.656  27.450  32.328  1.00  0.00     0.064 A 
ATOM     64  C   UNL A   1      44.444  26.080  32.095  1.00  0.00     0.173 A 
ATOM     65  C   UNL A   1      44.917  27.848  33.645  1.00  0.00     0.173 A 
ATOM     66  F   UNL A   1      44.295  25.605  30.852  1.00  0.00    -0.203 F 
ATOM     67  C   UNL A   1      44.449  25.160  33.143  1.00  0.00     0.198 A 
ATOM     68  C   UNL A   1      44.958  26.924  34.684  1.00  0.00     0.198 A 
ATOM     69  F   UNL A   1      45.188  29.135  33.915  1.00  0.00    -0.203 F 
ATOM     70  F   UNL A   1      44.240  23.858  32.897  1.00  0.00    -0.200 F 
ATOM     71  C   UNL A   1      44.714  25.583  34.435  1.00  0.00     0.200 A 
ATOM     72  F   UNL A   1      45.270  27.329  35.922  1.00  0.00    -0.200 F 
ATOM     73  F   UNL A   1      44.767  24.693  35.437  1.00  0.00    -0.200 F 
ENDBRANCH  40  63
ENDBRANCH  14  15
ENDBRANCH   7   9
ENDBRANCH   6   7
ENDBRANCH   5   6
ENDBRANCH   4   5
ENDBRANCH   3   4
ENDBRANCH   2   3
ENDBRANCH   1   2
BRANCH   1  74
ATOM     74  O   UNL A   1      38.539  23.146  26.076  1.00  0.00    -0.376 OA
BRANCH  74  75
ATOM     75  C   UNL A   1      37.601  22.446  25.279  1.00  0.00     0.202 C 
BRANCH  75  76
ATOM     76  C   UNL A   1      36.766  23.236  24.257  1.00  0.00     0.261 C 
BRANCH  76  77
ATOM     77  O   UNL A   1      35.396  23.457  24.631  1.00  0.00    -0.462 OA
BRANCH  77  78
ATOM     78  C   UNL A   1      34.520  23.538  23.592  1.00  0.00     0.329 C 
ATOM     79  O   UNL A   1      34.191  22.583  22.911  1.00  0.00    -0.250 OA
BRANCH  78  80
ATOM     80  C   UNL A   1      33.984  24.994  23.429  1.00  0.00     0.203 C 
ATOM     81  C   UNL A   1      33.690  25.568  24.853  1.00  0.00     0.093 C 
ATOM     82  N   UNL A   1      32.756  25.128  22.613  1.00  0.00    -0.305 N 
ATOM     83  C   UNL A   1      32.456  24.895  25.339  1.00  0.00     0.042 A 
ATOM     84  C   UNL A   1      31.643  24.229  23.018  1.00  0.00     0.180 C 
ATOM     85  N   UNL A   1      32.134  24.528  26.610  1.00  0.00    -0.348 N 
ATOM     86  C   UNL A   1      31.530  24.279  24.516  1.00  0.00     0.081 A 
ATOM     87  C   UNL A   1      31.051  23.693  26.509  1.00  0.00     0.197 A 
ATOM     88  H   UNL A   1      32.590  24.805  27.436  1.00  0.00     0.167 HD
ATOM     89  N   UNL A   1      30.644  23.552  25.264  1.00  0.00    -0.240 NA
BRANCH  82  90
ATOM     90  C   UNL A   1      32.517  26.003  21.603  1.00  0.00     0.318 C 
ATOM     91  O   UNL A   1      33.079  25.900  20.510  1.00  0.00    -0.249 OA
ATOM     92  N   UNL A   1      31.636  27.018  21.682  1.00  0.00    -0.329 N 
ATOM     93  H   UNL A   1      31.739  27.635  20.921  1.00  0.00     0.165 HD
BRANCH  92  94
ATOM     94  C   UNL A   1      30.564  27.464  22.581  1.00  0.00     0.233 C 
BRANCH  94  95
ATOM     95  C   UNL A   1      31.019  28.378  23.724  1.00  0.00     0.405 C 
ATOM     96  F   UNL A   1      30.883  27.765  24.920  1.00  0.00    -0.169 F 
ATOM     97  F   UNL A   1      32.328  28.696  23.576  1.00  0.00    -0.169 F 
ATOM     98  F   UNL A   1      30.326  29.533  23.758  1.00  0.00    -0.169 F 
ENDBRANCH  94  95
ENDBRANCH  92  94
ENDBRANCH  82  90
ENDBRANCH  78  80
ENDBRANCH  77  78
ENDBRANCH  76  77
ENDBRANCH  75  76
ENDBRANCH  74  75
ENDBRANCH   1  74
TORSDOF 20
ENDMDL
MODEL 2
REMARK VINA RESULT:     -11.2      2.819      4.295
REMARK SMILES O=C(OCCOCCOCCOC(=O)[C@@H]1Cc2[nH]cnc2CN1C(=O)NCC(F)(F)F)c1ccc(-c2c3nc(c(-c4c(F)c(F)c(F)c(F)c4F)c4ccc([nH]4)c(-c4c(F)c(F)c(F)c(F)c4F)c4nc(c(-c5c(F)c(F)c(F)c(F)c5F)c5ccc2[nH]5)C=C4)C=C3)cc1
REMARK SMILES IDX 8 1 7 2 6 3 5 4 4 5 3 6 2 7 1 8 32 9 33 10 94 11 34 12 93 13
REMARK SMILES IDX 35 14 36 15 37 16 87 17 38 18 92 19 86 20 88 21 39 22 91 23
REMARK SMILES IDX 85 24 84 25 40 27 72 28 52 29 71 30 53 31 56 32 70 33 89 34
REMARK SMILES IDX 54 35 55 36 69 38 90 39 57 40 41 41 42 42 50 43 43 44 44 45
REMARK SMILES IDX 48 46 51 47 45 48 46 49 49 50 47 51 73 52 74 53 82 54 75 55
REMARK SMILES IDX 76 56 80 57 83 58 77 59 78 60 81 61 79 62 58 63 59 64 67 65
REMARK SMILES IDX 60 66 61 67 65 68 68 69 62 70 63 71 66 72 64 73 9 74 10 75
REMARK SMILES IDX 11 76 12 77 13 78 14 79 15 80 16 81 23 82 17 83 22 84 18 85
REMARK SMILES IDX 21 86 19 87 20 89 24 90 25 91 26 92 27 94 28 95 29 96 30 97
REMARK SMILES IDX 31 98
REMARK H PARENT 88 26 56 37 18 88 26 93
REMARK Flexibility Score: inf
ROOT
ATOM      1  C   UNL A   1      35.031  24.078  23.940  1.00  0.00     0.188 C 
ENDROOT
BRANCH   1   2
ATOM      2  C   UNL A   1      36.312  23.255  24.201  1.00  0.00     0.188 C 
BRANCH   2   3
ATOM      3  O   UNL A   1      36.214  22.234  25.157  1.00  0.00    -0.376 OA
BRANCH   3   4
ATOM      4  C   UNL A   1      37.047  21.091  25.108  1.00  0.00     0.202 C 
BRANCH   4   5
ATOM      5  C   UNL A   1      38.515  21.117  25.560  1.00  0.00     0.261 C 
BRANCH   5   6
ATOM      6  O   UNL A   1      39.010  22.336  26.118  1.00  0.00    -0.460 OA
BRANCH   6   7
ATOM      7  C   UNL A   1      40.004  22.572  26.994  1.00  0.00     0.338 C 
ATOM      8  O   UNL A   1      40.406  21.641  27.691  1.00  0.00    -0.246 OA
BRANCH   7   9
ATOM      9  C   UNL A   1      40.536  23.929  27.308  1.00  0.00     0.060 A 
ATOM     10  C   UNL A   1      41.481  24.250  28.283  1.00  0.00     0.016 A 
ATOM     11  C   UNL A   1      39.961  24.970  26.546  1.00  0.00     0.016 A 
ATOM     12  C   UNL A   1      41.690  25.577  28.628  1.00  0.00     0.010 A 
ATOM     13  C   UNL A   1      40.174  26.293  26.877  1.00  0.00     0.010 A 
ATOM     14  C   UNL A   1      40.961  26.575  27.982  1.00  0.00    -0.014 A 
BRANCH  14  15
ATOM     15  C   UNL A   1      41.003  27.918  28.528  1.00  0.00     0.031 A 
ATOM     16  C   UNL A   1      42.111  28.767  28.033  1.00  0.00     0.074 A 
ATOM     17  C   UNL A   1      40.040  28.344  29.370  1.00  0.00     0.049 A 
ATOM     18  N   UNL A   1      43.102  29.249  28.706  1.00  0.00    -0.248 NA
ATOM     19  C   UNL A   1      42.194  29.010  26.585  1.00  0.00     0.031 C 
ATOM     20  C   UNL A   1      38.779  27.683  29.717  1.00  0.00     0.029 A 
ATOM     21  N   UNL A   1      39.953  29.527  30.035  1.00  0.00    -0.354 N 
ATOM     22  C   UNL A   1      43.842  30.012  27.805  1.00  0.00     0.074 A 
ATOM     23  C   UNL A   1      43.332  29.701  26.496  1.00  0.00     0.031 C 
ATOM     24  C   UNL A   1      37.962  28.569  30.333  1.00  0.00     0.029 A 
ATOM     25  C   UNL A   1      38.690  29.806  30.544  1.00  0.00     0.049 A 
ATOM     26  H   UNL A   1      40.720  30.134  30.148  1.00  0.00     0.167 HD
ATOM     27  C   UNL A   1      44.658  31.014  28.234  1.00  0.00     0.037 A 
ATOM     28  C   UNL A   1      38.274  31.006  31.021  1.00  0.00     0.037 A 
ATOM     29  C   UNL A   1      44.965  30.874  29.633  1.00  0.00     0.049 A 
ATOM     30  C   UNL A   1      39.490  31.795  31.355  1.00  0.00     0.074 A 
ATOM     31  C   UNL A   1      45.610  29.917  30.392  1.00  0.00     0.029 A 
ATOM     32  N   UNL A   1      44.272  31.652  30.527  1.00  0.00    -0.354 N 
ATOM     33  N   UNL A   1      40.299  31.491  32.332  1.00  0.00    -0.248 NA
ATOM     34  C   UNL A   1      40.065  32.622  30.303  1.00  0.00     0.031 C 
ATOM     35  C   UNL A   1      44.879  29.865  31.616  1.00  0.00     0.029 A 
ATOM     36  C   UNL A   1      43.880  30.836  31.556  1.00  0.00     0.049 A 
ATOM     37  H   UNL A   1      44.091  32.616  30.444  1.00  0.00     0.167 HD
ATOM     38  C   UNL A   1      41.570  31.714  31.822  1.00  0.00     0.074 A 
ATOM     39  C   UNL A   1      41.361  32.476  30.592  1.00  0.00     0.031 C 
ATOM     40  C   UNL A   1      42.646  31.012  32.281  1.00  0.00     0.037 A 
BRANCH  27  41
ATOM     41  C   UNL A   1      44.870  32.315  27.498  1.00  0.00     0.064 A 
ATOM     42  C   UNL A   1      46.076  32.514  26.795  1.00  0.00     0.173 A 
ATOM     43  C   UNL A   1      44.097  33.475  27.719  1.00  0.00     0.173 A 
ATOM     44  F   UNL A   1      46.896  31.483  26.538  1.00  0.00    -0.203 F 
ATOM     45  C   UNL A   1      46.515  33.789  26.429  1.00  0.00     0.198 A 
ATOM     46  C   UNL A   1      44.513  34.738  27.305  1.00  0.00     0.198 A 
ATOM     47  F   UNL A   1      42.970  33.456  28.441  1.00  0.00    -0.203 F 
ATOM     48  F   UNL A   1      47.730  33.944  25.885  1.00  0.00    -0.200 F 
ATOM     49  C   UNL A   1      45.738  34.902  26.693  1.00  0.00     0.200 A 
ATOM     50  F   UNL A   1      43.752  35.805  27.586  1.00  0.00    -0.200 F 
ATOM     51  F   UNL A   1      46.185  36.130  26.408  1.00  0.00    -0.200 F 
ENDBRANCH  27  41
BRANCH  28  52
ATOM     52  C   UNL A   1      36.938  31.630  30.853  1.00  0.00     0.064 A 
ATOM     53  C   UNL A   1      36.117  31.903  31.959  1.00  0.00     0.173 A 
ATOM     54  C   UNL A   1      36.557  32.222  29.632  1.00  0.00     0.173 A 
ATOM     55  F   UNL A   1      36.435  31.421  33.169  1.00  0.00    -0.203 F 
ATOM     56  C   UNL A   1      34.994  32.733  31.852  1.00  0.00     0.198 A 
ATOM     57  C   UNL A   1      35.435  33.043  29.525  1.00  0.00     0.198 A 
ATOM     58  F   UNL A   1      37.322  32.096  28.538  1.00  0.00    -0.203 F 
ATOM     59  F   UNL A   1      34.268  33.019  32.942  1.00  0.00    -0.200 F 
ATOM     60  C   UNL A   1      34.660  33.310  30.637  1.00  0.00     0.200 A 
ATOM     61  F   UNL A   1      35.148  33.626  28.353  1.00  0.00    -0.200 F 
ATOM     62  F   UNL A   1      33.622  34.152  30.548  1.00  0.00    -0.200 F 
ENDBRANCH  28  52
BRANCH  40  63
ATOM     63  C   UNL A   1      42.461  30.169  33.510  1.00  0.00     0.064 A 
ATOM     64  C   UNL A   1      42.571  30.662  34.822  1.00  0.00     0.173 A 
ATOM     65  C   UNL A   1      42.002  28.855  33.352  1.00  0.00     0.173 A 
ATOM     66  F   UNL A   1      42.898  31.939  35.054  1.00  0.00    -0.203 F 
ATOM     67  C   UNL A   1      42.276  29.859  35.924  1.00  0.00     0.198 A 
ATOM     68  C   UNL A   1      41.673  28.067  34.450  1.00  0.00     0.198 A 
ATOM     69  F   UNL A   1      41.819  28.353  32.121  1.00  0.00    -0.203 F 
ATOM     70  F   UNL A   1      42.393  30.351  37.166  1.00  0.00    -0.200 F 
ATOM     71  C   UNL A   1      41.820  28.565  35.735  1.00  0.00     0.200 A 
ATOM     72  F   UNL A   1      41.180  26.835  34.262  1.00  0.00    -0.200 F 
ATOM     73  F   UNL A   1      41.491  27.807  36.791  1.00  0.00    -0.200 F 
ENDBRANCH  40  63
ENDBRANCH  14  15
ENDBRANCH   7   9
ENDBRANCH   6   7
ENDBRANCH   5   6
ENDBRANCH   4   5
ENDBRANCH   3   4
ENDBRANCH   2   3
ENDBRANCH   1   2
BRANCH   1  74
ATOM     74  O   UNL A   1      33.894  24.066  24.789  1.00  0.00    -0.376 OA
BRANCH  74  75
ATOM     75  C   UNL A   1      32.578  24.008  24.270  1.00  0.00     0.202 C 
BRANCH  75  76
ATOM     76  C   UNL A   1      32.375  24.163  22.753  1.00  0.00     0.261 C 
BRANCH  76  77
ATOM     77  O   UNL A   1      31.515  25.246  22.361  1.00  0.00    -0.462 OA
BRANCH  77  78
ATOM     78  C   UNL A   1      32.125  26.459  22.257  1.00  0.00     0.329 C 
ATOM     79  O   UNL A   1      33.320  26.597  22.068  1.00  0.00    -0.250 OA
BRANCH  78  80
ATOM     80  C   UNL A   1      31.086  27.616  22.377  1.00  0.00     0.203 C 
ATOM     81  C   UNL A   1      31.867  28.949  22.615  1.00  0.00     0.093 C 
ATOM     82  N   UNL A   1      30.090  27.462  23.461  1.00  0.00    -0.305 N 
ATOM     83  C   UNL A   1      32.365  28.908  24.016  1.00  0.00     0.042 A 
ATOM     84  C   UNL A   1      30.671  27.174  24.799  1.00  0.00     0.180 C 
ATOM     85  N   UNL A   1      33.527  29.408  24.519  1.00  0.00    -0.348 N 
ATOM     86  C   UNL A   1      31.836  28.101  25.007  1.00  0.00     0.081 A 
ATOM     87  C   UNL A   1      33.670  28.873  25.773  1.00  0.00     0.197 A 
ATOM     88  H   UNL A   1      34.144  30.029  24.070  1.00  0.00     0.167 HD
ATOM     89  N   UNL A   1      32.649  28.109  26.107  1.00  0.00    -0.240 NA
BRANCH  82  90
ATOM     90  C   UNL A   1      28.743  27.616  23.384  1.00  0.00     0.318 C 
ATOM     91  O   UNL A   1      27.968  26.791  23.873  1.00  0.00    -0.249 OA
ATOM     92  N   UNL A   1      28.139  28.677  22.816  1.00  0.00    -0.329 N 
ATOM     93  H   UNL A   1      27.174  28.516  22.704  1.00  0.00     0.165 HD
BRANCH  92  94
ATOM     94  C   UNL A   1      28.514  30.008  22.319  1.00  0.00     0.233 C 
BRANCH  94  95
ATOM     95  C   UNL A   1      28.495  31.119  23.374  1.00  0.00     0.405 C 
ATOM     96  F   UNL A   1      28.529  32.339  22.795  1.00  0.00    -0.169 F 
ATOM     97  F   UNL A   1      27.360  31.047  24.109  1.00  0.00    -0.169 F 
ATOM     98  F   UNL A   1      29.534  31.026  24.227  1.00  0.00    -0.169 F 
ENDBRANCH  94  95
ENDBRANCH  92  94
ENDBRANCH  82  90
ENDBRANCH  78  80
ENDBRANCH  77  78
ENDBRANCH  76  77
ENDBRANCH  75  76
ENDBRANCH  74  75
ENDBRANCH   1  74
TORSDOF 20
ENDMDL
MODEL 3
REMARK VINA RESULT:     -11.1      3.212      8.649
REMARK SMILES O=C(OCCOCCOCCOC(=O)[C@@H]1Cc2[nH]cnc2CN1C(=O)NCC(F)(F)F)c1ccc(-c2c3nc(c(-c4c(F)c(F)c(F)c(F)c4F)c4ccc([nH]4)c(-c4c(F)c(F)c(F)c(F)c4F)c4nc(c(-c5c(F)c(F)c(F)c(F)c5F)c5ccc2[nH]5)C=C4)C=C3)cc1
REMARK SMILES IDX 8 1 7 2 6 3 5 4 4 5 3 6 2 7 1 8 32 9 33 10 94 11 34 12 93 13
REMARK SMILES IDX 35 14 36 15 37 16 87 17 38 18 92 19 86 20 88 21 39 22 91 23
REMARK SMILES IDX 85 24 84 25 40 27 72 28 52 29 71 30 53 31 56 32 70 33 89 34
REMARK SMILES IDX 54 35 55 36 69 38 90 39 57 40 41 41 42 42 50 43 43 44 44 45
REMARK SMILES IDX 48 46 51 47 45 48 46 49 49 50 47 51 73 52 74 53 82 54 75 55
REMARK SMILES IDX 76 56 80 57 83 58 77 59 78 60 81 61 79 62 58 63 59 64 67 65
REMARK SMILES IDX 60 66 61 67 65 68 68 69 62 70 63 71 66 72 64 73 9 74 10 75
REMARK SMILES IDX 11 76 12 77 13 78 14 79 15 80 16 81 23 82 17 83 22 84 18 85
REMARK SMILES IDX 21 86 19 87 20 89 24 90 25 91 26 92 27 94 28 95 29 96 30 97
REMARK SMILES IDX 31 98
REMARK H PARENT 88 26 56 37 18 88 26 93
REMARK Flexibility Score: inf
ROOT
ATOM      1  C   UNL A   1      31.452  27.738  25.358  1.00  0.00     0.188 C 
ENDROOT
BRANCH   1   2
ATOM      2  C   UNL A   1      31.390  29.126  24.682  1.00  0.00     0.188 C 
BRANCH   2   3
ATOM      3  O   UNL A   1      32.131  30.150  25.290  1.00  0.00    -0.376 OA
BRANCH   3   4
ATOM      4  C   UNL A   1      32.549  30.059  26.639  1.00  0.00     0.202 C 
BRANCH   4   5
ATOM      5  C   UNL A   1      33.332  31.179  27.341  1.00  0.00     0.261 C 
BRANCH   5   6
ATOM      6  O   UNL A   1      34.527  30.811  28.035  1.00  0.00    -0.460 OA
BRANCH   6   7
ATOM      7  C   UNL A   1      35.220  31.440  29.002  1.00  0.00     0.338 C 
ATOM      8  O   UNL A   1      34.826  32.540  29.387  1.00  0.00    -0.246 OA
BRANCH   7   9
ATOM      9  C   UNL A   1      36.537  30.975  29.521  1.00  0.00     0.060 A 
ATOM     10  C   UNL A   1      37.720  31.714  29.578  1.00  0.00     0.016 A 
ATOM     11  C   UNL A   1      36.554  29.628  29.945  1.00  0.00     0.016 A 
ATOM     12  C   UNL A   1      38.920  31.073  29.849  1.00  0.00     0.010 A 
ATOM     13  C   UNL A   1      37.744  28.987  30.228  1.00  0.00     0.010 A 
ATOM     14  C   UNL A   1      38.924  29.697  30.077  1.00  0.00    -0.014 A 
BRANCH  14  15
ATOM     15  C   UNL A   1      40.201  29.011  30.103  1.00  0.00     0.031 A 
ATOM     16  C   UNL A   1      40.823  28.883  31.441  1.00  0.00     0.074 A 
ATOM     17  C   UNL A   1      40.714  28.479  28.976  1.00  0.00     0.049 A 
ATOM     18  N   UNL A   1      41.927  29.410  31.856  1.00  0.00    -0.248 NA
ATOM     19  C   UNL A   1      40.064  28.181  32.486  1.00  0.00     0.031 C 
ATOM     20  C   UNL A   1      40.069  28.325  27.668  1.00  0.00     0.029 A 
ATOM     21  N   UNL A   1      41.917  27.873  28.790  1.00  0.00    -0.354 N 
ATOM     22  C   UNL A   1      42.100  28.960  33.163  1.00  0.00     0.074 A 
ATOM     23  C   UNL A   1      40.856  28.344  33.547  1.00  0.00     0.031 C 
ATOM     24  C   UNL A   1      40.792  27.470  26.908  1.00  0.00     0.029 A 
ATOM     25  C   UNL A   1      42.011  27.131  27.619  1.00  0.00     0.049 A 
ATOM     26  H   UNL A   1      42.661  27.955  29.431  1.00  0.00     0.167 HD
ATOM     27  C   UNL A   1      43.333  28.923  33.739  1.00  0.00     0.037 A 
ATOM     28  C   UNL A   1      42.991  26.242  27.319  1.00  0.00     0.037 A 
ATOM     29  C   UNL A   1      44.262  29.768  33.035  1.00  0.00     0.049 A 
ATOM     30  C   UNL A   1      44.154  26.554  28.192  1.00  0.00     0.074 A 
ATOM     31  C   UNL A   1      44.336  31.122  32.775  1.00  0.00     0.029 A 
ATOM     32  N   UNL A   1      45.138  29.174  32.160  1.00  0.00    -0.354 N 
ATOM     33  N   UNL A   1      44.866  27.641  28.080  1.00  0.00    -0.248 NA
ATOM     34  C   UNL A   1      44.215  25.899  29.492  1.00  0.00     0.031 C 
ATOM     35  C   UNL A   1      44.857  31.214  31.451  1.00  0.00     0.029 A 
ATOM     36  C   UNL A   1      45.132  29.920  31.011  1.00  0.00     0.049 A 
ATOM     37  H   UNL A   1      45.670  28.363  32.327  1.00  0.00     0.167 HD
ATOM     38  C   UNL A   1      45.113  28.039  29.386  1.00  0.00     0.074 A 
ATOM     39  C   UNL A   1      44.746  26.891  30.212  1.00  0.00     0.031 C 
ATOM     40  C   UNL A   1      45.308  29.354  29.696  1.00  0.00     0.037 A 
BRANCH  27  41
ATOM     41  C   UNL A   1      43.797  27.852  34.694  1.00  0.00     0.064 A 
ATOM     42  C   UNL A   1      43.695  26.499  34.308  1.00  0.00     0.173 A 
ATOM     43  C   UNL A   1      44.029  28.075  36.068  1.00  0.00     0.173 A 
ATOM     44  F   UNL A   1      43.464  26.170  33.028  1.00  0.00    -0.203 F 
ATOM     45  C   UNL A   1      43.726  25.460  35.242  1.00  0.00     0.198 A 
ATOM     46  C   UNL A   1      44.113  27.033  36.989  1.00  0.00     0.198 A 
ATOM     47  F   UNL A   1      44.068  29.304  36.596  1.00  0.00    -0.203 F 
ATOM     48  F   UNL A   1      43.489  24.203  34.846  1.00  0.00    -0.200 F 
ATOM     49  C   UNL A   1      43.925  25.729  36.583  1.00  0.00     0.200 A 
ATOM     50  F   UNL A   1      44.291  27.316  38.288  1.00  0.00    -0.200 F 
ATOM     51  F   UNL A   1      43.887  24.744  37.489  1.00  0.00    -0.200 F 
ENDBRANCH  27  41
BRANCH  28  52
ATOM     52  C   UNL A   1      42.847  24.944  26.615  1.00  0.00     0.064 A 
ATOM     53  C   UNL A   1      43.522  24.690  25.410  1.00  0.00     0.173 A 
ATOM     54  C   UNL A   1      42.263  23.829  27.250  1.00  0.00     0.173 A 
ATOM     55  F   UNL A   1      44.149  25.685  24.766  1.00  0.00    -0.203 F 
ATOM     56  C   UNL A   1      43.622  23.396  24.883  1.00  0.00     0.198 A 
ATOM     57  C   UNL A   1      42.358  22.542  26.721  1.00  0.00     0.198 A 
ATOM     58  F   UNL A   1      41.673  23.950  28.447  1.00  0.00    -0.203 F 
ATOM     59  F   UNL A   1      44.326  23.182  23.762  1.00  0.00    -0.200 F 
ATOM     60  C   UNL A   1      43.049  22.322  25.545  1.00  0.00     0.200 A 
ATOM     61  F   UNL A   1      41.833  21.508  27.393  1.00  0.00    -0.200 F 
ATOM     62  F   UNL A   1      43.196  21.076  25.074  1.00  0.00    -0.200 F 
ENDBRANCH  28  52
BRANCH  40  63
ATOM     63  C   UNL A   1      45.485  30.324  28.563  1.00  0.00     0.064 A 
ATOM     64  C   UNL A   1      44.418  30.947  27.892  1.00  0.00     0.173 A 
ATOM     65  C   UNL A   1      46.781  30.756  28.255  1.00  0.00     0.173 A 
ATOM     66  F   UNL A   1      43.147  30.667  28.206  1.00  0.00    -0.203 F 
ATOM     67  C   UNL A   1      44.646  31.925  26.924  1.00  0.00     0.198 A 
ATOM     68  C   UNL A   1      47.004  31.758  27.316  1.00  0.00     0.198 A 
ATOM     69  F   UNL A   1      47.833  30.241  28.910  1.00  0.00    -0.203 F 
ATOM     70  F   UNL A   1      43.612  32.501  26.293  1.00  0.00    -0.200 F 
ATOM     71  C   UNL A   1      45.939  32.335  26.643  1.00  0.00     0.200 A 
ATOM     72  F   UNL A   1      48.252  32.190  27.088  1.00  0.00    -0.200 F 
ATOM     73  F   UNL A   1      46.157  33.309  25.748  1.00  0.00    -0.200 F 
ENDBRANCH  40  63
ENDBRANCH  14  15
ENDBRANCH   7   9
ENDBRANCH   6   7
ENDBRANCH   5   6
ENDBRANCH   4   5
ENDBRANCH   3   4
ENDBRANCH   2   3
ENDBRANCH   1   2
BRANCH   1  74
ATOM     74  O   UNL A   1      32.526  26.825  25.197  1.00  0.00    -0.376 OA
BRANCH  74  75
ATOM     75  C   UNL A   1      33.542  27.033  24.233  1.00  0.00     0.202 C 
BRANCH  75  76
ATOM     76  C   UNL A   1      33.768  25.959  23.155  1.00  0.00     0.261 C 
BRANCH  76  77
ATOM     77  O   UNL A   1      34.095  24.653  23.656  1.00  0.00    -0.462 OA
BRANCH  77  78
ATOM     78  C   UNL A   1      33.120  23.715  23.503  1.00  0.00     0.329 C 
ATOM     79  O   UNL A   1      32.077  23.918  22.908  1.00  0.00    -0.250 OA
BRANCH  78  80
ATOM     80  C   UNL A   1      33.543  22.361  24.154  1.00  0.00     0.203 C 
ATOM     81  C   UNL A   1      32.245  21.558  24.493  1.00  0.00     0.093 C 
ATOM     82  N   UNL A   1      34.351  22.479  25.389  1.00  0.00    -0.305 N 
ATOM     83  C   UNL A   1      31.625  22.224  25.669  1.00  0.00     0.042 A 
ATOM     84  C   UNL A   1      33.770  23.372  26.426  1.00  0.00     0.180 C 
ATOM     85  N   UNL A   1      30.304  22.373  25.961  1.00  0.00    -0.348 N 
ATOM     86  C   UNL A   1      32.306  23.053  26.543  1.00  0.00     0.081 A 
ATOM     87  C   UNL A   1      30.232  23.294  26.974  1.00  0.00     0.197 A 
ATOM     88  H   UNL A   1      29.550  21.911  25.530  1.00  0.00     0.167 HD
ATOM     89  N   UNL A   1      31.424  23.696  27.368  1.00  0.00    -0.240 NA
BRANCH  82  90
ATOM     90  C   UNL A   1      35.502  21.828  25.696  1.00  0.00     0.318 C 
ATOM     91  O   UNL A   1      35.575  20.597  25.678  1.00  0.00    -0.249 OA
ATOM     92  N   UNL A   1      36.657  22.449  26.003  1.00  0.00    -0.329 N 
ATOM     93  H   UNL A   1      37.315  21.811  26.365  1.00  0.00     0.165 HD
BRANCH  92  94
ATOM     94  C   UNL A   1      37.212  23.808  25.950  1.00  0.00     0.233 C 
BRANCH  94  95
ATOM     95  C   UNL A   1      38.588  23.968  26.605  1.00  0.00     0.405 C 
ATOM     96  F   UNL A   1      38.473  24.415  27.874  1.00  0.00    -0.169 F 
ATOM     97  F   UNL A   1      39.227  22.774  26.649  1.00  0.00    -0.169 F 
ATOM     98  F   UNL A   1      39.378  24.821  25.924  1.00  0.00    -0.169 F 
ENDBRANCH  94  95
ENDBRANCH  92  94
ENDBRANCH  82  90
ENDBRANCH  78  80
ENDBRANCH  77  78
ENDBRANCH  76  77
ENDBRANCH  75  76
ENDBRANCH  74  75
ENDBRANCH   1  74
TORSDOF 20
ENDMDL
