MODEL 1
REMARK VINA RESULT:     -13.1      0.000      0.000
REMARK SMILES Cc1cccc(COc2ccccc2C(=O)OCCOCCOCCOC(=O)c2ccc(-c3c4nc(c(-c5c(F)c(F)c(F)c(F)c5F)c5ccc([nH]5)c(-c5c(F)c(F)c(F)c(F)c5F)c5nc(c(-c6c(F)c(F)c(F)c(F)c6F)c6ccc3[nH]6)C=C5)C=C4)cc2)n1
REMARK SMILES IDX 21 1 20 2 19 3 18 4 17 5 15 6 16 7 14 8 9 9 10 10 11 11
REMARK SMILES IDX 13 12 12 13 8 14 7 15 6 16 1 17 2 18 3 19 92 20 4 21 5 22
REMARK SMILES IDX 22 23 23 24 24 25 25 26 26 27 27 28 28 29 29 30 30 31 91 32
REMARK SMILES IDX 31 33 90 34 32 35 33 36 34 37 84 38 35 39 89 40 83 41 85 42
REMARK SMILES IDX 36 43 88 44 82 45 81 46 37 48 69 49 49 50 68 51 50 52 53 53
REMARK SMILES IDX 67 54 86 55 51 56 52 57 66 59 87 60 54 61 38 62 39 63 47 64
REMARK SMILES IDX 40 65 41 66 45 67 48 68 42 69 43 70 46 71 44 72 70 73 71 74
REMARK SMILES IDX 79 75 72 76 73 77 77 78 80 79 74 80 75 81 78 82 76 83 55 84
REMARK SMILES IDX 56 85 64 86 57 87 58 88 62 89 65 90 59 91 60 92 63 93 61 94
REMARK H PARENT 85 47 53 58
REMARK Flexibility Score: inf
ROOT
ATOM      1  C   UNL A   1      29.844  30.137  23.507  1.00  0.00     0.188 C 
ENDROOT
BRANCH   1   2
ATOM      2  O   UNL A   1      28.577  29.582  22.776  1.00  0.00    -0.376 OA
BRANCH   2   3
ATOM      3  C   UNL A   1      27.385  28.526  23.140  1.00  0.00     0.202 C 
BRANCH   3   4
ATOM      4  C   UNL A   1      27.623  26.767  23.885  1.00  0.00     0.261 C 
BRANCH   4   5
ATOM      5  O   UNL A   1      29.405  26.372  24.778  1.00  0.00    -0.460 OA
BRANCH   5   6
ATOM      6  C   UNL A   1      30.191  25.902  25.883  1.00  0.00     0.342 C 
ATOM      7  O   UNL A   1      29.931  24.942  26.621  1.00  0.00    -0.246 OA
BRANCH   6   8
ATOM      8  C   UNL A   1      31.484  26.510  26.116  1.00  0.00     0.102 A 
ATOM      9  C   UNL A   1      32.670  26.170  25.491  1.00  0.00     0.134 A 
ATOM     10  C   UNL A   1      33.761  27.026  25.759  1.00  0.00     0.047 A 
ATOM     11  C   UNL A   1      33.657  28.180  26.571  1.00  0.00     0.004 A 
ATOM     12  C   UNL A   1      31.399  27.638  26.994  1.00  0.00     0.019 A 
ATOM     13  C   UNL A   1      32.469  28.483  27.209  1.00  0.00     0.001 A 
BRANCH   9  14
ATOM     14  O   UNL A   1      32.956  25.075  24.724  1.00  0.00    -0.486 OA
BRANCH  14  15
ATOM     15  C   UNL A   1      34.071  24.981  23.779  1.00  0.00     0.285 C 
BRANCH  15  16
ATOM     16  C   UNL A   1      34.343  23.582  23.122  1.00  0.00     0.078 A 
ATOM     17  C   UNL A   1      35.868  20.374  25.038  1.00  0.00     0.067 C 
ATOM     18  C   UNL A   1      34.485  21.177  24.808  1.00  0.00     0.038 A 
ATOM     19  C   UNL A   1      32.864  20.539  24.085  1.00  0.00     0.023 A 
ATOM     20  N   UNL A   1      35.128  22.679  24.311  1.00  0.00    -0.255 NA
ATOM     21  C   UNL A   1      32.205  21.416  22.628  1.00  0.00     0.004 A 
ATOM     22  C   UNL A   1      32.972  22.968  22.184  1.00  0.00     0.027 A 
ENDBRANCH  15  16
ENDBRANCH  14  15
ENDBRANCH   9  14
ENDBRANCH   6   8
ENDBRANCH   5   6
ENDBRANCH   4   5
ENDBRANCH   3   4
ENDBRANCH   2   3
ENDBRANCH   1   2
BRANCH   1  23
ATOM     23  C   UNL A   1      30.027  31.369  24.674  1.00  0.00     0.188 C 
BRANCH  23  24
ATOM     24  O   UNL A   1      31.030  31.477  25.694  1.00  0.00    -0.376 OA
BRANCH  24  25
ATOM     25  C   UNL A   1      31.381  32.550  26.562  1.00  0.00     0.202 C 
BRANCH  25  26
ATOM     26  C   UNL A   1      32.668  32.514  27.386  1.00  0.00     0.261 C 
BRANCH  26  27
ATOM     27  O   UNL A   1      33.219  33.810  27.590  1.00  0.00    -0.460 OA
BRANCH  27  28
ATOM     28  C   UNL A   1      33.667  34.019  28.849  1.00  0.00     0.338 C 
ATOM     29  O   UNL A   1      33.073  34.553  29.767  1.00  0.00    -0.246 OA
BRANCH  28  30
ATOM     30  C   UNL A   1      34.916  33.249  29.003  1.00  0.00     0.060 A 
ATOM     31  C   UNL A   1      34.792  31.896  29.352  1.00  0.00     0.016 A 
ATOM     32  C   UNL A   1      36.163  33.801  28.698  1.00  0.00     0.016 A 
ATOM     33  C   UNL A   1      35.924  31.107  29.466  1.00  0.00     0.010 A 
ATOM     34  C   UNL A   1      37.307  33.021  28.862  1.00  0.00     0.010 A 
ATOM     35  C   UNL A   1      37.184  31.692  29.307  1.00  0.00    -0.014 A 
BRANCH  35  36
ATOM     36  C   UNL A   1      38.324  31.015  29.957  1.00  0.00     0.031 A 
ATOM     37  C   UNL A   1      38.561  31.327  31.410  1.00  0.00     0.074 A 
ATOM     38  C   UNL A   1      39.044  30.074  29.327  1.00  0.00     0.049 A 
ATOM     39  N   UNL A   1      39.454  30.844  32.233  1.00  0.00    -0.248 NA
ATOM     40  C   UNL A   1      37.655  32.316  32.022  1.00  0.00     0.031 C 
ATOM     41  C   UNL A   1      38.850  29.637  27.949  1.00  0.00     0.029 A 
ATOM     42  N   UNL A   1      40.082  29.306  29.788  1.00  0.00    -0.354 N 
ATOM     43  C   UNL A   1      39.217  31.471  33.449  1.00  0.00     0.074 A 
ATOM     44  C   UNL A   1      38.127  32.397  33.253  1.00  0.00     0.031 C 
ATOM     45  C   UNL A   1      39.750  28.677  27.669  1.00  0.00     0.029 A 
ATOM     46  C   UNL A   1      40.599  28.460  28.841  1.00  0.00     0.049 A 
ATOM     47  H   UNL A   1      40.424  29.358  30.709  1.00  0.00     0.167 HD
ATOM     48  C   UNL A   1      39.846  31.280  34.630  1.00  0.00     0.037 A 
ATOM     49  C   UNL A   1      41.652  27.623  28.916  1.00  0.00     0.037 A 
ATOM     50  C   UNL A   1      40.934  30.361  34.816  1.00  0.00     0.049 A 
ATOM     51  C   UNL A   1      42.404  27.503  30.219  1.00  0.00     0.074 A 
ATOM     52  C   UNL A   1      41.646  30.092  35.971  1.00  0.00     0.029 A 
ATOM     53  N   UNL A   1      41.475  29.566  33.816  1.00  0.00    -0.354 N 
ATOM     54  N   UNL A   1      42.175  28.090  31.371  1.00  0.00    -0.248 NA
ATOM     55  C   UNL A   1      43.561  26.597  30.234  1.00  0.00     0.031 C 
ATOM     56  C   UNL A   1      42.667  29.194  35.652  1.00  0.00     0.029 A 
ATOM     57  C   UNL A   1      42.536  28.832  34.319  1.00  0.00     0.049 A 
ATOM     58  H   UNL A   1      41.153  29.531  32.886  1.00  0.00     0.167 HD
ATOM     59  C   UNL A   1      43.127  27.593  32.253  1.00  0.00     0.074 A 
ATOM     60  C   UNL A   1      43.931  26.649  31.505  1.00  0.00     0.031 C 
ATOM     61  C   UNL A   1      43.318  27.885  33.564  1.00  0.00     0.037 A 
BRANCH  48  62
ATOM     62  C   UNL A   1      39.403  32.119  35.793  1.00  0.00     0.064 A 
ATOM     63  C   UNL A   1      38.434  31.677  36.707  1.00  0.00     0.173 A 
ATOM     64  C   UNL A   1      39.973  33.384  36.002  1.00  0.00     0.173 A 
ATOM     65  F   UNL A   1      37.842  30.485  36.541  1.00  0.00    -0.203 F 
ATOM     66  C   UNL A   1      38.032  32.483  37.771  1.00  0.00     0.198 A 
ATOM     67  C   UNL A   1      39.596  34.171  37.087  1.00  0.00     0.198 A 
ATOM     68  F   UNL A   1      40.900  33.858  35.158  1.00  0.00    -0.203 F 
ATOM     69  F   UNL A   1      37.063  32.065  38.596  1.00  0.00    -0.200 F 
ATOM     70  C   UNL A   1      38.620  33.723  37.965  1.00  0.00     0.200 A 
ATOM     71  F   UNL A   1      40.176  35.363  37.282  1.00  0.00    -0.200 F 
ATOM     72  F   UNL A   1      38.240  34.493  38.994  1.00  0.00    -0.200 F 
ENDBRANCH  48  62
BRANCH  49  73
ATOM     73  C   UNL A   1      42.074  26.846  27.720  1.00  0.00     0.064 A 
ATOM     74  C   UNL A   1      41.554  25.570  27.457  1.00  0.00     0.173 A 
ATOM     75  C   UNL A   1      43.039  27.349  26.835  1.00  0.00     0.173 A 
ATOM     76  F   UNL A   1      40.648  25.033  28.286  1.00  0.00    -0.203 F 
ATOM     77  C   UNL A   1      42.002  24.820  26.372  1.00  0.00     0.198 A 
ATOM     78  C   UNL A   1      43.460  26.612  25.730  1.00  0.00     0.198 A 
ATOM     79  F   UNL A   1      43.574  28.561  27.041  1.00  0.00    -0.203 F 
ATOM     80  F   UNL A   1      41.535  23.578  26.181  1.00  0.00    -0.200 F 
ATOM     81  C   UNL A   1      42.950  25.343  25.507  1.00  0.00     0.200 A 
ATOM     82  F   UNL A   1      44.368  27.129  24.890  1.00  0.00    -0.200 F 
ATOM     83  F   UNL A   1      43.383  24.619  24.465  1.00  0.00    -0.200 F 
ENDBRANCH  49  73
BRANCH  61  84
ATOM     84  C   UNL A   1      44.394  27.133  34.298  1.00  0.00     0.064 A 
ATOM     85  C   UNL A   1      45.691  27.645  34.449  1.00  0.00     0.173 A 
ATOM     86  C   UNL A   1      44.104  25.897  34.900  1.00  0.00     0.173 A 
ATOM     87  F   UNL A   1      46.025  28.818  33.891  1.00  0.00    -0.203 F 
ATOM     88  C   UNL A   1      46.667  26.929  35.140  1.00  0.00     0.198 A 
ATOM     89  C   UNL A   1      45.070  25.206  35.624  1.00  0.00     0.198 A 
ATOM     90  F   UNL A   1      42.875  25.367  34.799  1.00  0.00    -0.203 F 
ATOM     91  F   UNL A   1      47.917  27.408  35.217  1.00  0.00    -0.200 F 
ATOM     92  C   UNL A   1      46.354  25.715  35.733  1.00  0.00     0.200 A 
ATOM     93  F   UNL A   1      44.757  24.044  36.215  1.00  0.00    -0.200 F 
ATOM     94  F   UNL A   1      47.292  25.033  36.403  1.00  0.00    -0.200 F 
ENDBRANCH  61  84
ENDBRANCH  35  36
ENDBRANCH  28  30
ENDBRANCH  27  28
ENDBRANCH  26  27
ENDBRANCH  25  26
ENDBRANCH  24  25
ENDBRANCH  23  24
ENDBRANCH   1  23
TORSDOF 20
ENDMDL
MODEL 2
REMARK VINA RESULT:     -12.7      4.427     10.387
REMARK SMILES Cc1cccc(COc2ccccc2C(=O)OCCOCCOCCOC(=O)c2ccc(-c3c4nc(c(-c5c(F)c(F)c(F)c(F)c5F)c5ccc([nH]5)c(-c5c(F)c(F)c(F)c(F)c5F)c5nc(c(-c6c(F)c(F)c(F)c(F)c6F)c6ccc3[nH]6)C=C5)C=C4)cc2)n1
REMARK SMILES IDX 21 1 20 2 19 3 18 4 17 5 15 6 16 7 14 8 9 9 10 10 11 11
REMARK SMILES IDX 13 12 12 13 8 14 7 15 6 16 1 17 2 18 3 19 92 20 4 21 5 22
REMARK SMILES IDX 22 23 23 24 24 25 25 26 26 27 27 28 28 29 29 30 30 31 91 32
REMARK SMILES IDX 31 33 90 34 32 35 33 36 34 37 84 38 35 39 89 40 83 41 85 42
REMARK SMILES IDX 36 43 88 44 82 45 81 46 37 48 69 49 49 50 68 51 50 52 53 53
REMARK SMILES IDX 67 54 86 55 51 56 52 57 66 59 87 60 54 61 38 62 39 63 47 64
REMARK SMILES IDX 40 65 41 66 45 67 48 68 42 69 43 70 46 71 44 72 70 73 71 74
REMARK SMILES IDX 79 75 72 76 73 77 77 78 80 79 74 80 75 81 78 82 76 83 55 84
REMARK SMILES IDX 56 85 64 86 57 87 58 88 62 89 65 90 59 91 60 92 63 93 61 94
REMARK H PARENT 85 47 53 58
REMARK Flexibility Score: inf
ROOT
ATOM      1  C   UNL A   1      36.273  23.550  24.656  1.00  0.00     0.188 C 
ENDROOT
BRANCH   1   2
ATOM      2  O   UNL A   1      35.037  24.384  24.182  1.00  0.00    -0.376 OA
BRANCH   2   3
ATOM      3  C   UNL A   1      34.210  24.558  22.784  1.00  0.00     0.202 C 
BRANCH   3   4
ATOM      4  C   UNL A   1      33.231  23.174  21.872  1.00  0.00     0.261 C 
BRANCH   4   5
ATOM      5  O   UNL A   1      32.461  21.678  23.010  1.00  0.00    -0.460 OA
BRANCH   5   6
ATOM      6  C   UNL A   1      32.285  21.003  24.265  1.00  0.00     0.342 C 
ATOM      7  O   UNL A   1      31.983  19.814  24.430  1.00  0.00    -0.246 OA
BRANCH   6   8
ATOM      8  C   UNL A   1      32.600  21.720  25.483  1.00  0.00     0.102 A 
ATOM      9  C   UNL A   1      32.017  22.900  25.908  1.00  0.00     0.134 A 
ATOM     10  C   UNL A   1      32.366  23.309  27.214  1.00  0.00     0.047 A 
ATOM     11  C   UNL A   1      33.215  22.557  28.059  1.00  0.00     0.004 A 
ATOM     12  C   UNL A   1      33.514  20.996  26.314  1.00  0.00     0.019 A 
ATOM     13  C   UNL A   1      33.809  21.395  27.602  1.00  0.00     0.001 A 
BRANCH   9  14
ATOM     14  O   UNL A   1      31.224  23.769  25.211  1.00  0.00    -0.486 OA
BRANCH  14  15
ATOM     15  C   UNL A   1      31.599  25.136  24.842  1.00  0.00     0.285 C 
BRANCH  15  16
ATOM     16  C   UNL A   1      30.593  26.283  25.209  1.00  0.00     0.078 A 
ATOM     17  C   UNL A   1      31.590  30.152  25.783  1.00  0.00     0.067 C 
ATOM     18  C   UNL A   1      31.281  29.080  24.614  1.00  0.00     0.038 A 
ATOM     19  C   UNL A   1      29.953  29.152  23.277  1.00  0.00     0.023 A 
ATOM     20  N   UNL A   1      31.553  27.641  25.494  1.00  0.00    -0.255 NA
ATOM     21  C   UNL A   1      28.780  27.757  23.198  1.00  0.00     0.004 A 
ATOM     22  C   UNL A   1      29.153  26.311  24.180  1.00  0.00     0.027 A 
ENDBRANCH  15  16
ENDBRANCH  14  15
ENDBRANCH   9  14
ENDBRANCH   6   8
ENDBRANCH   5   6
ENDBRANCH   4   5
ENDBRANCH   3   4
ENDBRANCH   2   3
ENDBRANCH   1   2
BRANCH   1  23
ATOM     23  C   UNL A   1      36.449  21.889  25.009  1.00  0.00     0.188 C 
BRANCH  23  24
ATOM     24  O   UNL A   1      37.405  20.968  24.469  1.00  0.00    -0.376 OA
BRANCH  24  25
ATOM     25  C   UNL A   1      37.871  19.707  24.940  1.00  0.00     0.202 C 
BRANCH  25  26
ATOM     26  C   UNL A   1      39.275  19.548  25.524  1.00  0.00     0.261 C 
BRANCH  26  27
ATOM     27  O   UNL A   1      39.901  20.800  25.782  1.00  0.00    -0.460 OA
BRANCH  27  28
ATOM     28  C   UNL A   1      40.948  20.719  26.635  1.00  0.00     0.338 C 
ATOM     29  O   UNL A   1      41.741  19.803  26.747  1.00  0.00    -0.246 OA
BRANCH  28  30
ATOM     30  C   UNL A   1      41.130  22.053  27.234  1.00  0.00     0.060 A 
ATOM     31  C   UNL A   1      40.335  23.094  26.729  1.00  0.00     0.016 A 
ATOM     32  C   UNL A   1      41.963  22.258  28.338  1.00  0.00     0.016 A 
ATOM     33  C   UNL A   1      40.424  24.361  27.281  1.00  0.00     0.010 A 
ATOM     34  C   UNL A   1      42.091  23.543  28.861  1.00  0.00     0.010 A 
ATOM     35  C   UNL A   1      41.365  24.603  28.287  1.00  0.00    -0.014 A 
BRANCH  35  36
ATOM     36  C   UNL A   1      41.822  25.997  28.454  1.00  0.00     0.031 A 
ATOM     37  C   UNL A   1      43.155  26.352  27.852  1.00  0.00     0.074 A 
ATOM     38  C   UNL A   1      41.042  26.939  29.006  1.00  0.00     0.049 A 
ATOM     39  N   UNL A   1      43.772  27.503  27.811  1.00  0.00    -0.248 NA
ATOM     40  C   UNL A   1      43.890  25.254  27.198  1.00  0.00     0.031 C 
ATOM     41  C   UNL A   1      39.704  26.723  29.546  1.00  0.00     0.029 A 
ATOM     42  N   UNL A   1      41.272  28.279  29.182  1.00  0.00    -0.354 N 
ATOM     43  C   UNL A   1      44.960  27.263  27.132  1.00  0.00     0.074 A 
ATOM     44  C   UNL A   1      45.001  25.856  26.814  1.00  0.00     0.031 C 
ATOM     45  C   UNL A   1      39.230  27.896  30.005  1.00  0.00     0.029 A 
ATOM     46  C   UNL A   1      40.246  28.931  29.817  1.00  0.00     0.049 A 
ATOM     47  H   UNL A   1      42.095  28.729  28.884  1.00  0.00     0.167 HD
ATOM     48  C   UNL A   1      45.927  28.145  26.791  1.00  0.00     0.037 A 
ATOM     49  C   UNL A   1      40.156  30.216  30.213  1.00  0.00     0.037 A 
ATOM     50  C   UNL A   1      45.882  29.544  27.116  1.00  0.00     0.049 A 
ATOM     51  C   UNL A   1      41.296  31.159  29.912  1.00  0.00     0.074 A 
ATOM     52  C   UNL A   1      46.810  30.525  26.822  1.00  0.00     0.029 A 
ATOM     53  N   UNL A   1      44.855  30.158  27.818  1.00  0.00    -0.354 N 
ATOM     54  N   UNL A   1      42.414  30.934  29.263  1.00  0.00    -0.248 NA
ATOM     55  C   UNL A   1      41.156  32.540  30.393  1.00  0.00     0.031 C 
ATOM     56  C   UNL A   1      46.383  31.718  27.413  1.00  0.00     0.029 A 
ATOM     57  C   UNL A   1      45.145  31.500  27.998  1.00  0.00     0.049 A 
ATOM     58  H   UNL A   1      44.042  29.706  28.142  1.00  0.00     0.167 HD
ATOM     59  C   UNL A   1      43.087  32.150  29.222  1.00  0.00     0.074 A 
ATOM     60  C   UNL A   1      42.245  33.112  29.903  1.00  0.00     0.031 C 
ATOM     61  C   UNL A   1      44.289  32.448  28.667  1.00  0.00     0.037 A 
BRANCH  48  62
ATOM     62  C   UNL A   1      47.132  27.608  26.076  1.00  0.00     0.064 A 
ATOM     63  C   UNL A   1      48.227  27.061  26.764  1.00  0.00     0.173 A 
ATOM     64  C   UNL A   1      47.183  27.630  24.674  1.00  0.00     0.173 A 
ATOM     65  F   UNL A   1      48.239  27.037  28.105  1.00  0.00    -0.203 F 
ATOM     66  C   UNL A   1      49.339  26.582  26.075  1.00  0.00     0.198 A 
ATOM     67  C   UNL A   1      48.280  27.116  23.988  1.00  0.00     0.198 A 
ATOM     68  F   UNL A   1      46.167  28.145  23.967  1.00  0.00    -0.203 F 
ATOM     69  F   UNL A   1      50.397  26.119  26.754  1.00  0.00    -0.200 F 
ATOM     70  C   UNL A   1      49.360  26.601  24.688  1.00  0.00     0.200 A 
ATOM     71  F   UNL A   1      48.291  27.121  22.648  1.00  0.00    -0.200 F 
ATOM     72  F   UNL A   1      50.425  26.130  24.026  1.00  0.00    -0.200 F 
ENDBRANCH  48  62
BRANCH  49  73
ATOM     73  C   UNL A   1      38.957  30.685  30.957  1.00  0.00     0.064 A 
ATOM     74  C   UNL A   1      38.875  30.577  32.353  1.00  0.00     0.173 A 
ATOM     75  C   UNL A   1      37.848  31.216  30.281  1.00  0.00     0.173 A 
ATOM     76  F   UNL A   1      39.897  30.052  33.045  1.00  0.00    -0.203 F 
ATOM     77  C   UNL A   1      37.723  30.956  33.038  1.00  0.00     0.198 A 
ATOM     78  C   UNL A   1      36.710  31.628  30.971  1.00  0.00     0.198 A 
ATOM     79  F   UNL A   1      37.870  31.337  28.945  1.00  0.00    -0.203 F 
ATOM     80  F   UNL A   1      37.648  30.782  34.365  1.00  0.00    -0.200 F 
ATOM     81  C   UNL A   1      36.644  31.486  32.347  1.00  0.00     0.200 A 
ATOM     82  F   UNL A   1      35.676  32.151  30.299  1.00  0.00    -0.200 F 
ATOM     83  F   UNL A   1      35.535  31.848  33.007  1.00  0.00    -0.200 F 
ENDBRANCH  49  73
BRANCH  61  84
ATOM     84  C   UNL A   1      44.743  33.881  28.711  1.00  0.00     0.064 A 
ATOM     85  C   UNL A   1      45.600  34.362  29.712  1.00  0.00     0.173 A 
ATOM     86  C   UNL A   1      44.345  34.777  27.704  1.00  0.00     0.173 A 
ATOM     87  F   UNL A   1      46.005  33.553  30.701  1.00  0.00    -0.203 F 
ATOM     88  C   UNL A   1      46.010  35.694  29.725  1.00  0.00     0.198 A 
ATOM     89  C   UNL A   1      44.790  36.095  27.698  1.00  0.00     0.198 A 
ATOM     90  F   UNL A   1      43.537  34.368  26.714  1.00  0.00    -0.203 F 
ATOM     91  F   UNL A   1      46.777  36.146  30.726  1.00  0.00    -0.200 F 
ATOM     92  C   UNL A   1      45.611  36.557  28.714  1.00  0.00     0.200 A 
ATOM     93  F   UNL A   1      44.423  36.920  26.707  1.00  0.00    -0.200 F 
ATOM     94  F   UNL A   1      46.014  37.834  28.724  1.00  0.00    -0.200 F 
ENDBRANCH  61  84
ENDBRANCH  35  36
ENDBRANCH  28  30
ENDBRANCH  27  28
ENDBRANCH  26  27
ENDBRANCH  25  26
ENDBRANCH  24  25
ENDBRANCH  23  24
ENDBRANCH   1  23
TORSDOF 20
ENDMDL
MODEL 3
REMARK VINA RESULT:     -12.7      4.962      9.095
REMARK SMILES Cc1cccc(COc2ccccc2C(=O)OCCOCCOCCOC(=O)c2ccc(-c3c4nc(c(-c5c(F)c(F)c(F)c(F)c5F)c5ccc([nH]5)c(-c5c(F)c(F)c(F)c(F)c5F)c5nc(c(-c6c(F)c(F)c(F)c(F)c6F)c6ccc3[nH]6)C=C5)C=C4)cc2)n1
REMARK SMILES IDX 21 1 20 2 19 3 18 4 17 5 15 6 16 7 14 8 9 9 10 10 11 11
REMARK SMILES IDX 13 12 12 13 8 14 7 15 6 16 1 17 2 18 3 19 92 20 4 21 5 22
REMARK SMILES IDX 22 23 23 24 24 25 25 26 26 27 27 28 28 29 29 30 30 31 91 32
REMARK SMILES IDX 31 33 90 34 32 35 33 36 34 37 84 38 35 39 89 40 83 41 85 42
REMARK SMILES IDX 36 43 88 44 82 45 81 46 37 48 69 49 49 50 68 51 50 52 53 53
REMARK SMILES IDX 67 54 86 55 51 56 52 57 66 59 87 60 54 61 38 62 39 63 47 64
REMARK SMILES IDX 40 65 41 66 45 67 48 68 42 69 43 70 46 71 44 72 70 73 71 74
REMARK SMILES IDX 79 75 72 76 73 77 77 78 80 79 74 80 75 81 78 82 76 83 55 84
REMARK SMILES IDX 56 85 64 86 57 87 58 88 62 89 65 90 59 91 60 92 63 93 61 94
REMARK H PARENT 85 47 53 58
REMARK Flexibility Score: inf
ROOT
ATOM      1  C   UNL A   1      35.750  23.141  26.122  1.00  0.00     0.188 C 
ENDROOT
BRANCH   1   2
ATOM      2  O   UNL A   1      34.253  23.551  26.318  1.00  0.00    -0.376 OA
BRANCH   2   3
ATOM      3  C   UNL A   1      32.969  22.941  27.121  1.00  0.00     0.202 C 
BRANCH   3   4
ATOM      4  C   UNL A   1      31.127  23.084  26.583  1.00  0.00     0.261 C 
BRANCH   4   5
ATOM      5  O   UNL A   1      30.692  24.413  25.109  1.00  0.00    -0.460 OA
BRANCH   5   6
ATOM      6  C   UNL A   1      30.745  24.852  23.743  1.00  0.00     0.342 C 
ATOM      7  O   UNL A   1      30.993  24.155  22.750  1.00  0.00    -0.246 OA
BRANCH   6   8
ATOM      8  C   UNL A   1      30.358  26.214  23.442  1.00  0.00     0.102 A 
ATOM      9  C   UNL A   1      31.098  27.131  22.719  1.00  0.00     0.134 A 
ATOM     10  C   UNL A   1      30.431  28.337  22.408  1.00  0.00     0.047 A 
ATOM     11  C   UNL A   1      29.085  28.589  22.766  1.00  0.00     0.004 A 
ATOM     12  C   UNL A   1      29.019  26.501  23.864  1.00  0.00     0.019 A 
ATOM     13  C   UNL A   1      28.375  27.670  23.515  1.00  0.00     0.001 A 
BRANCH   9  14
ATOM     14  O   UNL A   1      32.410  27.071  22.338  1.00  0.00    -0.486 OA
BRANCH  14  15
ATOM     15  C   UNL A   1      33.427  28.072  22.671  1.00  0.00     0.285 C 
BRANCH  15  16
ATOM     16  C   UNL A   1      33.714  28.328  24.193  1.00  0.00     0.078 A 
ATOM     17  C   UNL A   1      31.776  31.012  26.502  1.00  0.00     0.067 C 
ATOM     18  C   UNL A   1      31.632  29.522  25.894  1.00  0.00     0.038 A 
ATOM     19  C   UNL A   1      31.412  27.893  26.818  1.00  0.00     0.023 A 
ATOM     20  N   UNL A   1      32.752  29.650  24.610  1.00  0.00    -0.255 NA
ATOM     21  C   UNL A   1      32.652  26.591  26.509  1.00  0.00     0.004 A 
ATOM     22  C   UNL A   1      33.789  26.842  25.153  1.00  0.00     0.027 A 
ENDBRANCH  15  16
ENDBRANCH  14  15
ENDBRANCH   9  14
ENDBRANCH   6   8
ENDBRANCH   5   6
ENDBRANCH   4   5
ENDBRANCH   3   4
ENDBRANCH   2   3
ENDBRANCH   1   2
BRANCH   1  23
ATOM     23  C   UNL A   1      36.667  22.845  24.714  1.00  0.00     0.188 C 
BRANCH  23  24
ATOM     24  O   UNL A   1      37.313  21.627  24.320  1.00  0.00    -0.376 OA
BRANCH  24  25
ATOM     25  C   UNL A   1      37.483  20.387  24.998  1.00  0.00     0.202 C 
BRANCH  25  26
ATOM     26  C   UNL A   1      38.867  19.764  25.177  1.00  0.00     0.261 C 
BRANCH  26  27
ATOM     27  O   UNL A   1      39.661  20.466  26.128  1.00  0.00    -0.460 OA
BRANCH  27  28
ATOM     28  C   UNL A   1      40.913  19.975  26.260  1.00  0.00     0.338 C 
ATOM     29  O   UNL A   1      41.275  18.822  26.113  1.00  0.00    -0.246 OA
BRANCH  28  30
ATOM     30  C   UNL A   1      41.828  21.127  26.359  1.00  0.00     0.060 A 
ATOM     31  C   UNL A   1      42.225  21.518  27.647  1.00  0.00     0.016 A 
ATOM     32  C   UNL A   1      42.377  21.731  25.224  1.00  0.00     0.016 A 
ATOM     33  C   UNL A   1      43.120  22.563  27.806  1.00  0.00     0.010 A 
ATOM     34  C   UNL A   1      43.238  22.815  25.384  1.00  0.00     0.010 A 
ATOM     35  C   UNL A   1      43.556  23.266  26.678  1.00  0.00    -0.014 A 
BRANCH  35  36
ATOM     36  C   UNL A   1      44.024  24.650  26.892  1.00  0.00     0.031 A 
ATOM     37  C   UNL A   1      43.011  25.639  27.402  1.00  0.00     0.074 A 
ATOM     38  C   UNL A   1      45.315  24.992  26.760  1.00  0.00     0.049 A 
ATOM     39  N   UNL A   1      43.159  26.898  27.718  1.00  0.00    -0.248 NA
ATOM     40  C   UNL A   1      41.639  25.132  27.588  1.00  0.00     0.031 C 
ATOM     41  C   UNL A   1      46.393  24.096  26.352  1.00  0.00     0.029 A 
ATOM     42  N   UNL A   1      45.933  26.196  26.977  1.00  0.00    -0.354 N 
ATOM     43  C   UNL A   1      41.906  27.327  28.135  1.00  0.00     0.074 A 
ATOM     44  C   UNL A   1      40.999  26.213  27.997  1.00  0.00     0.031 C 
ATOM     45  C   UNL A   1      47.547  24.787  26.339  1.00  0.00     0.029 A 
ATOM     46  C   UNL A   1      47.278  26.177  26.708  1.00  0.00     0.049 A 
ATOM     47  H   UNL A   1      45.457  26.997  27.293  1.00  0.00     0.167 HD
ATOM     48  C   UNL A   1      41.547  28.542  28.607  1.00  0.00     0.037 A 
ATOM     49  C   UNL A   1      48.176  27.180  26.741  1.00  0.00     0.037 A 
ATOM     50  C   UNL A   1      42.454  29.649  28.737  1.00  0.00     0.049 A 
ATOM     51  C   UNL A   1      47.728  28.555  27.173  1.00  0.00     0.074 A 
ATOM     52  C   UNL A   1      42.193  30.925  29.200  1.00  0.00     0.029 A 
ATOM     53  N   UNL A   1      43.797  29.612  28.393  1.00  0.00    -0.354 N 
ATOM     54  N   UNL A   1      46.545  28.958  27.575  1.00  0.00    -0.248 NA
ATOM     55  C   UNL A   1      48.745  29.616  27.161  1.00  0.00     0.031 C 
ATOM     56  C   UNL A   1      43.359  31.683  29.063  1.00  0.00     0.029 A 
ATOM     57  C   UNL A   1      44.371  30.855  28.600  1.00  0.00     0.049 A 
ATOM     58  H   UNL A   1      44.272  28.819  28.050  1.00  0.00     0.167 HD
ATOM     59  C   UNL A   1      46.687  30.301  27.904  1.00  0.00     0.074 A 
ATOM     60  C   UNL A   1      48.074  30.642  27.663  1.00  0.00     0.031 C 
ATOM     61  C   UNL A   1      45.758  31.174  28.368  1.00  0.00     0.037 A 
BRANCH  48  62
ATOM     62  C   UNL A   1      40.103  28.746  28.965  1.00  0.00     0.064 A 
ATOM     63  C   UNL A   1      39.143  29.117  28.011  1.00  0.00     0.173 A 
ATOM     64  C   UNL A   1      39.674  28.551  30.286  1.00  0.00     0.173 A 
ATOM     65  F   UNL A   1      39.503  29.338  26.738  1.00  0.00    -0.203 F 
ATOM     66  C   UNL A   1      37.812  29.313  28.374  1.00  0.00     0.198 A 
ATOM     67  C   UNL A   1      38.337  28.711  30.637  1.00  0.00     0.198 A 
ATOM     68  F   UNL A   1      40.551  28.200  31.238  1.00  0.00    -0.203 F 
ATOM     69  F   UNL A   1      36.924  29.725  27.459  1.00  0.00    -0.200 F 
ATOM     70  C   UNL A   1      37.409  29.100  29.684  1.00  0.00     0.200 A 
ATOM     71  F   UNL A   1      37.947  28.489  31.900  1.00  0.00    -0.200 F 
ATOM     72  F   UNL A   1      36.127  29.278  30.030  1.00  0.00    -0.200 F 
ENDBRANCH  48  62
BRANCH  49  73
ATOM     73  C   UNL A   1      49.586  26.932  26.334  1.00  0.00     0.064 A 
ATOM     74  C   UNL A   1      49.980  27.001  24.990  1.00  0.00     0.173 A 
ATOM     75  C   UNL A   1      50.561  26.582  27.281  1.00  0.00     0.173 A 
ATOM     76  F   UNL A   1      49.081  27.306  24.043  1.00  0.00    -0.203 F 
ATOM     77  C   UNL A   1      51.286  26.702  24.607  1.00  0.00     0.198 A 
ATOM     78  C   UNL A   1      51.875  26.319  26.900  1.00  0.00     0.198 A 
ATOM     79  F   UNL A   1      50.237  26.496  28.579  1.00  0.00    -0.203 F 
ATOM     80  F   UNL A   1      51.620  26.713  23.309  1.00  0.00    -0.200 F 
ATOM     81  C   UNL A   1      52.233  26.367  25.563  1.00  0.00     0.200 A 
ATOM     82  F   UNL A   1      52.789  26.008  27.830  1.00  0.00    -0.200 F 
ATOM     83  F   UNL A   1      53.488  26.078  25.193  1.00  0.00    -0.200 F 
ENDBRANCH  49  73
BRANCH  61  84
ATOM     84  C   UNL A   1      46.215  32.565  28.711  1.00  0.00     0.064 A 
ATOM     85  C   UNL A   1      46.157  33.618  27.787  1.00  0.00     0.173 A 
ATOM     86  C   UNL A   1      46.678  32.855  30.005  1.00  0.00     0.173 A 
ATOM     87  F   UNL A   1      45.730  33.397  26.534  1.00  0.00    -0.203 F 
ATOM     88  C   UNL A   1      46.582  34.900  28.133  1.00  0.00     0.198 A 
ATOM     89  C   UNL A   1      47.062  34.145  30.359  1.00  0.00     0.198 A 
ATOM     90  F   UNL A   1      46.741  31.889  30.934  1.00  0.00    -0.203 F 
ATOM     91  F   UNL A   1      46.577  35.876  27.215  1.00  0.00    -0.200 F 
ATOM     92  C   UNL A   1      47.027  35.163  29.421  1.00  0.00     0.200 A 
ATOM     93  F   UNL A   1      47.468  34.401  31.611  1.00  0.00    -0.200 F 
ATOM     94  F   UNL A   1      47.426  36.398  29.753  1.00  0.00    -0.200 F 
ENDBRANCH  61  84
ENDBRANCH  35  36
ENDBRANCH  28  30
ENDBRANCH  27  28
ENDBRANCH  26  27
ENDBRANCH  25  26
ENDBRANCH  24  25
ENDBRANCH  23  24
ENDBRANCH   1  23
TORSDOF 20
ENDMDL
