MODEL 1
REMARK VINA RESULT:     -13.3      0.000      0.000
REMARK SMILES COc1ccc(NC(=O)N[C@@H]2C=C[C@H](C(=O)OCCOCCOCCOC(=O)c3ccc(-c4c5nc(c(-c6c(F)c(F)c(F)c(F)c6F)c6ccc([nH]6)c(-c6c(F)c(F)c(F)c(F)c6F)c6nc(c(-c7c(F)c(F)c(F)c(F)c7F)c7ccc4[nH]7)C=C6)C=C5)cc3)C2)c(C)c1
REMARK SMILES IDX 21 1 20 2 19 3 18 4 17 5 15 6 16 7 14 8 11 9 12 10 92 11
REMARK SMILES IDX 13 12 10 13 7 14 8 15 9 17 6 19 3 20 4 21 95 22 5 23 93 24
REMARK SMILES IDX 94 25 2 26 1 27 22 28 23 29 24 30 25 31 26 32 27 33 28 34
REMARK SMILES IDX 29 35 30 36 91 37 31 38 90 39 32 40 33 41 34 42 84 43 35 44
REMARK SMILES IDX 89 45 83 46 85 47 36 48 88 49 82 50 81 51 37 53 69 54 49 55
REMARK SMILES IDX 68 56 50 57 53 58 67 59 86 60 51 61 52 62 66 64 87 65 54 66
REMARK SMILES IDX 38 67 39 68 47 69 40 70 41 71 45 72 48 73 42 74 43 75 46 76
REMARK SMILES IDX 44 77 70 78 71 79 79 80 72 81 73 82 77 83 80 84 74 85 75 86
REMARK SMILES IDX 78 87 76 88 55 89 56 90 64 91 57 92 58 93 62 94 65 95 59 96
REMARK SMILES IDX 60 97 63 98 61 99
REMARK H PARENT 7 16 10 18 85 52 53 63
REMARK Flexibility Score: inf
ROOT
ATOM      1  C   UNL A   1      41.822  20.026  26.144  1.00  0.00     0.188 C 
ENDROOT
BRANCH   1   2
ATOM      2  O   UNL A   1      41.792  21.331  25.628  1.00  0.00    -0.376 OA
BRANCH   2   3
ATOM      3  C   UNL A   1      40.914  22.133  26.394  1.00  0.00     0.202 C 
BRANCH   3   4
ATOM      4  C   UNL A   1      39.289  22.036  26.109  1.00  0.00     0.261 C 
BRANCH   4   5
ATOM      5  O   UNL A   1      38.207  21.178  25.137  1.00  0.00    -0.463 OA
BRANCH   5   6
ATOM      6  C   UNL A   1      36.777  21.224  24.808  1.00  0.00     0.312 C 
ATOM      7  O   UNL A   1      36.092  20.243  25.097  1.00  0.00    -0.252 OA
BRANCH   6   8
ATOM      8  C   UNL A   1      35.948  22.770  24.010  1.00  0.00     0.124 C 
ATOM      9  C   UNL A   1      34.018  25.020  25.285  1.00  0.00     0.107 C 
ATOM     10  C   UNL A   1      33.269  24.549  23.504  1.00  0.00    -0.006 C 
ATOM     11  C   UNL A   1      35.824  24.185  25.492  1.00  0.00     0.048 C 
ATOM     12  C   UNL A   1      34.096  23.254  22.869  1.00  0.00    -0.014 C 
BRANCH   9  13
ATOM     13  N   UNL A   1      33.165  24.093  26.496  1.00  0.00    -0.332 N 
ATOM     14  N   UNL A   1      30.801  25.024  26.593  1.00  0.00    -0.308 N 
ATOM     15  C   UNL A   1      31.769  24.002  26.895  1.00  0.00     0.319 C 
ATOM     16  H   UNL A   1      29.885  24.886  26.923  1.00  0.00     0.171 HD
ATOM     17  O   UNL A   1      31.404  23.040  27.577  1.00  0.00    -0.248 OA
ATOM     18  H   UNL A   1      33.756  23.507  27.020  1.00  0.00     0.165 HD
BRANCH  14  19
ATOM     19  C   UNL A   1      31.048  26.195  25.873  1.00  0.00     0.046 A 
ATOM     20  C   UNL A   1      30.374  28.759  23.268  1.00  0.00     0.119 A 
ATOM     21  C   UNL A   1      29.686  27.159  23.188  1.00  0.00     0.048 A 
ATOM     22  C   UNL A   1      31.353  28.973  24.674  1.00  0.00     0.052 A 
ATOM     23  C   UNL A   1      30.310  25.965  24.695  1.00  0.00     0.030 A 
ATOM     24  C   UNL A   1      31.646  27.676  25.859  1.00  0.00    -0.024 A 
ATOM     25  C   UNL A   1      32.380  27.930  27.043  1.00  0.00     0.047 C 
BRANCH  20  26
ATOM     26  O   UNL A   1      30.342  29.757  22.362  1.00  0.00    -0.497 OA
ATOM     27  C   UNL A   1      29.052  30.199  21.976  1.00  0.00     0.278 C 
ENDBRANCH  20  26
ENDBRANCH  14  19
ENDBRANCH   9  13
ENDBRANCH   6   8
ENDBRANCH   5   6
ENDBRANCH   4   5
ENDBRANCH   3   4
ENDBRANCH   2   3
ENDBRANCH   1   2
BRANCH   1  28
ATOM     28  C   UNL A   1      43.072  19.258  25.761  1.00  0.00     0.188 C 
BRANCH  28  29
ATOM     29  O   UNL A   1      43.505  19.545  24.457  1.00  0.00    -0.376 OA
BRANCH  29  30
ATOM     30  C   UNL A   1      44.831  19.568  24.023  1.00  0.00     0.202 C 
BRANCH  30  31
ATOM     31  C   UNL A   1      45.600  19.523  25.313  1.00  0.00     0.261 C 
BRANCH  31  32
ATOM     32  O   UNL A   1      46.432  20.742  25.441  1.00  0.00    -0.460 OA
BRANCH  32  33
ATOM     33  C   UNL A   1      46.080  21.926  24.832  1.00  0.00     0.338 C 
ATOM     34  O   UNL A   1      46.604  22.350  23.810  1.00  0.00    -0.246 OA
BRANCH  33  35
ATOM     35  C   UNL A   1      44.994  22.693  25.598  1.00  0.00     0.060 A 
ATOM     36  C   UNL A   1      44.455  23.874  25.103  1.00  0.00     0.016 A 
ATOM     37  C   UNL A   1      44.680  22.423  26.933  1.00  0.00     0.016 A 
ATOM     38  C   UNL A   1      43.933  24.848  26.018  1.00  0.00     0.010 A 
ATOM     39  C   UNL A   1      44.311  23.476  27.839  1.00  0.00     0.010 A 
ATOM     40  C   UNL A   1      44.179  24.804  27.404  1.00  0.00    -0.014 A 
BRANCH  40  41
ATOM     41  C   UNL A   1      44.343  26.130  28.427  1.00  0.00     0.031 A 
ATOM     42  C   UNL A   1      43.031  26.809  28.361  1.00  0.00     0.074 A 
ATOM     43  C   UNL A   1      45.405  26.898  29.090  1.00  0.00     0.049 A 
ATOM     44  N   UNL A   1      42.937  28.092  28.357  1.00  0.00    -0.248 NA
ATOM     45  C   UNL A   1      41.817  26.126  27.883  1.00  0.00     0.031 C 
ATOM     46  C   UNL A   1      45.269  27.949  30.131  1.00  0.00     0.029 A 
ATOM     47  N   UNL A   1      46.880  26.987  28.987  1.00  0.00    -0.354 N 
ATOM     48  C   UNL A   1      41.624  28.368  28.119  1.00  0.00     0.074 A 
ATOM     49  C   UNL A   1      41.104  27.187  27.512  1.00  0.00     0.031 C 
ATOM     50  C   UNL A   1      46.445  28.579  30.412  1.00  0.00     0.029 A 
ATOM     51  C   UNL A   1      47.531  28.116  29.555  1.00  0.00     0.049 A 
ATOM     52  H   UNL A   1      47.397  26.281  28.535  1.00  0.00     0.167 HD
ATOM     53  C   UNL A   1      41.100  29.387  28.836  1.00  0.00     0.037 A 
ATOM     54  C   UNL A   1      48.633  28.862  29.086  1.00  0.00     0.037 A 
ATOM     55  C   UNL A   1      42.203  30.267  29.286  1.00  0.00     0.049 A 
ATOM     56  C   UNL A   1      48.103  30.342  28.802  1.00  0.00     0.074 A 
ATOM     57  C   UNL A   1      42.851  30.383  30.506  1.00  0.00     0.029 A 
ATOM     58  N   UNL A   1      43.084  30.835  28.344  1.00  0.00    -0.354 N 
ATOM     59  N   UNL A   1      46.822  30.620  28.904  1.00  0.00    -0.248 NA
ATOM     60  C   UNL A   1      48.811  31.492  28.217  1.00  0.00     0.031 C 
ATOM     61  C   UNL A   1      44.084  31.055  30.306  1.00  0.00     0.029 A 
ATOM     62  C   UNL A   1      44.210  31.370  28.966  1.00  0.00     0.049 A 
ATOM     63  H   UNL A   1      42.925  30.851  27.372  1.00  0.00     0.167 HD
ATOM     64  C   UNL A   1      46.497  31.832  28.355  1.00  0.00     0.074 A 
ATOM     65  C   UNL A   1      47.801  32.369  27.993  1.00  0.00     0.031 C 
ATOM     66  C   UNL A   1      45.178  32.230  28.267  1.00  0.00     0.037 A 
BRANCH  53  67
ATOM     67  C   UNL A   1      39.729  29.207  29.494  1.00  0.00     0.064 A 
ATOM     68  C   UNL A   1      38.576  29.574  28.780  1.00  0.00     0.173 A 
ATOM     69  C   UNL A   1      39.464  28.819  30.839  1.00  0.00     0.173 A 
ATOM     70  F   UNL A   1      38.649  29.958  27.499  1.00  0.00    -0.203 F 
ATOM     71  C   UNL A   1      37.297  29.580  29.356  1.00  0.00     0.198 A 
ATOM     72  C   UNL A   1      38.193  28.837  31.415  1.00  0.00     0.198 A 
ATOM     73  F   UNL A   1      40.399  28.392  31.688  1.00  0.00    -0.203 F 
ATOM     74  F   UNL A   1      36.245  29.966  28.623  1.00  0.00    -0.200 F 
ATOM     75  C   UNL A   1      37.105  29.214  30.673  1.00  0.00     0.200 A 
ATOM     76  F   UNL A   1      38.047  28.492  32.704  1.00  0.00    -0.200 F 
ATOM     77  F   UNL A   1      35.884  29.216  31.220  1.00  0.00    -0.200 F 
ENDBRANCH  53  67
BRANCH  54  78
ATOM     78  C   UNL A   1      49.817  28.206  28.266  1.00  0.00     0.064 A 
ATOM     79  C   UNL A   1      51.148  28.224  28.731  1.00  0.00     0.173 A 
ATOM     80  C   UNL A   1      49.680  27.412  27.111  1.00  0.00     0.173 A 
ATOM     81  F   UNL A   1      51.511  29.122  29.653  1.00  0.00    -0.203 F 
ATOM     82  C   UNL A   1      52.152  27.335  28.258  1.00  0.00     0.198 A 
ATOM     83  C   UNL A   1      50.627  26.430  26.719  1.00  0.00     0.198 A 
ATOM     84  F   UNL A   1      48.597  27.538  26.338  1.00  0.00    -0.203 F 
ATOM     85  F   UNL A   1      53.378  27.343  28.801  1.00  0.00    -0.200 F 
ATOM     86  C   UNL A   1      51.851  26.359  27.329  1.00  0.00     0.200 A 
ATOM     87  F   UNL A   1      50.308  25.505  25.804  1.00  0.00    -0.200 F 
ATOM     88  F   UNL A   1      52.682  25.331  27.093  1.00  0.00    -0.200 F 
ENDBRANCH  54  78
BRANCH  66  89
ATOM     89  C   UNL A   1      44.630  33.558  27.746  1.00  0.00     0.064 A 
ATOM     90  C   UNL A   1      44.645  34.774  28.437  1.00  0.00     0.173 A 
ATOM     91  C   UNL A   1      44.026  33.623  26.455  1.00  0.00     0.173 A 
ATOM     92  F   UNL A   1      45.325  34.925  29.578  1.00  0.00    -0.203 F 
ATOM     93  C   UNL A   1      43.984  35.911  27.945  1.00  0.00     0.198 A 
ATOM     94  C   UNL A   1      43.453  34.775  25.931  1.00  0.00     0.198 A 
ATOM     95  F   UNL A   1      43.947  32.567  25.636  1.00  0.00    -0.203 F 
ATOM     96  F   UNL A   1      43.931  37.020  28.695  1.00  0.00    -0.200 F 
ATOM     97  C   UNL A   1      43.390  35.911  26.696  1.00  0.00     0.200 A 
ATOM     98  F   UNL A   1      42.956  34.759  24.686  1.00  0.00    -0.200 F 
ATOM     99  F   UNL A   1      42.771  37.001  26.227  1.00  0.00    -0.200 F 
ENDBRANCH  66  89
ENDBRANCH  40  41
ENDBRANCH  33  35
ENDBRANCH  32  33
ENDBRANCH  31  32
ENDBRANCH  30  31
ENDBRANCH  29  30
ENDBRANCH  28  29
ENDBRANCH   1  28
TORSDOF 20
ENDMDL
MODEL 2
REMARK VINA RESULT:     -12.7      5.901     11.788
REMARK SMILES COc1ccc(NC(=O)N[C@@H]2C=C[C@H](C(=O)OCCOCCOCCOC(=O)c3ccc(-c4c5nc(c(-c6c(F)c(F)c(F)c(F)c6F)c6ccc([nH]6)c(-c6c(F)c(F)c(F)c(F)c6F)c6nc(c(-c7c(F)c(F)c(F)c(F)c7F)c7ccc4[nH]7)C=C6)C=C5)cc3)C2)c(C)c1
REMARK SMILES IDX 21 1 20 2 19 3 18 4 17 5 15 6 16 7 14 8 11 9 12 10 92 11
REMARK SMILES IDX 13 12 10 13 7 14 8 15 9 17 6 19 3 20 4 21 95 22 5 23 93 24
REMARK SMILES IDX 94 25 2 26 1 27 22 28 23 29 24 30 25 31 26 32 27 33 28 34
REMARK SMILES IDX 29 35 30 36 91 37 31 38 90 39 32 40 33 41 34 42 84 43 35 44
REMARK SMILES IDX 89 45 83 46 85 47 36 48 88 49 82 50 81 51 37 53 69 54 49 55
REMARK SMILES IDX 68 56 50 57 53 58 67 59 86 60 51 61 52 62 66 64 87 65 54 66
REMARK SMILES IDX 38 67 39 68 47 69 40 70 41 71 45 72 48 73 42 74 43 75 46 76
REMARK SMILES IDX 44 77 70 78 71 79 79 80 72 81 73 82 77 83 80 84 74 85 75 86
REMARK SMILES IDX 78 87 76 88 55 89 56 90 64 91 57 92 58 93 62 94 65 95 59 96
REMARK SMILES IDX 60 97 63 98 61 99
REMARK H PARENT 7 16 10 18 85 52 53 63
REMARK Flexibility Score: inf
ROOT
ATOM      1  C   UNL A   1      34.464  33.948  27.735  1.00  0.00     0.188 C 
ENDROOT
BRANCH   1   2
ATOM      2  O   UNL A   1      35.465  32.973  27.607  1.00  0.00    -0.376 OA
BRANCH   2   3
ATOM      3  C   UNL A   1      34.894  31.681  27.690  1.00  0.00     0.202 C 
BRANCH   3   4
ATOM      4  C   UNL A   1      33.248  31.535  27.708  1.00  0.00     0.261 C 
BRANCH   4   5
ATOM      5  O   UNL A   1      32.054  30.432  27.249  1.00  0.00    -0.463 OA
BRANCH   5   6
ATOM      6  C   UNL A   1      31.834  29.464  26.167  1.00  0.00     0.312 C 
ATOM      7  O   UNL A   1      31.813  29.892  25.013  1.00  0.00    -0.252 OA
BRANCH   6   8
ATOM      8  C   UNL A   1      31.645  27.574  26.492  1.00  0.00     0.124 C 
ATOM      9  C   UNL A   1      33.100  25.043  25.119  1.00  0.00     0.107 C 
ATOM     10  C   UNL A   1      31.178  24.575  25.316  1.00  0.00    -0.006 C 
ATOM     11  C   UNL A   1      33.480  26.738  26.111  1.00  0.00     0.048 C 
ATOM     12  C   UNL A   1      30.324  25.904  25.835  1.00  0.00    -0.014 C 
BRANCH   9  13
ATOM     13  N   UNL A   1      33.352  25.633  23.494  1.00  0.00    -0.332 N 
ATOM     14  N   UNL A   1      33.629  23.586  22.012  1.00  0.00    -0.308 N 
ATOM     15  C   UNL A   1      33.394  24.995  22.187  1.00  0.00     0.319 C 
ATOM     16  H   UNL A   1      33.662  23.248  21.088  1.00  0.00     0.171 HD
ATOM     17  O   UNL A   1      33.287  25.696  21.177  1.00  0.00    -0.248 OA
ATOM     18  H   UNL A   1      33.497  26.606  23.455  1.00  0.00     0.165 HD
BRANCH  14  19
ATOM     19  C   UNL A   1      33.815  22.656  23.036  1.00  0.00     0.046 A 
ATOM     20  C   UNL A   1      33.263  19.437  24.812  1.00  0.00     0.119 A 
ATOM     21  C   UNL A   1      32.135  20.044  23.629  1.00  0.00     0.048 A 
ATOM     22  C   UNL A   1      34.616  20.490  25.015  1.00  0.00     0.052 A 
ATOM     23  C   UNL A   1      32.661  21.858  22.908  1.00  0.00     0.030 A 
ATOM     24  C   UNL A   1      34.786  22.032  24.141  1.00  0.00    -0.024 A 
ATOM     25  C   UNL A   1      35.959  22.814  24.273  1.00  0.00     0.047 C 
BRANCH  20  26
ATOM     26  O   UNL A   1      33.163  18.371  25.631  1.00  0.00    -0.497 OA
ATOM     27  C   UNL A   1      33.384  17.107  25.030  1.00  0.00     0.278 C 
ENDBRANCH  20  26
ENDBRANCH  14  19
ENDBRANCH   9  13
ENDBRANCH   6   8
ENDBRANCH   5   6
ENDBRANCH   4   5
ENDBRANCH   3   4
ENDBRANCH   2   3
ENDBRANCH   1   2
BRANCH   1  28
ATOM     28  C   UNL A   1      34.962  35.242  28.349  1.00  0.00     0.188 C 
BRANCH  28  29
ATOM     29  O   UNL A   1      33.932  36.174  28.556  1.00  0.00    -0.376 OA
BRANCH  29  30
ATOM     30  C   UNL A   1      32.860  36.025  29.435  1.00  0.00     0.202 C 
BRANCH  30  31
ATOM     31  C   UNL A   1      33.208  36.978  30.542  1.00  0.00     0.261 C 
BRANCH  31  32
ATOM     32  O   UNL A   1      33.751  36.225  31.698  1.00  0.00    -0.460 OA
BRANCH  32  33
ATOM     33  C   UNL A   1      33.062  35.176  32.265  1.00  0.00     0.338 C 
ATOM     34  O   UNL A   1      31.923  35.266  32.703  1.00  0.00    -0.246 OA
BRANCH  33  35
ATOM     35  C   UNL A   1      33.892  33.889  32.345  1.00  0.00     0.060 A 
ATOM     36  C   UNL A   1      34.474  33.473  33.536  1.00  0.00     0.016 A 
ATOM     37  C   UNL A   1      34.346  33.212  31.208  1.00  0.00     0.016 A 
ATOM     38  C   UNL A   1      35.665  32.674  33.498  1.00  0.00     0.010 A 
ATOM     39  C   UNL A   1      35.626  32.561  31.190  1.00  0.00     0.010 A 
ATOM     40  C   UNL A   1      36.439  32.511  32.333  1.00  0.00    -0.014 A 
BRANCH  40  41
ATOM     41  C   UNL A   1      38.111  32.325  32.268  1.00  0.00     0.031 A 
ATOM     42  C   UNL A   1      38.309  31.012  31.619  1.00  0.00     0.074 A 
ATOM     43  C   UNL A   1      39.318  32.908  32.868  1.00  0.00     0.049 A 
ATOM     44  N   UNL A   1      39.240  30.209  31.996  1.00  0.00    -0.248 NA
ATOM     45  C   UNL A   1      37.252  30.360  30.826  1.00  0.00     0.031 C 
ATOM     46  C   UNL A   1      40.736  32.684  32.488  1.00  0.00     0.029 A 
ATOM     47  N   UNL A   1      39.615  33.814  34.002  1.00  0.00    -0.354 N 
ATOM     48  C   UNL A   1      39.030  29.048  31.314  1.00  0.00     0.074 A 
ATOM     49  C   UNL A   1      37.660  29.097  30.919  1.00  0.00     0.031 C 
ATOM     50  C   UNL A   1      41.620  33.249  33.357  1.00  0.00     0.029 A 
ATOM     51  C   UNL A   1      40.947  33.866  34.495  1.00  0.00     0.049 A 
ATOM     52  H   UNL A   1      38.906  34.366  34.405  1.00  0.00     0.167 HD
ATOM     53  C   UNL A   1      40.139  28.431  30.850  1.00  0.00     0.037 A 
ATOM     54  C   UNL A   1      41.423  33.976  35.819  1.00  0.00     0.037 A 
ATOM     55  C   UNL A   1      41.302  28.880  31.649  1.00  0.00     0.049 A 
ATOM     56  C   UNL A   1      42.235  32.634  36.131  1.00  0.00     0.074 A 
ATOM     57  C   UNL A   1      42.297  29.808  31.388  1.00  0.00     0.029 A 
ATOM     58  N   UNL A   1      41.299  28.726  33.050  1.00  0.00    -0.354 N 
ATOM     59  N   UNL A   1      42.248  31.648  35.261  1.00  0.00    -0.248 NA
ATOM     60  C   UNL A   1      42.857  32.190  37.389  1.00  0.00     0.031 C 
ATOM     61  C   UNL A   1      42.917  30.171  32.612  1.00  0.00     0.029 A 
ATOM     62  C   UNL A   1      42.320  29.467  33.640  1.00  0.00     0.049 A 
ATOM     63  H   UNL A   1      40.658  28.168  33.547  1.00  0.00     0.167 HD
ATOM     64  C   UNL A   1      42.733  30.482  35.790  1.00  0.00     0.074 A 
ATOM     65  C   UNL A   1      43.162  30.897  37.118  1.00  0.00     0.031 C 
ATOM     66  C   UNL A   1      42.707  29.315  35.052  1.00  0.00     0.037 A 
BRANCH  53  67
ATOM     67  C   UNL A   1      40.150  27.900  29.413  1.00  0.00     0.064 A 
ATOM     68  C   UNL A   1      39.559  26.654  29.142  1.00  0.00     0.173 A 
ATOM     69  C   UNL A   1      40.818  28.467  28.291  1.00  0.00     0.173 A 
ATOM     70  F   UNL A   1      38.885  25.988  30.088  1.00  0.00    -0.203 F 
ATOM     71  C   UNL A   1      39.652  26.027  27.891  1.00  0.00     0.198 A 
ATOM     72  C   UNL A   1      40.921  27.838  27.049  1.00  0.00     0.198 A 
ATOM     73  F   UNL A   1      41.413  29.660  28.304  1.00  0.00    -0.203 F 
ATOM     74  F   UNL A   1      39.086  24.827  27.710  1.00  0.00    -0.200 F 
ATOM     75  C   UNL A   1      40.334  26.617  26.845  1.00  0.00     0.200 A 
ATOM     76  F   UNL A   1      41.607  28.433  26.062  1.00  0.00    -0.200 F 
ATOM     77  F   UNL A   1      40.417  26.020  25.650  1.00  0.00    -0.200 F 
ENDBRANCH  53  67
BRANCH  54  78
ATOM     78  C   UNL A   1      40.651  34.785  36.937  1.00  0.00     0.064 A 
ATOM     79  C   UNL A   1      39.693  34.176  37.773  1.00  0.00     0.173 A 
ATOM     80  C   UNL A   1      40.926  36.106  37.339  1.00  0.00     0.173 A 
ATOM     81  F   UNL A   1      39.124  33.027  37.393  1.00  0.00    -0.203 F 
ATOM     82  C   UNL A   1      39.275  34.729  39.015  1.00  0.00     0.198 A 
ATOM     83  C   UNL A   1      40.625  36.611  38.632  1.00  0.00     0.198 A 
ATOM     84  F   UNL A   1      41.533  36.948  36.497  1.00  0.00    -0.203 F 
ATOM     85  F   UNL A   1      38.424  34.059  39.806  1.00  0.00    -0.200 F 
ATOM     86  C   UNL A   1      39.836  35.897  39.493  1.00  0.00     0.200 A 
ATOM     87  F   UNL A   1      41.175  37.755  39.059  1.00  0.00    -0.200 F 
ATOM     88  F   UNL A   1      39.690  36.276  40.773  1.00  0.00    -0.200 F 
ENDBRANCH  54  78
BRANCH  66  89
ATOM     89  C   UNL A   1      43.250  27.943  35.446  1.00  0.00     0.064 A 
ATOM     90  C   UNL A   1      42.576  26.987  36.212  1.00  0.00     0.173 A 
ATOM     91  C   UNL A   1      44.560  27.549  35.037  1.00  0.00     0.173 A 
ATOM     92  F   UNL A   1      41.283  27.124  36.525  1.00  0.00    -0.203 F 
ATOM     93  C   UNL A   1      43.208  25.813  36.653  1.00  0.00     0.198 A 
ATOM     94  C   UNL A   1      45.150  26.345  35.399  1.00  0.00     0.198 A 
ATOM     95  F   UNL A   1      45.345  28.320  34.273  1.00  0.00    -0.203 F 
ATOM     96  F   UNL A   1      42.556  24.983  37.478  1.00  0.00    -0.200 F 
ATOM     97  C   UNL A   1      44.491  25.494  36.249  1.00  0.00     0.200 A 
ATOM     98  F   UNL A   1      46.365  26.034  34.924  1.00  0.00    -0.200 F 
ATOM     99  F   UNL A   1      45.085  24.369  36.663  1.00  0.00    -0.200 F 
ENDBRANCH  66  89
ENDBRANCH  40  41
ENDBRANCH  33  35
ENDBRANCH  32  33
ENDBRANCH  31  32
ENDBRANCH  30  31
ENDBRANCH  29  30
ENDBRANCH  28  29
ENDBRANCH   1  28
TORSDOF 20
ENDMDL
MODEL 3
REMARK VINA RESULT:     -12.4      2.750      4.298
REMARK SMILES COc1ccc(NC(=O)N[C@@H]2C=C[C@H](C(=O)OCCOCCOCCOC(=O)c3ccc(-c4c5nc(c(-c6c(F)c(F)c(F)c(F)c6F)c6ccc([nH]6)c(-c6c(F)c(F)c(F)c(F)c6F)c6nc(c(-c7c(F)c(F)c(F)c(F)c7F)c7ccc4[nH]7)C=C6)C=C5)cc3)C2)c(C)c1
REMARK SMILES IDX 21 1 20 2 19 3 18 4 17 5 15 6 16 7 14 8 11 9 12 10 92 11
REMARK SMILES IDX 13 12 10 13 7 14 8 15 9 17 6 19 3 20 4 21 95 22 5 23 93 24
REMARK SMILES IDX 94 25 2 26 1 27 22 28 23 29 24 30 25 31 26 32 27 33 28 34
REMARK SMILES IDX 29 35 30 36 91 37 31 38 90 39 32 40 33 41 34 42 84 43 35 44
REMARK SMILES IDX 89 45 83 46 85 47 36 48 88 49 82 50 81 51 37 53 69 54 49 55
REMARK SMILES IDX 68 56 50 57 53 58 67 59 86 60 51 61 52 62 66 64 87 65 54 66
REMARK SMILES IDX 38 67 39 68 47 69 40 70 41 71 45 72 48 73 42 74 43 75 46 76
REMARK SMILES IDX 44 77 70 78 71 79 79 80 72 81 73 82 77 83 80 84 74 85 75 86
REMARK SMILES IDX 78 87 76 88 55 89 56 90 64 91 57 92 58 93 62 94 65 95 59 96
REMARK SMILES IDX 60 97 63 98 61 99
REMARK H PARENT 7 16 10 18 85 52 53 63
REMARK Flexibility Score: inf
ROOT
ATOM      1  C   UNL A   1      44.144  19.522  25.052  1.00  0.00     0.188 C 
ENDROOT
BRANCH   1   2
ATOM      2  O   UNL A   1      42.816  19.078  24.962  1.00  0.00    -0.376 OA
BRANCH   2   3
ATOM      3  C   UNL A   1      42.285  18.877  26.259  1.00  0.00     0.202 C 
BRANCH   3   4
ATOM      4  C   UNL A   1      40.981  19.772  26.737  1.00  0.00     0.261 C 
BRANCH   4   5
ATOM      5  O   UNL A   1      39.874  20.871  26.089  1.00  0.00    -0.463 OA
BRANCH   5   6
ATOM      6  C   UNL A   1      38.595  20.822  25.370  1.00  0.00     0.312 C 
ATOM      7  O   UNL A   1      38.170  19.715  25.037  1.00  0.00    -0.252 OA
BRANCH   6   8
ATOM      8  C   UNL A   1      37.555  22.401  24.997  1.00  0.00     0.124 C 
ATOM      9  C   UNL A   1      34.398  22.974  25.334  1.00  0.00     0.107 C 
ATOM     10  C   UNL A   1      34.951  23.758  23.592  1.00  0.00    -0.006 C 
ATOM     11  C   UNL A   1      36.021  22.415  26.360  1.00  0.00     0.048 C 
ATOM     12  C   UNL A   1      36.523  23.332  23.256  1.00  0.00    -0.014 C 
BRANCH   9  13
ATOM     13  N   UNL A   1      33.728  21.390  25.028  1.00  0.00    -0.332 N 
ATOM     14  N   UNL A   1      31.420  21.757  24.026  1.00  0.00    -0.308 N 
ATOM     15  C   UNL A   1      32.551  20.915  24.316  1.00  0.00     0.319 C 
ATOM     16  H   UNL A   1      30.660  21.342  23.559  1.00  0.00     0.171 HD
ATOM     17  O   UNL A   1      32.485  19.724  23.999  1.00  0.00    -0.248 OA
ATOM     18  H   UNL A   1      34.261  20.662  25.422  1.00  0.00     0.165 HD
BRANCH  14  19
ATOM     19  C   UNL A   1      31.306  23.111  24.349  1.00  0.00     0.046 A 
ATOM     20  C   UNL A   1      30.797  26.720  23.624  1.00  0.00     0.119 A 
ATOM     21  C   UNL A   1      31.274  25.589  22.386  1.00  0.00     0.048 A 
ATOM     22  C   UNL A   1      30.590  25.953  25.156  1.00  0.00     0.052 A 
ATOM     23  C   UNL A   1      31.562  23.722  23.105  1.00  0.00     0.030 A 
ATOM     24  C   UNL A   1      30.885  24.217  25.421  1.00  0.00    -0.024 A 
ATOM     25  C   UNL A   1      30.610  23.620  26.675  1.00  0.00     0.047 C 
BRANCH  20  26
ATOM     26  O   UNL A   1      30.692  28.064  23.570  1.00  0.00    -0.497 OA
ATOM     27  C   UNL A   1      29.449  28.568  23.112  1.00  0.00     0.278 C 
ENDBRANCH  20  26
ENDBRANCH  14  19
ENDBRANCH   9  13
ENDBRANCH   6   8
ENDBRANCH   5   6
ENDBRANCH   4   5
ENDBRANCH   3   4
ENDBRANCH   2   3
ENDBRANCH   1   2
BRANCH   1  28
ATOM     28  C   UNL A   1      44.264  20.980  25.453  1.00  0.00     0.188 C 
BRANCH  28  29
ATOM     29  O   UNL A   1      43.786  21.854  24.464  1.00  0.00    -0.376 OA
BRANCH  29  30
ATOM     30  C   UNL A   1      43.411  23.182  24.661  1.00  0.00     0.202 C 
BRANCH  30  31
ATOM     31  C   UNL A   1      42.847  23.162  26.053  1.00  0.00     0.261 C 
BRANCH  31  32
ATOM     32  O   UNL A   1      41.641  24.021  26.117  1.00  0.00    -0.460 OA
BRANCH  32  33
ATOM     33  C   UNL A   1      40.880  24.116  27.261  1.00  0.00     0.338 C 
ATOM     34  O   UNL A   1      40.611  23.164  27.982  1.00  0.00    -0.246 OA
BRANCH  33  35
ATOM     35  C   UNL A   1      40.355  25.535  27.514  1.00  0.00     0.060 A 
ATOM     36  C   UNL A   1      40.831  26.624  26.793  1.00  0.00     0.016 A 
ATOM     37  C   UNL A   1      39.597  25.869  28.640  1.00  0.00     0.016 A 
ATOM     38  C   UNL A   1      40.809  27.928  27.389  1.00  0.00     0.010 A 
ATOM     39  C   UNL A   1      39.739  27.146  29.282  1.00  0.00     0.010 A 
ATOM     40  C   UNL A   1      40.587  28.136  28.764  1.00  0.00    -0.014 A 
BRANCH  40  41
ATOM     41  C   UNL A   1      41.259  29.360  29.704  1.00  0.00     0.031 A 
ATOM     42  C   UNL A   1      40.145  30.305  29.928  1.00  0.00     0.074 A 
ATOM     43  C   UNL A   1      42.583  29.860  30.098  1.00  0.00     0.049 A 
ATOM     44  N   UNL A   1      40.332  31.578  29.926  1.00  0.00    -0.248 NA
ATOM     45  C   UNL A   1      38.736  29.915  29.747  1.00  0.00     0.031 C 
ATOM     46  C   UNL A   1      42.915  30.878  31.127  1.00  0.00     0.029 A 
ATOM     47  N   UNL A   1      43.981  29.636  29.661  1.00  0.00    -0.354 N 
ATOM     48  C   UNL A   1      39.090  32.137  29.989  1.00  0.00     0.074 A 
ATOM     49  C   UNL A   1      38.204  31.116  29.533  1.00  0.00     0.031 C 
ATOM     50  C   UNL A   1      44.231  31.232  31.124  1.00  0.00     0.029 A 
ATOM     51  C   UNL A   1      44.971  30.579  30.050  1.00  0.00     0.049 A 
ATOM     52  H   UNL A   1      44.218  28.852  29.113  1.00  0.00     0.167 HD
ATOM     53  C   UNL A   1      38.973  33.218  30.791  1.00  0.00     0.037 A 
ATOM     54  C   UNL A   1      46.074  31.088  29.333  1.00  0.00     0.037 A 
ATOM     55  C   UNL A   1      40.312  33.826  30.967  1.00  0.00     0.049 A 
ATOM     56  C   UNL A   1      45.826  32.657  29.155  1.00  0.00     0.074 A 
ATOM     57  C   UNL A   1      41.227  33.758  32.006  1.00  0.00     0.029 A 
ATOM     58  N   UNL A   1      41.060  34.225  29.841  1.00  0.00    -0.354 N 
ATOM     59  N   UNL A   1      44.691  33.198  29.541  1.00  0.00    -0.248 NA
ATOM     60  C   UNL A   1      46.616  33.649  28.408  1.00  0.00     0.031 C 
ATOM     61  C   UNL A   1      42.499  34.158  31.521  1.00  0.00     0.029 A 
ATOM     62  C   UNL A   1      42.385  34.485  30.183  1.00  0.00     0.049 A 
ATOM     63  H   UNL A   1      40.695  34.309  28.931  1.00  0.00     0.167 HD
ATOM     64  C   UNL A   1      44.521  34.470  29.063  1.00  0.00     0.074 A 
ATOM     65  C   UNL A   1      45.795  34.728  28.406  1.00  0.00     0.031 C 
ATOM     66  C   UNL A   1      43.335  35.143  29.271  1.00  0.00     0.037 A 
BRANCH  53  67
ATOM     67  C   UNL A   1      37.780  33.311  31.746  1.00  0.00     0.064 A 
ATOM     68  C   UNL A   1      36.565  33.837  31.271  1.00  0.00     0.173 A 
ATOM     69  C   UNL A   1      37.773  33.042  33.145  1.00  0.00     0.173 A 
ATOM     70  F   UNL A   1      36.402  34.139  29.977  1.00  0.00    -0.203 F 
ATOM     71  C   UNL A   1      35.471  34.094  32.110  1.00  0.00     0.198 A 
ATOM     72  C   UNL A   1      36.687  33.309  33.981  1.00  0.00     0.198 A 
ATOM     73  F   UNL A   1      38.799  32.503  33.803  1.00  0.00    -0.203 F 
ATOM     74  F   UNL A   1      34.353  34.620  31.593  1.00  0.00    -0.200 F 
ATOM     75  C   UNL A   1      35.532  33.833  33.464  1.00  0.00     0.200 A 
ATOM     76  F   UNL A   1      36.789  33.059  35.295  1.00  0.00    -0.200 F 
ATOM     77  F   UNL A   1      34.485  34.074  34.262  1.00  0.00    -0.200 F 
ENDBRANCH  53  67
BRANCH  54  78
ATOM     78  C   UNL A   1      46.873  30.225  28.275  1.00  0.00     0.064 A 
ATOM     79  C   UNL A   1      47.947  29.391  28.648  1.00  0.00     0.173 A 
ATOM     80  C   UNL A   1      46.526  30.050  26.921  1.00  0.00     0.173 A 
ATOM     81  F   UNL A   1      48.574  29.607  29.810  1.00  0.00    -0.203 F 
ATOM     82  C   UNL A   1      48.425  28.323  27.840  1.00  0.00     0.198 A 
ATOM     83  C   UNL A   1      46.896  28.911  26.159  1.00  0.00     0.198 A 
ATOM     84  F   UNL A   1      45.780  30.967  26.299  1.00  0.00    -0.203 F 
ATOM     85  F   UNL A   1      49.394  27.513  28.288  1.00  0.00    -0.200 F 
ATOM     86  C   UNL A   1      47.814  28.017  26.640  1.00  0.00     0.200 A 
ATOM     87  F   UNL A   1      46.293  28.650  24.991  1.00  0.00    -0.200 F 
ATOM     88  F   UNL A   1      48.039  26.851  26.013  1.00  0.00    -0.200 F 
ENDBRANCH  54  78
BRANCH  66  89
ATOM     89  C   UNL A   1      42.984  36.575  28.869  1.00  0.00     0.064 A 
ATOM     90  C   UNL A   1      42.171  36.945  27.793  1.00  0.00     0.173 A 
ATOM     91  C   UNL A   1      43.512  37.674  29.610  1.00  0.00     0.173 A 
ATOM     92  F   UNL A   1      41.460  36.042  27.108  1.00  0.00    -0.203 F 
ATOM     93  C   UNL A   1      42.023  38.286  27.405  1.00  0.00     0.198 A 
ATOM     94  C   UNL A   1      43.288  39.005  29.278  1.00  0.00     0.198 A 
ATOM     95  F   UNL A   1      44.286  37.516  30.692  1.00  0.00    -0.203 F 
ATOM     96  F   UNL A   1      41.325  38.580  26.299  1.00  0.00    -0.200 F 
ATOM     97  C   UNL A   1      42.581  39.312  28.145  1.00  0.00     0.200 A 
ATOM     98  F   UNL A   1      43.780  39.974  30.063  1.00  0.00    -0.200 F 
ATOM     99  F   UNL A   1      42.428  40.590  27.777  1.00  0.00    -0.200 F 
ENDBRANCH  66  89
ENDBRANCH  40  41
ENDBRANCH  33  35
ENDBRANCH  32  33
ENDBRANCH  31  32
ENDBRANCH  30  31
ENDBRANCH  29  30
ENDBRANCH  28  29
ENDBRANCH   1  28
TORSDOF 20
ENDMDL
