MODEL 1
REMARK VINA RESULT:     -12.3      0.000      0.000
REMARK SMILES C[C@@H]1CCc2nc(NC(=O)[C@H]3CC=CC[C@@H]3C(=O)OCCOCCOCCOC(=O)c3ccc(-c4c5nc(c(-c6c(F)c(F)c(F)c(F)c6F)c6ccc([nH]6)c(-c6c(F)c(F)c(F)c(F)c6F)c6nc(c(-c7c(F)c(F)c(F)c(F)c7F)c7ccc4[nH]7)C=C6)C=C5)cc3)sc2C1
REMARK SMILES IDX 23 1 22 2 21 3 20 4 19 5 17 6 18 7 16 8 11 9 12 10 13 11
REMARK SMILES IDX 15 12 14 13 9 14 8 15 10 17 7 18 1 19 2 20 3 21 96 22 4 23
REMARK SMILES IDX 95 24 5 25 94 26 6 27 24 28 25 29 26 30 27 31 28 32 29 33
REMARK SMILES IDX 30 34 31 35 32 36 93 37 33 38 92 39 34 40 35 41 36 42 86 43
REMARK SMILES IDX 37 44 91 45 85 46 87 47 38 48 90 49 84 50 83 51 39 53 71 54
REMARK SMILES IDX 51 55 70 56 52 57 55 58 69 59 88 60 53 61 54 62 68 64 89 65
REMARK SMILES IDX 56 66 40 67 41 68 49 69 42 70 43 71 47 72 50 73 44 74 45 75
REMARK SMILES IDX 48 76 46 77 72 78 73 79 81 80 74 81 75 82 79 83 82 84 76 85
REMARK SMILES IDX 77 86 80 87 78 88 57 89 58 90 66 91 59 92 60 93 64 94 67 95
REMARK SMILES IDX 61 96 62 97 65 98 63 99
REMARK H PARENT 8 16 87 52 55 63
REMARK Flexibility Score: inf
ROOT
ATOM      1  C   UNL A   1      40.381  21.619  26.160  1.00  0.00     0.188 C 
ENDROOT
BRANCH   1   2
ATOM      2  O   UNL A   1      38.967  21.707  26.120  1.00  0.00    -0.376 OA
BRANCH   2   3
ATOM      3  C   UNL A   1      38.460  23.037  26.184  1.00  0.00     0.202 C 
BRANCH   3   4
ATOM      4  C   UNL A   1      36.958  23.229  25.873  1.00  0.00     0.261 C 
BRANCH   4   5
ATOM      5  O   UNL A   1      36.646  24.092  24.747  1.00  0.00    -0.463 OA
BRANCH   5   6
ATOM      6  C   UNL A   1      35.749  23.638  23.835  1.00  0.00     0.310 C 
ATOM      7  O   UNL A   1      36.064  23.085  22.786  1.00  0.00    -0.252 OA
BRANCH   6   8
ATOM      8  C   UNL A   1      34.284  23.903  24.189  1.00  0.00     0.116 C 
ATOM      9  C   UNL A   1      33.509  24.411  22.962  1.00  0.00     0.097 C 
ATOM     10  C   UNL A   1      33.804  25.907  22.719  1.00  0.00     0.041 C 
ATOM     11  C   UNL A   1      33.631  26.727  23.957  1.00  0.00    -0.030 C 
ATOM     12  C   UNL A   1      33.951  24.736  25.441  1.00  0.00     0.043 C 
ATOM     13  C   UNL A   1      33.661  26.184  25.180  1.00  0.00    -0.030 C 
BRANCH   9  14
ATOM     14  C   UNL A   1      32.006  24.149  23.194  1.00  0.00     0.230 C 
ATOM     15  N   UNL A   1      31.448  22.922  23.071  1.00  0.00    -0.302 N 
ATOM     16  H   UNL A   1      30.558  22.912  22.651  1.00  0.00     0.172 HD
ATOM     17  O   UNL A   1      31.224  25.066  23.473  1.00  0.00    -0.274 OA
BRANCH  15  18
ATOM     18  C   UNL A   1      31.926  21.702  23.437  1.00  0.00     0.189 A 
ATOM     19  C   UNL A   1      34.895  17.641  24.425  1.00  0.00     0.008 C 
ATOM     20  C   UNL A   1      33.411  17.391  24.722  1.00  0.00    -0.009 C 
ATOM     21  C   UNL A   1      32.601  17.113  23.429  1.00  0.00     0.010 C 
ATOM     22  C   UNL A   1      32.796  18.573  25.500  1.00  0.00     0.052 C 
ATOM     23  C   UNL A   1      32.576  18.306  22.451  1.00  0.00     0.058 C 
ATOM     24  C   UNL A   1      32.489  19.680  24.563  1.00  0.00     0.030 A 
ATOM     25  C   UNL A   1      32.392  19.582  23.191  1.00  0.00     0.057 A 
ATOM     26  S   UNL A   1      32.125  21.244  25.064  1.00  0.00    -0.101 S 
ATOM     27  N   UNL A   1      32.113  20.761  22.542  1.00  0.00    -0.225 NA
ENDBRANCH  15  18
ENDBRANCH   9  14
ENDBRANCH   6   8
ENDBRANCH   5   6
ENDBRANCH   4   5
ENDBRANCH   3   4
ENDBRANCH   2   3
ENDBRANCH   1   2
BRANCH   1  28
ATOM     28  C   UNL A   1      40.970  21.165  27.504  1.00  0.00     0.188 C 
BRANCH  28  29
ATOM     29  O   UNL A   1      41.580  19.888  27.561  1.00  0.00    -0.376 OA
BRANCH  29  30
ATOM     30  C   UNL A   1      41.917  19.179  26.365  1.00  0.00     0.202 C 
BRANCH  30  31
ATOM     31  C   UNL A   1      43.303  19.269  25.714  1.00  0.00     0.261 C 
BRANCH  31  32
ATOM     32  O   UNL A   1      43.582  20.509  25.089  1.00  0.00    -0.460 OA
BRANCH  32  33
ATOM     33  C   UNL A   1      44.858  20.933  25.039  1.00  0.00     0.338 C 
ATOM     34  O   UNL A   1      45.859  20.305  25.339  1.00  0.00    -0.246 OA
BRANCH  33  35
ATOM     35  C   UNL A   1      44.789  22.338  24.578  1.00  0.00     0.060 A 
ATOM     36  C   UNL A   1      45.956  23.087  24.635  1.00  0.00     0.016 A 
ATOM     37  C   UNL A   1      43.526  22.941  24.480  1.00  0.00     0.016 A 
ATOM     38  C   UNL A   1      45.829  24.358  25.137  1.00  0.00     0.010 A 
ATOM     39  C   UNL A   1      43.394  24.190  24.985  1.00  0.00     0.010 A 
ATOM     40  C   UNL A   1      44.545  24.780  25.481  1.00  0.00    -0.014 A 
BRANCH  40  41
ATOM     41  C   UNL A   1      44.361  25.776  26.507  1.00  0.00     0.031 A 
ATOM     42  C   UNL A   1      45.365  26.844  26.401  1.00  0.00     0.074 A 
ATOM     43  C   UNL A   1      43.264  25.744  27.294  1.00  0.00     0.049 A 
ATOM     44  N   UNL A   1      46.420  26.991  27.130  1.00  0.00    -0.248 NA
ATOM     45  C   UNL A   1      45.370  27.650  25.165  1.00  0.00     0.031 C 
ATOM     46  C   UNL A   1      42.095  24.855  27.225  1.00  0.00     0.029 A 
ATOM     47  N   UNL A   1      42.925  26.606  28.291  1.00  0.00    -0.354 N 
ATOM     48  C   UNL A   1      47.084  28.065  26.550  1.00  0.00     0.074 A 
ATOM     49  C   UNL A   1      46.604  28.146  25.206  1.00  0.00     0.031 C 
ATOM     50  C   UNL A   1      41.093  25.363  27.982  1.00  0.00     0.029 A 
ATOM     51  C   UNL A   1      41.582  26.540  28.672  1.00  0.00     0.049 A 
ATOM     52  H   UNL A   1      43.570  27.221  28.708  1.00  0.00     0.167 HD
ATOM     53  C   UNL A   1      47.636  29.038  27.324  1.00  0.00     0.037 A 
ATOM     54  C   UNL A   1      40.956  27.494  29.413  1.00  0.00     0.037 A 
ATOM     55  C   UNL A   1      47.804  28.559  28.677  1.00  0.00     0.049 A 
ATOM     56  C   UNL A   1      42.033  28.294  30.068  1.00  0.00     0.074 A 
ATOM     57  C   UNL A   1      48.513  27.522  29.252  1.00  0.00     0.029 A 
ATOM     58  N   UNL A   1      46.854  28.926  29.602  1.00  0.00    -0.354 N 
ATOM     59  N   UNL A   1      42.842  27.806  30.971  1.00  0.00    -0.248 NA
ATOM     60  C   UNL A   1      42.542  29.443  29.327  1.00  0.00     0.031 C 
ATOM     61  C   UNL A   1      47.669  27.021  30.286  1.00  0.00     0.029 A 
ATOM     62  C   UNL A   1      46.528  27.822  30.346  1.00  0.00     0.049 A 
ATOM     63  H   UNL A   1      46.474  29.827  29.709  1.00  0.00     0.167 HD
ATOM     64  C   UNL A   1      44.095  28.302  30.632  1.00  0.00     0.074 A 
ATOM     65  C   UNL A   1      43.840  29.336  29.630  1.00  0.00     0.031 C 
ATOM     66  C   UNL A   1      45.235  27.626  30.960  1.00  0.00     0.037 A 
BRANCH  53  67
ATOM     67  C   UNL A   1      47.596  30.516  26.982  1.00  0.00     0.064 A 
ATOM     68  C   UNL A   1      48.802  31.236  27.062  1.00  0.00     0.173 A 
ATOM     69  C   UNL A   1      46.433  31.315  26.860  1.00  0.00     0.173 A 
ATOM     70  F   UNL A   1      49.976  30.593  27.153  1.00  0.00    -0.203 F 
ATOM     71  C   UNL A   1      48.830  32.630  27.146  1.00  0.00     0.198 A 
ATOM     72  C   UNL A   1      46.469  32.706  26.899  1.00  0.00     0.198 A 
ATOM     73  F   UNL A   1      45.196  30.820  26.789  1.00  0.00    -0.203 F 
ATOM     74  F   UNL A   1      49.994  33.256  27.359  1.00  0.00    -0.200 F 
ATOM     75  C   UNL A   1      47.661  33.363  27.083  1.00  0.00     0.200 A 
ATOM     76  F   UNL A   1      45.318  33.393  26.838  1.00  0.00    -0.200 F 
ATOM     77  F   UNL A   1      47.677  34.692  27.237  1.00  0.00    -0.200 F 
ENDBRANCH  53  67
BRANCH  54  78
ATOM     78  C   UNL A   1      39.567  28.002  29.265  1.00  0.00     0.064 A 
ATOM     79  C   UNL A   1      38.710  28.135  30.372  1.00  0.00     0.173 A 
ATOM     80  C   UNL A   1      39.145  28.629  28.076  1.00  0.00     0.173 A 
ATOM     81  F   UNL A   1      39.059  27.617  31.559  1.00  0.00    -0.203 F 
ATOM     82  C   UNL A   1      37.513  28.860  30.295  1.00  0.00     0.198 A 
ATOM     83  C   UNL A   1      37.951  29.348  27.999  1.00  0.00     0.198 A 
ATOM     84  F   UNL A   1      39.930  28.640  26.991  1.00  0.00    -0.203 F 
ATOM     85  F   UNL A   1      36.747  29.010  31.385  1.00  0.00    -0.200 F 
ATOM     86  C   UNL A   1      37.139  29.472  29.110  1.00  0.00     0.200 A 
ATOM     87  F   UNL A   1      37.624  29.972  26.858  1.00  0.00    -0.200 F 
ATOM     88  F   UNL A   1      36.024  30.214  29.050  1.00  0.00    -0.200 F 
ENDBRANCH  54  78
BRANCH  66  89
ATOM     89  C   UNL A   1      45.110  26.444  31.881  1.00  0.00     0.064 A 
ATOM     90  C   UNL A   1      45.045  26.544  33.282  1.00  0.00     0.173 A 
ATOM     91  C   UNL A   1      44.853  25.190  31.312  1.00  0.00     0.173 A 
ATOM     92  F   UNL A   1      45.188  27.727  33.893  1.00  0.00    -0.203 F 
ATOM     93  C   UNL A   1      44.757  25.433  34.075  1.00  0.00     0.198 A 
ATOM     94  C   UNL A   1      44.532  24.091  32.102  1.00  0.00     0.198 A 
ATOM     95  F   UNL A   1      44.848  25.050  29.978  1.00  0.00    -0.203 F 
ATOM     96  F   UNL A   1      44.694  25.555  35.409  1.00  0.00    -0.200 F 
ATOM     97  C   UNL A   1      44.489  24.210  33.482  1.00  0.00     0.200 A 
ATOM     98  F   UNL A   1      44.222  22.924  31.521  1.00  0.00    -0.200 F 
ATOM     99  F   UNL A   1      44.159  23.154  34.238  1.00  0.00    -0.200 F 
ENDBRANCH  66  89
ENDBRANCH  40  41
ENDBRANCH  33  35
ENDBRANCH  32  33
ENDBRANCH  31  32
ENDBRANCH  30  31
ENDBRANCH  29  30
ENDBRANCH  28  29
ENDBRANCH   1  28
TORSDOF 19
ENDMDL
MODEL 2
REMARK VINA RESULT:     -12.2      1.388      2.336
REMARK SMILES C[C@@H]1CCc2nc(NC(=O)[C@H]3CC=CC[C@@H]3C(=O)OCCOCCOCCOC(=O)c3ccc(-c4c5nc(c(-c6c(F)c(F)c(F)c(F)c6F)c6ccc([nH]6)c(-c6c(F)c(F)c(F)c(F)c6F)c6nc(c(-c7c(F)c(F)c(F)c(F)c7F)c7ccc4[nH]7)C=C6)C=C5)cc3)sc2C1
REMARK SMILES IDX 23 1 22 2 21 3 20 4 19 5 17 6 18 7 16 8 11 9 12 10 13 11
REMARK SMILES IDX 15 12 14 13 9 14 8 15 10 17 7 18 1 19 2 20 3 21 96 22 4 23
REMARK SMILES IDX 95 24 5 25 94 26 6 27 24 28 25 29 26 30 27 31 28 32 29 33
REMARK SMILES IDX 30 34 31 35 32 36 93 37 33 38 92 39 34 40 35 41 36 42 86 43
REMARK SMILES IDX 37 44 91 45 85 46 87 47 38 48 90 49 84 50 83 51 39 53 71 54
REMARK SMILES IDX 51 55 70 56 52 57 55 58 69 59 88 60 53 61 54 62 68 64 89 65
REMARK SMILES IDX 56 66 40 67 41 68 49 69 42 70 43 71 47 72 50 73 44 74 45 75
REMARK SMILES IDX 48 76 46 77 72 78 73 79 81 80 74 81 75 82 79 83 82 84 76 85
REMARK SMILES IDX 77 86 80 87 78 88 57 89 58 90 66 91 59 92 60 93 64 94 67 95
REMARK SMILES IDX 61 96 62 97 65 98 63 99
REMARK H PARENT 8 16 87 52 55 63
REMARK Flexibility Score: inf
ROOT
ATOM      1  C   UNL A   1      37.558  23.404  25.740  1.00  0.00     0.188 C 
ENDROOT
BRANCH   1   2
ATOM      2  O   UNL A   1      36.884  23.755  24.543  1.00  0.00    -0.376 OA
BRANCH   2   3
ATOM      3  C   UNL A   1      35.516  24.109  24.722  1.00  0.00     0.202 C 
BRANCH   3   4
ATOM      4  C   UNL A   1      34.655  24.240  23.444  1.00  0.00     0.261 C 
BRANCH   4   5
ATOM      5  O   UNL A   1      34.458  25.590  22.945  1.00  0.00    -0.463 OA
BRANCH   5   6
ATOM      6  C   UNL A   1      33.275  26.195  23.218  1.00  0.00     0.310 C 
ATOM      7  O   UNL A   1      32.547  26.687  22.361  1.00  0.00    -0.252 OA
BRANCH   6   8
ATOM      8  C   UNL A   1      32.918  26.265  24.704  1.00  0.00     0.116 C 
ATOM      9  C   UNL A   1      31.441  26.650  24.895  1.00  0.00     0.097 C 
ATOM     10  C   UNL A   1      31.250  28.170  24.696  1.00  0.00     0.041 C 
ATOM     11  C   UNL A   1      32.220  28.973  25.503  1.00  0.00    -0.030 C 
ATOM     12  C   UNL A   1      33.827  27.058  25.661  1.00  0.00     0.043 C 
ATOM     13  C   UNL A   1      33.362  28.452  25.967  1.00  0.00    -0.030 C 
BRANCH   9  14
ATOM     14  C   UNL A   1      30.996  26.190  26.298  1.00  0.00     0.230 C 
ATOM     15  N   UNL A   1      30.712  24.900  26.592  1.00  0.00    -0.302 N 
ATOM     16  H   UNL A   1      29.941  24.771  27.191  1.00  0.00     0.172 HD
ATOM     17  O   UNL A   1      30.841  26.995  27.225  1.00  0.00    -0.274 OA
BRANCH  15  18
ATOM     18  C   UNL A   1      31.326  23.755  26.188  1.00  0.00     0.189 A 
ATOM     19  C   UNL A   1      32.784  18.883  25.542  1.00  0.00     0.008 C 
ATOM     20  C   UNL A   1      33.598  19.874  24.700  1.00  0.00    -0.009 C 
ATOM     21  C   UNL A   1      34.671  20.607  25.547  1.00  0.00     0.010 C 
ATOM     22  C   UNL A   1      32.674  20.893  24.000  1.00  0.00     0.052 C 
ATOM     23  C   UNL A   1      34.076  21.489  26.664  1.00  0.00     0.058 C 
ATOM     24  C   UNL A   1      32.271  21.943  24.964  1.00  0.00     0.030 A 
ATOM     25  C   UNL A   1      32.882  22.223  26.168  1.00  0.00     0.057 A 
ATOM     26  S   UNL A   1      31.018  23.030  24.680  1.00  0.00    -0.101 S 
ATOM     27  N   UNL A   1      32.305  23.238  26.892  1.00  0.00    -0.225 NA
ENDBRANCH  15  18
ENDBRANCH   9  14
ENDBRANCH   6   8
ENDBRANCH   5   6
ENDBRANCH   4   5
ENDBRANCH   3   4
ENDBRANCH   2   3
ENDBRANCH   1   2
BRANCH   1  28
ATOM     28  C   UNL A   1      38.300  22.060  25.703  1.00  0.00     0.188 C 
BRANCH  28  29
ATOM     29  O   UNL A   1      39.708  22.077  25.867  1.00  0.00    -0.376 OA
BRANCH  29  30
ATOM     30  C   UNL A   1      40.326  21.445  26.990  1.00  0.00     0.202 C 
BRANCH  30  31
ATOM     31  C   UNL A   1      41.384  20.345  26.841  1.00  0.00     0.261 C 
BRANCH  31  32
ATOM     32  O   UNL A   1      42.712  20.820  26.702  1.00  0.00    -0.460 OA
BRANCH  32  33
ATOM     33  C   UNL A   1      43.380  20.541  25.568  1.00  0.00     0.338 C 
ATOM     34  O   UNL A   1      43.400  19.485  24.960  1.00  0.00    -0.246 OA
BRANCH  33  35
ATOM     35  C   UNL A   1      44.118  21.780  25.230  1.00  0.00     0.060 A 
ATOM     36  C   UNL A   1      45.329  21.998  25.873  1.00  0.00     0.016 A 
ATOM     37  C   UNL A   1      43.413  22.821  24.606  1.00  0.00     0.016 A 
ATOM     38  C   UNL A   1      45.533  23.267  26.351  1.00  0.00     0.010 A 
ATOM     39  C   UNL A   1      43.604  24.073  25.083  1.00  0.00     0.010 A 
ATOM     40  C   UNL A   1      44.540  24.212  26.095  1.00  0.00    -0.014 A 
BRANCH  40  41
ATOM     41  C   UNL A   1      44.350  25.325  26.991  1.00  0.00     0.031 A 
ATOM     42  C   UNL A   1      45.400  26.339  26.811  1.00  0.00     0.074 A 
ATOM     43  C   UNL A   1      43.220  25.424  27.722  1.00  0.00     0.049 A 
ATOM     44  N   UNL A   1      46.427  26.533  27.568  1.00  0.00    -0.248 NA
ATOM     45  C   UNL A   1      45.491  26.995  25.492  1.00  0.00     0.031 C 
ATOM     46  C   UNL A   1      42.020  24.574  27.700  1.00  0.00     0.029 A 
ATOM     47  N   UNL A   1      42.872  26.406  28.597  1.00  0.00    -0.354 N 
ATOM     48  C   UNL A   1      47.159  27.508  26.901  1.00  0.00     0.074 A 
ATOM     49  C   UNL A   1      46.742  27.449  25.535  1.00  0.00     0.031 C 
ATOM     50  C   UNL A   1      41.008  25.201  28.345  1.00  0.00     0.029 A 
ATOM     51  C   UNL A   1      41.513  26.432  28.918  1.00  0.00     0.049 A 
ATOM     52  H   UNL A   1      43.523  27.043  28.971  1.00  0.00     0.167 HD
ATOM     53  C   UNL A   1      47.714  28.545  27.584  1.00  0.00     0.037 A 
ATOM     54  C   UNL A   1      40.893  27.487  29.515  1.00  0.00     0.037 A 
ATOM     55  C   UNL A   1      47.805  28.221  28.990  1.00  0.00     0.049 A 
ATOM     56  C   UNL A   1      41.972  28.320  30.124  1.00  0.00     0.074 A 
ATOM     57  C   UNL A   1      48.446  27.234  29.713  1.00  0.00     0.029 A 
ATOM     58  N   UNL A   1      46.831  28.725  29.820  1.00  0.00    -0.354 N 
ATOM     59  N   UNL A   1      42.721  27.912  31.115  1.00  0.00    -0.248 NA
ATOM     60  C   UNL A   1      42.559  29.356  29.282  1.00  0.00     0.031 C 
ATOM     61  C   UNL A   1      47.537  26.885  30.756  1.00  0.00     0.029 A 
ATOM     62  C   UNL A   1      46.428  27.728  30.669  1.00  0.00     0.049 A 
ATOM     63  H   UNL A   1      46.482  29.646  29.806  1.00  0.00     0.167 HD
ATOM     64  C   UNL A   1      44.007  28.321  30.782  1.00  0.00     0.074 A 
ATOM     65  C   UNL A   1      43.837  29.240  29.657  1.00  0.00     0.031 C 
ATOM     66  C   UNL A   1      45.103  27.649  31.239  1.00  0.00     0.037 A 
BRANCH  53  67
ATOM     67  C   UNL A   1      47.749  29.974  27.075  1.00  0.00     0.064 A 
ATOM     68  C   UNL A   1      48.969  30.668  27.165  1.00  0.00     0.173 A 
ATOM     69  C   UNL A   1      46.625  30.781  26.772  1.00  0.00     0.173 A 
ATOM     70  F   UNL A   1      50.110  30.013  27.420  1.00  0.00    -0.203 F 
ATOM     71  C   UNL A   1      49.036  32.062  27.091  1.00  0.00     0.198 A 
ATOM     72  C   UNL A   1      46.704  32.166  26.654  1.00  0.00     0.198 A 
ATOM     73  F   UNL A   1      45.381  30.311  26.662  1.00  0.00    -0.203 F 
ATOM     74  F   UNL A   1      50.201  32.680  27.321  1.00  0.00    -0.200 F 
ATOM     75  C   UNL A   1      47.899  32.811  26.855  1.00  0.00     0.200 A 
ATOM     76  F   UNL A   1      45.583  32.868  26.427  1.00  0.00    -0.200 F 
ATOM     77  F   UNL A   1      47.947  34.148  26.857  1.00  0.00    -0.200 F 
ENDBRANCH  53  67
BRANCH  54  78
ATOM     78  C   UNL A   1      39.534  28.022  29.243  1.00  0.00     0.064 A 
ATOM     79  C   UNL A   1      38.584  28.172  30.269  1.00  0.00     0.173 A 
ATOM     80  C   UNL A   1      39.233  28.657  28.022  1.00  0.00     0.173 A 
ATOM     81  F   UNL A   1      38.814  27.647  31.481  1.00  0.00    -0.203 F 
ATOM     82  C   UNL A   1      37.413  28.920  30.085  1.00  0.00     0.198 A 
ATOM     83  C   UNL A   1      38.065  29.399  27.839  1.00  0.00     0.198 A 
ATOM     84  F   UNL A   1      40.113  28.652  27.011  1.00  0.00    -0.203 F 
ATOM     85  F   UNL A   1      36.555  29.085  31.102  1.00  0.00    -0.200 F 
ATOM     86  C   UNL A   1      37.159  29.539  28.872  1.00  0.00     0.200 A 
ATOM     87  F   UNL A   1      37.855  30.029  26.674  1.00  0.00    -0.200 F 
ATOM     88  F   UNL A   1      36.069  30.303  28.713  1.00  0.00    -0.200 F 
ENDBRANCH  54  78
BRANCH  66  89
ATOM     89  C   UNL A   1      44.891  26.587  32.282  1.00  0.00     0.064 A 
ATOM     90  C   UNL A   1      44.659  25.232  31.985  1.00  0.00     0.173 A 
ATOM     91  C   UNL A   1      45.125  26.922  33.621  1.00  0.00     0.173 A 
ATOM     92  F   UNL A   1      44.518  24.821  30.719  1.00  0.00    -0.203 F 
ATOM     93  C   UNL A   1      44.641  24.263  32.990  1.00  0.00     0.198 A 
ATOM     94  C   UNL A   1      45.142  25.950  34.617  1.00  0.00     0.198 A 
ATOM     95  F   UNL A   1      45.407  28.191  33.953  1.00  0.00    -0.203 F 
ATOM     96  F   UNL A   1      44.425  22.976  32.680  1.00  0.00    -0.200 F 
ATOM     97  C   UNL A   1      44.895  24.623  34.302  1.00  0.00     0.200 A 
ATOM     98  F   UNL A   1      45.440  26.295  35.877  1.00  0.00    -0.200 F 
ATOM     99  F   UNL A   1      44.933  23.687  35.261  1.00  0.00    -0.200 F 
ENDBRANCH  66  89
ENDBRANCH  40  41
ENDBRANCH  33  35
ENDBRANCH  32  33
ENDBRANCH  31  32
ENDBRANCH  30  31
ENDBRANCH  29  30
ENDBRANCH  28  29
ENDBRANCH   1  28
TORSDOF 19
ENDMDL
MODEL 3
REMARK VINA RESULT:     -12.0      4.838      9.677
REMARK SMILES C[C@@H]1CCc2nc(NC(=O)[C@H]3CC=CC[C@@H]3C(=O)OCCOCCOCCOC(=O)c3ccc(-c4c5nc(c(-c6c(F)c(F)c(F)c(F)c6F)c6ccc([nH]6)c(-c6c(F)c(F)c(F)c(F)c6F)c6nc(c(-c7c(F)c(F)c(F)c(F)c7F)c7ccc4[nH]7)C=C6)C=C5)cc3)sc2C1
REMARK SMILES IDX 23 1 22 2 21 3 20 4 19 5 17 6 18 7 16 8 11 9 12 10 13 11
REMARK SMILES IDX 15 12 14 13 9 14 8 15 10 17 7 18 1 19 2 20 3 21 96 22 4 23
REMARK SMILES IDX 95 24 5 25 94 26 6 27 24 28 25 29 26 30 27 31 28 32 29 33
REMARK SMILES IDX 30 34 31 35 32 36 93 37 33 38 92 39 34 40 35 41 36 42 86 43
REMARK SMILES IDX 37 44 91 45 85 46 87 47 38 48 90 49 84 50 83 51 39 53 71 54
REMARK SMILES IDX 51 55 70 56 52 57 55 58 69 59 88 60 53 61 54 62 68 64 89 65
REMARK SMILES IDX 56 66 40 67 41 68 49 69 42 70 43 71 47 72 50 73 44 74 45 75
REMARK SMILES IDX 48 76 46 77 72 78 73 79 81 80 74 81 75 82 79 83 82 84 76 85
REMARK SMILES IDX 77 86 80 87 78 88 57 89 58 90 66 91 59 92 60 93 64 94 67 95
REMARK SMILES IDX 61 96 62 97 65 98 63 99
REMARK H PARENT 8 16 87 52 55 63
REMARK Flexibility Score: inf
ROOT
ATOM      1  C   UNL A   1      33.366  31.437  27.616  1.00  0.00     0.188 C 
ENDROOT
BRANCH   1   2
ATOM      2  O   UNL A   1      33.063  30.104  27.237  1.00  0.00    -0.376 OA
BRANCH   2   3
ATOM      3  C   UNL A   1      34.178  29.219  27.268  1.00  0.00     0.202 C 
BRANCH   3   4
ATOM      4  C   UNL A   1      34.033  27.884  26.501  1.00  0.00     0.261 C 
BRANCH   4   5
ATOM      5  O   UNL A   1      33.000  27.845  25.480  1.00  0.00    -0.463 OA
BRANCH   5   6
ATOM      6  C   UNL A   1      31.987  26.958  25.644  1.00  0.00     0.310 C 
ATOM      7  O   UNL A   1      31.550  26.617  26.739  1.00  0.00    -0.252 OA
BRANCH   6   8
ATOM      8  C   UNL A   1      31.439  26.361  24.346  1.00  0.00     0.116 C 
ATOM      9  C   UNL A   1      31.972  27.129  23.124  1.00  0.00     0.097 C 
ATOM     10  C   UNL A   1      31.197  28.451  22.938  1.00  0.00     0.041 C 
ATOM     11  C   UNL A   1      29.716  28.247  22.956  1.00  0.00    -0.030 C 
ATOM     12  C   UNL A   1      29.928  26.095  24.219  1.00  0.00     0.043 C 
ATOM     13  C   UNL A   1      29.154  27.162  23.502  1.00  0.00    -0.030 C 
BRANCH   9  14
ATOM     14  C   UNL A   1      31.859  26.213  21.888  1.00  0.00     0.230 C 
ATOM     15  N   UNL A   1      32.676  25.154  21.682  1.00  0.00    -0.302 N 
ATOM     16  H   UNL A   1      32.958  25.022  20.748  1.00  0.00     0.172 HD
ATOM     17  O   UNL A   1      31.028  26.427  20.997  1.00  0.00    -0.274 OA
BRANCH  15  18
ATOM     18  C   UNL A   1      33.168  24.242  22.566  1.00  0.00     0.189 A 
ATOM     19  C   UNL A   1      34.777  21.796  26.773  1.00  0.00     0.008 C 
ATOM     20  C   UNL A   1      34.940  20.967  25.492  1.00  0.00    -0.009 C 
ATOM     21  C   UNL A   1      36.177  21.411  24.670  1.00  0.00     0.010 C 
ATOM     22  C   UNL A   1      33.664  21.032  24.626  1.00  0.00     0.052 C 
ATOM     23  C   UNL A   1      36.083  22.860  24.150  1.00  0.00     0.058 C 
ATOM     24  C   UNL A   1      33.639  22.309  23.874  1.00  0.00     0.030 A 
ATOM     25  C   UNL A   1      34.711  23.147  23.654  1.00  0.00     0.057 A 
ATOM     26  S   UNL A   1      32.271  22.894  23.088  1.00  0.00    -0.101 S 
ATOM     27  N   UNL A   1      34.424  24.285  22.939  1.00  0.00    -0.225 NA
ENDBRANCH  15  18
ENDBRANCH   9  14
ENDBRANCH   6   8
ENDBRANCH   5   6
ENDBRANCH   4   5
ENDBRANCH   3   4
ENDBRANCH   2   3
ENDBRANCH   1   2
BRANCH   1  28
ATOM     28  C   UNL A   1      34.854  31.725  27.863  1.00  0.00     0.188 C 
BRANCH  28  29
ATOM     29  O   UNL A   1      35.320  33.043  27.630  1.00  0.00    -0.376 OA
BRANCH  29  30
ATOM     30  C   UNL A   1      34.422  34.155  27.650  1.00  0.00     0.202 C 
BRANCH  30  31
ATOM     31  C   UNL A   1      34.221  35.033  28.891  1.00  0.00     0.261 C 
BRANCH  31  32
ATOM     32  O   UNL A   1      34.662  34.449  30.104  1.00  0.00    -0.460 OA
BRANCH  32  33
ATOM     33  C   UNL A   1      33.921  34.628  31.212  1.00  0.00     0.338 C 
ATOM     34  O   UNL A   1      32.821  35.147  31.292  1.00  0.00    -0.246 OA
BRANCH  33  35
ATOM     35  C   UNL A   1      34.739  34.094  32.325  1.00  0.00     0.060 A 
ATOM     36  C   UNL A   1      35.711  34.928  32.862  1.00  0.00     0.016 A 
ATOM     37  C   UNL A   1      34.769  32.704  32.517  1.00  0.00     0.016 A 
ATOM     38  C   UNL A   1      36.935  34.354  33.088  1.00  0.00     0.010 A 
ATOM     39  C   UNL A   1      35.977  32.133  32.729  1.00  0.00     0.010 A 
ATOM     40  C   UNL A   1      37.061  32.992  32.813  1.00  0.00    -0.014 A 
BRANCH  40  41
ATOM     41  C   UNL A   1      38.342  32.442  32.448  1.00  0.00     0.031 A 
ATOM     42  C   UNL A   1      39.207  32.281  33.625  1.00  0.00     0.074 A 
ATOM     43  C   UNL A   1      38.553  31.984  31.196  1.00  0.00     0.049 A 
ATOM     44  N   UNL A   1      40.184  33.047  33.980  1.00  0.00    -0.248 NA
ATOM     45  C   UNL A   1      38.749  31.361  34.685  1.00  0.00     0.031 C 
ATOM     46  C   UNL A   1      37.605  31.863  30.078  1.00  0.00     0.029 A 
ATOM     47  N   UNL A   1      39.684  31.424  30.689  1.00  0.00    -0.354 N 
ATOM     48  C   UNL A   1      40.587  32.535  35.207  1.00  0.00     0.074 A 
ATOM     49  C   UNL A   1      39.471  31.800  35.714  1.00  0.00     0.031 C 
ATOM     50  C   UNL A   1      38.137  31.070  29.117  1.00  0.00     0.029 A 
ATOM     51  C   UNL A   1      39.492  30.723  29.496  1.00  0.00     0.049 A 
ATOM     52  H   UNL A   1      40.563  31.506  31.125  1.00  0.00     0.167 HD
ATOM     53  C   UNL A   1      41.908  32.399  35.501  1.00  0.00     0.037 A 
ATOM     54  C   UNL A   1      40.391  29.843  28.978  1.00  0.00     0.037 A 
ATOM     55  C   UNL A   1      42.700  33.225  34.619  1.00  0.00     0.049 A 
ATOM     56  C   UNL A   1      41.696  30.133  29.645  1.00  0.00     0.074 A 
ATOM     57  C   UNL A   1      42.765  34.583  34.368  1.00  0.00     0.029 A 
ATOM     58  N   UNL A   1      43.292  32.613  33.538  1.00  0.00    -0.354 N 
ATOM     59  N   UNL A   1      42.355  31.249  29.478  1.00  0.00    -0.248 NA
ATOM     60  C   UNL A   1      41.970  29.423  30.889  1.00  0.00     0.031 C 
ATOM     61  C   UNL A   1      42.972  34.693  32.961  1.00  0.00     0.029 A 
ATOM     62  C   UNL A   1      43.105  33.407  32.437  1.00  0.00     0.049 A 
ATOM     63  H   UNL A   1      43.767  31.751  33.554  1.00  0.00     0.167 HD
ATOM     64  C   UNL A   1      42.798  31.594  30.749  1.00  0.00     0.074 A 
ATOM     65  C   UNL A   1      42.561  30.409  31.572  1.00  0.00     0.031 C 
ATOM     66  C   UNL A   1      43.028  32.896  31.087  1.00  0.00     0.037 A 
BRANCH  53  67
ATOM     67  C   UNL A   1      42.492  31.214  36.248  1.00  0.00     0.064 A 
ATOM     68  C   UNL A   1      43.355  31.485  37.325  1.00  0.00     0.173 A 
ATOM     69  C   UNL A   1      42.487  29.866  35.813  1.00  0.00     0.173 A 
ATOM     70  F   UNL A   1      43.431  32.717  37.847  1.00  0.00    -0.203 F 
ATOM     71  C   UNL A   1      44.231  30.522  37.833  1.00  0.00     0.198 A 
ATOM     72  C   UNL A   1      43.330  28.898  36.352  1.00  0.00     0.198 A 
ATOM     73  F   UNL A   1      41.750  29.417  34.795  1.00  0.00    -0.203 F 
ATOM     74  F   UNL A   1      45.127  30.871  38.765  1.00  0.00    -0.200 F 
ATOM     75  C   UNL A   1      44.231  29.235  37.332  1.00  0.00     0.200 A 
ATOM     76  F   UNL A   1      43.310  27.656  35.845  1.00  0.00    -0.200 F 
ATOM     77  F   UNL A   1      45.119  28.332  37.765  1.00  0.00    -0.200 F 
ENDBRANCH  53  67
BRANCH  54  78
ATOM     78  C   UNL A   1      40.118  28.553  28.293  1.00  0.00     0.064 A 
ATOM     79  C   UNL A   1      40.705  28.239  27.054  1.00  0.00     0.173 A 
ATOM     80  C   UNL A   1      39.494  27.487  28.971  1.00  0.00     0.173 A 
ATOM     81  F   UNL A   1      41.368  29.180  26.366  1.00  0.00    -0.203 F 
ATOM     82  C   UNL A   1      40.679  26.937  26.535  1.00  0.00     0.198 A 
ATOM     83  C   UNL A   1      39.465  26.192  28.451  1.00  0.00     0.198 A 
ATOM     84  F   UNL A   1      38.985  27.659  30.198  1.00  0.00    -0.203 F 
ATOM     85  F   UNL A   1      41.295  26.665  25.376  1.00  0.00    -0.200 F 
ATOM     86  C   UNL A   1      40.066  25.914  27.238  1.00  0.00     0.200 A 
ATOM     87  F   UNL A   1      38.907  25.203  29.164  1.00  0.00    -0.200 F 
ATOM     88  F   UNL A   1      40.090  24.657  26.771  1.00  0.00    -0.200 F 
ENDBRANCH  54  78
BRANCH  66  89
ATOM     89  C   UNL A   1      42.994  33.924  29.990  1.00  0.00     0.064 A 
ATOM     90  C   UNL A   1      44.074  34.186  29.127  1.00  0.00     0.173 A 
ATOM     91  C   UNL A   1      41.764  34.519  29.683  1.00  0.00     0.173 A 
ATOM     92  F   UNL A   1      45.255  33.581  29.303  1.00  0.00    -0.203 F 
ATOM     93  C   UNL A   1      43.929  35.024  28.022  1.00  0.00     0.198 A 
ATOM     94  C   UNL A   1      41.614  35.327  28.559  1.00  0.00     0.198 A 
ATOM     95  F   UNL A   1      40.688  34.259  30.440  1.00  0.00    -0.203 F 
ATOM     96  F   UNL A   1      44.972  35.253  27.210  1.00  0.00    -0.200 F 
ATOM     97  C   UNL A   1      42.696  35.584  27.733  1.00  0.00     0.200 A 
ATOM     98  F   UNL A   1      40.407  35.823  28.256  1.00  0.00    -0.200 F 
ATOM     99  F   UNL A   1      42.541  36.345  26.641  1.00  0.00    -0.200 F 
ENDBRANCH  66  89
ENDBRANCH  40  41
ENDBRANCH  33  35
ENDBRANCH  32  33
ENDBRANCH  31  32
ENDBRANCH  30  31
ENDBRANCH  29  30
ENDBRANCH  28  29
ENDBRANCH   1  28
TORSDOF 19
ENDMDL
