MODEL 1
REMARK VINA RESULT:     -11.4      0.000      0.000
REMARK SMILES Cc1[nH]c2c(C(=O)N3CC[C@H](O)C[C@@H]3C(=O)OCCOCCOCCOC(=O)c3ccc(-c4c5nc(c(-c6c(F)c(F)c(F)c(F)c6F)c6ccc([nH]6)c(-c6c(F)c(F)c(F)c(F)c6F)c6nc(c(-c7c(F)c(F)c(F)c(F)c7F)c7ccc4[nH]7)C=C6)C=C5)cc3)cccc2c1C
REMARK SMILES IDX 21 1 20 2 19 3 18 4 17 5 15 6 16 7 14 8 8 9 9 10 10 11 13 12
REMARK SMILES IDX 11 13 6 14 7 15 5 16 1 17 2 18 3 19 96 20 4 21 95 23 97 24
REMARK SMILES IDX 94 25 92 26 93 27 12 28 22 30 23 31 24 32 25 33 26 34 27 35
REMARK SMILES IDX 28 36 29 37 30 38 91 39 31 40 90 41 32 42 33 43 34 44 84 45
REMARK SMILES IDX 35 46 89 47 83 48 85 49 36 50 88 51 82 52 81 53 37 55 69 56
REMARK SMILES IDX 49 57 68 58 50 59 53 60 67 61 86 62 51 63 52 64 66 66 87 67
REMARK SMILES IDX 54 68 38 69 39 70 47 71 40 72 41 73 45 74 48 75 42 76 43 77
REMARK SMILES IDX 46 78 44 79 70 80 71 81 79 82 72 83 73 84 77 85 80 86 74 87
REMARK SMILES IDX 75 88 78 89 76 90 55 91 56 92 64 93 57 94 58 95 62 96 65 97
REMARK SMILES IDX 59 98 60 99 63 100 61 101
REMARK H PARENT 3 22 12 29 85 54 53 65
REMARK Flexibility Score: inf
ROOT
ATOM      1  C   UNL A   1      39.678  22.583  26.893  1.00  0.00     0.188 C 
ENDROOT
BRANCH   1   2
ATOM      2  O   UNL A   1      39.115  23.639  26.133  1.00  0.00    -0.376 OA
BRANCH   2   3
ATOM      3  C   UNL A   1      37.797  24.044  26.483  1.00  0.00     0.202 C 
BRANCH   3   4
ATOM      4  C   UNL A   1      36.639  23.180  25.966  1.00  0.00     0.261 C 
BRANCH   4   5
ATOM      5  O   UNL A   1      35.419  23.202  26.747  1.00  0.00    -0.462 OA
BRANCH   5   6
ATOM      6  C   UNL A   1      34.638  22.087  26.636  1.00  0.00     0.329 C 
ATOM      7  O   UNL A   1      34.215  21.454  27.598  1.00  0.00    -0.250 OA
BRANCH   6   8
ATOM      8  C   UNL A   1      34.500  21.579  25.194  1.00  0.00     0.198 C 
ATOM      9  N   UNL A   1      33.181  21.990  24.707  1.00  0.00    -0.325 N 
ATOM     10  C   UNL A   1      32.081  21.029  24.724  1.00  0.00     0.123 C 
ATOM     11  C   UNL A   1      32.522  19.706  24.112  1.00  0.00     0.053 C 
ATOM     12  C   UNL A   1      34.882  20.131  24.898  1.00  0.00     0.069 C 
ATOM     13  C   UNL A   1      33.711  19.151  24.893  1.00  0.00     0.118 C 
BRANCH   9  14
ATOM     14  C   UNL A   1      33.100  23.208  24.049  1.00  0.00     0.256 C 
ATOM     15  O   UNL A   1      33.723  23.401  23.006  1.00  0.00    -0.269 OA
BRANCH  14  16
ATOM     16  C   UNL A   1      32.369  24.336  24.688  1.00  0.00     0.064 A 
ATOM     17  C   UNL A   1      34.028  28.578  22.632  1.00  0.00     0.064 C 
ATOM     18  C   UNL A   1      33.159  27.678  23.433  1.00  0.00     0.016 A 
ATOM     19  N   UNL A   1      33.334  26.321  23.423  1.00  0.00    -0.358 N 
ATOM     20  C   UNL A   1      32.076  27.943  24.249  1.00  0.00    -0.023 A 
ATOM     21  C   UNL A   1      32.506  25.693  24.323  1.00  0.00     0.059 A 
ATOM     22  H   UNL A   1      33.975  25.851  22.842  1.00  0.00     0.166 HD
ATOM     23  C   UNL A   1      31.678  26.695  24.835  1.00  0.00     0.003 A 
ATOM     24  C   UNL A   1      31.442  29.266  24.487  1.00  0.00     0.047 C 
ATOM     25  C   UNL A   1      30.663  26.337  25.747  1.00  0.00     0.010 A 
ATOM     26  C   UNL A   1      31.350  24.021  25.606  1.00  0.00     0.016 A 
ATOM     27  C   UNL A   1      30.512  25.001  26.127  1.00  0.00     0.002 A 
ENDBRANCH  14  16
ENDBRANCH   9  14
BRANCH  13  28
ATOM     28  O   UNL A   1      33.273  18.840  26.212  1.00  0.00    -0.393 OA
ATOM     29  H   UNL A   1      33.332  17.883  26.356  1.00  0.00     0.210 HD
ENDBRANCH  13  28
ENDBRANCH   6   8
ENDBRANCH   5   6
ENDBRANCH   4   5
ENDBRANCH   3   4
ENDBRANCH   2   3
ENDBRANCH   1   2
BRANCH   1  30
ATOM     30  C   UNL A   1      40.481  21.530  26.126  1.00  0.00     0.188 C 
BRANCH  30  31
ATOM     31  O   UNL A   1      41.723  21.142  26.704  1.00  0.00    -0.376 OA
BRANCH  31  32
ATOM     32  C   UNL A   1      42.785  20.867  25.771  1.00  0.00     0.202 C 
BRANCH  32  33
ATOM     33  C   UNL A   1      43.469  22.080  25.111  1.00  0.00     0.261 C 
BRANCH  33  34
ATOM     34  O   UNL A   1      44.116  22.964  26.051  1.00  0.00    -0.460 OA
BRANCH  34  35
ATOM     35  C   UNL A   1      44.316  24.245  25.659  1.00  0.00     0.338 C 
ATOM     36  O   UNL A   1      44.806  24.616  24.607  1.00  0.00    -0.246 OA
BRANCH  35  37
ATOM     37  C   UNL A   1      43.573  25.135  26.590  1.00  0.00     0.060 A 
ATOM     38  C   UNL A   1      43.897  26.500  26.600  1.00  0.00     0.016 A 
ATOM     39  C   UNL A   1      42.507  24.666  27.366  1.00  0.00     0.016 A 
ATOM     40  C   UNL A   1      43.196  27.385  27.423  1.00  0.00     0.010 A 
ATOM     41  C   UNL A   1      41.812  25.550  28.195  1.00  0.00     0.010 A 
ATOM     42  C   UNL A   1      42.181  26.905  28.259  1.00  0.00    -0.014 A 
BRANCH  42  43
ATOM     43  C   UNL A   1      41.675  27.750  29.369  1.00  0.00     0.031 A 
ATOM     44  C   UNL A   1      42.402  27.682  30.686  1.00  0.00     0.074 A 
ATOM     45  C   UNL A   1      40.615  28.564  29.231  1.00  0.00     0.049 A 
ATOM     46  N   UNL A   1      42.135  28.277  31.820  1.00  0.00    -0.248 NA
ATOM     47  C   UNL A   1      43.594  26.818  30.726  1.00  0.00     0.031 C 
ATOM     48  C   UNL A   1      39.844  28.757  28.006  1.00  0.00     0.029 A 
ATOM     49  N   UNL A   1      40.000  29.382  30.149  1.00  0.00    -0.354 N 
ATOM     50  C   UNL A   1      43.117  27.854  32.706  1.00  0.00     0.074 A 
ATOM     51  C   UNL A   1      43.968  26.929  31.991  1.00  0.00     0.031 C 
ATOM     52  C   UNL A   1      38.851  29.632  28.250  1.00  0.00     0.029 A 
ATOM     53  C   UNL A   1      38.900  30.038  29.655  1.00  0.00     0.049 A 
ATOM     54  H   UNL A   1      40.318  29.486  31.075  1.00  0.00     0.167 HD
ATOM     55  C   UNL A   1      43.303  28.211  33.997  1.00  0.00     0.037 A 
ATOM     56  C   UNL A   1      38.025  30.857  30.275  1.00  0.00     0.037 A 
ATOM     57  C   UNL A   1      42.467  29.134  34.714  1.00  0.00     0.049 A 
ATOM     58  C   UNL A   1      38.211  31.178  31.740  1.00  0.00     0.074 A 
ATOM     59  C   UNL A   1      42.595  29.576  36.019  1.00  0.00     0.029 A 
ATOM     60  N   UNL A   1      41.343  29.750  34.189  1.00  0.00    -0.354 N 
ATOM     61  N   UNL A   1      39.160  30.802  32.560  1.00  0.00    -0.248 NA
ATOM     62  C   UNL A   1      37.194  32.042  32.362  1.00  0.00     0.031 C 
ATOM     63  C   UNL A   1      41.516  30.421  36.300  1.00  0.00     0.029 A 
ATOM     64  C   UNL A   1      40.749  30.547  35.154  1.00  0.00     0.049 A 
ATOM     65  H   UNL A   1      41.015  29.638  33.267  1.00  0.00     0.167 HD
ATOM     66  C   UNL A   1      38.878  31.408  33.779  1.00  0.00     0.074 A 
ATOM     67  C   UNL A   1      37.671  32.184  33.590  1.00  0.00     0.031 C 
ATOM     68  C   UNL A   1      39.557  31.329  34.950  1.00  0.00     0.037 A 
BRANCH  55  69
ATOM     69  C   UNL A   1      44.449  27.577  34.727  1.00  0.00     0.064 A 
ATOM     70  C   UNL A   1      44.306  26.357  35.405  1.00  0.00     0.173 A 
ATOM     71  C   UNL A   1      45.711  28.188  34.726  1.00  0.00     0.173 A 
ATOM     72  F   UNL A   1      43.113  25.746  35.452  1.00  0.00    -0.203 F 
ATOM     73  C   UNL A   1      45.383  25.783  36.076  1.00  0.00     0.198 A 
ATOM     74  C   UNL A   1      46.791  27.597  35.374  1.00  0.00     0.198 A 
ATOM     75  F   UNL A   1      45.897  29.357  34.094  1.00  0.00    -0.203 F 
ATOM     76  F   UNL A   1      45.214  24.642  36.757  1.00  0.00    -0.200 F 
ATOM     77  C   UNL A   1      46.625  26.400  36.053  1.00  0.00     0.200 A 
ATOM     78  F   UNL A   1      47.994  28.189  35.345  1.00  0.00    -0.200 F 
ATOM     79  F   UNL A   1      47.662  25.843  36.694  1.00  0.00    -0.200 F 
ENDBRANCH  55  69
BRANCH  56  80
ATOM     80  C   UNL A   1      36.878  31.432  29.526  1.00  0.00     0.064 A 
ATOM     81  C   UNL A   1      35.796  30.630  29.134  1.00  0.00     0.173 A 
ATOM     82  C   UNL A   1      36.863  32.780  29.139  1.00  0.00     0.173 A 
ATOM     83  F   UNL A   1      35.782  29.327  29.450  1.00  0.00    -0.203 F 
ATOM     84  C   UNL A   1      34.755  31.149  28.366  1.00  0.00     0.198 A 
ATOM     85  C   UNL A   1      35.807  33.305  28.395  1.00  0.00     0.198 A 
ATOM     86  F   UNL A   1      37.879  33.587  29.477  1.00  0.00    -0.203 F 
ATOM     87  F   UNL A   1      33.764  30.346  27.957  1.00  0.00    -0.200 F 
ATOM     88  C   UNL A   1      34.759  32.487  28.001  1.00  0.00     0.200 A 
ATOM     89  F   UNL A   1      35.815  34.598  28.045  1.00  0.00    -0.200 F 
ATOM     90  F   UNL A   1      33.763  32.983  27.255  1.00  0.00    -0.200 F 
ENDBRANCH  56  80
BRANCH  68  91
ATOM     91  C   UNL A   1      39.047  32.134  36.110  1.00  0.00     0.064 A 
ATOM     92  C   UNL A   1      38.177  31.587  37.064  1.00  0.00     0.173 A 
ATOM     93  C   UNL A   1      39.478  33.457  36.299  1.00  0.00     0.173 A 
ATOM     94  F   UNL A   1      37.726  30.331  36.923  1.00  0.00    -0.203 F 
ATOM     95  C   UNL A   1      37.739  32.341  38.151  1.00  0.00     0.198 A 
ATOM     96  C   UNL A   1      39.063  34.198  37.402  1.00  0.00     0.198 A 
ATOM     97  F   UNL A   1      40.319  34.025  35.421  1.00  0.00    -0.203 F 
ATOM     98  F   UNL A   1      36.875  31.810  39.027  1.00  0.00    -0.200 F 
ATOM     99  C   UNL A   1      38.189  33.641  38.323  1.00  0.00     0.200 A 
ATOM    100  F   UNL A   1      39.512  35.449  37.575  1.00  0.00    -0.200 F 
ATOM    101  F   UNL A   1      37.775  34.361  39.375  1.00  0.00    -0.200 F 
ENDBRANCH  68  91
ENDBRANCH  42  43
ENDBRANCH  35  37
ENDBRANCH  34  35
ENDBRANCH  33  34
ENDBRANCH  32  33
ENDBRANCH  31  32
ENDBRANCH  30  31
ENDBRANCH   1  30
TORSDOF 20
ENDMDL
MODEL 2
REMARK VINA RESULT:     -11.2      3.548      8.925
REMARK SMILES Cc1[nH]c2c(C(=O)N3CC[C@H](O)C[C@@H]3C(=O)OCCOCCOCCOC(=O)c3ccc(-c4c5nc(c(-c6c(F)c(F)c(F)c(F)c6F)c6ccc([nH]6)c(-c6c(F)c(F)c(F)c(F)c6F)c6nc(c(-c7c(F)c(F)c(F)c(F)c7F)c7ccc4[nH]7)C=C6)C=C5)cc3)cccc2c1C
REMARK SMILES IDX 21 1 20 2 19 3 18 4 17 5 15 6 16 7 14 8 8 9 9 10 10 11 13 12
REMARK SMILES IDX 11 13 6 14 7 15 5 16 1 17 2 18 3 19 96 20 4 21 95 23 97 24
REMARK SMILES IDX 94 25 92 26 93 27 12 28 22 30 23 31 24 32 25 33 26 34 27 35
REMARK SMILES IDX 28 36 29 37 30 38 91 39 31 40 90 41 32 42 33 43 34 44 84 45
REMARK SMILES IDX 35 46 89 47 83 48 85 49 36 50 88 51 82 52 81 53 37 55 69 56
REMARK SMILES IDX 49 57 68 58 50 59 53 60 67 61 86 62 51 63 52 64 66 66 87 67
REMARK SMILES IDX 54 68 38 69 39 70 47 71 40 72 41 73 45 74 48 75 42 76 43 77
REMARK SMILES IDX 46 78 44 79 70 80 71 81 79 82 72 83 73 84 77 85 80 86 74 87
REMARK SMILES IDX 75 88 78 89 76 90 55 91 56 92 64 93 57 94 58 95 62 96 65 97
REMARK SMILES IDX 59 98 60 99 63 100 61 101
REMARK H PARENT 3 22 12 29 85 54 53 65
REMARK Flexibility Score: inf
ROOT
ATOM      1  C   UNL A   1      34.701  32.236  27.998  1.00  0.00     0.188 C 
ENDROOT
BRANCH   1   2
ATOM      2  O   UNL A   1      33.659  31.483  27.401  1.00  0.00    -0.376 OA
BRANCH   2   3
ATOM      3  C   UNL A   1      33.686  30.077  27.615  1.00  0.00     0.202 C 
BRANCH   3   4
ATOM      4  C   UNL A   1      34.492  29.234  26.618  1.00  0.00     0.261 C 
BRANCH   4   5
ATOM      5  O   UNL A   1      33.729  28.489  25.638  1.00  0.00    -0.462 OA
BRANCH   5   6
ATOM      6  C   UNL A   1      33.492  27.182  25.956  1.00  0.00     0.329 C 
ATOM      7  O   UNL A   1      34.377  26.345  26.100  1.00  0.00    -0.250 OA
BRANCH   6   8
ATOM      8  C   UNL A   1      32.005  26.806  25.921  1.00  0.00     0.198 C 
ATOM      9  N   UNL A   1      31.895  25.505  25.254  1.00  0.00    -0.325 N 
ATOM     10  C   UNL A   1      31.528  25.454  23.842  1.00  0.00     0.123 C 
ATOM     11  C   UNL A   1      30.309  26.329  23.577  1.00  0.00     0.053 C 
ATOM     12  C   UNL A   1      31.003  27.861  25.458  1.00  0.00     0.069 C 
ATOM     13  C   UNL A   1      30.614  27.768  23.985  1.00  0.00     0.118 C 
BRANCH   9  14
ATOM     14  C   UNL A   1      31.931  24.377  26.060  1.00  0.00     0.256 C 
ATOM     15  O   UNL A   1      31.574  24.432  27.235  1.00  0.00    -0.269 OA
BRANCH  14  16
ATOM     16  C   UNL A   1      32.543  23.125  25.535  1.00  0.00     0.064 A 
ATOM     17  C   UNL A   1      37.507  23.667  25.727  1.00  0.00     0.064 C 
ATOM     18  C   UNL A   1      36.196  22.986  25.572  1.00  0.00     0.016 A 
ATOM     19  N   UNL A   1      35.019  23.638  25.816  1.00  0.00    -0.358 N 
ATOM     20  C   UNL A   1      35.878  21.686  25.228  1.00  0.00    -0.023 A 
ATOM     21  C   UNL A   1      33.929  22.863  25.497  1.00  0.00     0.059 A 
ATOM     22  H   UNL A   1      34.958  24.552  26.178  1.00  0.00     0.166 HD
ATOM     23  C   UNL A   1      34.447  21.611  25.152  1.00  0.00     0.003 A 
ATOM     24  C   UNL A   1      36.829  20.572  24.975  1.00  0.00     0.047 C 
ATOM     25  C   UNL A   1      33.550  20.570  24.836  1.00  0.00     0.010 A 
ATOM     26  C   UNL A   1      31.682  22.062  25.206  1.00  0.00     0.016 A 
ATOM     27  C   UNL A   1      32.174  20.808  24.862  1.00  0.00     0.002 A 
ENDBRANCH  14  16
ENDBRANCH   9  14
BRANCH  13  28
ATOM     28  O   UNL A   1      31.640  28.267  23.132  1.00  0.00    -0.393 OA
ATOM     29  H   UNL A   1      32.478  28.298  23.618  1.00  0.00     0.210 HD
ENDBRANCH  13  28
ENDBRANCH   6   8
ENDBRANCH   5   6
ENDBRANCH   4   5
ENDBRANCH   3   4
ENDBRANCH   2   3
ENDBRANCH   1   2
BRANCH   1  30
ATOM     30  C   UNL A   1      34.347  33.029  29.258  1.00  0.00     0.188 C 
BRANCH  30  31
ATOM     31  O   UNL A   1      34.258  34.442  29.109  1.00  0.00    -0.376 OA
BRANCH  31  32
ATOM     32  C   UNL A   1      32.933  34.995  29.197  1.00  0.00     0.202 C 
BRANCH  32  33
ATOM     33  C   UNL A   1      32.732  36.186  30.155  1.00  0.00     0.261 C 
BRANCH  33  34
ATOM     34  O   UNL A   1      32.116  35.823  31.409  1.00  0.00    -0.460 OA
BRANCH  34  35
ATOM     35  C   UNL A   1      32.811  36.091  32.540  1.00  0.00     0.338 C 
ATOM     36  O   UNL A   1      32.429  36.752  33.491  1.00  0.00    -0.246 OA
BRANCH  35  37
ATOM     37  C   UNL A   1      34.005  35.205  32.569  1.00  0.00     0.060 A 
ATOM     38  C   UNL A   1      33.822  33.861  32.929  1.00  0.00     0.016 A 
ATOM     39  C   UNL A   1      35.264  35.650  32.153  1.00  0.00     0.016 A 
ATOM     40  C   UNL A   1      34.904  32.977  32.926  1.00  0.00     0.010 A 
ATOM     41  C   UNL A   1      36.348  34.768  32.158  1.00  0.00     0.010 A 
ATOM     42  C   UNL A   1      36.181  33.439  32.586  1.00  0.00    -0.014 A 
BRANCH  42  43
ATOM     43  C   UNL A   1      37.375  32.619  32.909  1.00  0.00     0.031 A 
ATOM     44  C   UNL A   1      38.086  32.900  34.205  1.00  0.00     0.074 A 
ATOM     45  C   UNL A   1      37.823  31.644  32.098  1.00  0.00     0.049 A 
ATOM     46  N   UNL A   1      39.175  32.364  34.696  1.00  0.00    -0.248 NA
ATOM     47  C   UNL A   1      37.486  33.935  35.064  1.00  0.00     0.031 C 
ATOM     48  C   UNL A   1      37.210  31.241  30.835  1.00  0.00     0.029 A 
ATOM     49  N   UNL A   1      38.915  30.819  32.222  1.00  0.00    -0.354 N 
ATOM     50  C   UNL A   1      39.391  33.000  35.911  1.00  0.00     0.074 A 
ATOM     51  C   UNL A   1      38.343  33.984  36.072  1.00  0.00     0.031 C 
ATOM     52  C   UNL A   1      37.940  30.247  30.296  1.00  0.00     0.029 A 
ATOM     53  C   UNL A   1      39.087  29.967  31.161  1.00  0.00     0.049 A 
ATOM     54  H   UNL A   1      39.517  30.839  33.001  1.00  0.00     0.167 HD
ATOM     55  C   UNL A   1      40.369  32.780  36.819  1.00  0.00     0.037 A 
ATOM     56  C   UNL A   1      40.070  29.077  30.911  1.00  0.00     0.037 A 
ATOM     57  C   UNL A   1      41.410  31.801  36.672  1.00  0.00     0.049 A 
ATOM     58  C   UNL A   1      41.194  28.906  31.906  1.00  0.00     0.074 A 
ATOM     59  C   UNL A   1      42.430  31.489  37.554  1.00  0.00     0.029 A 
ATOM     60  N   UNL A   1      41.570  30.982  35.566  1.00  0.00    -0.354 N 
ATOM     61  N   UNL A   1      41.373  29.486  33.066  1.00  0.00    -0.248 NA
ATOM     62  C   UNL A   1      42.255  27.950  31.548  1.00  0.00     0.031 C 
ATOM     63  C   UNL A   1      43.238  30.516  36.958  1.00  0.00     0.029 A 
ATOM     64  C   UNL A   1      42.691  30.185  35.730  1.00  0.00     0.049 A 
ATOM     65  H   UNL A   1      40.977  30.969  34.780  1.00  0.00     0.167 HD
ATOM     66  C   UNL A   1      42.540  28.943  33.592  1.00  0.00     0.074 A 
ATOM     67  C   UNL A   1      43.025  27.980  32.626  1.00  0.00     0.031 C 
ATOM     68  C   UNL A   1      43.155  29.217  34.769  1.00  0.00     0.037 A 
BRANCH  55  69
ATOM     69  C   UNL A   1      40.369  33.636  38.050  1.00  0.00     0.064 A 
ATOM     70  C   UNL A   1      39.587  33.317  39.170  1.00  0.00     0.173 A 
ATOM     71  C   UNL A   1      41.180  34.779  38.115  1.00  0.00     0.173 A 
ATOM     72  F   UNL A   1      38.779  32.246  39.147  1.00  0.00    -0.203 F 
ATOM     73  C   UNL A   1      39.601  34.124  40.304  1.00  0.00     0.198 A 
ATOM     74  C   UNL A   1      41.212  35.568  39.260  1.00  0.00     0.198 A 
ATOM     75  F   UNL A   1      41.943  35.127  37.068  1.00  0.00    -0.203 F 
ATOM     76  F   UNL A   1      38.812  33.828  41.345  1.00  0.00    -0.200 F 
ATOM     77  C   UNL A   1      40.419  35.244  40.351  1.00  0.00     0.200 A 
ATOM     78  F   UNL A   1      42.009  36.644  39.308  1.00  0.00    -0.200 F 
ATOM     79  F   UNL A   1      40.436  36.017  41.446  1.00  0.00    -0.200 F 
ENDBRANCH  55  69
BRANCH  56  80
ATOM     80  C   UNL A   1      40.056  28.277  29.658  1.00  0.00     0.064 A 
ATOM     81  C   UNL A   1      39.420  27.028  29.607  1.00  0.00     0.173 A 
ATOM     82  C   UNL A   1      40.722  28.717  28.506  1.00  0.00     0.173 A 
ATOM     83  F   UNL A   1      38.800  26.548  30.694  1.00  0.00    -0.203 F 
ATOM     84  C   UNL A   1      39.469  26.241  28.457  1.00  0.00     0.198 A 
ATOM     85  C   UNL A   1      40.747  27.942  27.348  1.00  0.00     0.198 A 
ATOM     86  F   UNL A   1      41.357  29.898  28.507  1.00  0.00    -0.203 F 
ATOM     87  F   UNL A   1      38.904  25.027  28.455  1.00  0.00    -0.200 F 
ATOM     88  C   UNL A   1      40.130  26.701  27.327  1.00  0.00     0.200 A 
ATOM     89  F   UNL A   1      41.385  28.390  26.258  1.00  0.00    -0.200 F 
ATOM     90  F   UNL A   1      40.185  25.940  26.226  1.00  0.00    -0.200 F 
ENDBRANCH  56  80
BRANCH  68  91
ATOM     91  C   UNL A   1      44.394  28.439  35.108  1.00  0.00     0.064 A 
ATOM     92  C   UNL A   1      45.674  28.908  34.781  1.00  0.00     0.173 A 
ATOM     93  C   UNL A   1      44.300  27.232  35.819  1.00  0.00     0.173 A 
ATOM     94  F   UNL A   1      45.818  30.050  34.092  1.00  0.00    -0.203 F 
ATOM     95  C   UNL A   1      46.813  28.187  35.132  1.00  0.00     0.198 A 
ATOM     96  C   UNL A   1      45.441  26.528  36.195  1.00  0.00     0.198 A 
ATOM     97  F   UNL A   1      43.099  26.744  36.166  1.00  0.00    -0.203 F 
ATOM     98  F   UNL A   1      48.024  28.634  34.772  1.00  0.00    -0.200 F 
ATOM     99  C   UNL A   1      46.696  27.003  35.845  1.00  0.00     0.200 A 
ATOM    100  F   UNL A   1      45.326  25.394  36.899  1.00  0.00    -0.200 F 
ATOM    101  F   UNL A   1      47.793  26.317  36.192  1.00  0.00    -0.200 F 
ENDBRANCH  68  91
ENDBRANCH  42  43
ENDBRANCH  35  37
ENDBRANCH  34  35
ENDBRANCH  33  34
ENDBRANCH  32  33
ENDBRANCH  31  32
ENDBRANCH  30  31
ENDBRANCH   1  30
TORSDOF 20
ENDMDL
MODEL 3
REMARK VINA RESULT:     -11.0      4.687      7.063
REMARK SMILES Cc1[nH]c2c(C(=O)N3CC[C@H](O)C[C@@H]3C(=O)OCCOCCOCCOC(=O)c3ccc(-c4c5nc(c(-c6c(F)c(F)c(F)c(F)c6F)c6ccc([nH]6)c(-c6c(F)c(F)c(F)c(F)c6F)c6nc(c(-c7c(F)c(F)c(F)c(F)c7F)c7ccc4[nH]7)C=C6)C=C5)cc3)cccc2c1C
REMARK SMILES IDX 21 1 20 2 19 3 18 4 17 5 15 6 16 7 14 8 8 9 9 10 10 11 13 12
REMARK SMILES IDX 11 13 6 14 7 15 5 16 1 17 2 18 3 19 96 20 4 21 95 23 97 24
REMARK SMILES IDX 94 25 92 26 93 27 12 28 22 30 23 31 24 32 25 33 26 34 27 35
REMARK SMILES IDX 28 36 29 37 30 38 91 39 31 40 90 41 32 42 33 43 34 44 84 45
REMARK SMILES IDX 35 46 89 47 83 48 85 49 36 50 88 51 82 52 81 53 37 55 69 56
REMARK SMILES IDX 49 57 68 58 50 59 53 60 67 61 86 62 51 63 52 64 66 66 87 67
REMARK SMILES IDX 54 68 38 69 39 70 47 71 40 72 41 73 45 74 48 75 42 76 43 77
REMARK SMILES IDX 46 78 44 79 70 80 71 81 79 82 72 83 73 84 77 85 80 86 74 87
REMARK SMILES IDX 75 88 78 89 76 90 55 91 56 92 64 93 57 94 58 95 62 96 65 97
REMARK SMILES IDX 59 98 60 99 63 100 61 101
REMARK H PARENT 3 22 12 29 85 54 53 65
REMARK Flexibility Score: inf
ROOT
ATOM      1  C   UNL A   1      40.609  21.451  26.396  1.00  0.00     0.188 C 
ENDROOT
BRANCH   1   2
ATOM      2  O   UNL A   1      39.522  22.148  26.984  1.00  0.00    -0.376 OA
BRANCH   2   3
ATOM      3  C   UNL A   1      38.721  22.932  26.109  1.00  0.00     0.202 C 
BRANCH   3   4
ATOM      4  C   UNL A   1      37.536  22.231  25.429  1.00  0.00     0.261 C 
BRANCH   4   5
ATOM      5  O   UNL A   1      36.301  22.983  25.350  1.00  0.00    -0.462 OA
BRANCH   5   6
ATOM      6  C   UNL A   1      35.518  22.702  24.266  1.00  0.00     0.329 C 
ATOM      7  O   UNL A   1      35.824  22.987  23.113  1.00  0.00    -0.250 OA
BRANCH   6   8
ATOM      8  C   UNL A   1      34.126  22.175  24.641  1.00  0.00     0.198 C 
ATOM      9  N   UNL A   1      33.226  23.329  24.722  1.00  0.00    -0.325 N 
ATOM     10  C   UNL A   1      32.917  23.905  26.028  1.00  0.00     0.123 C 
ATOM     11  C   UNL A   1      32.523  22.811  27.012  1.00  0.00     0.053 C 
ATOM     12  C   UNL A   1      34.015  21.180  25.793  1.00  0.00     0.069 C 
ATOM     13  C   UNL A   1      33.664  21.804  27.142  1.00  0.00     0.118 C 
BRANCH   9  14
ATOM     14  C   UNL A   1      32.539  23.678  23.569  1.00  0.00     0.256 C 
ATOM     15  O   UNL A   1      32.093  22.813  22.817  1.00  0.00    -0.269 OA
BRANCH  14  16
ATOM     16  C   UNL A   1      32.467  25.109  23.167  1.00  0.00     0.064 A 
ATOM     17  C   UNL A   1      27.789  26.675  23.967  1.00  0.00     0.064 C 
ATOM     18  C   UNL A   1      29.242  26.758  23.670  1.00  0.00     0.016 A 
ATOM     19  N   UNL A   1      30.050  25.656  23.742  1.00  0.00    -0.358 N 
ATOM     20  C   UNL A   1      30.046  27.829  23.331  1.00  0.00    -0.023 A 
ATOM     21  C   UNL A   1      31.327  25.929  23.313  1.00  0.00     0.059 A 
ATOM     22  H   UNL A   1      29.753  24.773  24.064  1.00  0.00     0.166 HD
ATOM     23  C   UNL A   1      31.357  27.306  23.077  1.00  0.00     0.003 A 
ATOM     24  C   UNL A   1      29.637  29.256  23.236  1.00  0.00     0.047 C 
ATOM     25  C   UNL A   1      32.574  27.900  22.683  1.00  0.00     0.010 A 
ATOM     26  C   UNL A   1      33.659  25.739  22.766  1.00  0.00     0.016 A 
ATOM     27  C   UNL A   1      33.715  27.108  22.527  1.00  0.00     0.002 A 
ENDBRANCH  14  16
ENDBRANCH   9  14
BRANCH  13  28
ATOM     28  O   UNL A   1      34.780  22.467  27.728  1.00  0.00    -0.393 OA
ATOM     29  H   UNL A   1      34.470  23.219  28.255  1.00  0.00     0.210 HD
ENDBRANCH  13  28
ENDBRANCH   6   8
ENDBRANCH   5   6
ENDBRANCH   4   5
ENDBRANCH   3   4
ENDBRANCH   2   3
ENDBRANCH   1   2
BRANCH   1  30
ATOM     30  C   UNL A   1      40.386  19.972  26.070  1.00  0.00     0.188 C 
BRANCH  30  31
ATOM     31  O   UNL A   1      41.452  19.309  25.398  1.00  0.00    -0.376 OA
BRANCH  31  32
ATOM     32  C   UNL A   1      42.464  18.739  26.247  1.00  0.00     0.202 C 
BRANCH  32  33
ATOM     33  C   UNL A   1      43.600  17.957  25.558  1.00  0.00     0.261 C 
BRANCH  33  34
ATOM     34  O   UNL A   1      44.790  18.742  25.333  1.00  0.00    -0.460 OA
BRANCH  34  35
ATOM     35  C   UNL A   1      44.780  19.596  24.282  1.00  0.00     0.338 C 
ATOM     36  O   UNL A   1      44.675  19.300  23.104  1.00  0.00    -0.246 OA
BRANCH  35  37
ATOM     37  C   UNL A   1      44.618  20.976  24.810  1.00  0.00     0.060 A 
ATOM     38  C   UNL A   1      44.512  22.028  23.887  1.00  0.00     0.016 A 
ATOM     39  C   UNL A   1      44.468  21.231  26.177  1.00  0.00     0.016 A 
ATOM     40  C   UNL A   1      44.311  23.338  24.332  1.00  0.00     0.010 A 
ATOM     41  C   UNL A   1      44.276  22.541  26.622  1.00  0.00     0.010 A 
ATOM     42  C   UNL A   1      44.240  23.606  25.704  1.00  0.00    -0.014 A 
BRANCH  42  43
ATOM     43  C   UNL A   1      44.376  25.000  26.194  1.00  0.00     0.031 A 
ATOM     44  C   UNL A   1      45.746  25.623  26.156  1.00  0.00     0.074 A 
ATOM     45  C   UNL A   1      43.330  25.710  26.652  1.00  0.00     0.049 A 
ATOM     46  N   UNL A   1      46.141  26.800  26.569  1.00  0.00    -0.248 NA
ATOM     47  C   UNL A   1      46.818  24.799  25.574  1.00  0.00     0.031 C 
ATOM     48  C   UNL A   1      41.947  25.246  26.709  1.00  0.00     0.029 A 
ATOM     49  N   UNL A   1      43.280  26.983  27.166  1.00  0.00    -0.354 N 
ATOM     50  C   UNL A   1      47.503  26.853  26.305  1.00  0.00     0.074 A 
ATOM     51  C   UNL A   1      47.875  25.581  25.726  1.00  0.00     0.031 C 
ATOM     52  C   UNL A   1      41.183  26.219  27.237  1.00  0.00     0.029 A 
ATOM     53  C   UNL A   1      42.029  27.363  27.581  1.00  0.00     0.049 A 
ATOM     54  H   UNL A   1      44.070  27.568  27.231  1.00  0.00     0.167 HD
ATOM     55  C   UNL A   1      48.367  27.872  26.514  1.00  0.00     0.037 A 
ATOM     56  C   UNL A   1      41.620  28.497  28.187  1.00  0.00     0.037 A 
ATOM     57  C   UNL A   1      48.006  29.141  27.082  1.00  0.00     0.049 A 
ATOM     58  C   UNL A   1      42.622  29.589  28.481  1.00  0.00     0.074 A 
ATOM     59  C   UNL A   1      48.810  30.244  27.308  1.00  0.00     0.029 A 
ATOM     60  N   UNL A   1      46.734  29.473  27.522  1.00  0.00    -0.354 N 
ATOM     61  N   UNL A   1      43.899  29.645  28.198  1.00  0.00    -0.248 NA
ATOM     62  C   UNL A   1      42.116  30.780  29.184  1.00  0.00     0.031 C 
ATOM     63  C   UNL A   1      48.036  31.227  27.933  1.00  0.00     0.029 A 
ATOM     64  C   UNL A   1      46.739  30.755  28.047  1.00  0.00     0.049 A 
ATOM     65  H   UNL A   1      45.946  28.886  27.471  1.00  0.00     0.167 HD
ATOM     66  C   UNL A   1      44.341  30.883  28.652  1.00  0.00     0.074 A 
ATOM     67  C   UNL A   1      43.192  31.552  29.224  1.00  0.00     0.031 C 
ATOM     68  C   UNL A   1      45.586  31.419  28.599  1.00  0.00     0.037 A 
BRANCH  55  69
ATOM     69  C   UNL A   1      49.802  27.642  26.145  1.00  0.00     0.064 A 
ATOM     70  C   UNL A   1      50.755  27.256  27.098  1.00  0.00     0.173 A 
ATOM     71  C   UNL A   1      50.221  27.789  24.814  1.00  0.00     0.173 A 
ATOM     72  F   UNL A   1      50.407  27.124  28.387  1.00  0.00    -0.203 F 
ATOM     73  C   UNL A   1      52.083  27.046  26.736  1.00  0.00     0.198 A 
ATOM     74  C   UNL A   1      51.543  27.551  24.451  1.00  0.00     0.198 A 
ATOM     75  F   UNL A   1      49.346  28.160  23.867  1.00  0.00    -0.203 F 
ATOM     76  F   UNL A   1      52.988  26.724  27.670  1.00  0.00    -0.200 F 
ATOM     77  C   UNL A   1      52.474  27.186  25.412  1.00  0.00     0.200 A 
ATOM     78  F   UNL A   1      51.917  27.679  23.171  1.00  0.00    -0.200 F 
ATOM     79  F   UNL A   1      53.751  26.979  25.063  1.00  0.00    -0.200 F 
ENDBRANCH  55  69
BRANCH  56  80
ATOM     80  C   UNL A   1      40.196  28.669  28.575  1.00  0.00     0.064 A 
ATOM     81  C   UNL A   1      39.264  29.213  27.680  1.00  0.00     0.173 A 
ATOM     82  C   UNL A   1      39.748  28.344  29.864  1.00  0.00     0.173 A 
ATOM     83  F   UNL A   1      39.652  29.573  26.448  1.00  0.00    -0.203 F 
ATOM     84  C   UNL A   1      37.945  29.446  28.065  1.00  0.00     0.198 A 
ATOM     85  C   UNL A   1      38.422  28.551  30.240  1.00  0.00     0.198 A 
ATOM     86  F   UNL A   1      40.602  27.833  30.762  1.00  0.00    -0.203 F 
ATOM     87  F   UNL A   1      37.091  30.021  27.208  1.00  0.00    -0.200 F 
ATOM     88  C   UNL A   1      37.524  29.110  29.344  1.00  0.00     0.200 A 
ATOM     89  F   UNL A   1      38.019  28.224  31.475  1.00  0.00    -0.200 F 
ATOM     90  F   UNL A   1      36.258  29.343  29.716  1.00  0.00    -0.200 F 
ENDBRANCH  56  80
BRANCH  68  91
ATOM     91  C   UNL A   1      45.771  32.811  29.129  1.00  0.00     0.064 A 
ATOM     92  C   UNL A   1      46.171  33.050  30.452  1.00  0.00     0.173 A 
ATOM     93  C   UNL A   1      45.598  33.919  28.286  1.00  0.00     0.173 A 
ATOM     94  F   UNL A   1      46.339  32.026  31.302  1.00  0.00    -0.203 F 
ATOM     95  C   UNL A   1      46.368  34.349  30.916  1.00  0.00     0.198 A 
ATOM     96  C   UNL A   1      45.825  35.214  28.744  1.00  0.00     0.198 A 
ATOM     97  F   UNL A   1      45.225  33.745  27.008  1.00  0.00    -0.203 F 
ATOM     98  F   UNL A   1      46.710  34.556  32.196  1.00  0.00    -0.200 F 
ATOM     99  C   UNL A   1      46.203  35.428  30.061  1.00  0.00     0.200 A 
ATOM    100  F   UNL A   1      45.680  36.254  27.911  1.00  0.00    -0.200 F 
ATOM    101  F   UNL A   1      46.405  36.676  30.506  1.00  0.00    -0.200 F 
ENDBRANCH  68  91
ENDBRANCH  42  43
ENDBRANCH  35  37
ENDBRANCH  34  35
ENDBRANCH  33  34
ENDBRANCH  32  33
ENDBRANCH  31  32
ENDBRANCH  30  31
ENDBRANCH   1  30
TORSDOF 20
ENDMDL
