MODEL 1
REMARK VINA RESULT:     -12.0      0.000      0.000
REMARK SMILES CCc1ccc(-c2cc(Cl)cc3c2O[C@H](C(F)(F)F)C(C(=O)OCCOCCOCCOC(=O)c2ccc(-c4c5nc(c(-c6c(F)c(F)c(F)c(F)c6F)c6ccc([nH]6)c(-c6c(F)c(F)c(F)c(F)c6F)c6nc(c(-c7c(F)c(F)c(F)c(F)c7F)c7ccc4[nH]7)C=C6)C=C5)cc2)=C3)cc1
REMARK SMILES IDX 27 1 26 2 25 3 24 4 23 5 21 6 22 7 20 8 7 9 8 10 13 11 9 12
REMARK SMILES IDX 12 13 14 14 10 15 11 16 98 17 15 18 6 19 3 20 4 21 100 22
REMARK SMILES IDX 5 23 99 24 2 25 1 26 16 27 17 28 18 29 19 30 28 31 29 32
REMARK SMILES IDX 30 33 31 34 32 35 33 36 34 37 35 38 36 39 97 40 37 41 96 42
REMARK SMILES IDX 38 43 39 44 40 45 90 46 41 47 95 48 89 49 91 50 42 51 94 52
REMARK SMILES IDX 88 53 87 54 43 56 75 57 55 58 74 59 56 60 59 61 73 62 92 63
REMARK SMILES IDX 57 64 58 65 72 67 93 68 60 69 44 70 45 71 53 72 46 73 47 74
REMARK SMILES IDX 51 75 54 76 48 77 49 78 52 79 50 80 76 81 77 82 85 83 78 84
REMARK SMILES IDX 79 85 83 86 86 87 80 88 81 89 84 90 82 91 61 92 62 93 70 94
REMARK SMILES IDX 63 95 64 96 68 97 71 98 65 99 66 100 69 101 67 102
REMARK H PARENT 91 55 59 66
REMARK Flexibility Score: inf
ROOT
ATOM      1  C   UNL A   1      39.660  22.190  26.337  1.00  0.00     0.188 C 
ENDROOT
BRANCH   1   2
ATOM      2  O   UNL A   1      38.607  21.529  25.659  1.00  0.00    -0.376 OA
BRANCH   2   3
ATOM      3  C   UNL A   1      37.395  22.258  25.475  1.00  0.00     0.202 C 
BRANCH   3   4
ATOM      4  C   UNL A   1      36.317  21.533  24.660  1.00  0.00     0.261 C 
BRANCH   4   5
ATOM      5  O   UNL A   1      35.013  21.764  25.243  1.00  0.00    -0.460 OA
BRANCH   5   6
ATOM      6  C   UNL A   1      34.120  22.331  24.400  1.00  0.00     0.338 C 
ATOM      7  O   UNL A   1      33.618  21.775  23.434  1.00  0.00    -0.246 OA
BRANCH   6   8
ATOM      8  C   UNL A   1      33.665  23.653  24.900  1.00  0.00     0.087 C 
ATOM      9  C   UNL A   1      31.216  26.411  23.010  1.00  0.00     0.026 A 
ATOM     10  C   UNL A   1      31.414  26.314  21.616  1.00  0.00     0.033 A 
ATOM     11  C   UNL A   1      32.085  25.665  23.801  1.00  0.00     0.135 A 
ATOM     12  C   UNL A   1      32.487  25.631  21.049  1.00  0.00     0.042 A 
ATOM     13  C   UNL A   1      33.276  25.165  23.240  1.00  0.00     0.019 A 
ATOM     14  O   UNL A   1      31.811  25.311  25.111  1.00  0.00    -0.475 OA
ATOM     15  Cl  UNL A   1      32.617  25.504  19.342  1.00  0.00    -0.084 Cl
ATOM     16  C   UNL A   1      33.470  25.110  21.865  1.00  0.00     0.032 A 
ATOM     17  C   UNL A   1      34.275  24.600  24.163  1.00  0.00     0.027 C 
ATOM     18  C   UNL A   1      32.226  23.897  25.346  1.00  0.00     0.316 C 
BRANCH   9  19
ATOM     19  C   UNL A   1      30.297  27.481  23.455  1.00  0.00    -0.015 A 
ATOM     20  C   UNL A   1      28.541  29.715  23.240  1.00  0.00    -0.048 A 
ATOM     21  C   UNL A   1      28.036  28.412  23.293  1.00  0.00     0.004 A 
ATOM     22  C   UNL A   1      29.922  29.896  23.400  1.00  0.00     0.004 A 
ATOM     23  C   UNL A   1      28.904  27.316  23.408  1.00  0.00     0.009 A 
ATOM     24  C   UNL A   1      30.784  28.797  23.522  1.00  0.00     0.009 A 
BRANCH  20  25
ATOM     25  C   UNL A   1      27.683  30.877  22.801  1.00  0.00     0.032 C 
ATOM     26  C   UNL A   1      28.278  32.272  22.851  1.00  0.00     0.009 C 
ENDBRANCH  20  25
ENDBRANCH   9  19
BRANCH  18  27
ATOM     27  C   UNL A   1      32.048  23.509  26.816  1.00  0.00     0.430 C 
ATOM     28  F   UNL A   1      31.615  24.544  27.571  1.00  0.00    -0.167 F 
ATOM     29  F   UNL A   1      31.164  22.495  26.954  1.00  0.00    -0.167 F 
ATOM     30  F   UNL A   1      33.220  23.083  27.350  1.00  0.00    -0.167 F 
ENDBRANCH  18  27
ENDBRANCH   6   8
ENDBRANCH   5   6
ENDBRANCH   4   5
ENDBRANCH   3   4
ENDBRANCH   2   3
ENDBRANCH   1   2
BRANCH   1  31
ATOM     31  C   UNL A   1      40.847  21.293  26.754  1.00  0.00     0.188 C 
BRANCH  31  32
ATOM     32  O   UNL A   1      41.672  20.699  25.762  1.00  0.00    -0.376 OA
BRANCH  32  33
ATOM     33  C   UNL A   1      43.075  20.939  25.774  1.00  0.00     0.202 C 
BRANCH  33  34
ATOM     34  C   UNL A   1      43.581  22.208  25.086  1.00  0.00     0.261 C 
BRANCH  34  35
ATOM     35  O   UNL A   1      44.243  23.115  25.987  1.00  0.00    -0.460 OA
BRANCH  35  36
ATOM     36  C   UNL A   1      44.262  24.406  25.578  1.00  0.00     0.338 C 
ATOM     37  O   UNL A   1      44.823  24.861  24.597  1.00  0.00    -0.246 OA
BRANCH  36  38
ATOM     38  C   UNL A   1      43.365  25.236  26.407  1.00  0.00     0.060 A 
ATOM     39  C   UNL A   1      43.778  26.545  26.674  1.00  0.00     0.016 A 
ATOM     40  C   UNL A   1      42.221  24.718  27.022  1.00  0.00     0.016 A 
ATOM     41  C   UNL A   1      43.082  27.316  27.602  1.00  0.00     0.010 A 
ATOM     42  C   UNL A   1      41.524  25.497  27.958  1.00  0.00     0.010 A 
ATOM     43  C   UNL A   1      41.967  26.791  28.276  1.00  0.00    -0.014 A 
BRANCH  43  44
ATOM     44  C   UNL A   1      41.426  27.558  29.432  1.00  0.00     0.031 A 
ATOM     45  C   UNL A   1      42.247  27.611  30.684  1.00  0.00     0.074 A 
ATOM     46  C   UNL A   1      40.270  28.241  29.359  1.00  0.00     0.049 A 
ATOM     47  N   UNL A   1      42.127  28.395  31.722  1.00  0.00    -0.248 NA
ATOM     48  C   UNL A   1      43.343  26.635  30.780  1.00  0.00     0.031 C 
ATOM     49  C   UNL A   1      39.375  28.193  28.217  1.00  0.00     0.029 A 
ATOM     50  N   UNL A   1      39.668  29.136  30.216  1.00  0.00    -0.354 N 
ATOM     51  C   UNL A   1      43.104  27.976  32.615  1.00  0.00     0.074 A 
ATOM     52  C   UNL A   1      43.827  26.894  31.984  1.00  0.00     0.031 C 
ATOM     53  C   UNL A   1      38.404  29.105  28.381  1.00  0.00     0.029 A 
ATOM     54  C   UNL A   1      38.568  29.772  29.672  1.00  0.00     0.049 A 
ATOM     55  H   UNL A   1      39.992  29.308  31.129  1.00  0.00     0.167 HD
ATOM     56  C   UNL A   1      43.342  28.433  33.866  1.00  0.00     0.037 A 
ATOM     57  C   UNL A   1      37.812  30.791  30.149  1.00  0.00     0.037 A 
ATOM     58  C   UNL A   1      42.602  29.500  34.484  1.00  0.00     0.049 A 
ATOM     59  C   UNL A   1      38.183  31.352  31.507  1.00  0.00     0.074 A 
ATOM     60  C   UNL A   1      42.755  30.040  35.747  1.00  0.00     0.029 A 
ATOM     61  N   UNL A   1      41.552  30.178  33.879  1.00  0.00    -0.354 N 
ATOM     62  N   UNL A   1      39.221  31.079  32.265  1.00  0.00    -0.248 NA
ATOM     63  C   UNL A   1      37.289  32.368  32.077  1.00  0.00     0.031 C 
ATOM     64  C   UNL A   1      41.767  31.015  35.924  1.00  0.00     0.029 A 
ATOM     65  C   UNL A   1      41.031  31.117  34.752  1.00  0.00     0.049 A 
ATOM     66  H   UNL A   1      41.226  30.015  32.964  1.00  0.00     0.167 HD
ATOM     67  C   UNL A   1      39.135  31.930  33.362  1.00  0.00     0.074 A 
ATOM     68  C   UNL A   1      37.965  32.755  33.150  1.00  0.00     0.031 C 
ATOM     69  C   UNL A   1      39.932  32.005  34.460  1.00  0.00     0.037 A 
BRANCH  56  70
ATOM     70  C   UNL A   1      44.384  27.711  34.666  1.00  0.00     0.064 A 
ATOM     71  C   UNL A   1      45.732  28.099  34.660  1.00  0.00     0.173 A 
ATOM     72  C   UNL A   1      44.026  26.589  35.430  1.00  0.00     0.173 A 
ATOM     73  F   UNL A   1      46.130  29.148  33.925  1.00  0.00    -0.203 F 
ATOM     74  C   UNL A   1      46.688  27.369  35.364  1.00  0.00     0.198 A 
ATOM     75  C   UNL A   1      44.978  25.879  36.152  1.00  0.00     0.198 A 
ATOM     76  F   UNL A   1      42.750  26.175  35.463  1.00  0.00    -0.203 F 
ATOM     77  F   UNL A   1      47.980  27.721  35.297  1.00  0.00    -0.200 F 
ATOM     78  C   UNL A   1      46.310  26.263  36.111  1.00  0.00     0.200 A 
ATOM     79  F   UNL A   1      44.611  24.813  36.876  1.00  0.00    -0.200 F 
ATOM     80  F   UNL A   1      47.232  25.557  36.780  1.00  0.00    -0.200 F 
ENDBRANCH  56  70
BRANCH  57  81
ATOM     81  C   UNL A   1      36.737  31.422  29.298  1.00  0.00     0.064 A 
ATOM     82  C   UNL A   1      35.572  30.722  28.927  1.00  0.00     0.173 A 
ATOM     83  C   UNL A   1      36.802  32.761  28.878  1.00  0.00     0.173 A 
ATOM     84  F   UNL A   1      35.464  29.406  29.147  1.00  0.00    -0.203 F 
ATOM     85  C   UNL A   1      34.505  31.340  28.273  1.00  0.00     0.198 A 
ATOM     86  C   UNL A   1      35.723  33.391  28.249  1.00  0.00     0.198 A 
ATOM     87  F   UNL A   1      37.909  33.486  29.104  1.00  0.00    -0.203 F 
ATOM     88  F   UNL A   1      33.421  30.623  27.947  1.00  0.00    -0.200 F 
ATOM     89  C   UNL A   1      34.569  32.683  27.961  1.00  0.00     0.200 A 
ATOM     90  F   UNL A   1      35.799  34.693  27.939  1.00  0.00    -0.200 F 
ATOM     91  F   UNL A   1      33.530  33.287  27.369  1.00  0.00    -0.200 F 
ENDBRANCH  57  81
BRANCH  69  92
ATOM     92  C   UNL A   1      39.639  33.080  35.472  1.00  0.00     0.064 A 
ATOM     93  C   UNL A   1      38.925  32.820  36.650  1.00  0.00     0.173 A 
ATOM     94  C   UNL A   1      40.154  34.375  35.294  1.00  0.00     0.173 A 
ATOM     95  F   UNL A   1      38.415  31.600  36.875  1.00  0.00    -0.203 F 
ATOM     96  C   UNL A   1      38.703  33.822  37.593  1.00  0.00     0.198 A 
ATOM     97  C   UNL A   1      39.963  35.365  36.255  1.00  0.00     0.198 A 
ATOM     98  F   UNL A   1      40.865  34.675  34.195  1.00  0.00    -0.203 F 
ATOM     99  F   UNL A   1      37.973  33.561  38.685  1.00  0.00    -0.200 F 
ATOM    100  C   UNL A   1      39.230  35.090  37.398  1.00  0.00     0.200 A 
ATOM    101  F   UNL A   1      40.494  36.582  36.077  1.00  0.00    -0.200 F 
ATOM    102  F   UNL A   1      39.027  36.048  38.313  1.00  0.00    -0.200 F 
ENDBRANCH  69  92
ENDBRANCH  43  44
ENDBRANCH  36  38
ENDBRANCH  35  36
ENDBRANCH  34  35
ENDBRANCH  33  34
ENDBRANCH  32  33
ENDBRANCH  31  32
ENDBRANCH   1  31
TORSDOF 20
ENDMDL
MODEL 2
REMARK VINA RESULT:     -11.7      1.360      2.019
REMARK SMILES CCc1ccc(-c2cc(Cl)cc3c2O[C@H](C(F)(F)F)C(C(=O)OCCOCCOCCOC(=O)c2ccc(-c4c5nc(c(-c6c(F)c(F)c(F)c(F)c6F)c6ccc([nH]6)c(-c6c(F)c(F)c(F)c(F)c6F)c6nc(c(-c7c(F)c(F)c(F)c(F)c7F)c7ccc4[nH]7)C=C6)C=C5)cc2)=C3)cc1
REMARK SMILES IDX 27 1 26 2 25 3 24 4 23 5 21 6 22 7 20 8 7 9 8 10 13 11 9 12
REMARK SMILES IDX 12 13 14 14 10 15 11 16 98 17 15 18 6 19 3 20 4 21 100 22
REMARK SMILES IDX 5 23 99 24 2 25 1 26 16 27 17 28 18 29 19 30 28 31 29 32
REMARK SMILES IDX 30 33 31 34 32 35 33 36 34 37 35 38 36 39 97 40 37 41 96 42
REMARK SMILES IDX 38 43 39 44 40 45 90 46 41 47 95 48 89 49 91 50 42 51 94 52
REMARK SMILES IDX 88 53 87 54 43 56 75 57 55 58 74 59 56 60 59 61 73 62 92 63
REMARK SMILES IDX 57 64 58 65 72 67 93 68 60 69 44 70 45 71 53 72 46 73 47 74
REMARK SMILES IDX 51 75 54 76 48 77 49 78 52 79 50 80 76 81 77 82 85 83 78 84
REMARK SMILES IDX 79 85 83 86 86 87 80 88 81 89 84 90 82 91 61 92 62 93 70 94
REMARK SMILES IDX 63 95 64 96 68 97 71 98 65 99 66 100 69 101 67 102
REMARK H PARENT 91 55 59 66
REMARK Flexibility Score: inf
ROOT
ATOM      1  C   UNL A   1      40.042  22.356  26.161  1.00  0.00     0.188 C 
ENDROOT
BRANCH   1   2
ATOM      2  O   UNL A   1      38.834  21.701  25.822  1.00  0.00    -0.376 OA
BRANCH   2   3
ATOM      3  C   UNL A   1      37.761  22.517  25.356  1.00  0.00     0.202 C 
BRANCH   3   4
ATOM      4  C   UNL A   1      36.402  21.813  25.261  1.00  0.00     0.261 C 
BRANCH   4   5
ATOM      5  O   UNL A   1      35.340  22.792  25.176  1.00  0.00    -0.460 OA
BRANCH   5   6
ATOM      6  C   UNL A   1      34.467  22.756  26.207  1.00  0.00     0.338 C 
ATOM      7  O   UNL A   1      34.767  22.532  27.372  1.00  0.00    -0.246 OA
BRANCH   6   8
ATOM      8  C   UNL A   1      33.117  23.218  25.794  1.00  0.00     0.087 C 
ATOM      9  C   UNL A   1      32.034  26.885  24.195  1.00  0.00     0.026 A 
ATOM     10  C   UNL A   1      32.894  27.877  24.711  1.00  0.00     0.033 A 
ATOM     11  C   UNL A   1      32.159  25.618  24.759  1.00  0.00     0.135 A 
ATOM     12  C   UNL A   1      33.726  27.663  25.807  1.00  0.00     0.042 A 
ATOM     13  C   UNL A   1      32.831  25.470  25.987  1.00  0.00     0.019 A 
ATOM     14  O   UNL A   1      31.721  24.460  24.140  1.00  0.00    -0.475 OA
ATOM     15  Cl  UNL A   1      34.791  28.904  26.331  1.00  0.00    -0.084 Cl
ATOM     16  C   UNL A   1      33.647  26.473  26.500  1.00  0.00     0.032 A 
ATOM     17  C   UNL A   1      32.727  24.167  26.665  1.00  0.00     0.027 C 
ATOM     18  C   UNL A   1      32.732  23.378  24.326  1.00  0.00     0.316 C 
BRANCH   9  19
ATOM     19  C   UNL A   1      30.944  27.370  23.320  1.00  0.00    -0.015 A 
ATOM     20  C   UNL A   1      28.777  29.007  22.460  1.00  0.00    -0.048 A 
ATOM     21  C   UNL A   1      30.078  29.252  22.011  1.00  0.00     0.004 A 
ATOM     22  C   UNL A   1      28.554  27.877  23.258  1.00  0.00     0.004 A 
ATOM     23  C   UNL A   1      31.141  28.437  22.430  1.00  0.00     0.009 A 
ATOM     24  C   UNL A   1      29.619  27.062  23.668  1.00  0.00     0.009 A 
BRANCH  20  25
ATOM     25  C   UNL A   1      27.679  30.032  22.296  1.00  0.00     0.032 C 
ATOM     26  C   UNL A   1      27.994  31.312  21.545  1.00  0.00     0.009 C 
ENDBRANCH  20  25
ENDBRANCH   9  19
BRANCH  18  27
ATOM     27  C   UNL A   1      32.227  22.050  23.757  1.00  0.00     0.430 C 
ATOM     28  F   UNL A   1      31.357  22.227  22.738  1.00  0.00    -0.167 F 
ATOM     29  F   UNL A   1      33.249  21.289  23.304  1.00  0.00    -0.167 F 
ATOM     30  F   UNL A   1      31.591  21.325  24.710  1.00  0.00    -0.167 F 
ENDBRANCH  18  27
ENDBRANCH   6   8
ENDBRANCH   5   6
ENDBRANCH   4   5
ENDBRANCH   3   4
ENDBRANCH   2   3
ENDBRANCH   1   2
BRANCH   1  31
ATOM     31  C   UNL A   1      41.194  21.433  26.614  1.00  0.00     0.188 C 
BRANCH  31  32
ATOM     32  O   UNL A   1      42.051  20.838  25.649  1.00  0.00    -0.376 OA
BRANCH  32  33
ATOM     33  C   UNL A   1      43.408  21.258  25.555  1.00  0.00     0.202 C 
BRANCH  33  34
ATOM     34  C   UNL A   1      43.678  22.662  25.013  1.00  0.00     0.261 C 
BRANCH  34  35
ATOM     35  O   UNL A   1      44.167  23.572  26.017  1.00  0.00    -0.460 OA
BRANCH  35  36
ATOM     36  C   UNL A   1      44.167  24.875  25.648  1.00  0.00     0.338 C 
ATOM     37  O   UNL A   1      44.722  25.370  24.683  1.00  0.00    -0.246 OA
BRANCH  36  38
ATOM     38  C   UNL A   1      43.255  25.664  26.500  1.00  0.00     0.060 A 
ATOM     39  C   UNL A   1      43.654  26.965  26.821  1.00  0.00     0.016 A 
ATOM     40  C   UNL A   1      42.111  25.112  27.084  1.00  0.00     0.016 A 
ATOM     41  C   UNL A   1      42.943  27.694  27.772  1.00  0.00     0.010 A 
ATOM     42  C   UNL A   1      41.398  25.849  28.044  1.00  0.00     0.010 A 
ATOM     43  C   UNL A   1      41.827  27.134  28.415  1.00  0.00    -0.014 A 
BRANCH  43  44
ATOM     44  C   UNL A   1      41.269  27.851  29.595  1.00  0.00     0.031 A 
ATOM     45  C   UNL A   1      42.062  27.832  30.866  1.00  0.00     0.074 A 
ATOM     46  C   UNL A   1      40.123  28.551  29.529  1.00  0.00     0.049 A 
ATOM     47  N   UNL A   1      41.928  28.565  31.939  1.00  0.00    -0.248 NA
ATOM     48  C   UNL A   1      43.143  26.837  30.939  1.00  0.00     0.031 C 
ATOM     49  C   UNL A   1      39.254  28.571  28.367  1.00  0.00     0.029 A 
ATOM     50  N   UNL A   1      39.513  29.412  30.415  1.00  0.00    -0.354 N 
ATOM     51  C   UNL A   1      42.878  28.091  32.831  1.00  0.00     0.074 A 
ATOM     52  C   UNL A   1      43.602  27.031  32.165  1.00  0.00     0.031 C 
ATOM     53  C   UNL A   1      38.292  29.487  28.553  1.00  0.00     0.029 A 
ATOM     54  C   UNL A   1      38.433  30.088  29.879  1.00  0.00     0.049 A 
ATOM     55  H   UNL A   1      39.819  29.535  31.344  1.00  0.00     0.167 HD
ATOM     56  C   UNL A   1      43.094  28.483  34.108  1.00  0.00     0.037 A 
ATOM     57  C   UNL A   1      37.680  31.093  30.388  1.00  0.00     0.037 A 
ATOM     58  C   UNL A   1      42.353  29.528  34.761  1.00  0.00     0.049 A 
ATOM     59  C   UNL A   1      38.026  31.582  31.781  1.00  0.00     0.074 A 
ATOM     60  C   UNL A   1      42.483  30.004  36.052  1.00  0.00     0.029 A 
ATOM     61  N   UNL A   1      41.325  30.249  34.166  1.00  0.00    -0.354 N 
ATOM     62  N   UNL A   1      39.043  31.259  32.547  1.00  0.00    -0.248 NA
ATOM     63  C   UNL A   1      37.132  32.581  32.379  1.00  0.00     0.031 C 
ATOM     64  C   UNL A   1      41.503  30.982  36.254  1.00  0.00     0.029 A 
ATOM     65  C   UNL A   1      40.796  31.152  35.073  1.00  0.00     0.049 A 
ATOM     66  H   UNL A   1      41.018  30.135  33.238  1.00  0.00     0.167 HD
ATOM     67  C   UNL A   1      38.943  32.056  33.682  1.00  0.00     0.074 A 
ATOM     68  C   UNL A   1      37.787  32.906  33.485  1.00  0.00     0.031 C 
ATOM     69  C   UNL A   1      39.714  32.067  34.800  1.00  0.00     0.037 A 
BRANCH  56  70
ATOM     70  C   UNL A   1      44.108  27.709  34.895  1.00  0.00     0.064 A 
ATOM     71  C   UNL A   1      43.749  26.649  35.738  1.00  0.00     0.173 A 
ATOM     72  C   UNL A   1      45.466  28.061  34.822  1.00  0.00     0.173 A 
ATOM     73  F   UNL A   1      42.462  26.291  35.862  1.00  0.00    -0.203 F 
ATOM     74  C   UNL A   1      44.707  25.989  36.505  1.00  0.00     0.198 A 
ATOM     75  C   UNL A   1      46.423  27.384  35.570  1.00  0.00     0.198 A 
ATOM     76  F   UNL A   1      45.860  29.073  34.034  1.00  0.00    -0.203 F 
ATOM     77  F   UNL A   1      44.334  25.018  37.350  1.00  0.00    -0.200 F 
ATOM     78  C   UNL A   1      46.042  26.355  36.418  1.00  0.00     0.200 A 
ATOM     79  F   UNL A   1      47.713  27.736  35.482  1.00  0.00    -0.200 F 
ATOM     80  F   UNL A   1      46.962  25.726  37.163  1.00  0.00    -0.200 F 
ENDBRANCH  56  70
BRANCH  57  81
ATOM     81  C   UNL A   1      36.633  31.779  29.546  1.00  0.00     0.064 A 
ATOM     82  C   UNL A   1      35.484  31.104  29.087  1.00  0.00     0.173 A 
ATOM     83  C   UNL A   1      36.706  33.144  29.222  1.00  0.00     0.173 A 
ATOM     84  F   UNL A   1      35.375  29.775  29.212  1.00  0.00    -0.203 F 
ATOM     85  C   UNL A   1      34.438  31.763  28.440  1.00  0.00     0.198 A 
ATOM     86  C   UNL A   1      35.647  33.813  28.600  1.00  0.00     0.198 A 
ATOM     87  F   UNL A   1      37.801  33.853  29.536  1.00  0.00    -0.203 F 
ATOM     88  F   UNL A   1      33.369  31.068  28.028  1.00  0.00    -0.200 F 
ATOM     89  C   UNL A   1      34.507  33.125  28.223  1.00  0.00     0.200 A 
ATOM     90  F   UNL A   1      35.728  35.134  28.383  1.00  0.00    -0.200 F 
ATOM     91  F   UNL A   1      33.486  33.766  27.639  1.00  0.00    -0.200 F 
ENDBRANCH  57  81
BRANCH  69  92
ATOM     92  C   UNL A   1      39.412  33.095  35.857  1.00  0.00     0.064 A 
ATOM     93  C   UNL A   1      38.528  32.839  36.915  1.00  0.00     0.173 A 
ATOM     94  C   UNL A   1      40.084  34.329  35.852  1.00  0.00     0.173 A 
ATOM     95  F   UNL A   1      37.863  31.675  36.972  1.00  0.00    -0.203 F 
ATOM     96  C   UNL A   1      38.297  33.791  37.905  1.00  0.00     0.198 A 
ATOM     97  C   UNL A   1      39.878  35.265  36.864  1.00  0.00     0.198 A 
ATOM     98  F   UNL A   1      40.958  34.620  34.876  1.00  0.00    -0.203 F 
ATOM     99  F   UNL A   1      37.408  33.543  38.876  1.00  0.00    -0.200 F 
ATOM    100  C   UNL A   1      38.978  35.000  37.883  1.00  0.00     0.200 A 
ATOM    101  F   UNL A   1      40.556  36.421  36.854  1.00  0.00    -0.200 F 
ATOM    102  F   UNL A   1      38.764  35.908  38.844  1.00  0.00    -0.200 F 
ENDBRANCH  69  92
ENDBRANCH  43  44
ENDBRANCH  36  38
ENDBRANCH  35  36
ENDBRANCH  34  35
ENDBRANCH  33  34
ENDBRANCH  32  33
ENDBRANCH  31  32
ENDBRANCH   1  31
TORSDOF 20
ENDMDL
MODEL 3
REMARK VINA RESULT:     -11.4      5.687     12.005
REMARK SMILES CCc1ccc(-c2cc(Cl)cc3c2O[C@H](C(F)(F)F)C(C(=O)OCCOCCOCCOC(=O)c2ccc(-c4c5nc(c(-c6c(F)c(F)c(F)c(F)c6F)c6ccc([nH]6)c(-c6c(F)c(F)c(F)c(F)c6F)c6nc(c(-c7c(F)c(F)c(F)c(F)c7F)c7ccc4[nH]7)C=C6)C=C5)cc2)=C3)cc1
REMARK SMILES IDX 27 1 26 2 25 3 24 4 23 5 21 6 22 7 20 8 7 9 8 10 13 11 9 12
REMARK SMILES IDX 12 13 14 14 10 15 11 16 98 17 15 18 6 19 3 20 4 21 100 22
REMARK SMILES IDX 5 23 99 24 2 25 1 26 16 27 17 28 18 29 19 30 28 31 29 32
REMARK SMILES IDX 30 33 31 34 32 35 33 36 34 37 35 38 36 39 97 40 37 41 96 42
REMARK SMILES IDX 38 43 39 44 40 45 90 46 41 47 95 48 89 49 91 50 42 51 94 52
REMARK SMILES IDX 88 53 87 54 43 56 75 57 55 58 74 59 56 60 59 61 73 62 92 63
REMARK SMILES IDX 57 64 58 65 72 67 93 68 60 69 44 70 45 71 53 72 46 73 47 74
REMARK SMILES IDX 51 75 54 76 48 77 49 78 52 79 50 80 76 81 77 82 85 83 78 84
REMARK SMILES IDX 79 85 83 86 86 87 80 88 81 89 84 90 82 91 61 92 62 93 70 94
REMARK SMILES IDX 63 95 64 96 68 97 71 98 65 99 66 100 69 101 67 102
REMARK H PARENT 91 55 59 66
REMARK Flexibility Score: inf
ROOT
ATOM      1  C   UNL A   1      34.989  35.341  33.563  1.00  0.00     0.188 C 
ENDROOT
BRANCH   1   2
ATOM      2  O   UNL A   1      34.398  36.239  32.642  1.00  0.00    -0.376 OA
BRANCH   2   3
ATOM      3  C   UNL A   1      33.187  35.822  32.014  1.00  0.00     0.202 C 
BRANCH   3   4
ATOM      4  C   UNL A   1      33.284  35.596  30.500  1.00  0.00     0.261 C 
BRANCH   4   5
ATOM      5  O   UNL A   1      33.761  34.257  30.228  1.00  0.00    -0.460 OA
BRANCH   5   6
ATOM      6  C   UNL A   1      34.881  34.209  29.471  1.00  0.00     0.338 C 
ATOM      7  O   UNL A   1      35.149  34.988  28.568  1.00  0.00    -0.246 OA
BRANCH   6   8
ATOM      8  C   UNL A   1      35.850  33.214  29.996  1.00  0.00     0.087 C 
ATOM      9  C   UNL A   1      37.332  29.830  28.118  1.00  0.00     0.026 A 
ATOM     10  C   UNL A   1      36.345  29.327  27.244  1.00  0.00     0.033 A 
ATOM     11  C   UNL A   1      36.933  30.873  28.950  1.00  0.00     0.135 A 
ATOM     12  C   UNL A   1      35.015  29.738  27.287  1.00  0.00     0.042 A 
ATOM     13  C   UNL A   1      35.560  31.124  29.136  1.00  0.00     0.019 A 
ATOM     14  O   UNL A   1      37.819  31.744  29.560  1.00  0.00    -0.475 OA
ATOM     15  Cl  UNL A   1      33.891  29.125  26.142  1.00  0.00    -0.084 Cl
ATOM     16  C   UNL A   1      34.597  30.591  28.286  1.00  0.00     0.032 A 
ATOM     17  C   UNL A   1      35.182  32.065  30.204  1.00  0.00     0.027 C 
ATOM     18  C   UNL A   1      37.286  33.136  29.485  1.00  0.00     0.316 C 
BRANCH   9  19
ATOM     19  C   UNL A   1      38.568  29.023  28.225  1.00  0.00    -0.015 A 
ATOM     20  C   UNL A   1      40.362  26.863  27.745  1.00  0.00    -0.048 A 
ATOM     21  C   UNL A   1      40.469  28.055  27.021  1.00  0.00     0.004 A 
ATOM     22  C   UNL A   1      39.419  26.800  28.779  1.00  0.00     0.004 A 
ATOM     23  C   UNL A   1      39.588  29.119  27.267  1.00  0.00     0.009 A 
ATOM     24  C   UNL A   1      38.546  27.870  29.026  1.00  0.00     0.009 A 
BRANCH  20  25
ATOM     25  C   UNL A   1      41.064  25.603  27.299  1.00  0.00     0.032 C 
ATOM     26  C   UNL A   1      41.616  24.670  28.362  1.00  0.00     0.009 C 
ENDBRANCH  20  25
ENDBRANCH   9  19
BRANCH  18  27
ATOM     27  C   UNL A   1      38.182  34.110  30.253  1.00  0.00     0.430 C 
ATOM     28  F   UNL A   1      39.338  33.537  30.653  1.00  0.00    -0.167 F 
ATOM     29  F   UNL A   1      38.492  35.191  29.502  1.00  0.00    -0.167 F 
ATOM     30  F   UNL A   1      37.555  34.572  31.364  1.00  0.00    -0.167 F 
ENDBRANCH  18  27
ENDBRANCH   6   8
ENDBRANCH   5   6
ENDBRANCH   4   5
ENDBRANCH   3   4
ENDBRANCH   2   3
ENDBRANCH   1   2
BRANCH   1  31
ATOM     31  C   UNL A   1      34.424  33.904  33.546  1.00  0.00     0.188 C 
BRANCH  31  32
ATOM     32  O   UNL A   1      35.221  32.819  34.001  1.00  0.00    -0.376 OA
BRANCH  32  33
ATOM     33  C   UNL A   1      36.501  33.074  34.569  1.00  0.00     0.202 C 
BRANCH  33  34
ATOM     34  C   UNL A   1      37.638  32.117  34.209  1.00  0.00     0.261 C 
BRANCH  34  35
ATOM     35  O   UNL A   1      37.664  31.769  32.811  1.00  0.00    -0.460 OA
BRANCH  35  36
ATOM     36  C   UNL A   1      37.532  30.445  32.555  1.00  0.00     0.338 C 
ATOM     37  O   UNL A   1      36.498  29.829  32.367  1.00  0.00    -0.246 OA
BRANCH  36  38
ATOM     38  C   UNL A   1      38.852  29.810  32.372  1.00  0.00     0.060 A 
ATOM     39  C   UNL A   1      38.917  28.424  32.538  1.00  0.00     0.016 A 
ATOM     40  C   UNL A   1      40.021  30.553  32.178  1.00  0.00     0.016 A 
ATOM     41  C   UNL A   1      40.156  27.786  32.571  1.00  0.00     0.010 A 
ATOM     42  C   UNL A   1      41.267  29.908  32.215  1.00  0.00     0.010 A 
ATOM     43  C   UNL A   1      41.344  28.524  32.441  1.00  0.00    -0.014 A 
BRANCH  43  44
ATOM     44  C   UNL A   1      42.629  27.835  32.741  1.00  0.00     0.031 A 
ATOM     45  C   UNL A   1      43.517  27.475  31.590  1.00  0.00     0.074 A 
ATOM     46  C   UNL A   1      43.030  27.588  34.001  1.00  0.00     0.049 A 
ATOM     47  N   UNL A   1      44.770  27.105  31.592  1.00  0.00    -0.248 NA
ATOM     48  C   UNL A   1      42.899  27.526  30.257  1.00  0.00     0.031 C 
ATOM     49  C   UNL A   1      42.211  27.836  35.173  1.00  0.00     0.029 A 
ATOM     50  N   UNL A   1      44.222  27.130  34.519  1.00  0.00    -0.354 N 
ATOM     51  C   UNL A   1      45.077  26.836  30.266  1.00  0.00     0.074 A 
ATOM     52  C   UNL A   1      43.893  27.116  29.485  1.00  0.00     0.031 C 
ATOM     53  C   UNL A   1      42.953  27.647  36.276  1.00  0.00     0.029 A 
ATOM     54  C   UNL A   1      44.294  27.205  35.897  1.00  0.00     0.049 A 
ATOM     55  H   UNL A   1      44.954  26.782  33.960  1.00  0.00     0.167 HD
ATOM     56  C   UNL A   1      46.237  26.358  29.758  1.00  0.00     0.037 A 
ATOM     57  C   UNL A   1      45.331  26.979  36.741  1.00  0.00     0.037 A 
ATOM     58  C   UNL A   1      47.400  26.069  30.552  1.00  0.00     0.049 A 
ATOM     59  C   UNL A   1      46.648  26.553  36.122  1.00  0.00     0.074 A 
ATOM     60  C   UNL A   1      48.625  25.577  30.144  1.00  0.00     0.029 A 
ATOM     61  N   UNL A   1      47.469  26.234  31.930  1.00  0.00    -0.354 N 
ATOM     62  N   UNL A   1      46.987  26.481  34.854  1.00  0.00    -0.248 NA
ATOM     63  C   UNL A   1      47.731  26.187  37.043  1.00  0.00     0.031 C 
ATOM     64  C   UNL A   1      49.422  25.401  31.281  1.00  0.00     0.029 A 
ATOM     65  C   UNL A   1      48.711  25.832  32.391  1.00  0.00     0.049 A 
ATOM     66  H   UNL A   1      46.744  26.586  32.494  1.00  0.00     0.167 HD
ATOM     67  C   UNL A   1      48.331  26.124  34.832  1.00  0.00     0.074 A 
ATOM     68  C   UNL A   1      48.754  26.034  36.213  1.00  0.00     0.031 C 
ATOM     69  C   UNL A   1      49.137  25.865  33.770  1.00  0.00     0.037 A 
BRANCH  56  70
ATOM     70  C   UNL A   1      46.256  26.036  28.294  1.00  0.00     0.064 A 
ATOM     71  C   UNL A   1      46.645  26.974  27.328  1.00  0.00     0.173 A 
ATOM     72  C   UNL A   1      45.845  24.768  27.852  1.00  0.00     0.173 A 
ATOM     73  F   UNL A   1      47.021  28.207  27.697  1.00  0.00    -0.203 F 
ATOM     74  C   UNL A   1      46.592  26.665  25.970  1.00  0.00     0.198 A 
ATOM     75  C   UNL A   1      45.818  24.454  26.498  1.00  0.00     0.198 A 
ATOM     76  F   UNL A   1      45.457  23.837  28.738  1.00  0.00    -0.203 F 
ATOM     77  F   UNL A   1      46.911  27.596  25.060  1.00  0.00    -0.200 F 
ATOM     78  C   UNL A   1      46.181  25.406  25.557  1.00  0.00     0.200 A 
ATOM     79  F   UNL A   1      45.424  23.237  26.101  1.00  0.00    -0.200 F 
ATOM     80  F   UNL A   1      46.122  25.113  24.251  1.00  0.00    -0.200 F 
ENDBRANCH  56  70
BRANCH  57  81
ATOM     81  C   UNL A   1      45.208  27.271  38.216  1.00  0.00     0.064 A 
ATOM     82  C   UNL A   1      44.700  26.322  39.125  1.00  0.00     0.173 A 
ATOM     83  C   UNL A   1      45.648  28.480  38.781  1.00  0.00     0.173 A 
ATOM     84  F   UNL A   1      44.122  25.196  38.688  1.00  0.00    -0.203 F 
ATOM     85  C   UNL A   1      44.723  26.523  40.506  1.00  0.00     0.198 A 
ATOM     86  C   UNL A   1      45.699  28.672  40.165  1.00  0.00     0.198 A 
ATOM     87  F   UNL A   1      46.065  29.481  37.990  1.00  0.00    -0.203 F 
ATOM     88  F   UNL A   1      44.228  25.582  41.322  1.00  0.00    -0.200 F 
ATOM     89  C   UNL A   1      45.251  27.687  41.027  1.00  0.00     0.200 A 
ATOM     90  F   UNL A   1      46.203  29.811  40.662  1.00  0.00    -0.200 F 
ATOM     91  F   UNL A   1      45.312  27.864  42.354  1.00  0.00    -0.200 F 
ENDBRANCH  57  81
BRANCH  69  92
ATOM     92  C   UNL A   1      50.586  25.562  34.040  1.00  0.00     0.064 A 
ATOM     93  C   UNL A   1      51.051  24.254  34.235  1.00  0.00     0.173 A 
ATOM     94  C   UNL A   1      51.537  26.597  34.023  1.00  0.00     0.173 A 
ATOM     95  F   UNL A   1      50.188  23.227  34.255  1.00  0.00    -0.203 F 
ATOM     96  C   UNL A   1      52.404  23.995  34.441  1.00  0.00     0.198 A 
ATOM     97  C   UNL A   1      52.893  26.331  34.193  1.00  0.00     0.198 A 
ATOM     98  F   UNL A   1      51.152  27.867  33.819  1.00  0.00    -0.203 F 
ATOM     99  F   UNL A   1      52.816  22.742  34.677  1.00  0.00    -0.200 F 
ATOM    100  C   UNL A   1      53.325  25.032  34.412  1.00  0.00     0.200 A 
ATOM    101  F   UNL A   1      53.784  27.331  34.139  1.00  0.00    -0.200 F 
ATOM    102  F   UNL A   1      54.627  24.779  34.597  1.00  0.00    -0.200 F 
ENDBRANCH  69  92
ENDBRANCH  43  44
ENDBRANCH  36  38
ENDBRANCH  35  36
ENDBRANCH  34  35
ENDBRANCH  33  34
ENDBRANCH  32  33
ENDBRANCH  31  32
ENDBRANCH   1  31
TORSDOF 20
ENDMDL
