MODEL 1
REMARK VINA RESULT:     -10.4      0.000      0.000
REMARK SMILES CSCC[C@@H](CO)n1ccnc1-c1ccccc1C(=O)OCCOCCOCCOC(=O)c1ccc(-c2c3nc(c(-c4c(F)c(F)c(F)c(F)c4F)c4ccc([nH]4)c(-c4c(F)c(F)c(F)c(F)c4F)c4nc(c(-c5c(F)c(F)c(F)c(F)c5F)c5ccc2[nH]5)C=C4)C=C3)cc1
REMARK SMILES IDX 24 1 23 2 22 3 21 4 19 5 20 6 18 7 13 8 14 9 15 10 17 11
REMARK SMILES IDX 16 12 12 13 8 14 9 15 10 16 11 17 5 18 4 19 3 20 2 21 1 22
REMARK SMILES IDX 6 23 7 24 25 26 26 27 27 28 28 29 29 30 30 31 31 32 32 33
REMARK SMILES IDX 33 34 34 35 95 36 35 37 94 38 36 39 37 40 38 41 88 42 39 43
REMARK SMILES IDX 93 44 87 45 89 46 40 47 92 48 86 49 85 50 41 52 73 53 53 54
REMARK SMILES IDX 72 55 54 56 57 57 71 58 90 59 55 60 56 61 70 63 91 64 58 65
REMARK SMILES IDX 42 66 43 67 51 68 44 69 45 70 49 71 52 72 46 73 47 74 50 75
REMARK SMILES IDX 48 76 74 77 75 78 83 79 76 80 77 81 81 82 84 83 78 84 79 85
REMARK SMILES IDX 82 86 80 87 59 88 60 89 68 90 61 91 62 92 66 93 69 94 63 95
REMARK SMILES IDX 64 96 67 97 65 98
REMARK H PARENT 7 25 89 51 57 62
REMARK Flexibility Score: inf
ROOT
ATOM      1  O   UNL A   1      39.539  23.354  27.241  1.00  0.00    -0.376 OA
ENDROOT
BRANCH   1   2
ATOM      2  C   UNL A   1      38.444  23.941  26.545  1.00  0.00     0.202 C 
BRANCH   2   3
ATOM      3  C   UNL A   1      37.611  22.974  25.699  1.00  0.00     0.261 C 
BRANCH   3   4
ATOM      4  O   UNL A   1      36.430  23.530  25.099  1.00  0.00    -0.460 OA
BRANCH   4   5
ATOM      5  C   UNL A   1      35.998  23.047  23.921  1.00  0.00     0.338 C 
ATOM      6  O   UNL A   1      36.593  23.142  22.856  1.00  0.00    -0.246 OA
BRANCH   5   7
ATOM      7  C   UNL A   1      34.680  22.356  24.064  1.00  0.00     0.071 A 
ATOM      8  C   UNL A   1      33.433  22.927  23.734  1.00  0.00     0.032 A 
ATOM      9  C   UNL A   1      32.267  22.173  23.973  1.00  0.00     0.013 A 
ATOM     10  C   UNL A   1      32.331  20.871  24.474  1.00  0.00     0.001 A 
ATOM     11  C   UNL A   1      34.733  21.036  24.553  1.00  0.00     0.016 A 
ATOM     12  C   UNL A   1      33.565  20.299  24.756  1.00  0.00     0.001 A 
BRANCH   8  13
ATOM     13  C   UNL A   1      33.241  24.294  23.237  1.00  0.00     0.141 A 
ATOM     14  N   UNL A   1      32.960  25.442  23.961  1.00  0.00    -0.326 N 
ATOM     15  C   UNL A   1      32.751  26.452  23.044  1.00  0.00     0.108 A 
ATOM     16  C   UNL A   1      33.031  25.907  21.820  1.00  0.00     0.131 A 
ATOM     17  N   UNL A   1      33.369  24.596  21.955  1.00  0.00    -0.237 NA
BRANCH  14  18
ATOM     18  C   UNL A   1      32.966  25.685  25.413  1.00  0.00     0.115 C 
BRANCH  18  19
ATOM     19  C   UNL A   1      33.852  26.861  25.842  1.00  0.00     0.039 C 
BRANCH  19  20
ATOM     20  C   UNL A   1      33.212  28.024  26.595  1.00  0.00     0.071 C 
BRANCH  20  21
ATOM     21  S   UNL A   1      32.420  29.270  25.525  1.00  0.00    -0.165 SA
ATOM     22  C   UNL A   1      32.053  30.558  26.729  1.00  0.00     0.085 C 
ENDBRANCH  20  21
ENDBRANCH  19  20
ENDBRANCH  18  19
BRANCH  18  23
ATOM     23  C   UNL A   1      31.536  25.718  25.979  1.00  0.00     0.181 C 
BRANCH  23  24
ATOM     24  O   UNL A   1      31.202  24.605  26.795  1.00  0.00    -0.394 OA
ATOM     25  H   UNL A   1      31.008  24.912  27.695  1.00  0.00     0.210 HD
ENDBRANCH  23  24
ENDBRANCH  18  23
ENDBRANCH  14  18
ENDBRANCH   8  13
ENDBRANCH   5   7
ENDBRANCH   4   5
ENDBRANCH   3   4
ENDBRANCH   2   3
ENDBRANCH   1   2
BRANCH   1  26
ATOM     26  C   UNL A   1      39.972  22.116  26.701  1.00  0.00     0.188 C 
BRANCH  26  27
ATOM     27  C   UNL A   1      40.905  21.271  27.596  1.00  0.00     0.188 C 
BRANCH  27  28
ATOM     28  O   UNL A   1      42.296  21.111  27.359  1.00  0.00    -0.376 OA
BRANCH  28  29
ATOM     29  C   UNL A   1      42.822  20.660  26.125  1.00  0.00     0.202 C 
BRANCH  29  30
ATOM     30  C   UNL A   1      43.668  21.635  25.312  1.00  0.00     0.261 C 
BRANCH  30  31
ATOM     31  O   UNL A   1      42.901  22.716  24.804  1.00  0.00    -0.460 OA
BRANCH  31  32
ATOM     32  C   UNL A   1      43.449  23.927  25.031  1.00  0.00     0.338 C 
ATOM     33  O   UNL A   1      44.447  24.406  24.522  1.00  0.00    -0.246 OA
BRANCH  32  34
ATOM     34  C   UNL A   1      42.623  24.640  26.014  1.00  0.00     0.060 A 
ATOM     35  C   UNL A   1      41.692  25.554  25.511  1.00  0.00     0.016 A 
ATOM     36  C   UNL A   1      42.882  24.524  27.388  1.00  0.00     0.016 A 
ATOM     37  C   UNL A   1      41.226  26.536  26.351  1.00  0.00     0.010 A 
ATOM     38  C   UNL A   1      42.418  25.504  28.230  1.00  0.00     0.010 A 
ATOM     39  C   UNL A   1      41.707  26.559  27.663  1.00  0.00    -0.014 A 
BRANCH  39  40
ATOM     40  C   UNL A   1      41.682  27.839  28.337  1.00  0.00     0.031 A 
ATOM     41  C   UNL A   1      42.815  28.743  28.095  1.00  0.00     0.074 A 
ATOM     42  C   UNL A   1      40.614  28.169  29.090  1.00  0.00     0.049 A 
ATOM     43  N   UNL A   1      43.639  29.227  28.963  1.00  0.00    -0.248 NA
ATOM     44  C   UNL A   1      43.102  29.112  26.703  1.00  0.00     0.031 C 
ATOM     45  C   UNL A   1      39.318  27.484  29.156  1.00  0.00     0.029 A 
ATOM     46  N   UNL A   1      40.428  29.264  29.874  1.00  0.00    -0.354 N 
ATOM     47  C   UNL A   1      44.454  30.099  28.255  1.00  0.00     0.074 A 
ATOM     48  C   UNL A   1      44.170  29.894  26.858  1.00  0.00     0.031 C 
ATOM     49  C   UNL A   1      38.421  28.294  29.758  1.00  0.00     0.029 A 
ATOM     50  C   UNL A   1      39.104  29.492  30.215  1.00  0.00     0.049 A 
ATOM     51  H   UNL A   1      41.166  29.841  30.174  1.00  0.00     0.167 HD
ATOM     52  C   UNL A   1      45.140  31.091  28.881  1.00  0.00     0.037 A 
ATOM     53  C   UNL A   1      38.601  30.629  30.747  1.00  0.00     0.037 A 
ATOM     54  C   UNL A   1      45.298  30.840  30.287  1.00  0.00     0.049 A 
ATOM     55  C   UNL A   1      39.730  31.409  31.315  1.00  0.00     0.074 A 
ATOM     56  C   UNL A   1      45.864  29.818  31.026  1.00  0.00     0.029 A 
ATOM     57  N   UNL A   1      44.540  31.559  31.178  1.00  0.00    -0.354 N 
ATOM     58  N   UNL A   1      40.385  31.084  32.393  1.00  0.00    -0.248 NA
ATOM     59  C   UNL A   1      40.405  32.358  30.440  1.00  0.00     0.031 C 
ATOM     60  C   UNL A   1      45.051  29.699  32.191  1.00  0.00     0.029 A 
ATOM     61  C   UNL A   1      44.055  30.670  32.104  1.00  0.00     0.049 A 
ATOM     62  H   UNL A   1      44.375  32.529  31.157  1.00  0.00     0.167 HD
ATOM     63  C   UNL A   1      41.699  31.440  32.127  1.00  0.00     0.074 A 
ATOM     64  C   UNL A   1      41.630  32.320  30.968  1.00  0.00     0.031 C 
ATOM     65  C   UNL A   1      42.741  30.762  32.692  1.00  0.00     0.037 A 
BRANCH  52  66
ATOM     66  C   UNL A   1      45.377  32.435  28.254  1.00  0.00     0.064 A 
ATOM     67  C   UNL A   1      46.690  32.871  28.015  1.00  0.00     0.173 A 
ATOM     68  C   UNL A   1      44.368  33.417  28.131  1.00  0.00     0.173 A 
ATOM     69  F   UNL A   1      47.724  32.027  28.151  1.00  0.00    -0.203 F 
ATOM     70  C   UNL A   1      46.975  34.205  27.712  1.00  0.00     0.198 A 
ATOM     71  C   UNL A   1      44.650  34.731  27.770  1.00  0.00     0.198 A 
ATOM     72  F   UNL A   1      43.094  33.169  28.463  1.00  0.00    -0.203 F 
ATOM     73  F   UNL A   1      48.250  34.602  27.602  1.00  0.00    -0.200 F 
ATOM     74  C   UNL A   1      45.955  35.132  27.587  1.00  0.00     0.200 A 
ATOM     75  F   UNL A   1      43.649  35.619  27.678  1.00  0.00    -0.200 F 
ATOM     76  F   UNL A   1      46.232  36.419  27.344  1.00  0.00    -0.200 F 
ENDBRANCH  52  66
BRANCH  53  77
ATOM     77  C   UNL A   1      37.253  31.208  30.547  1.00  0.00     0.064 A 
ATOM     78  C   UNL A   1      36.417  31.483  31.640  1.00  0.00     0.173 A 
ATOM     79  C   UNL A   1      36.854  31.737  29.303  1.00  0.00     0.173 A 
ATOM     80  F   UNL A   1      36.750  31.057  32.867  1.00  0.00    -0.203 F 
ATOM     81  C   UNL A   1      35.262  32.257  31.501  1.00  0.00     0.198 A 
ATOM     82  C   UNL A   1      35.692  32.494  29.161  1.00  0.00     0.198 A 
ATOM     83  F   UNL A   1      37.630  31.613  28.217  1.00  0.00    -0.203 F 
ATOM     84  F   UNL A   1      34.522  32.553  32.578  1.00  0.00    -0.200 F 
ATOM     85  C   UNL A   1      34.903  32.765  30.262  1.00  0.00     0.200 A 
ATOM     86  F   UNL A   1      35.376  33.008  27.964  1.00  0.00    -0.200 F 
ATOM     87  F   UNL A   1      33.825  33.551  30.139  1.00  0.00    -0.200 F 
ENDBRANCH  53  77
BRANCH  65  88
ATOM     88  C   UNL A   1      42.432  29.840  33.836  1.00  0.00     0.064 A 
ATOM     89  C   UNL A   1      41.936  28.534  33.678  1.00  0.00     0.173 A 
ATOM     90  C   UNL A   1      42.752  30.255  35.137  1.00  0.00     0.173 A 
ATOM     91  F   UNL A   1      41.717  28.025  32.458  1.00  0.00    -0.203 F 
ATOM     92  C   UNL A   1      41.707  27.711  34.778  1.00  0.00     0.198 A 
ATOM     93  C   UNL A   1      42.560  29.415  36.230  1.00  0.00     0.198 A 
ATOM     94  F   UNL A   1      43.289  31.468  35.343  1.00  0.00    -0.203 F 
ATOM     95  F   UNL A   1      41.205  26.479  34.603  1.00  0.00    -0.200 F 
ATOM     96  C   UNL A   1      42.023  28.151  36.053  1.00  0.00     0.200 A 
ATOM     97  F   UNL A   1      42.915  29.825  37.456  1.00  0.00    -0.200 F 
ATOM     98  F   UNL A   1      41.831  27.347  37.108  1.00  0.00    -0.200 F 
ENDBRANCH  65  88
ENDBRANCH  39  40
ENDBRANCH  32  34
ENDBRANCH  31  32
ENDBRANCH  30  31
ENDBRANCH  29  30
ENDBRANCH  28  29
ENDBRANCH  27  28
ENDBRANCH  26  27
ENDBRANCH   1  26
TORSDOF 24
ENDMDL
MODEL 2
REMARK VINA RESULT:      -9.6      2.484      3.705
REMARK SMILES CSCC[C@@H](CO)n1ccnc1-c1ccccc1C(=O)OCCOCCOCCOC(=O)c1ccc(-c2c3nc(c(-c4c(F)c(F)c(F)c(F)c4F)c4ccc([nH]4)c(-c4c(F)c(F)c(F)c(F)c4F)c4nc(c(-c5c(F)c(F)c(F)c(F)c5F)c5ccc2[nH]5)C=C4)C=C3)cc1
REMARK SMILES IDX 24 1 23 2 22 3 21 4 19 5 20 6 18 7 13 8 14 9 15 10 17 11
REMARK SMILES IDX 16 12 12 13 8 14 9 15 10 16 11 17 5 18 4 19 3 20 2 21 1 22
REMARK SMILES IDX 6 23 7 24 25 26 26 27 27 28 28 29 29 30 30 31 31 32 32 33
REMARK SMILES IDX 33 34 34 35 95 36 35 37 94 38 36 39 37 40 38 41 88 42 39 43
REMARK SMILES IDX 93 44 87 45 89 46 40 47 92 48 86 49 85 50 41 52 73 53 53 54
REMARK SMILES IDX 72 55 54 56 57 57 71 58 90 59 55 60 56 61 70 63 91 64 58 65
REMARK SMILES IDX 42 66 43 67 51 68 44 69 45 70 49 71 52 72 46 73 47 74 50 75
REMARK SMILES IDX 48 76 74 77 75 78 83 79 76 80 77 81 81 82 84 83 78 84 79 85
REMARK SMILES IDX 82 86 80 87 59 88 60 89 68 90 61 91 62 92 66 93 69 94 63 95
REMARK SMILES IDX 64 96 67 97 65 98
REMARK H PARENT 7 25 89 51 57 62
REMARK Flexibility Score: inf
ROOT
ATOM      1  O   UNL A   1      37.629  22.461  25.418  1.00  0.00    -0.376 OA
ENDROOT
BRANCH   1   2
ATOM      2  C   UNL A   1      37.413  21.071  25.202  1.00  0.00     0.202 C 
BRANCH   2   3
ATOM      3  C   UNL A   1      35.948  20.647  25.071  1.00  0.00     0.261 C 
BRANCH   3   4
ATOM      4  O   UNL A   1      35.022  21.328  25.933  1.00  0.00    -0.460 OA
BRANCH   4   5
ATOM      5  C   UNL A   1      33.761  20.873  26.040  1.00  0.00     0.338 C 
ATOM      6  O   UNL A   1      33.241  20.466  27.069  1.00  0.00    -0.246 OA
BRANCH   5   7
ATOM      7  C   UNL A   1      33.048  20.930  24.727  1.00  0.00     0.071 A 
ATOM      8  C   UNL A   1      32.400  22.072  24.213  1.00  0.00     0.032 A 
ATOM      9  C   UNL A   1      31.722  21.961  22.982  1.00  0.00     0.013 A 
ATOM     10  C   UNL A   1      31.730  20.771  22.251  1.00  0.00     0.001 A 
ATOM     11  C   UNL A   1      33.063  19.740  23.973  1.00  0.00     0.016 A 
ATOM     12  C   UNL A   1      32.407  19.662  22.743  1.00  0.00     0.001 A 
BRANCH   8  13
ATOM     13  C   UNL A   1      32.296  23.361  24.906  1.00  0.00     0.141 A 
ATOM     14  N   UNL A   1      33.016  24.523  24.676  1.00  0.00    -0.326 N 
ATOM     15  C   UNL A   1      32.648  25.423  25.657  1.00  0.00     0.108 A 
ATOM     16  C   UNL A   1      31.643  24.815  26.360  1.00  0.00     0.131 A 
ATOM     17  N   UNL A   1      31.409  23.569  25.865  1.00  0.00    -0.237 NA
BRANCH  14  18
ATOM     18  C   UNL A   1      33.928  24.885  23.578  1.00  0.00     0.115 C 
BRANCH  18  19
ATOM     19  C   UNL A   1      33.845  26.359  23.162  1.00  0.00     0.039 C 
BRANCH  19  20
ATOM     20  C   UNL A   1      32.866  26.756  22.061  1.00  0.00     0.071 C 
BRANCH  20  21
ATOM     21  S   UNL A   1      31.332  27.536  22.663  1.00  0.00    -0.165 SA
ATOM     22  C   UNL A   1      32.005  28.766  23.794  1.00  0.00     0.085 C 
ENDBRANCH  20  21
ENDBRANCH  19  20
ENDBRANCH  18  19
BRANCH  18  23
ATOM     23  C   UNL A   1      35.353  24.372  23.846  1.00  0.00     0.181 C 
BRANCH  23  24
ATOM     24  O   UNL A   1      35.772  23.326  22.981  1.00  0.00    -0.394 OA
ATOM     25  H   UNL A   1      35.466  22.475  23.332  1.00  0.00     0.210 HD
ENDBRANCH  23  24
ENDBRANCH  18  23
ENDBRANCH  14  18
ENDBRANCH   8  13
ENDBRANCH   5   7
ENDBRANCH   4   5
ENDBRANCH   3   4
ENDBRANCH   2   3
ENDBRANCH   1   2
BRANCH   1  26
ATOM     26  C   UNL A   1      38.832  22.760  26.108  1.00  0.00     0.188 C 
BRANCH  26  27
ATOM     27  C   UNL A   1      39.731  21.557  26.466  1.00  0.00     0.188 C 
BRANCH  27  28
ATOM     28  O   UNL A   1      40.702  21.575  27.502  1.00  0.00    -0.376 OA
BRANCH  28  29
ATOM     29  C   UNL A   1      41.716  20.595  27.626  1.00  0.00     0.202 C 
BRANCH  29  30
ATOM     30  C   UNL A   1      41.980  19.687  26.429  1.00  0.00     0.261 C 
BRANCH  30  31
ATOM     31  O   UNL A   1      42.514  20.397  25.324  1.00  0.00    -0.460 OA
BRANCH  31  32
ATOM     32  C   UNL A   1      43.861  20.472  25.324  1.00  0.00     0.338 C 
ATOM     33  O   UNL A   1      44.663  19.555  25.335  1.00  0.00    -0.246 OA
BRANCH  32  34
ATOM     34  C   UNL A   1      44.253  21.887  25.286  1.00  0.00     0.060 A 
ATOM     35  C   UNL A   1      45.355  22.258  26.062  1.00  0.00     0.016 A 
ATOM     36  C   UNL A   1      43.452  22.836  24.633  1.00  0.00     0.016 A 
ATOM     37  C   UNL A   1      45.491  23.581  26.409  1.00  0.00     0.010 A 
ATOM     38  C   UNL A   1      43.585  24.159  24.977  1.00  0.00     0.010 A 
ATOM     39  C   UNL A   1      44.521  24.479  25.959  1.00  0.00    -0.014 A 
BRANCH  39  40
ATOM     40  C   UNL A   1      44.337  25.679  26.746  1.00  0.00     0.031 A 
ATOM     41  C   UNL A   1      45.331  26.748  26.576  1.00  0.00     0.074 A 
ATOM     42  C   UNL A   1      43.252  25.791  27.537  1.00  0.00     0.049 A 
ATOM     43  N   UNL A   1      46.101  27.262  27.475  1.00  0.00    -0.248 NA
ATOM     44  C   UNL A   1      45.534  27.274  25.220  1.00  0.00     0.031 C 
ATOM     45  C   UNL A   1      42.063  24.931  27.555  1.00  0.00     0.029 A 
ATOM     46  N   UNL A   1      42.936  26.776  28.419  1.00  0.00    -0.354 N 
ATOM     47  C   UNL A   1      46.773  28.297  26.841  1.00  0.00     0.074 A 
ATOM     48  C   UNL A   1      46.488  28.179  25.434  1.00  0.00     0.031 C 
ATOM     49  C   UNL A   1      41.077  25.554  28.237  1.00  0.00     0.029 A 
ATOM     50  C   UNL A   1      41.602  26.789  28.793  1.00  0.00     0.049 A 
ATOM     51  H   UNL A   1      43.596  27.421  28.762  1.00  0.00     0.167 HD
ATOM     52  C   UNL A   1      47.332  29.315  27.547  1.00  0.00     0.037 A 
ATOM     53  C   UNL A   1      40.961  27.795  29.431  1.00  0.00     0.037 A 
ATOM     54  C   UNL A   1      47.555  28.965  28.923  1.00  0.00     0.049 A 
ATOM     55  C   UNL A   1      41.986  28.669  30.055  1.00  0.00     0.074 A 
ATOM     56  C   UNL A   1      48.272  27.969  29.561  1.00  0.00     0.029 A 
ATOM     57  N   UNL A   1      46.726  29.491  29.883  1.00  0.00    -0.354 N 
ATOM     58  N   UNL A   1      42.703  28.344  31.093  1.00  0.00    -0.248 NA
ATOM     59  C   UNL A   1      42.505  29.776  29.263  1.00  0.00     0.031 C 
ATOM     60  C   UNL A   1      47.509  27.637  30.718  1.00  0.00     0.029 A 
ATOM     61  C   UNL A   1      46.388  28.466  30.729  1.00  0.00     0.049 A 
ATOM     62  H   UNL A   1      46.431  30.428  29.951  1.00  0.00     0.167 HD
ATOM     63  C   UNL A   1      43.950  28.899  30.847  1.00  0.00     0.074 A 
ATOM     64  C   UNL A   1      43.736  29.860  29.772  1.00  0.00     0.031 C 
ATOM     65  C   UNL A   1      45.087  28.324  31.337  1.00  0.00     0.037 A 
BRANCH  52  66
ATOM     66  C   UNL A   1      47.370  30.729  27.042  1.00  0.00     0.064 A 
ATOM     67  C   UNL A   1      48.577  31.446  27.067  1.00  0.00     0.173 A 
ATOM     68  C   UNL A   1      46.205  31.488  26.788  1.00  0.00     0.173 A 
ATOM     69  F   UNL A   1      49.733  30.825  27.345  1.00  0.00    -0.203 F 
ATOM     70  C   UNL A   1      48.610  32.831  26.888  1.00  0.00     0.198 A 
ATOM     71  C   UNL A   1      46.249  32.858  26.551  1.00  0.00     0.198 A 
ATOM     72  F   UNL A   1      44.980  30.954  26.870  1.00  0.00    -0.203 F 
ATOM     73  F   UNL A   1      49.767  33.492  27.032  1.00  0.00    -0.200 F 
ATOM     74  C   UNL A   1      47.447  33.535  26.628  1.00  0.00     0.200 A 
ATOM     75  F   UNL A   1      45.108  33.525  26.323  1.00  0.00    -0.200 F 
ATOM     76  F   UNL A   1      47.472  34.868  26.503  1.00  0.00    -0.200 F 
ENDBRANCH  52  66
BRANCH  53  77
ATOM     77  C   UNL A   1      39.542  28.198  29.298  1.00  0.00     0.064 A 
ATOM     78  C   UNL A   1      38.701  28.254  30.419  1.00  0.00     0.173 A 
ATOM     79  C   UNL A   1      39.048  28.780  28.113  1.00  0.00     0.173 A 
ATOM     80  F   UNL A   1      39.115  27.767  31.598  1.00  0.00    -0.203 F 
ATOM     81  C   UNL A   1      37.448  28.871  30.363  1.00  0.00     0.198 A 
ATOM     82  C   UNL A   1      37.791  29.379  28.053  1.00  0.00     0.198 A 
ATOM     83  F   UNL A   1      39.810  28.863  27.013  1.00  0.00    -0.203 F 
ATOM     84  F   UNL A   1      36.698  28.962  31.470  1.00  0.00    -0.200 F 
ATOM     85  C   UNL A   1      36.996  29.436  29.181  1.00  0.00     0.200 A 
ATOM     86  F   UNL A   1      37.382  29.952  26.912  1.00  0.00    -0.200 F 
ATOM     87  F   UNL A   1      35.818  30.074  29.141  1.00  0.00    -0.200 F 
ENDBRANCH  53  77
BRANCH  65  88
ATOM     88  C   UNL A   1      44.933  27.271  32.396  1.00  0.00     0.064 A 
ATOM     89  C   UNL A   1      44.876  27.549  33.774  1.00  0.00     0.173 A 
ATOM     90  C   UNL A   1      44.726  25.943  31.998  1.00  0.00     0.173 A 
ATOM     91  F   UNL A   1      44.949  28.809  34.226  1.00  0.00    -0.203 F 
ATOM     92  C   UNL A   1      44.691  26.532  34.708  1.00  0.00     0.198 A 
ATOM     93  C   UNL A   1      44.500  24.936  32.931  1.00  0.00     0.198 A 
ATOM     94  F   UNL A   1      44.705  25.628  30.692  1.00  0.00    -0.203 F 
ATOM     95  F   UNL A   1      44.670  26.819  36.019  1.00  0.00    -0.200 F 
ATOM     96  C   UNL A   1      44.499  25.227  34.286  1.00  0.00     0.200 A 
ATOM     97  F   UNL A   1      44.264  23.684  32.517  1.00  0.00    -0.200 F 
ATOM     98  F   UNL A   1      44.290  24.254  35.183  1.00  0.00    -0.200 F 
ENDBRANCH  65  88
ENDBRANCH  39  40
ENDBRANCH  32  34
ENDBRANCH  31  32
ENDBRANCH  30  31
ENDBRANCH  29  30
ENDBRANCH  28  29
ENDBRANCH  27  28
ENDBRANCH  26  27
ENDBRANCH   1  26
TORSDOF 24
ENDMDL
MODEL 3
REMARK VINA RESULT:      -9.5      1.785      2.637
REMARK SMILES CSCC[C@@H](CO)n1ccnc1-c1ccccc1C(=O)OCCOCCOCCOC(=O)c1ccc(-c2c3nc(c(-c4c(F)c(F)c(F)c(F)c4F)c4ccc([nH]4)c(-c4c(F)c(F)c(F)c(F)c4F)c4nc(c(-c5c(F)c(F)c(F)c(F)c5F)c5ccc2[nH]5)C=C4)C=C3)cc1
REMARK SMILES IDX 24 1 23 2 22 3 21 4 19 5 20 6 18 7 13 8 14 9 15 10 17 11
REMARK SMILES IDX 16 12 12 13 8 14 9 15 10 16 11 17 5 18 4 19 3 20 2 21 1 22
REMARK SMILES IDX 6 23 7 24 25 26 26 27 27 28 28 29 29 30 30 31 31 32 32 33
REMARK SMILES IDX 33 34 34 35 95 36 35 37 94 38 36 39 37 40 38 41 88 42 39 43
REMARK SMILES IDX 93 44 87 45 89 46 40 47 92 48 86 49 85 50 41 52 73 53 53 54
REMARK SMILES IDX 72 55 54 56 57 57 71 58 90 59 55 60 56 61 70 63 91 64 58 65
REMARK SMILES IDX 42 66 43 67 51 68 44 69 45 70 49 71 52 72 46 73 47 74 50 75
REMARK SMILES IDX 48 76 74 77 75 78 83 79 76 80 77 81 81 82 84 83 78 84 79 85
REMARK SMILES IDX 82 86 80 87 59 88 60 89 68 90 61 91 62 92 66 93 69 94 63 95
REMARK SMILES IDX 64 96 67 97 65 98
REMARK H PARENT 7 25 89 51 57 62
REMARK Flexibility Score: inf
ROOT
ATOM      1  O   UNL A   1      38.463  23.075  25.877  1.00  0.00    -0.376 OA
ENDROOT
BRANCH   1   2
ATOM      2  C   UNL A   1      37.457  24.050  26.129  1.00  0.00     0.202 C 
BRANCH   2   3
ATOM      3  C   UNL A   1      36.103  23.783  25.466  1.00  0.00     0.261 C 
BRANCH   3   4
ATOM      4  O   UNL A   1      35.048  24.695  25.813  1.00  0.00    -0.460 OA
BRANCH   4   5
ATOM      5  C   UNL A   1      34.191  25.106  24.862  1.00  0.00     0.338 C 
ATOM      6  O   UNL A   1      34.509  25.551  23.768  1.00  0.00    -0.246 OA
BRANCH   5   7
ATOM      7  C   UNL A   1      32.771  24.946  25.301  1.00  0.00     0.071 A 
ATOM      8  C   UNL A   1      31.934  26.003  25.716  1.00  0.00     0.032 A 
ATOM      9  C   UNL A   1      30.631  25.693  26.154  1.00  0.00     0.013 A 
ATOM     10  C   UNL A   1      30.147  24.383  26.132  1.00  0.00     0.001 A 
ATOM     11  C   UNL A   1      32.266  23.632  25.267  1.00  0.00     0.016 A 
ATOM     12  C   UNL A   1      30.962  23.353  25.680  1.00  0.00     0.001 A 
BRANCH   8  13
ATOM     13  C   UNL A   1      32.344  27.408  25.815  1.00  0.00     0.141 A 
ATOM     14  N   UNL A   1      32.217  28.412  24.867  1.00  0.00    -0.326 N 
ATOM     15  C   UNL A   1      32.855  29.525  25.374  1.00  0.00     0.108 A 
ATOM     16  C   UNL A   1      33.232  29.190  26.648  1.00  0.00     0.131 A 
ATOM     17  N   UNL A   1      32.877  27.904  26.920  1.00  0.00    -0.237 NA
BRANCH  14  18
ATOM     18  C   UNL A   1      31.480  28.439  23.593  1.00  0.00     0.115 C 
BRANCH  18  19
ATOM     19  C   UNL A   1      30.273  29.386  23.593  1.00  0.00     0.039 C 
BRANCH  19  20
ATOM     20  C   UNL A   1      29.323  29.363  22.400  1.00  0.00     0.071 C 
BRANCH  20  21
ATOM     21  S   UNL A   1      27.579  29.690  22.819  1.00  0.00    -0.165 SA
ATOM     22  C   UNL A   1      27.730  31.273  23.664  1.00  0.00     0.085 C 
ENDBRANCH  20  21
ENDBRANCH  19  20
ENDBRANCH  18  19
BRANCH  18  23
ATOM     23  C   UNL A   1      32.435  28.616  22.400  1.00  0.00     0.181 C 
BRANCH  23  24
ATOM     24  O   UNL A   1      33.256  27.488  22.133  1.00  0.00    -0.394 OA
ATOM     25  H   UNL A   1      32.922  26.723  22.626  1.00  0.00     0.210 HD
ENDBRANCH  23  24
ENDBRANCH  18  23
ENDBRANCH  14  18
ENDBRANCH   8  13
ENDBRANCH   5   7
ENDBRANCH   4   5
ENDBRANCH   3   4
ENDBRANCH   2   3
ENDBRANCH   1   2
BRANCH   1  26
ATOM     26  C   UNL A   1      37.964  21.847  25.370  1.00  0.00     0.188 C 
BRANCH  26  27
ATOM     27  C   UNL A   1      38.910  20.631  25.475  1.00  0.00     0.188 C 
BRANCH  27  28
ATOM     28  O   UNL A   1      39.983  20.541  26.401  1.00  0.00    -0.376 OA
BRANCH  28  29
ATOM     29  C   UNL A   1      41.051  19.621  26.258  1.00  0.00     0.202 C 
BRANCH  29  30
ATOM     30  C   UNL A   1      42.461  20.184  26.110  1.00  0.00     0.261 C 
BRANCH  30  31
ATOM     31  O   UNL A   1      42.491  21.349  25.301  1.00  0.00    -0.460 OA
BRANCH  31  32
ATOM     32  C   UNL A   1      43.322  22.308  25.757  1.00  0.00     0.338 C 
ATOM     33  O   UNL A   1      44.498  22.474  25.484  1.00  0.00    -0.246 OA
BRANCH  32  34
ATOM     34  C   UNL A   1      42.572  23.190  26.662  1.00  0.00     0.060 A 
ATOM     35  C   UNL A   1      41.625  24.035  26.079  1.00  0.00     0.016 A 
ATOM     36  C   UNL A   1      42.919  23.287  28.019  1.00  0.00     0.016 A 
ATOM     37  C   UNL A   1      41.229  25.150  26.778  1.00  0.00     0.010 A 
ATOM     38  C   UNL A   1      42.526  24.400  28.720  1.00  0.00     0.010 A 
ATOM     39  C   UNL A   1      41.795  25.369  28.036  1.00  0.00    -0.014 A 
BRANCH  39  40
ATOM     40  C   UNL A   1      41.834  26.741  28.496  1.00  0.00     0.031 A 
ATOM     41  C   UNL A   1      42.976  27.558  28.064  1.00  0.00     0.074 A 
ATOM     42  C   UNL A   1      40.811  27.220  29.232  1.00  0.00     0.049 A 
ATOM     43  N   UNL A   1      43.851  28.147  28.807  1.00  0.00    -0.248 NA
ATOM     44  C   UNL A   1      43.206  27.691  26.621  1.00  0.00     0.031 C 
ATOM     45  C   UNL A   1      39.503  26.596  29.462  1.00  0.00     0.029 A 
ATOM     46  N   UNL A   1      40.689  28.431  29.837  1.00  0.00    -0.354 N 
ATOM     47  C   UNL A   1      44.653  28.869  27.935  1.00  0.00     0.074 A 
ATOM     48  C   UNL A   1      44.299  28.453  26.602  1.00  0.00     0.031 C 
ATOM     49  C   UNL A   1      38.655  27.520  29.963  1.00  0.00     0.029 A 
ATOM     50  C   UNL A   1      39.389  28.752  30.192  1.00  0.00     0.049 A 
ATOM     51  H   UNL A   1      41.454  29.025  30.008  1.00  0.00     0.167 HD
ATOM     52  C   UNL A   1      45.392  29.925  28.363  1.00  0.00     0.037 A 
ATOM     53  C   UNL A   1      38.939  29.975  30.556  1.00  0.00     0.037 A 
ATOM     54  C   UNL A   1      45.611  29.897  29.784  1.00  0.00     0.049 A 
ATOM     55  C   UNL A   1      40.113  30.799  30.942  1.00  0.00     0.074 A 
ATOM     56  C   UNL A   1      46.186  28.988  30.653  1.00  0.00     0.029 A 
ATOM     57  N   UNL A   1      44.913  30.773  30.579  1.00  0.00    -0.354 N 
ATOM     58  N   UNL A   1      40.810  30.630  32.030  1.00  0.00    -0.248 NA
ATOM     59  C   UNL A   1      40.769  31.575  29.899  1.00  0.00     0.031 C 
ATOM     60  C   UNL A   1      45.426  29.082  31.855  1.00  0.00     0.029 A 
ATOM     61  C   UNL A   1      44.450  30.058  31.655  1.00  0.00     0.049 A 
ATOM     62  H   UNL A   1      44.772  31.732  30.409  1.00  0.00     0.167 HD
ATOM     63  C   UNL A   1      42.118  30.897  31.655  1.00  0.00     0.074 A 
ATOM     64  C   UNL A   1      42.016  31.583  30.373  1.00  0.00     0.031 C 
ATOM     65  C   UNL A   1      43.168  30.285  32.276  1.00  0.00     0.037 A 
BRANCH  52  66
ATOM     66  C   UNL A   1      45.633  31.144  27.520  1.00  0.00     0.064 A 
ATOM     67  C   UNL A   1      46.947  31.573  27.273  1.00  0.00     0.173 A 
ATOM     68  C   UNL A   1      44.610  32.055  27.172  1.00  0.00     0.173 A 
ATOM     69  F   UNL A   1      47.991  30.802  27.610  1.00  0.00    -0.203 F 
ATOM     70  C   UNL A   1      47.218  32.841  26.751  1.00  0.00     0.198 A 
ATOM     71  C   UNL A   1      44.881  33.293  26.597  1.00  0.00     0.198 A 
ATOM     72  F   UNL A   1      43.326  31.828  27.477  1.00  0.00    -0.203 F 
ATOM     73  F   UNL A   1      48.487  33.255  26.637  1.00  0.00    -0.200 F 
ATOM     74  C   UNL A   1      46.185  33.698  26.411  1.00  0.00     0.200 A 
ATOM     75  F   UNL A   1      43.867  34.117  26.296  1.00  0.00    -0.200 F 
ATOM     76  F   UNL A   1      46.445  34.930  25.956  1.00  0.00    -0.200 F 
ENDBRANCH  52  66
BRANCH  53  77
ATOM     77  C   UNL A   1      37.598  30.558  30.323  1.00  0.00     0.064 A 
ATOM     78  C   UNL A   1      36.852  31.096  31.382  1.00  0.00     0.173 A 
ATOM     79  C   UNL A   1      37.126  30.828  29.023  1.00  0.00     0.173 A 
ATOM     80  F   UNL A   1      37.259  30.926  32.649  1.00  0.00    -0.203 F 
ATOM     81  C   UNL A   1      35.713  31.872  31.154  1.00  0.00     0.198 A 
ATOM     82  C   UNL A   1      35.980  31.588  28.796  1.00  0.00     0.198 A 
ATOM     83  F   UNL A   1      37.818  30.441  27.941  1.00  0.00    -0.203 F 
ATOM     84  F   UNL A   1      35.062  32.424  32.188  1.00  0.00    -0.200 F 
ATOM     85  C   UNL A   1      35.280  32.122  29.861  1.00  0.00     0.200 A 
ATOM     86  F   UNL A   1      35.594  31.850  27.539  1.00  0.00    -0.200 F 
ATOM     87  F   UNL A   1      34.220  32.910  29.641  1.00  0.00    -0.200 F 
ENDBRANCH  53  77
BRANCH  65  88
ATOM     88  C   UNL A   1      42.891  29.567  33.566  1.00  0.00     0.064 A 
ATOM     89  C   UNL A   1      42.970  30.175  34.832  1.00  0.00     0.173 A 
ATOM     90  C   UNL A   1      42.425  28.247  33.512  1.00  0.00     0.173 A 
ATOM     91  F   UNL A   1      43.296  31.469  34.956  1.00  0.00    -0.203 F 
ATOM     92  C   UNL A   1      42.661  29.467  35.992  1.00  0.00     0.198 A 
ATOM     93  C   UNL A   1      42.078  27.556  34.670  1.00  0.00     0.198 A 
ATOM     94  F   UNL A   1      42.268  27.636  32.326  1.00  0.00    -0.203 F 
ATOM     95  F   UNL A   1      42.772  30.060  37.190  1.00  0.00    -0.200 F 
ATOM     96  C   UNL A   1      42.211  28.160  35.910  1.00  0.00     0.200 A 
ATOM     97  F   UNL A   1      41.594  26.309  34.582  1.00  0.00    -0.200 F 
ATOM     98  F   UNL A   1      41.885  27.489  37.023  1.00  0.00    -0.200 F 
ENDBRANCH  65  88
ENDBRANCH  39  40
ENDBRANCH  32  34
ENDBRANCH  31  32
ENDBRANCH  30  31
ENDBRANCH  29  30
ENDBRANCH  28  29
ENDBRANCH  27  28
ENDBRANCH  26  27
ENDBRANCH   1  26
TORSDOF 24
ENDMDL
