MODEL 1
REMARK VINA RESULT:     -11.4      0.000      0.000
REMARK SMILES O=C(CC1(NC(=O)c2ccccc2[N+](=O)[O-])CCC1)OCCOCCOCCOC(=O)c1ccc(-c2c3nc(c(-c4c(F)c(F)c(F)c(F)c4F)c4ccc([nH]4)c(-c4c(F)c(F)c(F)c(F)c4F)c4nc(c(-c5c(F)c(F)c(F)c(F)c5F)c5ccc2[nH]5)C=C4)C=C3)cc1
REMARK SMILES IDX 24 1 23 2 22 3 21 4 20 5 2 6 1 7 3 8 4 9 17 10 19 11 18 12
REMARK SMILES IDX 5 13 6 14 7 16 8 17 9 18 13 19 10 20 12 21 11 22 14 23 15 24
REMARK SMILES IDX 16 25 25 26 26 27 27 28 28 29 29 30 30 31 31 32 32 33 33 34
REMARK SMILES IDX 94 35 34 36 93 37 35 38 36 39 37 40 87 41 38 42 92 43 86 44
REMARK SMILES IDX 88 45 39 46 91 47 85 48 84 49 40 51 72 52 52 53 71 54 53 55
REMARK SMILES IDX 56 56 70 57 89 58 54 59 55 60 69 62 90 63 57 64 41 65 42 66
REMARK SMILES IDX 50 67 43 68 44 69 48 70 51 71 45 72 46 73 49 74 47 75 73 76
REMARK SMILES IDX 74 77 82 78 75 79 76 80 80 81 83 82 77 83 78 84 81 85 79 86
REMARK SMILES IDX 58 87 59 88 67 89 60 90 61 91 65 92 68 93 62 94 63 95 66 96
REMARK SMILES IDX 64 97
REMARK H PARENT 5 15 88 50 56 61
REMARK Flexibility Score: inf
ROOT
ATOM      1  C   UNL A   1      38.981  21.338  26.124  1.00  0.00     0.188 C 
ENDROOT
BRANCH   1   2
ATOM      2  O   UNL A   1      38.161  20.680  25.182  1.00  0.00    -0.376 OA
BRANCH   2   3
ATOM      3  C   UNL A   1      36.914  21.266  24.837  1.00  0.00     0.202 C 
BRANCH   3   4
ATOM      4  C   UNL A   1      36.935  22.795  24.942  1.00  0.00     0.261 C 
BRANCH   4   5
ATOM      5  O   UNL A   1      36.347  23.436  26.098  1.00  0.00    -0.463 OA
BRANCH   5   6
ATOM      6  C   UNL A   1      35.024  23.654  26.241  1.00  0.00     0.308 C 
ATOM      7  O   UNL A   1      34.304  22.974  26.960  1.00  0.00    -0.252 OA
BRANCH   6   8
ATOM      8  C   UNL A   1      34.520  24.838  25.458  1.00  0.00     0.151 C 
BRANCH   8   9
ATOM      9  C   UNL A   1      33.241  24.665  24.654  1.00  0.00     0.051 C 
ATOM     10  C   UNL A   1      33.092  25.514  23.343  1.00  0.00     0.029 C 
ATOM     11  C   UNL A   1      33.343  23.405  23.722  1.00  0.00     0.029 C 
ATOM     12  C   UNL A   1      32.864  24.239  22.531  1.00  0.00     0.005 C 
BRANCH   9  13
ATOM     13  N   UNL A   1      31.950  24.618  25.411  1.00  0.00    -0.346 N 
ATOM     14  C   UNL A   1      30.921  25.485  25.693  1.00  0.00     0.258 C 
ATOM     15  H   UNL A   1      31.798  23.733  25.813  1.00  0.00     0.164 HD
ATOM     16  O   UNL A   1      30.039  25.154  26.482  1.00  0.00    -0.269 OA
BRANCH  14  17
ATOM     17  C   UNL A   1      30.834  26.828  25.123  1.00  0.00     0.117 A 
ATOM     18  C   UNL A   1      30.183  26.961  23.885  1.00  0.00     0.021 A 
ATOM     19  C   UNL A   1      31.455  27.941  25.697  1.00  0.00     0.282 A 
ATOM     20  C   UNL A   1      30.091  28.213  23.273  1.00  0.00     0.001 A 
ATOM     21  C   UNL A   1      31.339  29.205  25.092  1.00  0.00     0.086 A 
ATOM     22  C   UNL A   1      30.647  29.336  23.885  1.00  0.00     0.007 A 
BRANCH  19  23
ATOM     23  N   UNL A   1      32.265  27.827  26.908  1.00  0.00     0.063 N 
ATOM     24  O   UNL A   1      33.493  27.743  26.791  1.00  0.00    -0.258 OA
ATOM     25  O   UNL A   1      31.657  27.818  27.989  1.00  0.00    -0.258 OA
ENDBRANCH  19  23
ENDBRANCH  14  17
ENDBRANCH   9  13
ENDBRANCH   8   9
ENDBRANCH   6   8
ENDBRANCH   5   6
ENDBRANCH   4   5
ENDBRANCH   3   4
ENDBRANCH   2   3
ENDBRANCH   1   2
BRANCH   1  26
ATOM     26  C   UNL A   1      40.362  20.686  26.311  1.00  0.00     0.188 C 
BRANCH  26  27
ATOM     27  O   UNL A   1      41.512  21.511  26.392  1.00  0.00    -0.376 OA
BRANCH  27  28
ATOM     28  C   UNL A   1      42.746  21.017  25.884  1.00  0.00     0.202 C 
BRANCH  28  29
ATOM     29  C   UNL A   1      43.678  22.003  25.170  1.00  0.00     0.261 C 
BRANCH  29  30
ATOM     30  O   UNL A   1      43.027  23.168  24.620  1.00  0.00    -0.460 OA
BRANCH  30  31
ATOM     31  C   UNL A   1      43.624  24.345  24.931  1.00  0.00     0.338 C 
ATOM     32  O   UNL A   1      44.747  24.711  24.628  1.00  0.00    -0.246 OA
BRANCH  31  33
ATOM     33  C   UNL A   1      42.705  25.251  25.646  1.00  0.00     0.060 A 
ATOM     34  C   UNL A   1      42.910  26.632  25.524  1.00  0.00     0.016 A 
ATOM     35  C   UNL A   1      41.831  24.748  26.611  1.00  0.00     0.016 A 
ATOM     36  C   UNL A   1      42.295  27.512  26.419  1.00  0.00     0.010 A 
ATOM     37  C   UNL A   1      41.220  25.632  27.510  1.00  0.00     0.010 A 
ATOM     38  C   UNL A   1      41.490  27.012  27.451  1.00  0.00    -0.014 A 
BRANCH  38  39
ATOM     39  C   UNL A   1      41.131  27.887  28.599  1.00  0.00     0.031 A 
ATOM     40  C   UNL A   1      41.954  27.793  29.858  1.00  0.00     0.074 A 
ATOM     41  C   UNL A   1      40.116  28.765  28.536  1.00  0.00     0.049 A 
ATOM     42  N   UNL A   1      41.758  28.349  31.026  1.00  0.00    -0.248 NA
ATOM     43  C   UNL A   1      43.164  26.959  29.782  1.00  0.00     0.031 C 
ATOM     44  C   UNL A   1      39.291  29.026  27.361  1.00  0.00     0.029 A 
ATOM     45  N   UNL A   1      39.603  29.597  29.504  1.00  0.00    -0.354 N 
ATOM     46  C   UNL A   1      42.805  27.917  31.829  1.00  0.00     0.074 A 
ATOM     47  C   UNL A   1      43.631  27.048  31.018  1.00  0.00     0.031 C 
ATOM     48  C   UNL A   1      38.359  29.943  27.681  1.00  0.00     0.029 A 
ATOM     49  C   UNL A   1      38.496  30.296  29.095  1.00  0.00     0.049 A 
ATOM     50  H   UNL A   1      39.994  29.683  30.404  1.00  0.00     0.167 HD
ATOM     51  C   UNL A   1      43.058  28.212  33.127  1.00  0.00     0.037 A 
ATOM     52  C   UNL A   1      37.665  31.096  29.794  1.00  0.00     0.037 A 
ATOM     53  C   UNL A   1      42.248  29.077  33.941  1.00  0.00     0.049 A 
ATOM     54  C   UNL A   1      37.909  31.335  31.265  1.00  0.00     0.074 A 
ATOM     55  C   UNL A   1      42.420  29.425  35.270  1.00  0.00     0.029 A 
ATOM     56  N   UNL A   1      41.108  29.733  33.501  1.00  0.00    -0.354 N 
ATOM     57  N   UNL A   1      38.883  30.900  32.026  1.00  0.00    -0.248 NA
ATOM     58  C   UNL A   1      36.927  32.171  31.974  1.00  0.00     0.031 C 
ATOM     59  C   UNL A   1      41.362  30.259  35.646  1.00  0.00     0.029 A 
ATOM     60  C   UNL A   1      40.557  30.467  34.539  1.00  0.00     0.049 A 
ATOM     61  H   UNL A   1      40.745  29.683  32.588  1.00  0.00     0.167 HD
ATOM     62  C   UNL A   1      38.647  31.428  33.291  1.00  0.00     0.074 A 
ATOM     63  C   UNL A   1      37.442  32.223  33.195  1.00  0.00     0.031 C 
ATOM     64  C   UNL A   1      39.366  31.268  34.429  1.00  0.00     0.037 A 
BRANCH  51  65
ATOM     65  C   UNL A   1      44.245  27.553  33.761  1.00  0.00     0.064 A 
ATOM     66  C   UNL A   1      45.510  28.157  33.765  1.00  0.00     0.173 A 
ATOM     67  C   UNL A   1      44.106  26.305  34.387  1.00  0.00     0.173 A 
ATOM     68  F   UNL A   1      45.694  29.341  33.163  1.00  0.00    -0.203 F 
ATOM     69  C   UNL A   1      46.601  27.522  34.353  1.00  0.00     0.198 A 
ATOM     70  C   UNL A   1      45.195  25.685  34.995  1.00  0.00     0.198 A 
ATOM     71  F   UNL A   1      42.916  25.688  34.411  1.00  0.00    -0.203 F 
ATOM     72  F   UNL A   1      47.813  28.095  34.305  1.00  0.00    -0.200 F 
ATOM     73  C   UNL A   1      46.442  26.291  34.972  1.00  0.00     0.200 A 
ATOM     74  F   UNL A   1      45.036  24.499  35.599  1.00  0.00    -0.200 F 
ATOM     75  F   UNL A   1      47.494  25.682  35.537  1.00  0.00    -0.200 F 
ENDBRANCH  51  65
BRANCH  52  76
ATOM     76  C   UNL A   1      36.485  31.707  29.128  1.00  0.00     0.064 A 
ATOM     77  C   UNL A   1      36.426  33.085  28.881  1.00  0.00     0.173 A 
ATOM     78  C   UNL A   1      35.376  30.930  28.764  1.00  0.00     0.173 A 
ATOM     79  F   UNL A   1      37.448  33.873  29.243  1.00  0.00    -0.203 F 
ATOM     80  C   UNL A   1      35.294  33.666  28.312  1.00  0.00     0.198 A 
ATOM     81  C   UNL A   1      34.256  31.507  28.171  1.00  0.00     0.198 A 
ATOM     82  F   UNL A   1      35.380  29.607  28.989  1.00  0.00    -0.203 F 
ATOM     83  F   UNL A   1      35.242  34.993  28.135  1.00  0.00    -0.200 F 
ATOM     84  C   UNL A   1      34.212  32.875  27.952  1.00  0.00     0.200 A 
ATOM     85  F   UNL A   1      33.216  30.738  27.820  1.00  0.00    -0.200 F 
ATOM     86  F   UNL A   1      33.123  33.434  27.409  1.00  0.00    -0.200 F 
ENDBRANCH  52  76
BRANCH  64  87
ATOM     87  C   UNL A   1      38.901  31.996  35.657  1.00  0.00     0.064 A 
ATOM     88  C   UNL A   1      38.155  31.355  36.656  1.00  0.00     0.173 A 
ATOM     89  C   UNL A   1      39.259  33.339  35.863  1.00  0.00     0.173 A 
ATOM     90  F   UNL A   1      37.777  30.078  36.501  1.00  0.00    -0.203 F 
ATOM     91  C   UNL A   1      37.770  32.036  37.809  1.00  0.00     0.198 A 
ATOM     92  C   UNL A   1      38.893  34.008  37.028  1.00  0.00     0.198 A 
ATOM     93  F   UNL A   1      39.978  33.994  34.940  1.00  0.00    -0.203 F 
ATOM     94  F   UNL A   1      37.028  31.414  38.736  1.00  0.00    -0.200 F 
ATOM     95  C   UNL A   1      38.145  33.358  37.998  1.00  0.00     0.200 A 
ATOM     96  F   UNL A   1      39.268  35.281  37.213  1.00  0.00    -0.200 F 
ATOM     97  F   UNL A   1      37.782  34.007  39.113  1.00  0.00    -0.200 F 
ENDBRANCH  64  87
ENDBRANCH  38  39
ENDBRANCH  31  33
ENDBRANCH  30  31
ENDBRANCH  29  30
ENDBRANCH  28  29
ENDBRANCH  27  28
ENDBRANCH  26  27
ENDBRANCH   1  26
TORSDOF 21
ENDMDL
MODEL 2
REMARK VINA RESULT:     -11.3      1.347      2.127
REMARK SMILES O=C(CC1(NC(=O)c2ccccc2[N+](=O)[O-])CCC1)OCCOCCOCCOC(=O)c1ccc(-c2c3nc(c(-c4c(F)c(F)c(F)c(F)c4F)c4ccc([nH]4)c(-c4c(F)c(F)c(F)c(F)c4F)c4nc(c(-c5c(F)c(F)c(F)c(F)c5F)c5ccc2[nH]5)C=C4)C=C3)cc1
REMARK SMILES IDX 24 1 23 2 22 3 21 4 20 5 2 6 1 7 3 8 4 9 17 10 19 11 18 12
REMARK SMILES IDX 5 13 6 14 7 16 8 17 9 18 13 19 10 20 12 21 11 22 14 23 15 24
REMARK SMILES IDX 16 25 25 26 26 27 27 28 28 29 29 30 30 31 31 32 32 33 33 34
REMARK SMILES IDX 94 35 34 36 93 37 35 38 36 39 37 40 87 41 38 42 92 43 86 44
REMARK SMILES IDX 88 45 39 46 91 47 85 48 84 49 40 51 72 52 52 53 71 54 53 55
REMARK SMILES IDX 56 56 70 57 89 58 54 59 55 60 69 62 90 63 57 64 41 65 42 66
REMARK SMILES IDX 50 67 43 68 44 69 48 70 51 71 45 72 46 73 49 74 47 75 73 76
REMARK SMILES IDX 74 77 82 78 75 79 76 80 80 81 83 82 77 83 78 84 81 85 79 86
REMARK SMILES IDX 58 87 59 88 67 89 60 90 61 91 65 92 68 93 62 94 63 95 66 96
REMARK SMILES IDX 64 97
REMARK H PARENT 5 15 88 50 56 61
REMARK Flexibility Score: inf
ROOT
ATOM      1  C   UNL A   1      40.622  20.408  26.870  1.00  0.00     0.188 C 
ENDROOT
BRANCH   1   2
ATOM      2  O   UNL A   1      40.222  21.350  25.897  1.00  0.00    -0.376 OA
BRANCH   2   3
ATOM      3  C   UNL A   1      39.060  22.129  26.141  1.00  0.00     0.202 C 
BRANCH   3   4
ATOM      4  C   UNL A   1      37.889  21.737  25.232  1.00  0.00     0.261 C 
BRANCH   4   5
ATOM      5  O   UNL A   1      36.794  22.664  25.045  1.00  0.00    -0.463 OA
BRANCH   5   6
ATOM      6  C   UNL A   1      36.005  22.678  23.951  1.00  0.00     0.308 C 
ATOM      7  O   UNL A   1      36.381  23.076  22.857  1.00  0.00    -0.252 OA
BRANCH   6   8
ATOM      8  C   UNL A   1      34.625  22.125  24.195  1.00  0.00     0.151 C 
BRANCH   8   9
ATOM      9  C   UNL A   1      33.438  22.943  23.713  1.00  0.00     0.051 C 
ATOM     10  C   UNL A   1      32.135  22.161  23.320  1.00  0.00     0.029 C 
ATOM     11  C   UNL A   1      32.626  23.507  24.933  1.00  0.00     0.029 C 
ATOM     12  C   UNL A   1      31.324  22.994  24.312  1.00  0.00     0.005 C 
BRANCH   9  13
ATOM     13  N   UNL A   1      33.710  24.051  22.743  1.00  0.00    -0.346 N 
ATOM     14  C   UNL A   1      33.585  25.420  22.723  1.00  0.00     0.258 C 
ATOM     15  H   UNL A   1      34.073  23.708  21.895  1.00  0.00     0.164 HD
ATOM     16  O   UNL A   1      33.785  26.039  21.681  1.00  0.00    -0.269 OA
BRANCH  14  17
ATOM     17  C   UNL A   1      33.181  26.198  23.893  1.00  0.00     0.117 A 
ATOM     18  C   UNL A   1      34.106  26.304  24.946  1.00  0.00     0.021 A 
ATOM     19  C   UNL A   1      31.901  26.737  24.044  1.00  0.00     0.282 A 
ATOM     20  C   UNL A   1      33.770  27.009  26.105  1.00  0.00     0.001 A 
ATOM     21  C   UNL A   1      31.574  27.469  25.200  1.00  0.00     0.086 A 
ATOM     22  C   UNL A   1      32.517  27.610  26.222  1.00  0.00     0.007 A 
BRANCH  19  23
ATOM     23  N   UNL A   1      30.859  26.531  23.040  1.00  0.00     0.063 N 
ATOM     24  O   UNL A   1      30.923  27.172  21.984  1.00  0.00    -0.258 OA
ATOM     25  O   UNL A   1      29.965  25.718  23.319  1.00  0.00    -0.258 OA
ENDBRANCH  19  23
ENDBRANCH  14  17
ENDBRANCH   9  13
ENDBRANCH   8   9
ENDBRANCH   6   8
ENDBRANCH   5   6
ENDBRANCH   4   5
ENDBRANCH   3   4
ENDBRANCH   2   3
ENDBRANCH   1   2
BRANCH   1  26
ATOM     26  C   UNL A   1      41.690  19.417  26.376  1.00  0.00     0.188 C 
BRANCH  26  27
ATOM     27  O   UNL A   1      42.409  19.710  25.189  1.00  0.00    -0.376 OA
BRANCH  27  28
ATOM     28  C   UNL A   1      43.718  20.259  25.299  1.00  0.00     0.202 C 
BRANCH  28  29
ATOM     29  C   UNL A   1      43.850  21.716  25.759  1.00  0.00     0.261 C 
BRANCH  29  30
ATOM     30  O   UNL A   1      43.040  22.662  25.029  1.00  0.00    -0.460 OA
BRANCH  30  31
ATOM     31  C   UNL A   1      43.571  23.906  24.940  1.00  0.00     0.338 C 
ATOM     32  O   UNL A   1      44.584  24.240  24.349  1.00  0.00    -0.246 OA
BRANCH  31  33
ATOM     33  C   UNL A   1      42.714  24.914  25.593  1.00  0.00     0.060 A 
ATOM     34  C   UNL A   1      43.080  26.263  25.487  1.00  0.00     0.016 A 
ATOM     35  C   UNL A   1      41.726  24.518  26.496  1.00  0.00     0.016 A 
ATOM     36  C   UNL A   1      42.509  27.211  26.339  1.00  0.00     0.010 A 
ATOM     37  C   UNL A   1      41.159  25.470  27.352  1.00  0.00     0.010 A 
ATOM     38  C   UNL A   1      41.586  26.811  27.314  1.00  0.00    -0.014 A 
BRANCH  38  39
ATOM     39  C   UNL A   1      41.250  27.727  28.436  1.00  0.00     0.031 A 
ATOM     40  C   UNL A   1      42.110  27.692  29.673  1.00  0.00     0.074 A 
ATOM     41  C   UNL A   1      40.224  28.593  28.368  1.00  0.00     0.049 A 
ATOM     42  N   UNL A   1      41.942  28.293  30.824  1.00  0.00    -0.248 NA
ATOM     43  C   UNL A   1      43.327  26.867  29.595  1.00  0.00     0.031 C 
ATOM     44  C   UNL A   1      39.363  28.799  27.209  1.00  0.00     0.029 A 
ATOM     45  N   UNL A   1      39.731  29.458  29.316  1.00  0.00    -0.354 N 
ATOM     46  C   UNL A   1      43.017  27.904  31.612  1.00  0.00     0.074 A 
ATOM     47  C   UNL A   1      43.829  27.011  30.812  1.00  0.00     0.031 C 
ATOM     48  C   UNL A   1      38.431  29.719  27.519  1.00  0.00     0.029 A 
ATOM     49  C   UNL A   1      38.605  30.129  28.913  1.00  0.00     0.049 A 
ATOM     50  H   UNL A   1      40.146  29.583  30.201  1.00  0.00     0.167 HD
ATOM     51  C   UNL A   1      43.304  28.253  32.889  1.00  0.00     0.037 A 
ATOM     52  C   UNL A   1      37.786  30.949  29.603  1.00  0.00     0.037 A 
ATOM     53  C   UNL A   1      42.509  29.142  33.692  1.00  0.00     0.049 A 
ATOM     54  C   UNL A   1      38.070  31.249  31.056  1.00  0.00     0.074 A 
ATOM     55  C   UNL A   1      42.715  29.545  35.000  1.00  0.00     0.029 A 
ATOM     56  N   UNL A   1      41.350  29.768  33.260  1.00  0.00    -0.354 N 
ATOM     57  N   UNL A   1      39.070  30.854  31.805  1.00  0.00    -0.248 NA
ATOM     58  C   UNL A   1      37.099  32.102  31.760  1.00  0.00     0.031 C 
ATOM     59  C   UNL A   1      41.660  30.383  35.373  1.00  0.00     0.029 A 
ATOM     60  C   UNL A   1      40.820  30.538  34.283  1.00  0.00     0.049 A 
ATOM     61  H   UNL A   1      40.961  29.678  32.360  1.00  0.00     0.167 HD
ATOM     62  C   UNL A   1      38.864  31.429  33.054  1.00  0.00     0.074 A 
ATOM     63  C   UNL A   1      37.649  32.208  32.962  1.00  0.00     0.031 C 
ATOM     64  C   UNL A   1      39.618  31.323  34.176  1.00  0.00     0.037 A 
BRANCH  51  65
ATOM     65  C   UNL A   1      44.515  27.631  33.514  1.00  0.00     0.064 A 
ATOM     66  C   UNL A   1      44.452  26.396  34.174  1.00  0.00     0.173 A 
ATOM     67  C   UNL A   1      45.760  28.275  33.434  1.00  0.00     0.173 A 
ATOM     68  F   UNL A   1      43.282  25.752  34.292  1.00  0.00    -0.203 F 
ATOM     69  C   UNL A   1      45.589  25.839  34.756  1.00  0.00     0.198 A 
ATOM     70  C   UNL A   1      46.898  27.703  33.995  1.00  0.00     0.198 A 
ATOM     71  F   UNL A   1      45.870  29.457  32.811  1.00  0.00    -0.203 F 
ATOM     72  F   UNL A   1      45.498  24.680  35.423  1.00  0.00    -0.200 F 
ATOM     73  C   UNL A   1      46.810  26.490  34.661  1.00  0.00     0.200 A 
ATOM     74  F   UNL A   1      48.078  28.329  33.896  1.00  0.00    -0.200 F 
ATOM     75  F   UNL A   1      47.903  25.951  35.221  1.00  0.00    -0.200 F 
ENDBRANCH  51  65
BRANCH  52  76
ATOM     76  C   UNL A   1      36.581  31.520  28.948  1.00  0.00     0.064 A 
ATOM     77  C   UNL A   1      36.510  32.883  28.626  1.00  0.00     0.173 A 
ATOM     78  C   UNL A   1      35.460  30.724  28.672  1.00  0.00     0.173 A 
ATOM     79  F   UNL A   1      37.543  33.690  28.904  1.00  0.00    -0.203 F 
ATOM     80  C   UNL A   1      35.356  33.430  28.068  1.00  0.00     0.198 A 
ATOM     81  C   UNL A   1      34.317  31.267  28.089  1.00  0.00     0.198 A 
ATOM     82  F   UNL A   1      35.475  29.417  28.971  1.00  0.00    -0.203 F 
ATOM     83  F   UNL A   1      35.294  34.745  27.817  1.00  0.00    -0.200 F 
ATOM     84  C   UNL A   1      34.263  32.620  27.794  1.00  0.00     0.200 A 
ATOM     85  F   UNL A   1      33.266  30.480  27.822  1.00  0.00    -0.200 F 
ATOM     86  F   UNL A   1      33.153  33.148  27.262  1.00  0.00    -0.200 F 
ENDBRANCH  52  76
BRANCH  64  87
ATOM     87  C   UNL A   1      39.181  32.095  35.387  1.00  0.00     0.064 A 
ATOM     88  C   UNL A   1      38.399  31.509  36.392  1.00  0.00     0.173 A 
ATOM     89  C   UNL A   1      39.602  33.422  35.571  1.00  0.00     0.173 A 
ATOM     90  F   UNL A   1      37.961  30.248  36.258  1.00  0.00    -0.203 F 
ATOM     91  C   UNL A   1      38.039  32.229  37.530  1.00  0.00     0.198 A 
ATOM     92  C   UNL A   1      39.261  34.130  36.721  1.00  0.00     0.198 A 
ATOM     93  F   UNL A   1      40.357  34.025  34.642  1.00  0.00    -0.203 F 
ATOM     94  F   UNL A   1      37.263  31.660  38.462  1.00  0.00    -0.200 F 
ATOM     95  C   UNL A   1      38.477  33.535  37.697  1.00  0.00     0.200 A 
ATOM     96  F   UNL A   1      39.696  35.386  36.886  1.00  0.00    -0.200 F 
ATOM     97  F   UNL A   1      38.139  34.221  38.798  1.00  0.00    -0.200 F 
ENDBRANCH  64  87
ENDBRANCH  38  39
ENDBRANCH  31  33
ENDBRANCH  30  31
ENDBRANCH  29  30
ENDBRANCH  28  29
ENDBRANCH  27  28
ENDBRANCH  26  27
ENDBRANCH   1  26
TORSDOF 21
ENDMDL
MODEL 3
REMARK VINA RESULT:     -11.0      4.401      8.627
REMARK SMILES O=C(CC1(NC(=O)c2ccccc2[N+](=O)[O-])CCC1)OCCOCCOCCOC(=O)c1ccc(-c2c3nc(c(-c4c(F)c(F)c(F)c(F)c4F)c4ccc([nH]4)c(-c4c(F)c(F)c(F)c(F)c4F)c4nc(c(-c5c(F)c(F)c(F)c(F)c5F)c5ccc2[nH]5)C=C4)C=C3)cc1
REMARK SMILES IDX 24 1 23 2 22 3 21 4 20 5 2 6 1 7 3 8 4 9 17 10 19 11 18 12
REMARK SMILES IDX 5 13 6 14 7 16 8 17 9 18 13 19 10 20 12 21 11 22 14 23 15 24
REMARK SMILES IDX 16 25 25 26 26 27 27 28 28 29 29 30 30 31 31 32 32 33 33 34
REMARK SMILES IDX 94 35 34 36 93 37 35 38 36 39 37 40 87 41 38 42 92 43 86 44
REMARK SMILES IDX 88 45 39 46 91 47 85 48 84 49 40 51 72 52 52 53 71 54 53 55
REMARK SMILES IDX 56 56 70 57 89 58 54 59 55 60 69 62 90 63 57 64 41 65 42 66
REMARK SMILES IDX 50 67 43 68 44 69 48 70 51 71 45 72 46 73 49 74 47 75 73 76
REMARK SMILES IDX 74 77 82 78 75 79 76 80 80 81 83 82 77 83 78 84 81 85 79 86
REMARK SMILES IDX 58 87 59 88 67 89 60 90 61 91 65 92 68 93 62 94 63 95 66 96
REMARK SMILES IDX 64 97
REMARK H PARENT 5 15 88 50 56 61
REMARK Flexibility Score: inf
ROOT
ATOM      1  C   UNL A   1      33.364  21.222  24.677  1.00  0.00     0.188 C 
ENDROOT
BRANCH   1   2
ATOM      2  O   UNL A   1      33.173  22.528  24.173  1.00  0.00    -0.376 OA
BRANCH   2   3
ATOM      3  C   UNL A   1      31.847  23.019  24.040  1.00  0.00     0.202 C 
BRANCH   3   4
ATOM      4  C   UNL A   1      31.663  23.883  22.788  1.00  0.00     0.261 C 
BRANCH   4   5
ATOM      5  O   UNL A   1      31.243  25.261  22.930  1.00  0.00    -0.463 OA
BRANCH   5   6
ATOM      6  C   UNL A   1      31.542  26.230  22.041  1.00  0.00     0.308 C 
ATOM      7  O   UNL A   1      31.678  26.023  20.842  1.00  0.00    -0.252 OA
BRANCH   6   8
ATOM      8  C   UNL A   1      31.659  27.599  22.657  1.00  0.00     0.151 C 
BRANCH   8   9
ATOM      9  C   UNL A   1      30.541  28.059  23.580  1.00  0.00     0.051 C 
ATOM     10  C   UNL A   1      30.413  29.600  23.845  1.00  0.00     0.029 C 
ATOM     11  C   UNL A   1      29.188  28.171  22.792  1.00  0.00     0.029 C 
ATOM     12  C   UNL A   1      28.962  29.572  23.365  1.00  0.00     0.005 C 
BRANCH   9  13
ATOM     13  N   UNL A   1      30.319  27.280  24.839  1.00  0.00    -0.346 N 
ATOM     14  C   UNL A   1      30.948  27.135  26.053  1.00  0.00     0.258 C 
ATOM     15  H   UNL A   1      29.509  26.723  24.782  1.00  0.00     0.164 HD
ATOM     16  O   UNL A   1      30.559  26.282  26.847  1.00  0.00    -0.269 OA
BRANCH  14  17
ATOM     17  C   UNL A   1      32.106  27.933  26.448  1.00  0.00     0.117 A 
ATOM     18  C   UNL A   1      31.857  29.208  26.986  1.00  0.00     0.021 A 
ATOM     19  C   UNL A   1      33.425  27.531  26.216  1.00  0.00     0.282 A 
ATOM     20  C   UNL A   1      32.922  30.033  27.356  1.00  0.00     0.001 A 
ATOM     21  C   UNL A   1      34.495  28.351  26.614  1.00  0.00     0.086 A 
ATOM     22  C   UNL A   1      34.237  29.597  27.193  1.00  0.00     0.007 A 
BRANCH  19  23
ATOM     23  N   UNL A   1      33.733  26.278  25.529  1.00  0.00     0.063 N 
ATOM     24  O   UNL A   1      34.095  26.327  24.347  1.00  0.00    -0.258 OA
ATOM     25  O   UNL A   1      33.605  25.234  26.186  1.00  0.00    -0.258 OA
ENDBRANCH  19  23
ENDBRANCH  14  17
ENDBRANCH   9  13
ENDBRANCH   8   9
ENDBRANCH   6   8
ENDBRANCH   5   6
ENDBRANCH   4   5
ENDBRANCH   3   4
ENDBRANCH   2   3
ENDBRANCH   1   2
BRANCH   1  26
ATOM     26  C   UNL A   1      34.239  21.164  25.940  1.00  0.00     0.188 C 
BRANCH  26  27
ATOM     27  O   UNL A   1      35.650  21.135  25.804  1.00  0.00    -0.376 OA
BRANCH  27  28
ATOM     28  C   UNL A   1      36.237  20.135  24.977  1.00  0.00     0.202 C 
BRANCH  28  29
ATOM     29  C   UNL A   1      37.765  20.011  24.972  1.00  0.00     0.261 C 
BRANCH  29  30
ATOM     30  O   UNL A   1      38.477  21.222  25.305  1.00  0.00    -0.460 OA
BRANCH  30  31
ATOM     31  C   UNL A   1      39.551  21.041  26.111  1.00  0.00     0.338 C 
ATOM     32  O   UNL A   1      40.264  20.055  26.186  1.00  0.00    -0.246 OA
BRANCH  31  33
ATOM     33  C   UNL A   1      39.862  22.256  26.888  1.00  0.00     0.060 A 
ATOM     34  C   UNL A   1      39.253  23.459  26.506  1.00  0.00     0.016 A 
ATOM     35  C   UNL A   1      40.918  22.256  27.801  1.00  0.00     0.016 A 
ATOM     36  C   UNL A   1      39.749  24.676  26.980  1.00  0.00     0.010 A 
ATOM     37  C   UNL A   1      41.417  23.477  28.271  1.00  0.00     0.010 A 
ATOM     38  C   UNL A   1      40.869  24.695  27.823  1.00  0.00    -0.014 A 
BRANCH  38  39
ATOM     39  C   UNL A   1      41.610  25.965  28.040  1.00  0.00     0.031 A 
ATOM     40  C   UNL A   1      40.921  27.080  28.783  1.00  0.00     0.074 A 
ATOM     41  C   UNL A   1      42.874  26.136  27.614  1.00  0.00     0.049 A 
ATOM     42  N   UNL A   1      41.307  28.315  28.980  1.00  0.00    -0.248 NA
ATOM     43  C   UNL A   1      39.621  26.750  29.389  1.00  0.00     0.031 C 
ATOM     44  C   UNL A   1      43.693  25.121  26.960  1.00  0.00     0.029 A 
ATOM     45  N   UNL A   1      43.683  27.246  27.666  1.00  0.00    -0.354 N 
ATOM     46  C   UNL A   1      40.290  28.915  29.712  1.00  0.00     0.074 A 
ATOM     47  C   UNL A   1      39.269  27.911  29.920  1.00  0.00     0.031 C 
ATOM     48  C   UNL A   1      44.887  25.661  26.652  1.00  0.00     0.029 A 
ATOM     49  C   UNL A   1      44.895  27.071  27.046  1.00  0.00     0.049 A 
ATOM     50  H   UNL A   1      43.419  28.086  28.106  1.00  0.00     0.167 HD
ATOM     51  C   UNL A   1      40.210  30.188  30.168  1.00  0.00     0.037 A 
ATOM     52  C   UNL A   1      45.878  27.957  26.791  1.00  0.00     0.037 A 
ATOM     53  C   UNL A   1      41.220  31.192  29.972  1.00  0.00     0.049 A 
ATOM     54  C   UNL A   1      45.726  29.396  27.223  1.00  0.00     0.074 A 
ATOM     55  C   UNL A   1      41.219  32.512  30.388  1.00  0.00     0.029 A 
ATOM     56  N   UNL A   1      42.415  30.986  29.300  1.00  0.00    -0.354 N 
ATOM     57  N   UNL A   1      44.750  29.965  27.888  1.00  0.00    -0.248 NA
ATOM     58  C   UNL A   1      46.813  30.318  26.857  1.00  0.00     0.031 C 
ATOM     59  C   UNL A   1      42.396  33.116  29.933  1.00  0.00     0.029 A 
ATOM     60  C   UNL A   1      43.149  32.160  29.273  1.00  0.00     0.049 A 
ATOM     61  H   UNL A   1      42.698  30.132  28.900  1.00  0.00     0.167 HD
ATOM     62  C   UNL A   1      45.116  31.298  28.041  1.00  0.00     0.074 A 
ATOM     63  C   UNL A   1      46.407  31.454  27.409  1.00  0.00     0.031 C 
ATOM     64  C   UNL A   1      44.441  32.302  28.654  1.00  0.00     0.037 A 
BRANCH  51  65
ATOM     65  C   UNL A   1      38.957  30.578  30.891  1.00  0.00     0.064 A 
ATOM     66  C   UNL A   1      38.867  30.531  32.290  1.00  0.00     0.173 A 
ATOM     67  C   UNL A   1      37.837  31.022  30.172  1.00  0.00     0.173 A 
ATOM     68  F   UNL A   1      39.906  30.096  33.018  1.00  0.00    -0.203 F 
ATOM     69  C   UNL A   1      37.690  30.890  32.942  1.00  0.00     0.198 A 
ATOM     70  C   UNL A   1      36.670  31.404  30.829  1.00  0.00     0.198 A 
ATOM     71  F   UNL A   1      37.875  31.086  28.833  1.00  0.00    -0.203 F 
ATOM     72  F   UNL A   1      37.610  30.793  34.277  1.00  0.00    -0.200 F 
ATOM     73  C   UNL A   1      36.596  31.331  32.212  1.00  0.00     0.200 A 
ATOM     74  F   UNL A   1      35.617  31.837  30.123  1.00  0.00    -0.200 F 
ATOM     75  F   UNL A   1      35.464  31.677  32.842  1.00  0.00    -0.200 F 
ENDBRANCH  51  65
BRANCH  52  76
ATOM     76  C   UNL A   1      47.091  27.529  26.046  1.00  0.00     0.064 A 
ATOM     77  C   UNL A   1      48.248  27.118  26.722  1.00  0.00     0.173 A 
ATOM     78  C   UNL A   1      47.130  27.565  24.645  1.00  0.00     0.173 A 
ATOM     79  F   UNL A   1      48.268  27.102  28.062  1.00  0.00    -0.203 F 
ATOM     80  C   UNL A   1      49.404  26.775  26.024  1.00  0.00     0.198 A 
ATOM     81  C   UNL A   1      48.278  27.196  23.947  1.00  0.00     0.198 A 
ATOM     82  F   UNL A   1      46.052  27.961  23.952  1.00  0.00    -0.203 F 
ATOM     83  F   UNL A   1      50.513  26.436  26.695  1.00  0.00    -0.200 F 
ATOM     84  C   UNL A   1      49.417  26.809  24.637  1.00  0.00     0.200 A 
ATOM     85  F   UNL A   1      48.283  27.225  22.608  1.00  0.00    -0.200 F 
ATOM     86  F   UNL A   1      50.530  26.483  23.967  1.00  0.00    -0.200 F 
ENDBRANCH  52  76
BRANCH  64  87
ATOM     87  C   UNL A   1      45.098  33.651  28.712  1.00  0.00     0.064 A 
ATOM     88  C   UNL A   1      45.993  33.991  29.736  1.00  0.00     0.173 A 
ATOM     89  C   UNL A   1      44.872  34.593  27.695  1.00  0.00     0.173 A 
ATOM     90  F   UNL A   1      46.232  33.131  30.737  1.00  0.00    -0.203 F 
ATOM     91  C   UNL A   1      46.625  35.232  29.750  1.00  0.00     0.198 A 
ATOM     92  C   UNL A   1      45.525  35.822  27.699  1.00  0.00     0.198 A 
ATOM     93  F   UNL A   1      44.030  34.312  26.690  1.00  0.00    -0.203 F 
ATOM     94  F   UNL A   1      47.451  35.551  30.756  1.00  0.00    -0.200 F 
ATOM     95  C   UNL A   1      46.398  36.143  28.728  1.00  0.00     0.200 A 
ATOM     96  F   UNL A   1      45.313  36.695  26.705  1.00  0.00    -0.200 F 
ATOM     97  F   UNL A   1      47.016  37.332  28.738  1.00  0.00    -0.200 F 
ENDBRANCH  64  87
ENDBRANCH  38  39
ENDBRANCH  31  33
ENDBRANCH  30  31
ENDBRANCH  29  30
ENDBRANCH  28  29
ENDBRANCH  27  28
ENDBRANCH  26  27
ENDBRANCH   1  26
TORSDOF 21
ENDMDL
