MODEL 1
REMARK VINA RESULT:     -15.1      0.000      0.000
REMARK SMILES Cc1ccccc1[C@@H]1[NH2+][C@H](C(=O)OCCOCCOCCOC(=O)c2ccc(-c3c4nc(c(-c5c(F)c(F)c(F)c(F)c5F)c5ccc([nH]5)c(-c5c(F)c(F)c(F)c(F)c5F)c5nc(c(-c6c(F)c(F)c(F)c(F)c6F)c6ccc3[nH]6)C=C5)C=C4)cc2)CC2=c3ccccc3=N[C@@H]21
REMARK SMILES IDX 18 1 17 2 16 3 15 4 14 5 13 6 11 7 12 8 10 9 8 10 9 11 97 12
REMARK SMILES IDX 89 15 96 16 88 17 90 18 95 19 91 20 94 21 92 22 93 23 7 24
REMARK SMILES IDX 1 25 2 26 3 27 4 28 6 29 5 30 19 31 20 32 21 33 22 34 23 35
REMARK SMILES IDX 24 36 25 37 26 38 87 39 27 40 86 41 28 42 29 43 30 44 80 45
REMARK SMILES IDX 31 46 85 47 79 48 81 49 32 50 84 51 78 52 77 53 33 55 65 56
REMARK SMILES IDX 45 57 64 58 46 59 49 60 63 61 82 62 47 63 48 64 62 66 83 67
REMARK SMILES IDX 50 68 34 69 35 70 43 71 36 72 37 73 41 74 44 75 38 76 39 77
REMARK SMILES IDX 42 78 40 79 66 80 67 81 75 82 68 83 69 84 73 85 76 86 70 87
REMARK SMILES IDX 71 88 74 89 72 90 51 91 52 92 60 93 53 94 54 95 58 96 61 97
REMARK SMILES IDX 55 98 56 99 59 100 57 101
REMARK H PARENT 9 13 9 14 81 54 49 65
REMARK Flexibility Score: inf
ROOT
ATOM      1  C   UNL A   1      36.022  32.012  29.635  1.00  0.00     0.188 C 
ENDROOT
BRANCH   1   2
ATOM      2  C   UNL A   1      35.708  30.630  29.086  1.00  0.00     0.188 C 
BRANCH   2   3
ATOM      3  O   UNL A   1      34.851  30.609  27.966  1.00  0.00    -0.376 OA
BRANCH   3   4
ATOM      4  C   UNL A   1      34.861  29.325  27.387  1.00  0.00     0.202 C 
BRANCH   4   5
ATOM      5  C   UNL A   1      34.062  29.089  26.084  1.00  0.00     0.261 C 
BRANCH   5   6
ATOM      6  O   UNL A   1      32.808  28.157  26.033  1.00  0.00    -0.459 OA
BRANCH   6   7
ATOM      7  C   UNL A   1      31.975  27.364  26.927  1.00  0.00     0.365 C 
ATOM      8  O   UNL A   1      31.423  27.680  27.980  1.00  0.00    -0.245 OA
BRANCH   7   9
ATOM      9  C   UNL A   1      31.373  26.280  26.197  1.00  0.00     0.298 C 
ATOM     10  C   UNL A   1      30.209  26.201  24.255  1.00  0.00     0.243 C 
ATOM     11  N   UNL A   1      31.465  26.702  24.810  1.00  0.00    -0.326 N 
ATOM     12  C   UNL A   1      30.647  24.561  24.170  1.00  0.00     0.196 C 
ATOM     13  H   UNL A   1      31.525  27.718  24.735  1.00  0.00     0.347 HD
ATOM     14  H   UNL A   1      32.296  26.355  24.330  1.00  0.00     0.347 HD
ATOM     15  C   UNL A   1      31.475  24.076  25.485  1.00  0.00    -0.024 C 
ATOM     16  N   UNL A   1      31.688  24.350  23.135  1.00  0.00    -0.270 NA
ATOM     17  C   UNL A   1      31.395  24.855  26.748  1.00  0.00     0.111 C 
ATOM     18  C   UNL A   1      32.685  23.589  25.206  1.00  0.00     0.002 A 
ATOM     19  C   UNL A   1      32.741  23.916  23.774  1.00  0.00     0.066 A 
ATOM     20  C   UNL A   1      33.875  23.532  26.035  1.00  0.00     0.010 A 
ATOM     21  C   UNL A   1      34.102  23.944  23.205  1.00  0.00     0.028 A 
ATOM     22  C   UNL A   1      35.066  23.762  25.463  1.00  0.00     0.001 A 
ATOM     23  C   UNL A   1      35.168  23.931  24.027  1.00  0.00     0.002 A 
BRANCH  10  24
ATOM     24  C   UNL A   1      29.221  27.626  23.798  1.00  0.00     0.015 A 
ATOM     25  C   UNL A   1      31.201  29.594  22.023  1.00  0.00     0.045 C 
ATOM     26  C   UNL A   1      29.598  29.097  23.011  1.00  0.00    -0.042 A 
ATOM     27  C   UNL A   1      28.577  29.965  22.616  1.00  0.00     0.004 A 
ATOM     28  C   UNL A   1      27.273  29.488  22.745  1.00  0.00     0.000 A 
ATOM     29  C   UNL A   1      27.864  27.292  23.816  1.00  0.00     0.010 A 
ATOM     30  C   UNL A   1      26.935  28.207  23.285  1.00  0.00     0.001 A 
ENDBRANCH  10  24
ENDBRANCH   7   9
ENDBRANCH   6   7
ENDBRANCH   5   6
ENDBRANCH   4   5
ENDBRANCH   3   4
ENDBRANCH   2   3
ENDBRANCH   1   2
BRANCH   1  31
ATOM     31  O   UNL A   1      35.857  33.833  29.625  1.00  0.00    -0.376 OA
BRANCH  31  32
ATOM     32  C   UNL A   1      34.518  34.891  28.773  1.00  0.00     0.202 C 
BRANCH  32  33
ATOM     33  C   UNL A   1      32.907  35.371  29.747  1.00  0.00     0.261 C 
BRANCH  33  34
ATOM     34  O   UNL A   1      33.002  34.957  31.543  1.00  0.00    -0.460 OA
BRANCH  34  35
ATOM     35  C   UNL A   1      33.848  34.077  32.614  1.00  0.00     0.338 C 
ATOM     36  O   UNL A   1      33.085  33.266  33.244  1.00  0.00    -0.246 OA
BRANCH  35  37
ATOM     37  C   UNL A   1      35.499  34.081  33.315  1.00  0.00     0.060 A 
ATOM     38  C   UNL A   1      36.711  34.741  32.924  1.00  0.00     0.016 A 
ATOM     39  C   UNL A   1      35.982  33.309  34.335  1.00  0.00     0.016 A 
ATOM     40  C   UNL A   1      38.251  34.212  33.112  1.00  0.00     0.010 A 
ATOM     41  C   UNL A   1      37.426  32.732  34.259  1.00  0.00     0.010 A 
ATOM     42  C   UNL A   1      38.667  32.979  33.609  1.00  0.00    -0.014 A 
BRANCH  42  43
ATOM     43  C   UNL A   1      39.988  31.839  33.047  1.00  0.00     0.031 A 
ATOM     44  C   UNL A   1      40.014  30.455  31.846  1.00  0.00     0.074 A 
ATOM     45  C   UNL A   1      41.273  32.263  33.320  1.00  0.00     0.049 A 
ATOM     46  N   UNL A   1      39.947  29.131  32.012  1.00  0.00    -0.248 NA
ATOM     47  C   UNL A   1      40.041  30.565  30.296  1.00  0.00     0.031 C 
ATOM     48  C   UNL A   1      42.593  31.839  32.791  1.00  0.00     0.029 A 
ATOM     49  N   UNL A   1      41.674  33.313  34.181  1.00  0.00    -0.354 N 
ATOM     50  C   UNL A   1      39.962  28.503  30.673  1.00  0.00     0.074 A 
ATOM     51  C   UNL A   1      39.439  29.489  29.810  1.00  0.00     0.031 C 
ATOM     52  C   UNL A   1      43.578  32.314  33.586  1.00  0.00     0.029 A 
ATOM     53  C   UNL A   1      42.921  32.941  34.712  1.00  0.00     0.049 A 
ATOM     54  H   UNL A   1      41.178  34.141  34.372  1.00  0.00     0.167 HD
ATOM     55  C   UNL A   1      41.048  27.872  30.055  1.00  0.00     0.037 A 
ATOM     56  C   UNL A   1      42.894  32.502  35.998  1.00  0.00     0.037 A 
ATOM     57  C   UNL A   1      42.238  28.206  30.797  1.00  0.00     0.049 A 
ATOM     58  C   UNL A   1      43.054  30.988  35.978  1.00  0.00     0.074 A 
ATOM     59  C   UNL A   1      43.390  28.939  30.580  1.00  0.00     0.029 A 
ATOM     60  N   UNL A   1      42.164  27.978  32.142  1.00  0.00    -0.354 N 
ATOM     61  N   UNL A   1      42.776  30.213  34.954  1.00  0.00    -0.248 NA
ATOM     62  C   UNL A   1      43.752  30.265  37.027  1.00  0.00     0.031 C 
ATOM     63  C   UNL A   1      44.053  29.055  31.845  1.00  0.00     0.029 A 
ATOM     64  C   UNL A   1      43.268  28.420  32.796  1.00  0.00     0.049 A 
ATOM     65  H   UNL A   1      41.399  27.545  32.584  1.00  0.00     0.167 HD
ATOM     66  C   UNL A   1      43.343  28.978  35.129  1.00  0.00     0.074 A 
ATOM     67  C   UNL A   1      43.919  29.060  36.454  1.00  0.00     0.031 C 
ATOM     68  C   UNL A   1      43.378  27.999  34.173  1.00  0.00     0.037 A 
BRANCH  55  69
ATOM     69  C   UNL A   1      41.133  27.369  28.565  1.00  0.00     0.064 A 
ATOM     70  C   UNL A   1      40.525  26.147  28.172  1.00  0.00     0.173 A 
ATOM     71  C   UNL A   1      41.752  28.051  27.485  1.00  0.00     0.173 A 
ATOM     72  F   UNL A   1      39.820  25.416  29.046  1.00  0.00    -0.203 F 
ATOM     73  C   UNL A   1      40.584  25.633  26.862  1.00  0.00     0.198 A 
ATOM     74  C   UNL A   1      41.850  27.515  26.182  1.00  0.00     0.198 A 
ATOM     75  F   UNL A   1      42.271  29.278  27.638  1.00  0.00    -0.203 F 
ATOM     76  F   UNL A   1      39.970  24.476  26.569  1.00  0.00    -0.200 F 
ATOM     77  C   UNL A   1      41.261  26.308  25.870  1.00  0.00     0.200 A 
ATOM     78  F   UNL A   1      42.516  28.188  25.228  1.00  0.00    -0.200 F 
ATOM     79  F   UNL A   1      41.321  25.816  24.623  1.00  0.00    -0.200 F 
ENDBRANCH  55  69
BRANCH  56  80
ATOM     80  C   UNL A   1      42.029  33.439  36.810  1.00  0.00     0.064 A 
ATOM     81  C   UNL A   1      42.583  34.731  37.059  1.00  0.00     0.173 A 
ATOM     82  C   UNL A   1      40.642  33.339  36.935  1.00  0.00     0.173 A 
ATOM     83  F   UNL A   1      43.912  34.912  36.981  1.00  0.00    -0.203 F 
ATOM     84  C   UNL A   1      41.794  35.872  37.211  1.00  0.00     0.198 A 
ATOM     85  C   UNL A   1      39.859  34.477  37.234  1.00  0.00     0.198 A 
ATOM     86  F   UNL A   1      40.010  32.207  36.594  1.00  0.00    -0.203 F 
ATOM     87  F   UNL A   1      42.351  37.091  37.169  1.00  0.00    -0.200 F 
ATOM     88  C   UNL A   1      40.429  35.743  37.303  1.00  0.00     0.200 A 
ATOM     89  F   UNL A   1      38.517  34.380  37.234  1.00  0.00    -0.200 F 
ATOM     90  F   UNL A   1      39.657  36.840  37.360  1.00  0.00    -0.200 F 
ENDBRANCH  56  80
BRANCH  68  91
ATOM     91  C   UNL A   1      43.424  26.484  34.412  1.00  0.00     0.064 A 
ATOM     92  C   UNL A   1      42.384  25.767  35.012  1.00  0.00     0.173 A 
ATOM     93  C   UNL A   1      44.457  25.659  33.858  1.00  0.00     0.173 A 
ATOM     94  F   UNL A   1      41.271  26.362  35.445  1.00  0.00    -0.203 F 
ATOM     95  C   UNL A   1      42.414  24.376  35.139  1.00  0.00     0.198 A 
ATOM     96  C   UNL A   1      44.416  24.267  33.876  1.00  0.00     0.198 A 
ATOM     97  F   UNL A   1      45.541  26.155  33.248  1.00  0.00    -0.203 F 
ATOM     98  F   UNL A   1      41.433  23.764  35.815  1.00  0.00    -0.200 F 
ATOM     99  C   UNL A   1      43.413  23.624  34.555  1.00  0.00     0.200 A 
ATOM    100  F   UNL A   1      45.353  23.563  33.222  1.00  0.00    -0.200 F 
ATOM    101  F   UNL A   1      43.402  22.289  34.639  1.00  0.00    -0.200 F 
ENDBRANCH  68  91
ENDBRANCH  42  43
ENDBRANCH  35  37
ENDBRANCH  34  35
ENDBRANCH  33  34
ENDBRANCH  32  33
ENDBRANCH  31  32
ENDBRANCH   1  31
TORSDOF 18
ENDMDL
MODEL 2
REMARK VINA RESULT:     -14.8      3.709      9.772
REMARK SMILES Cc1ccccc1[C@@H]1[NH2+][C@H](C(=O)OCCOCCOCCOC(=O)c2ccc(-c3c4nc(c(-c5c(F)c(F)c(F)c(F)c5F)c5ccc([nH]5)c(-c5c(F)c(F)c(F)c(F)c5F)c5nc(c(-c6c(F)c(F)c(F)c(F)c6F)c6ccc3[nH]6)C=C5)C=C4)cc2)CC2=c3ccccc3=N[C@@H]21
REMARK SMILES IDX 18 1 17 2 16 3 15 4 14 5 13 6 11 7 12 8 10 9 8 10 9 11 97 12
REMARK SMILES IDX 89 15 96 16 88 17 90 18 95 19 91 20 94 21 92 22 93 23 7 24
REMARK SMILES IDX 1 25 2 26 3 27 4 28 6 29 5 30 19 31 20 32 21 33 22 34 23 35
REMARK SMILES IDX 24 36 25 37 26 38 87 39 27 40 86 41 28 42 29 43 30 44 80 45
REMARK SMILES IDX 31 46 85 47 79 48 81 49 32 50 84 51 78 52 77 53 33 55 65 56
REMARK SMILES IDX 45 57 64 58 46 59 49 60 63 61 82 62 47 63 48 64 62 66 83 67
REMARK SMILES IDX 50 68 34 69 35 70 43 71 36 72 37 73 41 74 44 75 38 76 39 77
REMARK SMILES IDX 42 78 40 79 66 80 67 81 75 82 68 83 69 84 73 85 76 86 70 87
REMARK SMILES IDX 71 88 74 89 72 90 51 91 52 92 60 93 53 94 54 95 58 96 61 97
REMARK SMILES IDX 55 98 56 99 59 100 57 101
REMARK H PARENT 9 13 9 14 81 54 49 65
REMARK Flexibility Score: inf
ROOT
ATOM      1  C   UNL A   1      33.983  21.441  27.012  1.00  0.00     0.188 C 
ENDROOT
BRANCH   1   2
ATOM      2  C   UNL A   1      33.409  22.487  27.953  1.00  0.00     0.188 C 
BRANCH   2   3
ATOM      3  O   UNL A   1      32.112  22.938  27.632  1.00  0.00    -0.376 OA
BRANCH   3   4
ATOM      4  C   UNL A   1      32.194  24.180  26.970  1.00  0.00     0.202 C 
BRANCH   4   5
ATOM      5  C   UNL A   1      30.930  24.739  26.276  1.00  0.00     0.261 C 
BRANCH   5   6
ATOM      6  O   UNL A   1      30.472  26.223  26.452  1.00  0.00    -0.459 OA
BRANCH   6   7
ATOM      7  C   UNL A   1      30.973  27.488  26.971  1.00  0.00     0.365 C 
ATOM      8  O   UNL A   1      31.339  27.786  28.108  1.00  0.00    -0.245 OA
BRANCH   7   9
ATOM      9  C   UNL A   1      31.542  28.263  25.901  1.00  0.00     0.298 C 
ATOM     10  C   UNL A   1      33.480  29.422  25.711  1.00  0.00     0.243 C 
ATOM     11  N   UNL A   1      32.975  28.100  26.079  1.00  0.00    -0.326 N 
ATOM     12  C   UNL A   1      33.298  29.264  24.029  1.00  0.00     0.196 C 
ATOM     13  H   UNL A   1      33.204  27.872  27.047  1.00  0.00     0.347 HD
ATOM     14  H   UNL A   1      33.374  27.339  25.529  1.00  0.00     0.347 HD
ATOM     15  C   UNL A   1      31.903  28.530  23.627  1.00  0.00    -0.024 C 
ATOM     16  N   UNL A   1      34.260  28.273  23.489  1.00  0.00    -0.270 NA
ATOM     17  C   UNL A   1      30.777  28.479  24.596  1.00  0.00     0.111 C 
ATOM     18  C   UNL A   1      32.070  27.418  22.908  1.00  0.00     0.002 A 
ATOM     19  C   UNL A   1      33.534  27.308  22.994  1.00  0.00     0.066 A 
ATOM     20  C   UNL A   1      31.211  26.255  22.787  1.00  0.00     0.010 A 
ATOM     21  C   UNL A   1      34.064  25.961  22.707  1.00  0.00     0.028 A 
ATOM     22  C   UNL A   1      31.780  25.042  22.725  1.00  0.00     0.001 A 
ATOM     23  C   UNL A   1      33.221  24.912  22.647  1.00  0.00     0.002 A 
BRANCH  10  24
ATOM     24  C   UNL A   1      34.177  30.158  27.190  1.00  0.00     0.015 A 
ATOM     25  C   UNL A   1      37.276  29.022  27.415  1.00  0.00     0.045 C 
ATOM     26  C   UNL A   1      35.661  29.934  28.010  1.00  0.00    -0.042 A 
ATOM     27  C   UNL A   1      36.024  30.788  29.055  1.00  0.00     0.004 A 
ATOM     28  C   UNL A   1      35.207  31.899  29.259  1.00  0.00     0.000 A 
ATOM     29  C   UNL A   1      33.498  31.340  27.502  1.00  0.00     0.010 A 
ATOM     30  C   UNL A   1      34.025  32.178  28.502  1.00  0.00     0.001 A 
ENDBRANCH  10  24
ENDBRANCH   7   9
ENDBRANCH   6   7
ENDBRANCH   5   6
ENDBRANCH   4   5
ENDBRANCH   3   4
ENDBRANCH   2   3
ENDBRANCH   1   2
BRANCH   1  31
ATOM     31  O   UNL A   1      34.506  20.866  25.358  1.00  0.00    -0.376 OA
BRANCH  31  32
ATOM     32  C   UNL A   1      34.715  21.894  23.764  1.00  0.00     0.202 C 
BRANCH  32  33
ATOM     33  C   UNL A   1      36.310  22.974  23.518  1.00  0.00     0.261 C 
BRANCH  33  34
ATOM     34  O   UNL A   1      37.455  22.907  24.965  1.00  0.00    -0.460 OA
BRANCH  34  35
ATOM     35  C   UNL A   1      38.095  23.830  26.138  1.00  0.00     0.338 C 
ATOM     36  O   UNL A   1      37.178  24.382  26.839  1.00  0.00    -0.246 OA
BRANCH  35  37
ATOM     37  C   UNL A   1      39.712  24.467  26.582  1.00  0.00     0.060 A 
ATOM     38  C   UNL A   1      40.542  24.269  27.735  1.00  0.00     0.016 A 
ATOM     39  C   UNL A   1      40.448  25.421  25.935  1.00  0.00     0.016 A 
ATOM     40  C   UNL A   1      41.590  25.331  28.414  1.00  0.00     0.010 A 
ATOM     41  C   UNL A   1      41.248  26.477  26.754  1.00  0.00     0.010 A 
ATOM     42  C   UNL A   1      41.805  26.658  28.049  1.00  0.00    -0.014 A 
BRANCH  42  43
ATOM     43  C   UNL A   1      42.033  28.165  29.070  1.00  0.00     0.031 A 
ATOM     44  C   UNL A   1      40.859  29.367  29.800  1.00  0.00     0.074 A 
ATOM     45  C   UNL A   1      43.269  28.272  29.674  1.00  0.00     0.049 A 
ATOM     46  N   UNL A   1      40.463  30.579  29.401  1.00  0.00    -0.248 NA
ATOM     47  C   UNL A   1      39.980  29.162  31.065  1.00  0.00     0.031 C 
ATOM     48  C   UNL A   1      43.760  29.117  30.791  1.00  0.00     0.029 A 
ATOM     49  N   UNL A   1      44.434  27.513  29.406  1.00  0.00    -0.354 N 
ATOM     50  C   UNL A   1      39.452  31.067  30.365  1.00  0.00     0.074 A 
ATOM     51  C   UNL A   1      38.889  29.897  30.915  1.00  0.00     0.031 C 
ATOM     52  C   UNL A   1      45.111  29.103  30.816  1.00  0.00     0.029 A 
ATOM     53  C   UNL A   1      45.529  28.361  29.647  1.00  0.00     0.049 A 
ATOM     54  H   UNL A   1      44.471  26.576  29.108  1.00  0.00     0.167 HD
ATOM     55  C   UNL A   1      39.650  32.011  31.380  1.00  0.00     0.037 A 
ATOM     56  C   UNL A   1      46.137  28.851  28.535  1.00  0.00     0.037 A 
ATOM     57  C   UNL A   1      41.070  32.200  31.542  1.00  0.00     0.049 A 
ATOM     58  C   UNL A   1      45.727  30.309  28.382  1.00  0.00     0.074 A 
ATOM     59  C   UNL A   1      42.019  31.935  32.512  1.00  0.00     0.029 A 
ATOM     60  N   UNL A   1      41.751  32.482  30.391  1.00  0.00    -0.354 N 
ATOM     61  N   UNL A   1      44.646  30.848  28.900  1.00  0.00    -0.248 NA
ATOM     62  C   UNL A   1      46.619  31.315  27.832  1.00  0.00     0.031 C 
ATOM     63  C   UNL A   1      43.300  32.168  31.914  1.00  0.00     0.029 A 
ATOM     64  C   UNL A   1      43.092  32.533  30.592  1.00  0.00     0.049 A 
ATOM     65  H   UNL A   1      41.319  32.630  29.519  1.00  0.00     0.167 HD
ATOM     66  C   UNL A   1      44.743  32.214  28.879  1.00  0.00     0.074 A 
ATOM     67  C   UNL A   1      45.986  32.450  28.176  1.00  0.00     0.031 C 
ATOM     68  C   UNL A   1      43.860  33.063  29.490  1.00  0.00     0.037 A 
BRANCH  55  69
ATOM     69  C   UNL A   1      38.641  32.399  32.526  1.00  0.00     0.064 A 
ATOM     70  C   UNL A   1      37.640  33.383  32.313  1.00  0.00     0.173 A 
ATOM     71  C   UNL A   1      38.583  31.821  33.821  1.00  0.00     0.173 A 
ATOM     72  F   UNL A   1      37.492  33.970  31.118  1.00  0.00    -0.203 F 
ATOM     73  C   UNL A   1      36.723  33.789  33.303  1.00  0.00     0.198 A 
ATOM     74  C   UNL A   1      37.695  32.259  34.827  1.00  0.00     0.198 A 
ATOM     75  F   UNL A   1      39.369  30.790  34.163  1.00  0.00    -0.203 F 
ATOM     76  F   UNL A   1      35.797  34.716  33.016  1.00  0.00    -0.200 F 
ATOM     77  C   UNL A   1      36.761  33.240  34.566  1.00  0.00     0.200 A 
ATOM     78  F   UNL A   1      37.748  31.712  36.053  1.00  0.00    -0.200 F 
ATOM     79  F   UNL A   1      35.892  33.630  35.510  1.00  0.00    -0.200 F 
ENDBRANCH  55  69
BRANCH  56  80
ATOM     80  C   UNL A   1      46.320  27.720  27.547  1.00  0.00     0.064 A 
ATOM     81  C   UNL A   1      47.308  26.751  27.894  1.00  0.00     0.173 A 
ATOM     82  C   UNL A   1      45.359  27.304  26.622  1.00  0.00     0.173 A 
ATOM     83  F   UNL A   1      48.282  27.074  28.761  1.00  0.00    -0.203 F 
ATOM     84  C   UNL A   1      47.217  25.412  27.510  1.00  0.00     0.198 A 
ATOM     85  C   UNL A   1      45.360  25.982  26.124  1.00  0.00     0.198 A 
ATOM     86  F   UNL A   1      44.314  28.091  26.330  1.00  0.00    -0.203 F 
ATOM     87  F   UNL A   1      48.008  24.490  28.078  1.00  0.00    -0.200 F 
ATOM     88  C   UNL A   1      46.243  25.029  26.620  1.00  0.00     0.200 A 
ATOM     89  F   UNL A   1      44.358  25.570  25.327  1.00  0.00    -0.200 F 
ATOM     90  F   UNL A   1      46.092  23.730  26.313  1.00  0.00    -0.200 F 
ENDBRANCH  56  80
BRANCH  68  91
ATOM     91  C   UNL A   1      43.524  34.499  29.066  1.00  0.00     0.064 A 
ATOM     92  C   UNL A   1      43.638  35.601  29.919  1.00  0.00     0.173 A 
ATOM     93  C   UNL A   1      43.257  34.845  27.701  1.00  0.00     0.173 A 
ATOM     94  F   UNL A   1      44.032  35.476  31.189  1.00  0.00    -0.203 F 
ATOM     95  C   UNL A   1      43.411  36.908  29.483  1.00  0.00     0.198 A 
ATOM     96  C   UNL A   1      43.158  36.158  27.249  1.00  0.00     0.198 A 
ATOM     97  F   UNL A   1      43.106  33.932  26.731  1.00  0.00    -0.203 F 
ATOM     98  F   UNL A   1      43.437  37.905  30.377  1.00  0.00    -0.200 F 
ATOM     99  C   UNL A   1      43.194  37.192  28.149  1.00  0.00     0.200 A 
ATOM    100  F   UNL A   1      43.038  36.406  25.935  1.00  0.00    -0.200 F 
ATOM    101  F   UNL A   1      43.029  38.454  27.737  1.00  0.00    -0.200 F 
ENDBRANCH  68  91
ENDBRANCH  42  43
ENDBRANCH  35  37
ENDBRANCH  34  35
ENDBRANCH  33  34
ENDBRANCH  32  33
ENDBRANCH  31  32
ENDBRANCH   1  31
TORSDOF 18
ENDMDL
MODEL 3
REMARK VINA RESULT:     -14.6      4.174     10.036
REMARK SMILES Cc1ccccc1[C@@H]1[NH2+][C@H](C(=O)OCCOCCOCCOC(=O)c2ccc(-c3c4nc(c(-c5c(F)c(F)c(F)c(F)c5F)c5ccc([nH]5)c(-c5c(F)c(F)c(F)c(F)c5F)c5nc(c(-c6c(F)c(F)c(F)c(F)c6F)c6ccc3[nH]6)C=C5)C=C4)cc2)CC2=c3ccccc3=N[C@@H]21
REMARK SMILES IDX 18 1 17 2 16 3 15 4 14 5 13 6 11 7 12 8 10 9 8 10 9 11 97 12
REMARK SMILES IDX 89 15 96 16 88 17 90 18 95 19 91 20 94 21 92 22 93 23 7 24
REMARK SMILES IDX 1 25 2 26 3 27 4 28 6 29 5 30 19 31 20 32 21 33 22 34 23 35
REMARK SMILES IDX 24 36 25 37 26 38 87 39 27 40 86 41 28 42 29 43 30 44 80 45
REMARK SMILES IDX 31 46 85 47 79 48 81 49 32 50 84 51 78 52 77 53 33 55 65 56
REMARK SMILES IDX 45 57 64 58 46 59 49 60 63 61 82 62 47 63 48 64 62 66 83 67
REMARK SMILES IDX 50 68 34 69 35 70 43 71 36 72 37 73 41 74 44 75 38 76 39 77
REMARK SMILES IDX 42 78 40 79 66 80 67 81 75 82 68 83 69 84 73 85 76 86 70 87
REMARK SMILES IDX 71 88 74 89 72 90 51 91 52 92 60 93 53 94 54 95 58 96 61 97
REMARK SMILES IDX 55 98 56 99 59 100 57 101
REMARK H PARENT 9 13 9 14 81 54 49 65
REMARK Flexibility Score: inf
ROOT
ATOM      1  C   UNL A   1      33.554  20.762  25.668  1.00  0.00     0.188 C 
ENDROOT
BRANCH   1   2
ATOM      2  C   UNL A   1      32.477  21.832  25.741  1.00  0.00     0.188 C 
BRANCH   2   3
ATOM      3  O   UNL A   1      32.785  23.039  25.079  1.00  0.00    -0.376 OA
BRANCH   3   4
ATOM      4  C   UNL A   1      32.946  24.070  26.026  1.00  0.00     0.202 C 
BRANCH   4   5
ATOM      5  C   UNL A   1      31.702  24.583  26.788  1.00  0.00     0.261 C 
BRANCH   5   6
ATOM      6  O   UNL A   1      31.030  25.955  26.455  1.00  0.00    -0.459 OA
BRANCH   6   7
ATOM      7  C   UNL A   1      31.052  27.342  26.899  1.00  0.00     0.365 C 
ATOM      8  O   UNL A   1      31.116  27.805  28.038  1.00  0.00    -0.245 OA
BRANCH   7   9
ATOM      9  C   UNL A   1      31.550  28.184  25.845  1.00  0.00     0.298 C 
ATOM     10  C   UNL A   1      33.431  29.430  25.639  1.00  0.00     0.243 C 
ATOM     11  N   UNL A   1      32.993  28.074  25.966  1.00  0.00    -0.326 N 
ATOM     12  C   UNL A   1      33.195  29.336  23.959  1.00  0.00     0.196 C 
ATOM     13  H   UNL A   1      33.267  27.814  26.915  1.00  0.00     0.347 HD
ATOM     14  H   UNL A   1      33.402  27.354  25.370  1.00  0.00     0.347 HD
ATOM     15  C   UNL A   1      31.816  28.562  23.573  1.00  0.00    -0.024 C 
ATOM     16  N   UNL A   1      34.175  28.410  23.343  1.00  0.00    -0.270 NA
ATOM     17  C   UNL A   1      30.730  28.423  24.578  1.00  0.00     0.111 C 
ATOM     18  C   UNL A   1      32.002  27.489  22.802  1.00  0.00     0.002 A 
ATOM     19  C   UNL A   1      33.471  27.437  22.831  1.00  0.00     0.066 A 
ATOM     20  C   UNL A   1      31.187  26.297  22.660  1.00  0.00     0.010 A 
ATOM     21  C   UNL A   1      34.043  26.126  22.467  1.00  0.00     0.028 A 
ATOM     22  C   UNL A   1      31.801  25.113  22.525  1.00  0.00     0.001 A 
ATOM     23  C   UNL A   1      33.242  25.047  22.391  1.00  0.00     0.002 A 
BRANCH  10  24
ATOM     24  C   UNL A   1      34.151  30.131  27.123  1.00  0.00     0.015 A 
ATOM     25  C   UNL A   1      37.257  29.000  27.267  1.00  0.00     0.045 C 
ATOM     26  C   UNL A   1      35.650  29.891  27.913  1.00  0.00    -0.042 A 
ATOM     27  C   UNL A   1      36.028  30.721  28.972  1.00  0.00     0.004 A 
ATOM     28  C   UNL A   1      35.211  31.823  29.218  1.00  0.00     0.000 A 
ATOM     29  C   UNL A   1      33.474  31.302  27.476  1.00  0.00     0.010 A 
ATOM     30  C   UNL A   1      34.016  32.118  28.488  1.00  0.00     0.001 A 
ENDBRANCH  10  24
ENDBRANCH   7   9
ENDBRANCH   6   7
ENDBRANCH   5   6
ENDBRANCH   4   5
ENDBRANCH   3   4
ENDBRANCH   2   3
ENDBRANCH   1   2
BRANCH   1  31
ATOM     31  O   UNL A   1      34.995  19.969  24.872  1.00  0.00    -0.376 OA
BRANCH  31  32
ATOM     32  C   UNL A   1      36.778  20.634  24.730  1.00  0.00     0.202 C 
BRANCH  32  33
ATOM     33  C   UNL A   1      37.145  22.496  25.144  1.00  0.00     0.261 C 
BRANCH  33  34
ATOM     34  O   UNL A   1      38.491  22.704  26.390  1.00  0.00    -0.460 OA
BRANCH  34  35
ATOM     35  C   UNL A   1      40.047  22.334  26.672  1.00  0.00     0.338 C 
ATOM     36  O   UNL A   1      40.228  21.067  26.646  1.00  0.00    -0.246 OA
BRANCH  35  37
ATOM     37  C   UNL A   1      41.526  23.182  27.228  1.00  0.00     0.060 A 
ATOM     38  C   UNL A   1      42.162  23.270  28.511  1.00  0.00     0.016 A 
ATOM     39  C   UNL A   1      42.302  24.066  26.532  1.00  0.00     0.016 A 
ATOM     40  C   UNL A   1      43.017  24.525  29.127  1.00  0.00     0.010 A 
ATOM     41  C   UNL A   1      42.890  25.319  27.246  1.00  0.00     0.010 A 
ATOM     42  C   UNL A   1      43.211  25.779  28.552  1.00  0.00    -0.014 A 
BRANCH  42  43
ATOM     43  C   UNL A   1      43.176  27.459  29.288  1.00  0.00     0.031 A 
ATOM     44  C   UNL A   1      41.814  28.616  29.692  1.00  0.00     0.074 A 
ATOM     45  C   UNL A   1      44.329  27.823  29.952  1.00  0.00     0.049 A 
ATOM     46  N   UNL A   1      41.328  29.679  29.046  1.00  0.00    -0.248 NA
ATOM     47  C   UNL A   1      40.846  28.530  30.904  1.00  0.00     0.031 C 
ATOM     48  C   UNL A   1      44.616  28.907  30.925  1.00  0.00     0.029 A 
ATOM     49  N   UNL A   1      45.590  27.180  29.916  1.00  0.00    -0.354 N 
ATOM     50  C   UNL A   1      40.183  30.201  29.824  1.00  0.00     0.074 A 
ATOM     51  C   UNL A   1      39.700  29.086  30.539  1.00  0.00     0.031 C 
ATOM     52  C   UNL A   1      45.953  29.065  31.051  1.00  0.00     0.029 A 
ATOM     53  C   UNL A   1      46.559  28.186  30.075  1.00  0.00     0.049 A 
ATOM     54  H   UNL A   1      45.757  26.217  29.802  1.00  0.00     0.167 HD
ATOM     55  C   UNL A   1      40.179  31.326  30.657  1.00  0.00     0.037 A 
ATOM     56  C   UNL A   1      47.213  28.543  28.940  1.00  0.00     0.037 A 
ATOM     57  C   UNL A   1      41.549  31.716  30.885  1.00  0.00     0.049 A 
ATOM     58  C   UNL A   1      46.664  29.889  28.488  1.00  0.00     0.074 A 
ATOM     59  C   UNL A   1      42.424  31.747  31.956  1.00  0.00     0.029 A 
ATOM     60  N   UNL A   1      42.302  31.872  29.756  1.00  0.00    -0.354 N 
ATOM     61  N   UNL A   1      45.486  30.372  28.815  1.00  0.00    -0.248 NA
ATOM     62  C   UNL A   1      47.490  30.885  27.828  1.00  0.00     0.031 C 
ATOM     63  C   UNL A   1      43.723  32.027  31.421  1.00  0.00     0.029 A 
ATOM     64  C   UNL A   1      43.605  32.124  30.043  1.00  0.00     0.049 A 
ATOM     65  H   UNL A   1      41.942  31.809  28.842  1.00  0.00     0.167 HD
ATOM     66  C   UNL A   1      45.436  31.715  28.546  1.00  0.00     0.074 A 
ATOM     67  C   UNL A   1      46.708  31.975  27.906  1.00  0.00     0.031 C 
ATOM     68  C   UNL A   1      44.411  32.542  28.921  1.00  0.00     0.037 A 
BRANCH  55  69
ATOM     69  C   UNL A   1      39.030  31.783  31.632  1.00  0.00     0.064 A 
ATOM     70  C   UNL A   1      38.073  32.751  31.228  1.00  0.00     0.173 A 
ATOM     71  C   UNL A   1      38.795  31.284  32.940  1.00  0.00     0.173 A 
ATOM     72  F   UNL A   1      38.091  33.264  29.991  1.00  0.00    -0.203 F 
ATOM     73  C   UNL A   1      37.036  33.216  32.061  1.00  0.00     0.198 A 
ATOM     74  C   UNL A   1      37.783  31.782  33.790  1.00  0.00     0.198 A 
ATOM     75  F   UNL A   1      39.521  30.276  33.446  1.00  0.00    -0.203 F 
ATOM     76  F   UNL A   1      36.163  34.123  31.598  1.00  0.00    -0.200 F 
ATOM     77  C   UNL A   1      36.901  32.744  33.348  1.00  0.00     0.200 A 
ATOM     78  F   UNL A   1      37.668  31.310  35.043  1.00  0.00    -0.200 F 
ATOM     79  F   UNL A   1      35.916  33.190  34.143  1.00  0.00    -0.200 F 
ENDBRANCH  55  69
BRANCH  56  80
ATOM     80  C   UNL A   1      47.611  27.288  28.196  1.00  0.00     0.064 A 
ATOM     81  C   UNL A   1      46.902  27.036  26.983  1.00  0.00     0.173 A 
ATOM     82  C   UNL A   1      48.842  26.640  28.325  1.00  0.00     0.173 A 
ATOM     83  F   UNL A   1      45.699  27.603  26.786  1.00  0.00    -0.203 F 
ATOM     84  C   UNL A   1      47.472  26.364  25.902  1.00  0.00     0.198 A 
ATOM     85  C   UNL A   1      49.350  25.839  27.278  1.00  0.00     0.198 A 
ATOM     86  F   UNL A   1      49.646  26.912  29.363  1.00  0.00    -0.203 F 
ATOM     87  F   UNL A   1      46.880  26.388  24.700  1.00  0.00    -0.200 F 
ATOM     88  C   UNL A   1      48.698  25.760  26.053  1.00  0.00     0.200 A 
ATOM     89  F   UNL A   1      50.588  25.321  27.378  1.00  0.00    -0.200 F 
ATOM     90  F   UNL A   1      49.294  25.187  24.995  1.00  0.00    -0.200 F 
ENDBRANCH  56  80
BRANCH  68  91
ATOM     91  C   UNL A   1      43.964  33.828  28.213  1.00  0.00     0.064 A 
ATOM     92  C   UNL A   1      43.644  33.887  26.853  1.00  0.00     0.173 A 
ATOM     93  C   UNL A   1      43.651  35.024  28.937  1.00  0.00     0.173 A 
ATOM     94  F   UNL A   1      43.728  32.818  26.058  1.00  0.00    -0.203 F 
ATOM     95  C   UNL A   1      43.156  35.049  26.251  1.00  0.00     0.198 A 
ATOM     96  C   UNL A   1      43.046  36.135  28.355  1.00  0.00     0.198 A 
ATOM     97  F   UNL A   1      43.888  35.169  30.248  1.00  0.00    -0.203 F 
ATOM     98  F   UNL A   1      42.968  35.065  24.925  1.00  0.00    -0.200 F 
ATOM     99  C   UNL A   1      42.836  36.164  27.000  1.00  0.00     0.200 A 
ATOM    100  F   UNL A   1      42.663  37.167  29.123  1.00  0.00    -0.200 F 
ATOM    101  F   UNL A   1      42.320  37.253  26.419  1.00  0.00    -0.200 F 
ENDBRANCH  68  91
ENDBRANCH  42  43
ENDBRANCH  35  37
ENDBRANCH  34  35
ENDBRANCH  33  34
ENDBRANCH  32  33
ENDBRANCH  31  32
ENDBRANCH   1  31
TORSDOF 18
ENDMDL
