MODEL 1
REMARK VINA RESULT:     -11.2      0.000      0.000
REMARK SMILES O=C(Nc1ccc2c(c1)OCO2)N[C@H]1C=C[C@@H](C(=O)OCCOCCOCCOC(=O)c2ccc(-c3c4nc(c(-c5c(F)c(F)c(F)c(F)c5F)c5ccc([nH]5)c(-c5c(F)c(F)c(F)c(F)c5F)c5nc(c(-c6c(F)c(F)c(F)c(F)c6F)c6ccc3[nH]6)C=C5)C=C4)cc2)C1
REMARK SMILES IDX 24 1 23 2 22 3 21 4 20 5 18 6 19 7 17 8 14 9 15 10 95 11
REMARK SMILES IDX 16 12 13 13 1 14 2 15 3 16 4 19 5 20 9 21 6 22 8 23 7 24
REMARK SMILES IDX 10 25 12 26 11 27 25 28 26 29 27 30 28 31 29 32 30 33 31 34
REMARK SMILES IDX 32 35 33 36 94 37 34 38 93 39 35 40 36 41 37 42 87 43 38 44
REMARK SMILES IDX 92 45 86 46 88 47 39 48 91 49 85 50 84 51 40 53 72 54 52 55
REMARK SMILES IDX 71 56 53 57 56 58 70 59 89 60 54 61 55 62 69 64 90 65 57 66
REMARK SMILES IDX 41 67 42 68 50 69 43 70 44 71 48 72 51 73 45 74 46 75 49 76
REMARK SMILES IDX 47 77 73 78 74 79 82 80 75 81 76 82 80 83 83 84 77 85 78 86
REMARK SMILES IDX 81 87 79 88 58 89 59 90 67 91 60 92 61 93 65 94 68 95 62 96
REMARK SMILES IDX 63 97 66 98 64 99
REMARK H PARENT 3 17 13 18 88 52 56 63
REMARK Flexibility Score: inf
ROOT
ATOM      1  C   UNL A   1      39.694  24.088  27.045  1.00  0.00     0.188 C 
ENDROOT
BRANCH   1   2
ATOM      2  O   UNL A   1      38.632  24.452  26.171  1.00  0.00    -0.376 OA
BRANCH   2   3
ATOM      3  C   UNL A   1      37.471  23.626  26.121  1.00  0.00     0.202 C 
BRANCH   3   4
ATOM      4  C   UNL A   1      37.134  22.925  24.793  1.00  0.00     0.261 C 
BRANCH   4   5
ATOM      5  O   UNL A   1      35.765  22.480  24.677  1.00  0.00    -0.463 OA
BRANCH   5   6
ATOM      6  C   UNL A   1      35.536  21.168  24.954  1.00  0.00     0.312 C 
ATOM      7  O   UNL A   1      36.413  20.308  24.955  1.00  0.00    -0.252 OA
BRANCH   6   8
ATOM      8  C   UNL A   1      34.088  20.842  25.351  1.00  0.00     0.124 C 
ATOM      9  C   UNL A   1      31.894  21.887  25.788  1.00  0.00     0.107 C 
ATOM     10  C   UNL A   1      32.040  21.483  24.364  1.00  0.00    -0.006 C 
ATOM     11  C   UNL A   1      33.330  21.767  26.310  1.00  0.00     0.048 C 
ATOM     12  C   UNL A   1      33.216  20.889  24.129  1.00  0.00    -0.014 C 
BRANCH   9  13
ATOM     13  N   UNL A   1      31.420  23.241  25.886  1.00  0.00    -0.332 N 
ATOM     14  O   UNL A   1      29.737  22.847  27.372  1.00  0.00    -0.248 OA
ATOM     15  C   UNL A   1      30.376  23.626  26.671  1.00  0.00     0.319 C 
ATOM     16  N   UNL A   1      30.138  24.972  26.746  1.00  0.00    -0.308 N 
ATOM     17  H   UNL A   1      29.559  25.246  27.493  1.00  0.00     0.171 HD
ATOM     18  H   UNL A   1      31.878  23.932  25.354  1.00  0.00     0.165 HD
BRANCH  16  19
ATOM     19  C   UNL A   1      30.587  26.027  25.931  1.00  0.00     0.046 A 
ATOM     20  C   UNL A   1      31.591  26.932  26.337  1.00  0.00     0.030 A 
ATOM     21  C   UNL A   1      30.008  26.158  24.664  1.00  0.00     0.076 A 
ATOM     22  C   UNL A   1      31.955  28.016  25.533  1.00  0.00     0.053 A 
ATOM     23  C   UNL A   1      30.375  27.246  23.897  1.00  0.00     0.167 A 
ATOM     24  C   UNL A   1      31.313  28.155  24.324  1.00  0.00     0.165 A 
ATOM     25  O   UNL A   1      29.864  27.566  22.676  1.00  0.00    -0.454 OA
ATOM     26  O   UNL A   1      31.511  29.159  23.431  1.00  0.00    -0.454 OA
ATOM     27  C   UNL A   1      30.555  28.804  22.410  1.00  0.00     0.468 C 
ENDBRANCH  16  19
ENDBRANCH   9  13
ENDBRANCH   6   8
ENDBRANCH   5   6
ENDBRANCH   4   5
ENDBRANCH   3   4
ENDBRANCH   2   3
ENDBRANCH   1   2
BRANCH   1  28
ATOM     28  C   UNL A   1      40.103  22.608  27.139  1.00  0.00     0.188 C 
BRANCH  28  29
ATOM     29  O   UNL A   1      40.673  22.080  25.965  1.00  0.00    -0.376 OA
BRANCH  29  30
ATOM     30  C   UNL A   1      41.961  21.500  26.054  1.00  0.00     0.202 C 
BRANCH  30  31
ATOM     31  C   UNL A   1      43.116  22.129  25.256  1.00  0.00     0.261 C 
BRANCH  31  32
ATOM     32  O   UNL A   1      43.035  23.542  25.005  1.00  0.00    -0.460 OA
BRANCH  32  33
ATOM     33  C   UNL A   1      44.145  24.279  25.252  1.00  0.00     0.338 C 
ATOM     34  O   UNL A   1      45.135  24.372  24.556  1.00  0.00    -0.246 OA
BRANCH  33  35
ATOM     35  C   UNL A   1      43.850  25.148  26.417  1.00  0.00     0.060 A 
ATOM     36  C   UNL A   1      43.236  24.587  27.546  1.00  0.00     0.016 A 
ATOM     37  C   UNL A   1      44.189  26.502  26.400  1.00  0.00     0.016 A 
ATOM     38  C   UNL A   1      42.933  25.387  28.651  1.00  0.00     0.010 A 
ATOM     39  C   UNL A   1      43.864  27.307  27.497  1.00  0.00     0.010 A 
ATOM     40  C   UNL A   1      43.209  26.759  28.615  1.00  0.00    -0.014 A 
BRANCH  40  41
ATOM     41  C   UNL A   1      42.638  27.659  29.649  1.00  0.00     0.031 A 
ATOM     42  C   UNL A   1      43.330  27.741  30.982  1.00  0.00     0.074 A 
ATOM     43  C   UNL A   1      41.534  28.391  29.419  1.00  0.00     0.049 A 
ATOM     44  N   UNL A   1      42.982  28.386  32.066  1.00  0.00    -0.248 NA
ATOM     45  C   UNL A   1      44.587  26.986  31.107  1.00  0.00     0.031 C 
ATOM     46  C   UNL A   1      40.796  28.436  28.160  1.00  0.00     0.029 A 
ATOM     47  N   UNL A   1      40.833  29.228  30.252  1.00  0.00    -0.354 N 
ATOM     48  C   UNL A   1      43.969  28.107  33.002  1.00  0.00     0.074 A 
ATOM     49  C   UNL A   1      44.915  27.213  32.370  1.00  0.00     0.031 C 
ATOM     50  C   UNL A   1      39.732  29.247  28.308  1.00  0.00     0.029 A 
ATOM     51  C   UNL A   1      39.696  29.746  29.682  1.00  0.00     0.049 A 
ATOM     52  H   UNL A   1      41.119  29.438  31.171  1.00  0.00     0.167 HD
ATOM     53  C   UNL A   1      44.083  28.561  34.273  1.00  0.00     0.037 A 
ATOM     54  C   UNL A   1      38.725  30.511  30.221  1.00  0.00     0.037 A 
ATOM     55  C   UNL A   1      43.140  29.446  34.903  1.00  0.00     0.049 A 
ATOM     56  C   UNL A   1      38.831  30.940  31.665  1.00  0.00     0.074 A 
ATOM     57  C   UNL A   1      43.173  29.973  36.182  1.00  0.00     0.029 A 
ATOM     58  N   UNL A   1      41.987  29.929  34.301  1.00  0.00    -0.354 N 
ATOM     59  N   UNL A   1      39.777  30.691  32.537  1.00  0.00    -0.248 NA
ATOM     60  C   UNL A   1      37.731  31.760  32.195  1.00  0.00     0.031 C 
ATOM     61  C   UNL A   1      42.012  30.728  36.375  1.00  0.00     0.029 A 
ATOM     62  C   UNL A   1      41.287  30.725  35.194  1.00  0.00     0.049 A 
ATOM     63  H   UNL A   1      41.707  29.733  33.379  1.00  0.00     0.167 HD
ATOM     64  C   UNL A   1      39.406  31.349  33.705  1.00  0.00     0.074 A 
ATOM     65  C   UNL A   1      38.152  32.017  33.426  1.00  0.00     0.031 C 
ATOM     66  C   UNL A   1      40.045  31.395  34.900  1.00  0.00     0.037 A 
BRANCH  53  67
ATOM     67  C   UNL A   1      45.256  28.080  35.076  1.00  0.00     0.064 A 
ATOM     68  C   UNL A   1      46.468  28.784  35.110  1.00  0.00     0.173 A 
ATOM     69  C   UNL A   1      45.154  26.910  35.845  1.00  0.00     0.173 A 
ATOM     70  F   UNL A   1      46.623  29.899  34.380  1.00  0.00    -0.203 F 
ATOM     71  C   UNL A   1      47.545  28.320  35.861  1.00  0.00     0.198 A 
ATOM     72  C   UNL A   1      46.223  26.466  36.619  1.00  0.00     0.198 A 
ATOM     73  F   UNL A   1      44.017  26.199  35.849  1.00  0.00    -0.203 F 
ATOM     74  F   UNL A   1      48.711  28.981  35.838  1.00  0.00    -0.200 F 
ATOM     75  C   UNL A   1      47.419  27.167  36.621  1.00  0.00     0.200 A 
ATOM     76  F   UNL A   1      46.094  25.358  37.363  1.00  0.00    -0.200 F 
ATOM     77  F   UNL A   1      48.454  26.726  37.349  1.00  0.00    -0.200 F 
ENDBRANCH  53  67
BRANCH  54  78
ATOM     78  C   UNL A   1      37.550  30.911  29.401  1.00  0.00     0.064 A 
ATOM     79  C   UNL A   1      37.413  32.222  28.921  1.00  0.00     0.173 A 
ATOM     80  C   UNL A   1      36.523  30.001  29.108  1.00  0.00     0.173 A 
ATOM     81  F   UNL A   1      38.352  33.138  29.200  1.00  0.00    -0.203 F 
ATOM     82  C   UNL A   1      36.286  32.611  28.199  1.00  0.00     0.198 A 
ATOM     83  C   UNL A   1      35.412  30.383  28.359  1.00  0.00     0.198 A 
ATOM     84  F   UNL A   1      36.601  28.737  29.549  1.00  0.00    -0.203 F 
ATOM     85  F   UNL A   1      36.156  33.884  27.800  1.00  0.00    -0.200 F 
ATOM     86  C   UNL A   1      35.290  31.690  27.913  1.00  0.00     0.200 A 
ATOM     87  F   UNL A   1      34.456  29.488  28.078  1.00  0.00    -0.200 F 
ATOM     88  F   UNL A   1      34.207  32.065  27.220  1.00  0.00    -0.200 F 
ENDBRANCH  54  78
BRANCH  66  89
ATOM     89  C   UNL A   1      39.432  32.235  35.985  1.00  0.00     0.064 A 
ATOM     90  C   UNL A   1      38.438  31.733  36.839  1.00  0.00     0.173 A 
ATOM     91  C   UNL A   1      39.879  33.548  36.201  1.00  0.00     0.173 A 
ATOM     92  F   UNL A   1      37.967  30.489  36.668  1.00  0.00    -0.203 F 
ATOM     93  C   UNL A   1      37.897  32.524  37.850  1.00  0.00     0.198 A 
ATOM     94  C   UNL A   1      39.359  34.325  37.234  1.00  0.00     0.198 A 
ATOM     95  F   UNL A   1      40.835  34.075  35.421  1.00  0.00    -0.203 F 
ATOM     96  F   UNL A   1      36.913  32.040  38.621  1.00  0.00    -0.200 F 
ATOM     97  C   UNL A   1      38.362  33.814  38.052  1.00  0.00     0.200 A 
ATOM     98  F   UNL A   1      39.824  35.565  37.439  1.00  0.00    -0.200 F 
ATOM     99  F   UNL A   1      37.846  34.570  39.031  1.00  0.00    -0.200 F 
ENDBRANCH  66  89
ENDBRANCH  40  41
ENDBRANCH  33  35
ENDBRANCH  32  33
ENDBRANCH  31  32
ENDBRANCH  30  31
ENDBRANCH  29  30
ENDBRANCH  28  29
ENDBRANCH   1  28
TORSDOF 19
ENDMDL
MODEL 2
REMARK VINA RESULT:     -11.0      4.749      7.190
REMARK SMILES O=C(Nc1ccc2c(c1)OCO2)N[C@H]1C=C[C@@H](C(=O)OCCOCCOCCOC(=O)c2ccc(-c3c4nc(c(-c5c(F)c(F)c(F)c(F)c5F)c5ccc([nH]5)c(-c5c(F)c(F)c(F)c(F)c5F)c5nc(c(-c6c(F)c(F)c(F)c(F)c6F)c6ccc3[nH]6)C=C5)C=C4)cc2)C1
REMARK SMILES IDX 24 1 23 2 22 3 21 4 20 5 18 6 19 7 17 8 14 9 15 10 95 11
REMARK SMILES IDX 16 12 13 13 1 14 2 15 3 16 4 19 5 20 9 21 6 22 8 23 7 24
REMARK SMILES IDX 10 25 12 26 11 27 25 28 26 29 27 30 28 31 29 32 30 33 31 34
REMARK SMILES IDX 32 35 33 36 94 37 34 38 93 39 35 40 36 41 37 42 87 43 38 44
REMARK SMILES IDX 92 45 86 46 88 47 39 48 91 49 85 50 84 51 40 53 72 54 52 55
REMARK SMILES IDX 71 56 53 57 56 58 70 59 89 60 54 61 55 62 69 64 90 65 57 66
REMARK SMILES IDX 41 67 42 68 50 69 43 70 44 71 48 72 51 73 45 74 46 75 49 76
REMARK SMILES IDX 47 77 73 78 74 79 82 80 75 81 76 82 80 83 83 84 77 85 78 86
REMARK SMILES IDX 81 87 79 88 58 89 59 90 67 91 60 92 61 93 65 94 68 95 62 96
REMARK SMILES IDX 63 97 66 98 64 99
REMARK H PARENT 3 17 13 18 88 52 56 63
REMARK Flexibility Score: inf
ROOT
ATOM      1  C   UNL A   1      40.691  22.116  26.209  1.00  0.00     0.188 C 
ENDROOT
BRANCH   1   2
ATOM      2  O   UNL A   1      39.517  22.598  26.853  1.00  0.00    -0.376 OA
BRANCH   2   3
ATOM      3  C   UNL A   1      38.285  22.582  26.135  1.00  0.00     0.202 C 
BRANCH   3   4
ATOM      4  C   UNL A   1      38.069  21.478  25.085  1.00  0.00     0.261 C 
BRANCH   4   5
ATOM      5  O   UNL A   1      36.803  20.791  25.184  1.00  0.00    -0.463 OA
BRANCH   5   6
ATOM      6  C   UNL A   1      35.707  21.494  24.788  1.00  0.00     0.312 C 
ATOM      7  O   UNL A   1      35.728  22.348  23.906  1.00  0.00    -0.252 OA
BRANCH   6   8
ATOM      8  C   UNL A   1      34.400  21.082  25.480  1.00  0.00     0.124 C 
ATOM      9  C   UNL A   1      32.163  21.925  26.102  1.00  0.00     0.107 C 
ATOM     10  C   UNL A   1      32.156  21.269  24.766  1.00  0.00    -0.006 C 
ATOM     11  C   UNL A   1      33.662  22.081  26.380  1.00  0.00     0.048 C 
ATOM     12  C   UNL A   1      33.359  20.786  24.439  1.00  0.00    -0.014 C 
BRANCH   9  13
ATOM     13  N   UNL A   1      31.512  23.206  26.043  1.00  0.00    -0.332 N 
ATOM     14  O   UNL A   1      29.550  22.573  27.017  1.00  0.00    -0.248 OA
ATOM     15  C   UNL A   1      30.253  23.440  26.505  1.00  0.00     0.319 C 
ATOM     16  N   UNL A   1      29.835  24.744  26.490  1.00  0.00    -0.308 N 
ATOM     17  H   UNL A   1      29.042  24.928  27.044  1.00  0.00     0.171 HD
ATOM     18  H   UNL A   1      32.007  23.958  25.646  1.00  0.00     0.165 HD
BRANCH  16  19
ATOM     19  C   UNL A   1      30.352  25.862  25.811  1.00  0.00     0.046 A 
ATOM     20  C   UNL A   1      31.281  26.748  26.398  1.00  0.00     0.030 A 
ATOM     21  C   UNL A   1      29.922  26.079  24.497  1.00  0.00     0.076 A 
ATOM     22  C   UNL A   1      31.712  27.894  25.723  1.00  0.00     0.053 A 
ATOM     23  C   UNL A   1      30.353  27.226  23.859  1.00  0.00     0.167 A 
ATOM     24  C   UNL A   1      31.214  28.113  24.460  1.00  0.00     0.165 A 
ATOM     25  O   UNL A   1      29.981  27.628  22.613  1.00  0.00    -0.454 OA
ATOM     26  O   UNL A   1      31.493  29.184  23.670  1.00  0.00    -0.454 OA
ATOM     27  C   UNL A   1      30.671  28.892  22.520  1.00  0.00     0.468 C 
ENDBRANCH  16  19
ENDBRANCH   9  13
ENDBRANCH   6   8
ENDBRANCH   5   6
ENDBRANCH   4   5
ENDBRANCH   3   4
ENDBRANCH   2   3
ENDBRANCH   1   2
BRANCH   1  28
ATOM     28  C   UNL A   1      41.438  20.921  26.825  1.00  0.00     0.188 C 
BRANCH  28  29
ATOM     29  O   UNL A   1      41.804  19.919  25.905  1.00  0.00    -0.376 OA
BRANCH  29  30
ATOM     30  C   UNL A   1      42.607  18.851  26.371  1.00  0.00     0.202 C 
BRANCH  30  31
ATOM     31  C   UNL A   1      43.508  18.107  25.371  1.00  0.00     0.261 C 
BRANCH  31  32
ATOM     32  O   UNL A   1      44.813  18.663  25.139  1.00  0.00    -0.460 OA
BRANCH  32  33
ATOM     33  C   UNL A   1      44.945  19.522  24.101  1.00  0.00     0.338 C 
ATOM     34  O   UNL A   1      44.966  19.248  22.918  1.00  0.00    -0.246 OA
BRANCH  33  35
ATOM     35  C   UNL A   1      44.824  20.897  24.644  1.00  0.00     0.060 A 
ATOM     36  C   UNL A   1      44.311  21.911  23.822  1.00  0.00     0.016 A 
ATOM     37  C   UNL A   1      45.203  21.180  25.958  1.00  0.00     0.016 A 
ATOM     38  C   UNL A   1      44.202  23.217  24.305  1.00  0.00     0.010 A 
ATOM     39  C   UNL A   1      45.115  22.493  26.432  1.00  0.00     0.010 A 
ATOM     40  C   UNL A   1      44.642  23.523  25.599  1.00  0.00    -0.014 A 
BRANCH  40  41
ATOM     41  C   UNL A   1      44.798  24.939  26.016  1.00  0.00     0.031 A 
ATOM     42  C   UNL A   1      46.159  25.568  25.903  1.00  0.00     0.074 A 
ATOM     43  C   UNL A   1      43.762  25.658  26.482  1.00  0.00     0.049 A 
ATOM     44  N   UNL A   1      46.566  26.754  26.277  1.00  0.00    -0.248 NA
ATOM     45  C   UNL A   1      47.207  24.739  25.285  1.00  0.00     0.031 C 
ATOM     46  C   UNL A   1      42.386  25.183  26.601  1.00  0.00     0.029 A 
ATOM     47  N   UNL A   1      43.717  26.945  26.960  1.00  0.00    -0.354 N 
ATOM     48  C   UNL A   1      47.914  26.810  25.949  1.00  0.00     0.074 A 
ATOM     49  C   UNL A   1      48.265  25.530  25.373  1.00  0.00     0.031 C 
ATOM     50  C   UNL A   1      41.633  26.160  27.135  1.00  0.00     0.029 A 
ATOM     51  C   UNL A   1      42.481  27.314  27.430  1.00  0.00     0.049 A 
ATOM     52  H   UNL A   1      44.497  27.546  26.965  1.00  0.00     0.167 HD
ATOM     53  C   UNL A   1      48.782  27.838  26.107  1.00  0.00     0.037 A 
ATOM     54  C   UNL A   1      42.091  28.445  28.053  1.00  0.00     0.037 A 
ATOM     55  C   UNL A   1      48.434  29.108  26.684  1.00  0.00     0.049 A 
ATOM     56  C   UNL A   1      43.094  29.548  28.292  1.00  0.00     0.074 A 
ATOM     57  C   UNL A   1      49.238  30.218  26.876  1.00  0.00     0.029 A 
ATOM     58  N   UNL A   1      47.177  29.436  27.172  1.00  0.00    -0.354 N 
ATOM     59  N   UNL A   1      44.361  29.602  27.961  1.00  0.00    -0.248 NA
ATOM     60  C   UNL A   1      42.608  30.747  28.990  1.00  0.00     0.031 C 
ATOM     61  C   UNL A   1      48.484  31.197  27.532  1.00  0.00     0.029 A 
ATOM     62  C   UNL A   1      47.192  30.722  27.690  1.00  0.00     0.049 A 
ATOM     63  H   UNL A   1      46.392  28.843  27.154  1.00  0.00     0.167 HD
ATOM     64  C   UNL A   1      44.814  30.849  28.378  1.00  0.00     0.074 A 
ATOM     65  C   UNL A   1      43.682  31.524  28.977  1.00  0.00     0.031 C 
ATOM     66  C   UNL A   1      46.055  31.387  28.273  1.00  0.00     0.037 A 
BRANCH  53  67
ATOM     67  C   UNL A   1      50.202  27.616  25.676  1.00  0.00     0.064 A 
ATOM     68  C   UNL A   1      51.208  27.274  26.592  1.00  0.00     0.173 A 
ATOM     69  C   UNL A   1      50.555  27.721  24.322  1.00  0.00     0.173 A 
ATOM     70  F   UNL A   1      50.927  27.178  27.900  1.00  0.00    -0.203 F 
ATOM     71  C   UNL A   1      52.520  27.073  26.172  1.00  0.00     0.198 A 
ATOM     72  C   UNL A   1      51.862  27.488  23.902  1.00  0.00     0.198 A 
ATOM     73  F   UNL A   1      49.631  28.044  23.405  1.00  0.00    -0.203 F 
ATOM     74  F   UNL A   1      53.476  26.798  27.071  1.00  0.00    -0.200 F 
ATOM     75  C   UNL A   1      52.844  27.172  24.827  1.00  0.00     0.200 A 
ATOM     76  F   UNL A   1      52.170  27.572  22.600  1.00  0.00    -0.200 F 
ATOM     77  F   UNL A   1      54.106  26.971  24.423  1.00  0.00    -0.200 F 
ENDBRANCH  53  67
BRANCH  54  78
ATOM     78  C   UNL A   1      40.685  28.593  28.518  1.00  0.00     0.064 A 
ATOM     79  C   UNL A   1      39.677  29.037  27.650  1.00  0.00     0.173 A 
ATOM     80  C   UNL A   1      40.326  28.326  29.848  1.00  0.00     0.173 A 
ATOM     81  F   UNL A   1      39.975  29.335  26.376  1.00  0.00    -0.203 F 
ATOM     82  C   UNL A   1      38.371  29.228  28.098  1.00  0.00     0.198 A 
ATOM     83  C   UNL A   1      39.014  28.487  30.287  1.00  0.00     0.198 A 
ATOM     84  F   UNL A   1      41.252  27.906  30.721  1.00  0.00    -0.203 F 
ATOM     85  F   UNL A   1      37.441  29.705  27.260  1.00  0.00    -0.200 F 
ATOM     86  C   UNL A   1      38.039  28.946  29.414  1.00  0.00     0.200 A 
ATOM     87  F   UNL A   1      38.696  28.206  31.558  1.00  0.00    -0.200 F 
ATOM     88  F   UNL A   1      36.784  29.130  29.845  1.00  0.00    -0.200 F 
ENDBRANCH  54  78
BRANCH  66  89
ATOM     89  C   UNL A   1      46.248  32.792  28.771  1.00  0.00     0.064 A 
ATOM     90  C   UNL A   1      45.974  33.908  27.966  1.00  0.00     0.173 A 
ATOM     91  C   UNL A   1      46.670  33.023  30.090  1.00  0.00     0.173 A 
ATOM     92  F   UNL A   1      45.580  33.743  26.695  1.00  0.00    -0.203 F 
ATOM     93  C   UNL A   1      46.142  35.202  28.455  1.00  0.00     0.198 A 
ATOM     94  C   UNL A   1      46.805  34.318  30.586  1.00  0.00     0.198 A 
ATOM     95  F   UNL A   1      46.935  31.993  30.906  1.00  0.00    -0.203 F 
ATOM     96  F   UNL A   1      45.923  36.252  27.651  1.00  0.00    -0.200 F 
ATOM     97  C   UNL A   1      46.549  35.406  29.765  1.00  0.00     0.200 A 
ATOM     98  F   UNL A   1      47.181  34.512  31.857  1.00  0.00    -0.200 F 
ATOM     99  F   UNL A   1      46.702  36.651  30.235  1.00  0.00    -0.200 F 
ENDBRANCH  66  89
ENDBRANCH  40  41
ENDBRANCH  33  35
ENDBRANCH  32  33
ENDBRANCH  31  32
ENDBRANCH  30  31
ENDBRANCH  29  30
ENDBRANCH  28  29
ENDBRANCH   1  28
TORSDOF 19
ENDMDL
MODEL 3
REMARK VINA RESULT:     -10.9      4.937      9.087
REMARK SMILES O=C(Nc1ccc2c(c1)OCO2)N[C@H]1C=C[C@@H](C(=O)OCCOCCOCCOC(=O)c2ccc(-c3c4nc(c(-c5c(F)c(F)c(F)c(F)c5F)c5ccc([nH]5)c(-c5c(F)c(F)c(F)c(F)c5F)c5nc(c(-c6c(F)c(F)c(F)c(F)c6F)c6ccc3[nH]6)C=C5)C=C4)cc2)C1
REMARK SMILES IDX 24 1 23 2 22 3 21 4 20 5 18 6 19 7 17 8 14 9 15 10 95 11
REMARK SMILES IDX 16 12 13 13 1 14 2 15 3 16 4 19 5 20 9 21 6 22 8 23 7 24
REMARK SMILES IDX 10 25 12 26 11 27 25 28 26 29 27 30 28 31 29 32 30 33 31 34
REMARK SMILES IDX 32 35 33 36 94 37 34 38 93 39 35 40 36 41 37 42 87 43 38 44
REMARK SMILES IDX 92 45 86 46 88 47 39 48 91 49 85 50 84 51 40 53 72 54 52 55
REMARK SMILES IDX 71 56 53 57 56 58 70 59 89 60 54 61 55 62 69 64 90 65 57 66
REMARK SMILES IDX 41 67 42 68 50 69 43 70 44 71 48 72 51 73 45 74 46 75 49 76
REMARK SMILES IDX 47 77 73 78 74 79 82 80 75 81 76 82 80 83 83 84 77 85 78 86
REMARK SMILES IDX 81 87 79 88 58 89 59 90 67 91 60 92 61 93 65 94 68 95 62 96
REMARK SMILES IDX 63 97 66 98 64 99
REMARK H PARENT 3 17 13 18 88 52 56 63
REMARK Flexibility Score: inf
ROOT
ATOM      1  C   UNL A   1      40.605  22.153  26.277  1.00  0.00     0.188 C 
ENDROOT
BRANCH   1   2
ATOM      2  O   UNL A   1      39.385  22.609  26.851  1.00  0.00    -0.376 OA
BRANCH   2   3
ATOM      3  C   UNL A   1      38.201  22.582  26.057  1.00  0.00     0.202 C 
BRANCH   3   4
ATOM      4  C   UNL A   1      38.034  21.442  25.038  1.00  0.00     0.261 C 
BRANCH   4   5
ATOM      5  O   UNL A   1      36.769  20.749  25.111  1.00  0.00    -0.463 OA
BRANCH   5   6
ATOM      6  C   UNL A   1      35.661  21.494  24.847  1.00  0.00     0.312 C 
ATOM      7  O   UNL A   1      35.592  22.313  23.935  1.00  0.00    -0.252 OA
BRANCH   6   8
ATOM      8  C   UNL A   1      34.452  21.177  25.739  1.00  0.00     0.124 C 
ATOM      9  C   UNL A   1      32.262  22.065  26.458  1.00  0.00     0.107 C 
ATOM     10  C   UNL A   1      32.139  21.194  25.258  1.00  0.00    -0.006 C 
ATOM     11  C   UNL A   1      33.775  22.297  26.538  1.00  0.00     0.048 C 
ATOM     12  C   UNL A   1      33.319  20.687  24.883  1.00  0.00    -0.014 C 
BRANCH   9  13
ATOM     13  N   UNL A   1      31.559  23.303  26.261  1.00  0.00    -0.332 N 
ATOM     14  O   UNL A   1      29.659  22.734  27.385  1.00  0.00    -0.248 OA
ATOM     15  C   UNL A   1      30.308  23.552  26.738  1.00  0.00     0.319 C 
ATOM     16  N   UNL A   1      29.838  24.826  26.573  1.00  0.00    -0.308 N 
ATOM     17  H   UNL A   1      29.058  25.053  27.130  1.00  0.00     0.171 HD
ATOM     18  H   UNL A   1      32.009  24.015  25.751  1.00  0.00     0.165 HD
BRANCH  16  19
ATOM     19  C   UNL A   1      30.286  25.865  25.736  1.00  0.00     0.046 A 
ATOM     20  C   UNL A   1      29.821  26.035  24.415  1.00  0.00     0.030 A 
ATOM     21  C   UNL A   1      31.224  26.760  26.261  1.00  0.00     0.076 A 
ATOM     22  C   UNL A   1      30.347  27.030  23.587  1.00  0.00     0.053 A 
ATOM     23  C   UNL A   1      31.738  27.724  25.417  1.00  0.00     0.167 A 
ATOM     24  C   UNL A   1      31.320  27.848  24.113  1.00  0.00     0.165 A 
ATOM     25  O   UNL A   1      32.704  28.628  25.737  1.00  0.00    -0.454 OA
ATOM     26  O   UNL A   1      31.967  28.842  23.450  1.00  0.00    -0.454 OA
ATOM     27  C   UNL A   1      32.876  29.301  24.473  1.00  0.00     0.468 C 
ENDBRANCH  16  19
ENDBRANCH   9  13
ENDBRANCH   6   8
ENDBRANCH   5   6
ENDBRANCH   4   5
ENDBRANCH   3   4
ENDBRANCH   2   3
ENDBRANCH   1   2
BRANCH   1  28
ATOM     28  C   UNL A   1      41.293  20.917  26.882  1.00  0.00     0.188 C 
BRANCH  28  29
ATOM     29  O   UNL A   1      41.637  19.921  25.949  1.00  0.00    -0.376 OA
BRANCH  29  30
ATOM     30  C   UNL A   1      42.466  18.860  26.385  1.00  0.00     0.202 C 
BRANCH  30  31
ATOM     31  C   UNL A   1      43.503  18.277  25.409  1.00  0.00     0.261 C 
BRANCH  31  32
ATOM     32  O   UNL A   1      44.720  19.022  25.237  1.00  0.00    -0.460 OA
BRANCH  32  33
ATOM     33  C   UNL A   1      44.761  19.913  24.216  1.00  0.00     0.338 C 
ATOM     34  O   UNL A   1      44.591  19.685  23.036  1.00  0.00    -0.246 OA
BRANCH  33  35
ATOM     35  C   UNL A   1      44.819  21.269  24.813  1.00  0.00     0.060 A 
ATOM     36  C   UNL A   1      44.562  22.382  23.999  1.00  0.00     0.016 A 
ATOM     37  C   UNL A   1      45.114  21.441  26.167  1.00  0.00     0.016 A 
ATOM     38  C   UNL A   1      44.625  23.671  24.532  1.00  0.00     0.010 A 
ATOM     39  C   UNL A   1      45.202  22.733  26.694  1.00  0.00     0.010 A 
ATOM     40  C   UNL A   1      44.986  23.855  25.873  1.00  0.00    -0.014 A 
BRANCH  40  41
ATOM     41  C   UNL A   1      45.335  25.210  26.370  1.00  0.00     0.031 A 
ATOM     42  C   UNL A   1      44.241  26.054  26.963  1.00  0.00     0.074 A 
ATOM     43  C   UNL A   1      46.591  25.686  26.302  1.00  0.00     0.049 A 
ATOM     44  N   UNL A   1      44.277  27.292  27.386  1.00  0.00    -0.248 NA
ATOM     45  C   UNL A   1      42.923  25.412  27.090  1.00  0.00     0.031 C 
ATOM     46  C   UNL A   1      47.747  24.956  25.793  1.00  0.00     0.029 A 
ATOM     47  N   UNL A   1      47.095  26.915  26.654  1.00  0.00    -0.354 N 
ATOM     48  C   UNL A   1      42.990  27.578  27.820  1.00  0.00     0.074 A 
ATOM     49  C   UNL A   1      42.188  26.397  27.583  1.00  0.00     0.031 C 
ATOM     50  C   UNL A   1      48.827  25.756  25.848  1.00  0.00     0.029 A 
ATOM     51  C   UNL A   1      48.428  27.066  26.362  1.00  0.00     0.049 A 
ATOM     52  H   UNL A   1      46.553  27.620  27.077  1.00  0.00     0.167 HD
ATOM     53  C   UNL A   1      42.517  28.720  28.374  1.00  0.00     0.037 A 
ATOM     54  C   UNL A   1      49.224  28.149  26.471  1.00  0.00     0.037 A 
ATOM     55  C   UNL A   1      43.313  29.896  28.606  1.00  0.00     0.049 A 
ATOM     56  C   UNL A   1      48.657  29.438  27.016  1.00  0.00     0.074 A 
ATOM     57  C   UNL A   1      42.930  31.099  29.173  1.00  0.00     0.029 A 
ATOM     58  N   UNL A   1      44.654  30.020  28.272  1.00  0.00    -0.354 N 
ATOM     59  N   UNL A   1      47.445  29.695  27.445  1.00  0.00    -0.248 NA
ATOM     60  C   UNL A   1      49.573  30.585  27.095  1.00  0.00     0.031 C 
ATOM     61  C   UNL A   1      44.023  31.970  29.131  1.00  0.00     0.029 A 
ATOM     62  C   UNL A   1      45.106  31.289  28.597  1.00  0.00     0.049 A 
ATOM     63  H   UNL A   1      45.202  29.312  27.865  1.00  0.00     0.167 HD
ATOM     64  C   UNL A   1      47.461  31.018  27.873  1.00  0.00     0.074 A 
ATOM     65  C   UNL A   1      48.808  31.507  27.663  1.00  0.00     0.031 C 
ATOM     66  C   UNL A   1      46.453  31.760  28.394  1.00  0.00     0.037 A 
BRANCH  53  67
ATOM     67  C   UNL A   1      41.062  28.761  28.739  1.00  0.00     0.064 A 
ATOM     68  C   UNL A   1      40.075  29.101  27.802  1.00  0.00     0.173 A 
ATOM     69  C   UNL A   1      40.649  28.430  30.038  1.00  0.00     0.173 A 
ATOM     70  F   UNL A   1      40.418  29.443  26.552  1.00  0.00    -0.203 F 
ATOM     71  C   UNL A   1      38.729  29.134  28.161  1.00  0.00     0.198 A 
ATOM     72  C   UNL A   1      39.300  28.433  30.384  1.00  0.00     0.198 A 
ATOM     73  F   UNL A   1      41.553  28.096  30.972  1.00  0.00    -0.203 F 
ATOM     74  F   UNL A   1      37.807  29.512  27.265  1.00  0.00    -0.200 F 
ATOM     75  C   UNL A   1      38.343  28.793  29.448  1.00  0.00     0.200 A 
ATOM     76  F   UNL A   1      38.929  28.091  31.626  1.00  0.00    -0.200 F 
ATOM     77  F   UNL A   1      37.048  28.818  29.790  1.00  0.00    -0.200 F 
ENDBRANCH  53  67
BRANCH  54  78
ATOM     78  C   UNL A   1      50.645  28.076  26.038  1.00  0.00     0.064 A 
ATOM     79  C   UNL A   1      50.996  28.153  24.682  1.00  0.00     0.173 A 
ATOM     80  C   UNL A   1      51.681  27.894  26.967  1.00  0.00     0.173 A 
ATOM     81  F   UNL A   1      50.041  28.297  23.752  1.00  0.00    -0.203 F 
ATOM     82  C   UNL A   1      52.322  28.031  24.272  1.00  0.00     0.198 A 
ATOM     83  C   UNL A   1      53.009  27.803  26.559  1.00  0.00     0.198 A 
ATOM     84  F   UNL A   1      51.400  27.806  28.276  1.00  0.00    -0.203 F 
ATOM     85  F   UNL A   1      52.622  28.054  22.966  1.00  0.00    -0.200 F 
ATOM     86  C   UNL A   1      53.329  27.863  25.211  1.00  0.00     0.200 A 
ATOM     87  F   UNL A   1      53.980  27.648  27.470  1.00  0.00    -0.200 F 
ATOM     88  F   UNL A   1      54.603  27.745  24.816  1.00  0.00    -0.200 F 
ENDBRANCH  54  78
BRANCH  66  89
ATOM     89  C   UNL A   1      46.773  33.165  28.822  1.00  0.00     0.064 A 
ATOM     90  C   UNL A   1      47.261  33.456  30.105  1.00  0.00     0.173 A 
ATOM     91  C   UNL A   1      46.632  34.229  27.918  1.00  0.00     0.173 A 
ATOM     92  F   UNL A   1      47.403  32.478  31.011  1.00  0.00    -0.203 F 
ATOM     93  C   UNL A   1      47.569  34.763  30.474  1.00  0.00     0.198 A 
ATOM     94  C   UNL A   1      46.972  35.531  28.280  1.00  0.00     0.198 A 
ATOM     95  F   UNL A   1      46.179  34.006  26.675  1.00  0.00    -0.203 F 
ATOM     96  F   UNL A   1      47.986  35.024  31.721  1.00  0.00    -0.200 F 
ATOM     97  C   UNL A   1      47.432  35.797  29.560  1.00  0.00     0.200 A 
ATOM     98  F   UNL A   1      46.856  36.525  27.389  1.00  0.00    -0.200 F 
ATOM     99  F   UNL A   1      47.738  37.053  29.915  1.00  0.00    -0.200 F 
ENDBRANCH  66  89
ENDBRANCH  40  41
ENDBRANCH  33  35
ENDBRANCH  32  33
ENDBRANCH  31  32
ENDBRANCH  30  31
ENDBRANCH  29  30
ENDBRANCH  28  29
ENDBRANCH   1  28
TORSDOF 19
ENDMDL
