MODEL 1
REMARK VINA RESULT:     -11.8      0.000      0.000
REMARK SMILES Cc1ccc(C(=O)NC2CC2)cc1NC(=O)[C@@H]1[C@@H](C(=O)OCCOCCOCCOC(=O)c2ccc(-c3c4nc(c(-c5c(F)c(F)c(F)c(F)c5F)c5ccc([nH]5)c(-c5c(F)c(F)c(F)c(F)c5F)c5nc(c(-c6c(F)c(F)c(F)c(F)c6F)c6ccc3[nH]6)C=C5)C=C4)cc2)[C@H]2C=C[C@@H]1C2
REMARK SMILES IDX 25 1 24 2 23 3 22 4 21 5 19 6 20 7 18 8 17 9 99 10 96 11
REMARK SMILES IDX 98 12 100 13 97 14 15 15 14 16 16 18 13 19 1 20 2 21 3 22
REMARK SMILES IDX 4 23 12 24 5 25 6 26 7 27 8 28 9 30 10 31 11 32 26 33 27 34
REMARK SMILES IDX 28 35 29 36 30 37 31 38 32 39 33 40 34 41 95 42 35 43 94 44
REMARK SMILES IDX 36 45 37 46 38 47 88 48 39 49 93 50 87 51 89 52 40 53 92 54
REMARK SMILES IDX 86 55 85 56 41 58 73 59 53 60 72 61 54 62 57 63 71 64 90 65
REMARK SMILES IDX 55 66 56 67 70 69 91 70 58 71 42 72 43 73 51 74 44 75 45 76
REMARK SMILES IDX 49 77 52 78 46 79 47 80 50 81 48 82 74 83 75 84 83 85 76 86
REMARK SMILES IDX 77 87 81 88 84 89 78 90 79 91 82 92 80 93 59 94 60 95 68 96
REMARK SMILES IDX 61 97 62 98 66 99 69 100 63 101 64 102 67 103 65 104
REMARK H PARENT 14 17 8 29 89 57 57 68
REMARK Flexibility Score: inf
ROOT
ATOM      1  C   UNL A   1      33.297  34.863  29.298  1.00  0.00     0.188 C 
ENDROOT
BRANCH   1   2
ATOM      2  O   UNL A   1      34.110  33.719  29.114  1.00  0.00    -0.376 OA
BRANCH   2   3
ATOM      3  C   UNL A   1      33.755  32.979  27.952  1.00  0.00     0.202 C 
BRANCH   3   4
ATOM      4  C   UNL A   1      34.117  31.468  27.924  1.00  0.00     0.261 C 
BRANCH   4   5
ATOM      5  O   UNL A   1      33.426  30.554  26.838  1.00  0.00    -0.463 OA
BRANCH   5   6
ATOM      6  C   UNL A   1      33.174  29.479  26.037  1.00  0.00     0.310 C 
ATOM      7  O   UNL A   1      34.148  28.708  26.038  1.00  0.00    -0.252 OA
BRANCH   6   8
ATOM      8  C   UNL A   1      31.934  28.958  25.163  1.00  0.00     0.119 C 
ATOM      9  C   UNL A   1      31.852  27.369  25.189  1.00  0.00     0.100 C 
ATOM     10  C   UNL A   1      30.750  26.987  24.145  1.00  0.00     0.025 C 
ATOM     11  C   UNL A   1      31.279  29.115  23.705  1.00  0.00     0.027 C 
ATOM     12  C   UNL A   1      31.352  27.005  22.773  1.00  0.00    -0.027 C 
ATOM     13  C   UNL A   1      29.984  28.293  23.975  1.00  0.00     0.017 C 
ATOM     14  C   UNL A   1      31.733  28.265  22.546  1.00  0.00    -0.027 C 
BRANCH   9  15
ATOM     15  C   UNL A   1      31.511  26.789  26.531  1.00  0.00     0.228 C 
ATOM     16  N   UNL A   1      31.582  25.448  26.774  1.00  0.00    -0.326 N 
ATOM     17  H   UNL A   1      31.270  25.220  27.680  1.00  0.00     0.169 HD
ATOM     18  O   UNL A   1      31.036  27.511  27.412  1.00  0.00    -0.274 OA
BRANCH  16  19
ATOM     19  C   UNL A   1      31.993  24.305  26.047  1.00  0.00     0.044 A 
ATOM     20  C   UNL A   1      30.095  22.963  27.156  1.00  0.00     0.046 C 
ATOM     21  C   UNL A   1      31.246  23.119  26.196  1.00  0.00    -0.027 A 
ATOM     22  C   UNL A   1      31.605  21.975  25.460  1.00  0.00     0.006 A 
ATOM     23  C   UNL A   1      32.667  21.995  24.559  1.00  0.00     0.014 A 
ATOM     24  C   UNL A   1      33.122  24.259  25.212  1.00  0.00     0.040 A 
ATOM     25  C   UNL A   1      33.440  23.145  24.416  1.00  0.00     0.041 A 
BRANCH  25  26
ATOM     26  C   UNL A   1      34.587  23.062  23.453  1.00  0.00     0.251 C 
ATOM     27  O   UNL A   1      34.435  23.453  22.295  1.00  0.00    -0.269 OA
ATOM     28  N   UNL A   1      35.836  22.621  23.828  1.00  0.00    -0.349 N 
ATOM     29  H   UNL A   1      36.539  22.700  23.142  1.00  0.00     0.164 HD
BRANCH  28  30
ATOM     30  C   UNL A   1      36.247  22.068  25.064  1.00  0.00     0.082 C 
ATOM     31  C   UNL A   1      36.823  20.693  25.014  1.00  0.00     0.027 C 
ATOM     32  C   UNL A   1      37.687  21.822  25.408  1.00  0.00     0.027 C 
ENDBRANCH  28  30
ENDBRANCH  25  26
ENDBRANCH  16  19
ENDBRANCH   9  15
ENDBRANCH   6   8
ENDBRANCH   5   6
ENDBRANCH   4   5
ENDBRANCH   3   4
ENDBRANCH   2   3
ENDBRANCH   1   2
BRANCH   1  33
ATOM     33  C   UNL A   1      33.326  35.352  30.749  1.00  0.00     0.188 C 
BRANCH  33  34
ATOM     34  O   UNL A   1      33.622  34.344  31.700  1.00  0.00    -0.376 OA
BRANCH  34  35
ATOM     35  C   UNL A   1      34.489  34.688  32.778  1.00  0.00     0.202 C 
BRANCH  35  36
ATOM     36  C   UNL A   1      34.781  33.396  33.541  1.00  0.00     0.261 C 
BRANCH  36  37
ATOM     37  O   UNL A   1      35.543  32.509  32.689  1.00  0.00    -0.460 OA
BRANCH  37  38
ATOM     38  C   UNL A   1      36.823  32.324  33.090  1.00  0.00     0.338 C 
ATOM     39  O   UNL A   1      37.173  31.690  34.083  1.00  0.00    -0.246 OA
BRANCH  38  40
ATOM     40  C   UNL A   1      37.718  33.233  32.311  1.00  0.00     0.060 A 
ATOM     41  C   UNL A   1      37.534  33.267  30.956  1.00  0.00     0.016 A 
ATOM     42  C   UNL A   1      38.873  33.848  32.814  1.00  0.00     0.016 A 
ATOM     43  C   UNL A   1      38.575  33.738  30.144  1.00  0.00     0.010 A 
ATOM     44  C   UNL A   1      39.941  34.248  31.954  1.00  0.00     0.010 A 
ATOM     45  C   UNL A   1      39.880  34.076  30.559  1.00  0.00    -0.014 A 
BRANCH  45  46
ATOM     46  C   UNL A   1      41.211  34.226  29.715  1.00  0.00     0.031 A 
ATOM     47  C   UNL A   1      42.038  32.990  29.540  1.00  0.00     0.074 A 
ATOM     48  C   UNL A   1      41.810  35.247  28.957  1.00  0.00     0.049 A 
ATOM     49  N   UNL A   1      43.193  32.970  28.939  1.00  0.00    -0.248 NA
ATOM     50  C   UNL A   1      41.693  31.703  30.139  1.00  0.00     0.031 C 
ATOM     51  C   UNL A   1      42.192  34.970  27.550  1.00  0.00     0.029 A 
ATOM     52  N   UNL A   1      41.966  36.654  28.928  1.00  0.00    -0.354 N 
ATOM     53  C   UNL A   1      43.454  31.662  28.677  1.00  0.00     0.074 A 
ATOM     54  C   UNL A   1      42.712  30.957  29.695  1.00  0.00     0.031 C 
ATOM     55  C   UNL A   1      42.672  36.066  26.948  1.00  0.00     0.029 A 
ATOM     56  C   UNL A   1      42.717  37.170  27.880  1.00  0.00     0.049 A 
ATOM     57  H   UNL A   1      41.565  37.235  29.613  1.00  0.00     0.167 HD
ATOM     58  C   UNL A   1      44.006  31.312  27.481  1.00  0.00     0.037 A 
ATOM     59  C   UNL A   1      43.425  38.342  27.760  1.00  0.00     0.037 A 
ATOM     60  C   UNL A   1      44.506  32.452  26.680  1.00  0.00     0.049 A 
ATOM     61  C   UNL A   1      44.788  38.051  27.112  1.00  0.00     0.074 A 
ATOM     62  C   UNL A   1      44.153  32.967  25.442  1.00  0.00     0.029 A 
ATOM     63  N   UNL A   1      45.465  33.333  27.183  1.00  0.00    -0.354 N 
ATOM     64  N   UNL A   1      45.043  36.940  26.472  1.00  0.00    -0.248 NA
ATOM     65  C   UNL A   1      46.020  38.820  27.324  1.00  0.00     0.031 C 
ATOM     66  C   UNL A   1      44.925  34.135  25.194  1.00  0.00     0.029 A 
ATOM     67  C   UNL A   1      45.773  34.343  26.267  1.00  0.00     0.049 A 
ATOM     68  H   UNL A   1      45.874  33.255  28.075  1.00  0.00     0.167 HD
ATOM     69  C   UNL A   1      46.382  36.657  26.568  1.00  0.00     0.074 A 
ATOM     70  C   UNL A   1      46.964  37.938  26.934  1.00  0.00     0.031 C 
ATOM     71  C   UNL A   1      46.824  35.351  26.541  1.00  0.00     0.037 A 
BRANCH  58  72
ATOM     72  C   UNL A   1      43.886  29.909  26.897  1.00  0.00     0.064 A 
ATOM     73  C   UNL A   1      45.048  29.202  26.523  1.00  0.00     0.173 A 
ATOM     74  C   UNL A   1      42.677  29.240  26.588  1.00  0.00     0.173 A 
ATOM     75  F   UNL A   1      46.268  29.720  26.725  1.00  0.00    -0.203 F 
ATOM     76  C   UNL A   1      45.000  27.942  25.912  1.00  0.00     0.198 A 
ATOM     77  C   UNL A   1      42.632  27.950  26.056  1.00  0.00     0.198 A 
ATOM     78  F   UNL A   1      41.479  29.819  26.702  1.00  0.00    -0.203 F 
ATOM     79  F   UNL A   1      46.135  27.352  25.515  1.00  0.00    -0.200 F 
ATOM     80  C   UNL A   1      43.793  27.306  25.704  1.00  0.00     0.200 A 
ATOM     81  F   UNL A   1      41.444  27.361  25.856  1.00  0.00    -0.200 F 
ATOM     82  F   UNL A   1      43.745  26.093  25.139  1.00  0.00    -0.200 F 
ENDBRANCH  58  72
BRANCH  59  83
ATOM     83  C   UNL A   1      43.074  39.498  28.672  1.00  0.00     0.064 A 
ATOM     84  C   UNL A   1      41.846  40.146  28.442  1.00  0.00     0.173 A 
ATOM     85  C   UNL A   1      43.730  39.892  29.852  1.00  0.00     0.173 A 
ATOM     86  F   UNL A   1      41.218  39.972  27.269  1.00  0.00    -0.203 F 
ATOM     87  C   UNL A   1      41.227  40.957  29.405  1.00  0.00     0.198 A 
ATOM     88  C   UNL A   1      43.099  40.671  30.838  1.00  0.00     0.198 A 
ATOM     89  F   UNL A   1      45.002  39.555  30.084  1.00  0.00    -0.203 F 
ATOM     90  F   UNL A   1      40.026  41.499  29.154  1.00  0.00    -0.200 F 
ATOM     91  C   UNL A   1      41.824  41.163  30.633  1.00  0.00     0.200 A 
ATOM     92  F   UNL A   1      43.715  40.894  32.009  1.00  0.00    -0.200 F 
ATOM     93  F   UNL A   1      41.181  41.833  31.600  1.00  0.00    -0.200 F 
ENDBRANCH  59  83
BRANCH  71  94
ATOM     94  C   UNL A   1      48.233  34.846  26.856  1.00  0.00     0.064 A 
ATOM     95  C   UNL A   1      49.314  34.785  25.957  1.00  0.00     0.173 A 
ATOM     96  C   UNL A   1      48.564  34.490  28.191  1.00  0.00     0.173 A 
ATOM     97  F   UNL A   1      49.211  35.250  24.707  1.00  0.00    -0.203 F 
ATOM     98  C   UNL A   1      50.583  34.323  26.337  1.00  0.00     0.198 A 
ATOM     99  C   UNL A   1      49.847  34.107  28.584  1.00  0.00     0.198 A 
ATOM    100  F   UNL A   1      47.650  34.527  29.171  1.00  0.00    -0.203 F 
ATOM    101  F   UNL A   1      51.558  34.231  25.422  1.00  0.00    -0.200 F 
ATOM    102  C   UNL A   1      50.852  33.994  27.651  1.00  0.00     0.200 A 
ATOM    103  F   UNL A   1      50.102  33.868  29.878  1.00  0.00    -0.200 F 
ATOM    104  F   UNL A   1      52.077  33.595  28.020  1.00  0.00    -0.200 F 
ENDBRANCH  71  94
ENDBRANCH  45  46
ENDBRANCH  38  40
ENDBRANCH  37  38
ENDBRANCH  36  37
ENDBRANCH  35  36
ENDBRANCH  34  35
ENDBRANCH  33  34
ENDBRANCH   1  33
TORSDOF 21
ENDMDL
MODEL 2
REMARK VINA RESULT:     -11.2      5.536      7.896
REMARK SMILES Cc1ccc(C(=O)NC2CC2)cc1NC(=O)[C@@H]1[C@@H](C(=O)OCCOCCOCCOC(=O)c2ccc(-c3c4nc(c(-c5c(F)c(F)c(F)c(F)c5F)c5ccc([nH]5)c(-c5c(F)c(F)c(F)c(F)c5F)c5nc(c(-c6c(F)c(F)c(F)c(F)c6F)c6ccc3[nH]6)C=C5)C=C4)cc2)[C@H]2C=C[C@@H]1C2
REMARK SMILES IDX 25 1 24 2 23 3 22 4 21 5 19 6 20 7 18 8 17 9 99 10 96 11
REMARK SMILES IDX 98 12 100 13 97 14 15 15 14 16 16 18 13 19 1 20 2 21 3 22
REMARK SMILES IDX 4 23 12 24 5 25 6 26 7 27 8 28 9 30 10 31 11 32 26 33 27 34
REMARK SMILES IDX 28 35 29 36 30 37 31 38 32 39 33 40 34 41 95 42 35 43 94 44
REMARK SMILES IDX 36 45 37 46 38 47 88 48 39 49 93 50 87 51 89 52 40 53 92 54
REMARK SMILES IDX 86 55 85 56 41 58 73 59 53 60 72 61 54 62 57 63 71 64 90 65
REMARK SMILES IDX 55 66 56 67 70 69 91 70 58 71 42 72 43 73 51 74 44 75 45 76
REMARK SMILES IDX 49 77 52 78 46 79 47 80 50 81 48 82 74 83 75 84 83 85 76 86
REMARK SMILES IDX 77 87 81 88 84 89 78 90 79 91 82 92 80 93 59 94 60 95 68 96
REMARK SMILES IDX 61 97 62 98 66 99 69 100 63 101 64 102 67 103 65 104
REMARK H PARENT 14 17 8 29 89 57 57 68
REMARK Flexibility Score: inf
ROOT
ATOM      1  C   UNL A   1      29.783  31.083  24.125  1.00  0.00     0.188 C 
ENDROOT
BRANCH   1   2
ATOM      2  O   UNL A   1      28.536  31.211  23.469  1.00  0.00    -0.376 OA
BRANCH   2   3
ATOM      3  C   UNL A   1      28.395  30.302  22.383  1.00  0.00     0.202 C 
BRANCH   3   4
ATOM      4  C   UNL A   1      29.676  29.930  21.586  1.00  0.00     0.261 C 
BRANCH   4   5
ATOM      5  O   UNL A   1      30.475  28.639  22.017  1.00  0.00    -0.463 OA
BRANCH   5   6
ATOM      6  C   UNL A   1      31.064  27.699  22.811  1.00  0.00     0.310 C 
ATOM      7  O   UNL A   1      30.432  26.631  22.747  1.00  0.00    -0.252 OA
BRANCH   6   8
ATOM      8  C   UNL A   1      32.370  27.627  23.740  1.00  0.00     0.119 C 
ATOM      9  C   UNL A   1      32.951  26.147  23.783  1.00  0.00     0.100 C 
ATOM     10  C   UNL A   1      34.076  26.169  24.872  1.00  0.00     0.025 C 
ATOM     11  C   UNL A   1      32.886  28.031  25.206  1.00  0.00     0.027 C 
ATOM     12  C   UNL A   1      33.448  26.039  26.225  1.00  0.00    -0.027 C 
ATOM     13  C   UNL A   1      34.383  27.655  25.005  1.00  0.00     0.017 C 
ATOM     14  C   UNL A   1      32.679  27.120  26.388  1.00  0.00    -0.027 C 
BRANCH   9  15
ATOM     15  C   UNL A   1      33.509  25.661  22.478  1.00  0.00     0.228 C 
ATOM     16  N   UNL A   1      34.023  24.406  22.336  1.00  0.00    -0.326 N 
ATOM     17  H   UNL A   1      34.404  24.260  21.440  1.00  0.00     0.169 HD
ATOM     18  O   UNL A   1      33.627  26.443  21.529  1.00  0.00    -0.274 OA
BRANCH  16  19
ATOM     19  C   UNL A   1      34.145  23.261  23.161  1.00  0.00     0.044 A 
ATOM     20  C   UNL A   1      36.707  23.441  22.968  1.00  0.00     0.046 C 
ATOM     21  C   UNL A   1      35.441  22.824  23.503  1.00  0.00    -0.027 A 
ATOM     22  C   UNL A   1      35.598  21.711  24.351  1.00  0.00     0.006 A 
ATOM     23  C   UNL A   1      34.497  21.047  24.887  1.00  0.00     0.014 A 
ATOM     24  C   UNL A   1      33.061  22.502  23.632  1.00  0.00     0.040 A 
ATOM     25  C   UNL A   1      33.207  21.440  24.541  1.00  0.00     0.041 A 
BRANCH  25  26
ATOM     26  C   UNL A   1      32.085  20.642  25.134  1.00  0.00     0.251 C 
ATOM     27  O   UNL A   1      32.136  19.412  25.105  1.00  0.00    -0.269 OA
ATOM     28  N   UNL A   1      31.016  21.230  25.773  1.00  0.00    -0.349 N 
ATOM     29  H   UNL A   1      30.388  20.610  26.210  1.00  0.00     0.164 HD
BRANCH  28  30
ATOM     30  C   UNL A   1      30.699  22.605  25.886  1.00  0.00     0.082 C 
ATOM     31  C   UNL A   1      29.880  22.998  27.069  1.00  0.00     0.027 C 
ATOM     32  C   UNL A   1      31.267  23.487  26.959  1.00  0.00     0.027 C 
ENDBRANCH  28  30
ENDBRANCH  25  26
ENDBRANCH  16  19
ENDBRANCH   9  15
ENDBRANCH   6   8
ENDBRANCH   5   6
ENDBRANCH   4   5
ENDBRANCH   3   4
ENDBRANCH   2   3
ENDBRANCH   1   2
BRANCH   1  33
ATOM     33  C   UNL A   1      30.095  32.306  24.994  1.00  0.00     0.188 C 
BRANCH  33  34
ATOM     34  O   UNL A   1      30.975  32.045  26.074  1.00  0.00    -0.376 OA
BRANCH  34  35
ATOM     35  C   UNL A   1      31.653  30.791  26.082  1.00  0.00     0.202 C 
BRANCH  35  36
ATOM     36  C   UNL A   1      32.537  30.774  27.330  1.00  0.00     0.261 C 
BRANCH  36  37
ATOM     37  O   UNL A   1      33.650  31.675  27.129  1.00  0.00    -0.460 OA
BRANCH  37  38
ATOM     38  C   UNL A   1      34.297  32.014  28.270  1.00  0.00     0.338 C 
ATOM     39  O   UNL A   1      33.871  32.785  29.127  1.00  0.00    -0.246 OA
BRANCH  38  40
ATOM     40  C   UNL A   1      35.710  31.536  28.194  1.00  0.00     0.060 A 
ATOM     41  C   UNL A   1      35.899  30.189  28.045  1.00  0.00     0.016 A 
ATOM     42  C   UNL A   1      36.838  32.308  28.512  1.00  0.00     0.016 A 
ATOM     43  C   UNL A   1      37.140  29.638  28.392  1.00  0.00     0.010 A 
ATOM     44  C   UNL A   1      38.063  31.702  28.929  1.00  0.00     0.010 A 
ATOM     45  C   UNL A   1      38.214  30.306  29.015  1.00  0.00    -0.014 A 
BRANCH  45  46
ATOM     46  C   UNL A   1      39.463  29.724  29.795  1.00  0.00     0.031 A 
ATOM     47  C   UNL A   1      39.997  28.407  29.319  1.00  0.00     0.074 A 
ATOM     48  C   UNL A   1      40.318  30.184  30.812  1.00  0.00     0.049 A 
ATOM     49  N   UNL A   1      40.967  27.766  29.904  1.00  0.00    -0.248 NA
ATOM     50  C   UNL A   1      39.396  27.647  28.226  1.00  0.00     0.031 C 
ATOM     51  C   UNL A   1      41.783  30.176  30.579  1.00  0.00     0.029 A 
ATOM     52  N   UNL A   1      40.311  30.978  31.984  1.00  0.00    -0.354 N 
ATOM     53  C   UNL A   1      41.386  26.831  29.010  1.00  0.00     0.074 A 
ATOM     54  C   UNL A   1      40.219  26.591  28.196  1.00  0.00     0.031 C 
ATOM     55  C   UNL A   1      42.445  30.720  31.608  1.00  0.00     0.029 A 
ATOM     56  C   UNL A   1      41.522  31.101  32.653  1.00  0.00     0.049 A 
ATOM     57  H   UNL A   1      39.493  31.418  32.309  1.00  0.00     0.167 HD
ATOM     58  C   UNL A   1      42.719  26.589  28.864  1.00  0.00     0.037 A 
ATOM     59  C   UNL A   1      41.810  31.383  33.967  1.00  0.00     0.037 A 
ATOM     60  C   UNL A   1      43.571  27.210  29.904  1.00  0.00     0.049 A 
ATOM     61  C   UNL A   1      42.914  30.435  34.462  1.00  0.00     0.074 A 
ATOM     62  C   UNL A   1      44.569  28.171  29.860  1.00  0.00     0.029 A 
ATOM     63  N   UNL A   1      43.385  26.936  31.260  1.00  0.00    -0.354 N 
ATOM     64  N   UNL A   1      43.672  29.749  33.648  1.00  0.00    -0.248 NA
ATOM     65  C   UNL A   1      43.103  29.988  35.847  1.00  0.00     0.031 C 
ATOM     66  C   UNL A   1      45.001  28.445  31.188  1.00  0.00     0.029 A 
ATOM     67  C   UNL A   1      44.286  27.645  32.061  1.00  0.00     0.049 A 
ATOM     68  H   UNL A   1      42.702  26.320  31.611  1.00  0.00     0.167 HD
ATOM     69  C   UNL A   1      44.074  28.592  34.269  1.00  0.00     0.074 A 
ATOM     70  C   UNL A   1      43.856  28.882  35.677  1.00  0.00     0.031 C 
ATOM     71  C   UNL A   1      44.338  27.458  33.529  1.00  0.00     0.037 A 
BRANCH  58  72
ATOM     72  C   UNL A   1      43.311  25.964  27.606  1.00  0.00     0.064 A 
ATOM     73  C   UNL A   1      43.196  24.574  27.392  1.00  0.00     0.173 A 
ATOM     74  C   UNL A   1      44.079  26.639  26.627  1.00  0.00     0.173 A 
ATOM     75  F   UNL A   1      42.523  23.796  28.251  1.00  0.00    -0.203 F 
ATOM     76  C   UNL A   1      43.782  23.930  26.295  1.00  0.00     0.198 A 
ATOM     77  C   UNL A   1      44.592  26.010  25.491  1.00  0.00     0.198 A 
ATOM     78  F   UNL A   1      44.447  27.917  26.749  1.00  0.00    -0.203 F 
ATOM     79  F   UNL A   1      43.698  22.598  26.183  1.00  0.00    -0.200 F 
ATOM     80  C   UNL A   1      44.457  24.652  25.331  1.00  0.00     0.200 A 
ATOM     81  F   UNL A   1      45.251  26.737  24.576  1.00  0.00    -0.200 F 
ATOM     82  F   UNL A   1      45.000  24.042  24.271  1.00  0.00    -0.200 F 
ENDBRANCH  58  72
BRANCH  59  83
ATOM     83  C   UNL A   1      40.761  32.082  34.805  1.00  0.00     0.064 A 
ATOM     84  C   UNL A   1      40.652  33.478  34.661  1.00  0.00     0.173 A 
ATOM     85  C   UNL A   1      39.742  31.493  35.575  1.00  0.00     0.173 A 
ATOM     86  F   UNL A   1      41.655  34.163  34.091  1.00  0.00    -0.203 F 
ATOM     87  C   UNL A   1      39.516  34.193  35.069  1.00  0.00     0.198 A 
ATOM     88  C   UNL A   1      38.583  32.195  35.950  1.00  0.00     0.198 A 
ATOM     89  F   UNL A   1      39.838  30.231  36.003  1.00  0.00    -0.203 F 
ATOM     90  F   UNL A   1      39.441  35.514  34.850  1.00  0.00    -0.200 F 
ATOM     91  C   UNL A   1      38.450  33.538  35.652  1.00  0.00     0.200 A 
ATOM     92  F   UNL A   1      37.576  31.548  36.556  1.00  0.00    -0.200 F 
ATOM     93  F   UNL A   1      37.314  34.195  35.930  1.00  0.00    -0.200 F 
ENDBRANCH  59  83
BRANCH  71  94
ATOM     94  C   UNL A   1      44.574  26.043  34.061  1.00  0.00     0.064 A 
ATOM     95  C   UNL A   1      43.594  25.178  34.581  1.00  0.00     0.173 A 
ATOM     96  C   UNL A   1      45.865  25.462  33.948  1.00  0.00     0.173 A 
ATOM     97  F   UNL A   1      42.300  25.512  34.593  1.00  0.00    -0.203 F 
ATOM     98  C   UNL A   1      43.897  23.884  35.033  1.00  0.00     0.198 A 
ATOM     99  C   UNL A   1      46.147  24.147  34.322  1.00  0.00     0.198 A 
ATOM    100  F   UNL A   1      46.899  26.149  33.440  1.00  0.00    -0.203 F 
ATOM    101  F   UNL A   1      42.934  23.126  35.574  1.00  0.00    -0.200 F 
ATOM    102  C   UNL A   1      45.170  23.366  34.894  1.00  0.00     0.200 A 
ATOM    103  F   UNL A   1      47.370  23.643  34.106  1.00  0.00    -0.200 F 
ATOM    104  F   UNL A   1      45.446  22.114  35.285  1.00  0.00    -0.200 F 
ENDBRANCH  71  94
ENDBRANCH  45  46
ENDBRANCH  38  40
ENDBRANCH  37  38
ENDBRANCH  36  37
ENDBRANCH  35  36
ENDBRANCH  34  35
ENDBRANCH  33  34
ENDBRANCH   1  33
TORSDOF 21
ENDMDL
MODEL 3
REMARK VINA RESULT:     -11.2      1.292      2.051
REMARK SMILES Cc1ccc(C(=O)NC2CC2)cc1NC(=O)[C@@H]1[C@@H](C(=O)OCCOCCOCCOC(=O)c2ccc(-c3c4nc(c(-c5c(F)c(F)c(F)c(F)c5F)c5ccc([nH]5)c(-c5c(F)c(F)c(F)c(F)c5F)c5nc(c(-c6c(F)c(F)c(F)c(F)c6F)c6ccc3[nH]6)C=C5)C=C4)cc2)[C@H]2C=C[C@@H]1C2
REMARK SMILES IDX 25 1 24 2 23 3 22 4 21 5 19 6 20 7 18 8 17 9 99 10 96 11
REMARK SMILES IDX 98 12 100 13 97 14 15 15 14 16 16 18 13 19 1 20 2 21 3 22
REMARK SMILES IDX 4 23 12 24 5 25 6 26 7 27 8 28 9 30 10 31 11 32 26 33 27 34
REMARK SMILES IDX 28 35 29 36 30 37 31 38 32 39 33 40 34 41 95 42 35 43 94 44
REMARK SMILES IDX 36 45 37 46 38 47 88 48 39 49 93 50 87 51 89 52 40 53 92 54
REMARK SMILES IDX 86 55 85 56 41 58 73 59 53 60 72 61 54 62 57 63 71 64 90 65
REMARK SMILES IDX 55 66 56 67 70 69 91 70 58 71 42 72 43 73 51 74 44 75 45 76
REMARK SMILES IDX 49 77 52 78 46 79 47 80 50 81 48 82 74 83 75 84 83 85 76 86
REMARK SMILES IDX 77 87 81 88 84 89 78 90 79 91 82 92 80 93 59 94 60 95 68 96
REMARK SMILES IDX 61 97 62 98 66 99 69 100 63 101 64 102 67 103 65 104
REMARK H PARENT 14 17 8 29 89 57 57 68
REMARK Flexibility Score: inf
ROOT
ATOM      1  C   UNL A   1      33.666  33.039  28.012  1.00  0.00     0.188 C 
ENDROOT
BRANCH   1   2
ATOM      2  O   UNL A   1      34.457  32.139  28.764  1.00  0.00    -0.376 OA
BRANCH   2   3
ATOM      3  C   UNL A   1      35.056  31.132  27.956  1.00  0.00     0.202 C 
BRANCH   3   4
ATOM      4  C   UNL A   1      34.271  29.804  27.763  1.00  0.00     0.261 C 
BRANCH   4   5
ATOM      5  O   UNL A   1      34.054  29.272  26.293  1.00  0.00    -0.463 OA
BRANCH   5   6
ATOM      6  C   UNL A   1      33.471  28.662  25.221  1.00  0.00     0.310 C 
ATOM      7  O   UNL A   1      34.343  28.241  24.443  1.00  0.00    -0.252 OA
BRANCH   6   8
ATOM      8  C   UNL A   1      31.971  28.320  24.764  1.00  0.00     0.119 C 
ATOM      9  C   UNL A   1      31.758  26.747  24.659  1.00  0.00     0.100 C 
ATOM     10  C   UNL A   1      30.346  26.556  24.011  1.00  0.00     0.025 C 
ATOM     11  C   UNL A   1      30.894  28.690  23.631  1.00  0.00     0.027 C 
ATOM     12  C   UNL A   1      30.467  26.711  22.525  1.00  0.00    -0.027 C 
ATOM     13  C   UNL A   1      29.689  27.912  24.236  1.00  0.00     0.017 C 
ATOM     14  C   UNL A   1      30.867  27.967  22.309  1.00  0.00    -0.027 C 
BRANCH   9  15
ATOM     15  C   UNL A   1      31.821  26.025  25.973  1.00  0.00     0.228 C 
ATOM     16  N   UNL A   1      32.325  24.761  26.078  1.00  0.00    -0.326 N 
ATOM     17  H   UNL A   1      32.241  24.404  26.991  1.00  0.00     0.169 HD
ATOM     18  O   UNL A   1      31.297  26.521  26.975  1.00  0.00    -0.274 OA
BRANCH  16  19
ATOM     19  C   UNL A   1      32.939  23.838  25.196  1.00  0.00     0.044 A 
ATOM     20  C   UNL A   1      35.213  24.947  25.679  1.00  0.00     0.046 C 
ATOM     21  C   UNL A   1      34.338  23.899  25.041  1.00  0.00    -0.027 A 
ATOM     22  C   UNL A   1      34.985  22.972  24.201  1.00  0.00     0.006 A 
ATOM     23  C   UNL A   1      34.274  21.973  23.541  1.00  0.00     0.014 A 
ATOM     24  C   UNL A   1      32.243  22.887  24.432  1.00  0.00     0.040 A 
ATOM     25  C   UNL A   1      32.888  21.910  23.654  1.00  0.00     0.041 A 
BRANCH  25  26
ATOM     26  C   UNL A   1      32.203  20.825  22.877  1.00  0.00     0.251 C 
ATOM     27  O   UNL A   1      31.658  21.100  21.807  1.00  0.00    -0.269 OA
ATOM     28  N   UNL A   1      32.211  19.509  23.280  1.00  0.00    -0.349 N 
ATOM     29  H   UNL A   1      31.816  18.867  22.646  1.00  0.00     0.164 HD
BRANCH  28  30
ATOM     30  C   UNL A   1      32.709  18.953  24.483  1.00  0.00     0.082 C 
ATOM     31  C   UNL A   1      32.934  17.479  24.485  1.00  0.00     0.027 C 
ATOM     32  C   UNL A   1      34.093  18.384  24.605  1.00  0.00     0.027 C 
ENDBRANCH  28  30
ENDBRANCH  25  26
ENDBRANCH  16  19
ENDBRANCH   9  15
ENDBRANCH   6   8
ENDBRANCH   5   6
ENDBRANCH   4   5
ENDBRANCH   3   4
ENDBRANCH   2   3
ENDBRANCH   1   2
BRANCH   1  33
ATOM     33  C   UNL A   1      33.709  34.455  28.594  1.00  0.00     0.188 C 
BRANCH  33  34
ATOM     34  O   UNL A   1      32.847  34.658  29.701  1.00  0.00    -0.376 OA
BRANCH  34  35
ATOM     35  C   UNL A   1      33.362  35.389  30.811  1.00  0.00     0.202 C 
BRANCH  35  36
ATOM     36  C   UNL A   1      34.335  34.463  31.539  1.00  0.00     0.261 C 
BRANCH  36  37
ATOM     37  O   UNL A   1      35.666  35.025  31.463  1.00  0.00    -0.460 OA
BRANCH  37  38
ATOM     38  C   UNL A   1      36.459  34.708  32.513  1.00  0.00     0.338 C 
ATOM     39  O   UNL A   1      36.260  35.036  33.681  1.00  0.00    -0.246 OA
BRANCH  38  40
ATOM     40  C   UNL A   1      37.747  34.147  32.005  1.00  0.00     0.060 A 
ATOM     41  C   UNL A   1      38.867  34.398  32.751  1.00  0.00     0.016 A 
ATOM     42  C   UNL A   1      37.940  33.611  30.723  1.00  0.00     0.016 A 
ATOM     43  C   UNL A   1      40.124  34.286  32.140  1.00  0.00     0.010 A 
ATOM     44  C   UNL A   1      39.232  33.583  30.113  1.00  0.00     0.010 A 
ATOM     45  C   UNL A   1      40.379  34.060  30.772  1.00  0.00    -0.014 A 
BRANCH  45  46
ATOM     46  C   UNL A   1      41.695  34.308  29.926  1.00  0.00     0.031 A 
ATOM     47  C   UNL A   1      42.595  33.127  29.724  1.00  0.00     0.074 A 
ATOM     48  C   UNL A   1      42.228  35.378  29.186  1.00  0.00     0.049 A 
ATOM     49  N   UNL A   1      43.746  33.190  29.119  1.00  0.00    -0.248 NA
ATOM     50  C   UNL A   1      42.332  31.811  30.300  1.00  0.00     0.031 C 
ATOM     51  C   UNL A   1      42.618  35.152  27.773  1.00  0.00     0.029 A 
ATOM     52  N   UNL A   1      42.298  36.792  29.185  1.00  0.00    -0.354 N 
ATOM     53  C   UNL A   1      44.084  31.905  28.830  1.00  0.00     0.074 A 
ATOM     54  C   UNL A   1      43.392  31.137  29.836  1.00  0.00     0.031 C 
ATOM     55  C   UNL A   1      43.028  36.287  27.191  1.00  0.00     0.029 A 
ATOM     56  C   UNL A   1      43.010  37.373  28.144  1.00  0.00     0.049 A 
ATOM     57  H   UNL A   1      41.865  37.334  29.883  1.00  0.00     0.167 HD
ATOM     58  C   UNL A   1      44.652  31.613  27.626  1.00  0.00     0.037 A 
ATOM     59  C   UNL A   1      43.645  38.588  28.045  1.00  0.00     0.037 A 
ATOM     60  C   UNL A   1      45.078  32.797  26.846  1.00  0.00     0.049 A 
ATOM     61  C   UNL A   1      45.021  38.393  27.387  1.00  0.00     0.074 A 
ATOM     62  C   UNL A   1      44.687  33.313  25.620  1.00  0.00     0.029 A 
ATOM     63  N   UNL A   1      45.983  33.725  27.363  1.00  0.00    -0.354 N 
ATOM     64  N   UNL A   1      45.339  37.313  26.724  1.00  0.00    -0.248 NA
ATOM     65  C   UNL A   1      46.204  39.232  27.610  1.00  0.00     0.031 C 
ATOM     66  C   UNL A   1      45.386  34.531  25.391  1.00  0.00     0.029 A 
ATOM     67  C   UNL A   1      46.225  34.769  26.465  1.00  0.00     0.049 A 
ATOM     68  H   UNL A   1      46.400  33.654  28.252  1.00  0.00     0.167 HD
ATOM     69  C   UNL A   1      46.694  37.110  26.810  1.00  0.00     0.074 A 
ATOM     70  C   UNL A   1      47.198  38.416  27.199  1.00  0.00     0.031 C 
ATOM     71  C   UNL A   1      47.214  35.833  26.755  1.00  0.00     0.037 A 
BRANCH  58  72
ATOM     72  C   UNL A   1      44.614  30.217  27.014  1.00  0.00     0.064 A 
ATOM     73  C   UNL A   1      45.809  29.612  26.572  1.00  0.00     0.173 A 
ATOM     74  C   UNL A   1      43.448  29.461  26.744  1.00  0.00     0.173 A 
ATOM     75  F   UNL A   1      46.992  30.220  26.731  1.00  0.00    -0.203 F 
ATOM     76  C   UNL A   1      45.831  28.365  25.935  1.00  0.00     0.198 A 
ATOM     77  C   UNL A   1      43.479  28.183  26.184  1.00  0.00     0.198 A 
ATOM     78  F   UNL A   1      42.215  29.941  26.926  1.00  0.00    -0.203 F 
ATOM     79  F   UNL A   1      46.989  27.874  25.473  1.00  0.00    -0.200 F 
ATOM     80  C   UNL A   1      44.669  27.639  25.765  1.00  0.00     0.200 A 
ATOM     81  F   UNL A   1      42.332  27.505  26.024  1.00  0.00    -0.200 F 
ATOM     82  F   UNL A   1      44.690  26.438  25.175  1.00  0.00    -0.200 F 
ENDBRANCH  58  72
BRANCH  59  83
ATOM     83  C   UNL A   1      43.229  39.702  28.981  1.00  0.00     0.064 A 
ATOM     84  C   UNL A   1      41.968  40.288  28.760  1.00  0.00     0.173 A 
ATOM     85  C   UNL A   1      43.859  40.105  30.173  1.00  0.00     0.173 A 
ATOM     86  F   UNL A   1      41.354  40.106  27.581  1.00  0.00    -0.203 F 
ATOM     87  C   UNL A   1      41.303  41.042  29.738  1.00  0.00     0.198 A 
ATOM     88  C   UNL A   1      43.183  40.826  31.173  1.00  0.00     0.198 A 
ATOM     89  F   UNL A   1      45.147  39.832  30.402  1.00  0.00    -0.203 F 
ATOM     90  F   UNL A   1      40.075  41.524  29.494  1.00  0.00    -0.200 F 
ATOM     91  C   UNL A   1      41.884  41.252  30.973  1.00  0.00     0.200 A 
ATOM     92  F   UNL A   1      43.783  41.057  32.351  1.00  0.00    -0.200 F 
ATOM     93  F   UNL A   1      41.203  41.865  31.952  1.00  0.00    -0.200 F 
ENDBRANCH  59  83
BRANCH  71  94
ATOM     94  C   UNL A   1      48.653  35.409  27.055  1.00  0.00     0.064 A 
ATOM     95  C   UNL A   1      49.295  35.478  28.305  1.00  0.00     0.173 A 
ATOM     96  C   UNL A   1      49.422  34.784  26.037  1.00  0.00     0.173 A 
ATOM     97  F   UNL A   1      48.648  35.879  29.404  1.00  0.00    -0.203 F 
ATOM     98  C   UNL A   1      50.618  35.048  28.495  1.00  0.00     0.198 A 
ATOM     99  C   UNL A   1      50.708  34.284  26.249  1.00  0.00     0.198 A 
ATOM    100  F   UNL A   1      48.936  34.615  24.799  1.00  0.00    -0.203 F 
ATOM    101  F   UNL A   1      51.198  35.195  29.694  1.00  0.00    -0.200 F 
ATOM    102  C   UNL A   1      51.319  34.443  27.470  1.00  0.00     0.200 A 
ATOM    103  F   UNL A   1      51.338  33.632  25.262  1.00  0.00    -0.200 F 
ATOM    104  F   UNL A   1      52.566  33.993  27.668  1.00  0.00    -0.200 F 
ENDBRANCH  71  94
ENDBRANCH  45  46
ENDBRANCH  38  40
ENDBRANCH  37  38
ENDBRANCH  36  37
ENDBRANCH  35  36
ENDBRANCH  34  35
ENDBRANCH  33  34
ENDBRANCH   1  33
TORSDOF 21
ENDMDL
