MODEL 1
REMARK VINA RESULT:      -9.7      0.000      0.000
REMARK SMILES CCCN(C)S(=O)(=O)CCCC(=O)OCCOCCOCCOC(=O)c1ccc(-c2c3nc(c(-c4c(F)c(F)c(F)c(F)c4F)c4ccc([nH]4)c(-c4c(F)c(F)c(F)c(F)c4F)c4nc(c(-c5c(F)c(F)c(F)c(F)c5F)c5ccc2[nH]5)C=C4)C=C3)cc1
REMARK SMILES IDX 16 1 15 2 14 3 12 4 13 5 11 6 10 7 9 8 6 9 7 10 8 11 4 12
REMARK SMILES IDX 5 13 3 14 2 15 1 16 17 17 18 18 19 19 20 20 21 21 22 22
REMARK SMILES IDX 23 23 24 24 25 25 26 26 27 27 88 28 28 29 87 30 29 31 30 32
REMARK SMILES IDX 31 33 81 34 32 35 86 36 80 37 82 38 33 39 85 40 79 41 78 42
REMARK SMILES IDX 34 44 66 45 46 46 65 47 47 48 50 49 64 50 83 51 48 52 49 53
REMARK SMILES IDX 63 55 84 56 51 57 35 58 36 59 44 60 37 61 38 62 42 63 45 64
REMARK SMILES IDX 39 65 40 66 43 67 41 68 67 69 68 70 76 71 69 72 70 73 74 74
REMARK SMILES IDX 77 75 71 76 72 77 75 78 73 79 52 80 53 81 61 82 54 83 55 84
REMARK SMILES IDX 59 85 62 86 56 87 57 88 60 89 58 90
REMARK H PARENT 82 43 50 54
REMARK Flexibility Score: inf
ROOT
ATOM      1  C   UNL A   1      37.821  21.803  25.246  1.00  0.00     0.202 C 
ENDROOT
BRANCH   1   2
ATOM      2  C   UNL A   1      36.412  21.368  25.678  1.00  0.00     0.261 C 
BRANCH   2   3
ATOM      3  O   UNL A   1      35.439  21.332  24.606  1.00  0.00    -0.463 OA
BRANCH   3   4
ATOM      4  C   UNL A   1      34.292  22.030  24.779  1.00  0.00     0.305 C 
ATOM      5  O   UNL A   1      33.638  22.018  25.817  1.00  0.00    -0.252 OA
BRANCH   4   6
ATOM      6  C   UNL A   1      33.880  22.907  23.603  1.00  0.00     0.124 C 
BRANCH   6   7
ATOM      7  C   UNL A   1      34.439  24.308  23.300  1.00  0.00     0.029 C 
BRANCH   7   8
ATOM      8  C   UNL A   1      33.703  25.555  23.777  1.00  0.00     0.155 C 
BRANCH   8   9
ATOM      9  S   UNL A   1      32.754  26.377  22.508  1.00  0.00     0.213 S 
ATOM     10  O   UNL A   1      31.383  25.909  22.576  1.00  0.00    -0.212 OA
ATOM     11  O   UNL A   1      33.511  26.254  21.289  1.00  0.00    -0.212 OA
BRANCH   9  12
ATOM     12  N   UNL A   1      32.775  27.997  23.055  1.00  0.00    -0.205 NA
ATOM     13  C   UNL A   1      32.958  28.099  24.536  1.00  0.00     0.124 C 
BRANCH  12  14
ATOM     14  C   UNL A   1      31.635  28.871  22.636  1.00  0.00     0.101 C 
BRANCH  14  15
ATOM     15  C   UNL A   1      30.358  28.701  23.460  1.00  0.00     0.013 C 
ATOM     16  C   UNL A   1      29.250  29.697  23.145  1.00  0.00     0.005 C 
ENDBRANCH  14  15
ENDBRANCH  12  14
ENDBRANCH   9  12
ENDBRANCH   8   9
ENDBRANCH   7   8
ENDBRANCH   6   7
ENDBRANCH   4   6
ENDBRANCH   3   4
ENDBRANCH   2   3
ENDBRANCH   1   2
BRANCH   1  17
ATOM     17  O   UNL A   1      38.771  22.100  26.267  1.00  0.00    -0.376 OA
BRANCH  17  18
ATOM     18  C   UNL A   1      39.992  21.370  26.291  1.00  0.00     0.188 C 
BRANCH  18  19
ATOM     19  C   UNL A   1      40.802  21.331  27.595  1.00  0.00     0.188 C 
BRANCH  19  20
ATOM     20  O   UNL A   1      42.188  21.142  27.425  1.00  0.00    -0.376 OA
BRANCH  20  21
ATOM     21  C   UNL A   1      42.642  20.692  26.160  1.00  0.00     0.202 C 
BRANCH  21  22
ATOM     22  C   UNL A   1      43.479  21.686  25.337  1.00  0.00     0.261 C 
BRANCH  22  23
ATOM     23  O   UNL A   1      42.871  22.967  25.085  1.00  0.00    -0.460 OA
BRANCH  23  24
ATOM     24  C   UNL A   1      43.670  24.060  25.134  1.00  0.00     0.338 C 
ATOM     25  O   UNL A   1      44.584  24.332  24.376  1.00  0.00    -0.246 OA
BRANCH  24  26
ATOM     26  C   UNL A   1      43.050  25.014  26.090  1.00  0.00     0.060 A 
ATOM     27  C   UNL A   1      43.553  26.324  26.162  1.00  0.00     0.016 A 
ATOM     28  C   UNL A   1      41.942  24.647  26.854  1.00  0.00     0.016 A 
ATOM     29  C   UNL A   1      42.959  27.262  27.011  1.00  0.00     0.010 A 
ATOM     30  C   UNL A   1      41.365  25.578  27.723  1.00  0.00     0.010 A 
ATOM     31  C   UNL A   1      41.886  26.882  27.829  1.00  0.00    -0.014 A 
BRANCH  31  32
ATOM     32  C   UNL A   1      41.455  27.755  28.949  1.00  0.00     0.031 A 
ATOM     33  C   UNL A   1      42.212  27.659  30.247  1.00  0.00     0.074 A 
ATOM     34  C   UNL A   1      40.422  28.609  28.839  1.00  0.00     0.049 A 
ATOM     35  N   UNL A   1      41.980  28.239  31.396  1.00  0.00    -0.248 NA
ATOM     36  C   UNL A   1      43.391  26.779  30.243  1.00  0.00     0.031 C 
ATOM     37  C   UNL A   1      39.636  28.838  27.630  1.00  0.00     0.029 A 
ATOM     38  N   UNL A   1      39.849  29.436  29.775  1.00  0.00    -0.354 N 
ATOM     39  C   UNL A   1      42.972  27.781  32.253  1.00  0.00     0.074 A 
ATOM     40  C   UNL A   1      43.790  26.855  31.502  1.00  0.00     0.031 C 
ATOM     41  C   UNL A   1      38.672  29.737  27.902  1.00  0.00     0.029 A 
ATOM     42  C   UNL A   1      38.749  30.116  29.313  1.00  0.00     0.049 A 
ATOM     43  H   UNL A   1      40.196  29.533  30.692  1.00  0.00     0.167 HD
ATOM     44  C   UNL A   1      43.186  28.107  33.550  1.00  0.00     0.037 A 
ATOM     45  C   UNL A   1      37.890  30.927  29.965  1.00  0.00     0.037 A 
ATOM     46  C   UNL A   1      42.373  29.027  34.299  1.00  0.00     0.049 A 
ATOM     47  C   UNL A   1      38.099  31.207  31.434  1.00  0.00     0.074 A 
ATOM     48  C   UNL A   1      42.524  29.440  35.610  1.00  0.00     0.029 A 
ATOM     49  N   UNL A   1      41.246  29.668  33.805  1.00  0.00    -0.354 N 
ATOM     50  N   UNL A   1      39.053  30.794  32.233  1.00  0.00    -0.248 NA
ATOM     51  C   UNL A   1      37.105  32.070  32.093  1.00  0.00     0.031 C 
ATOM     52  C   UNL A   1      41.451  30.277  35.931  1.00  0.00     0.029 A 
ATOM     53  C   UNL A   1      40.673  30.447  34.798  1.00  0.00     0.049 A 
ATOM     54  H   UNL A   1      40.904  29.583  32.885  1.00  0.00     0.167 HD
ATOM     55  C   UNL A   1      38.797  31.374  33.471  1.00  0.00     0.074 A 
ATOM     56  C   UNL A   1      37.604  32.177  33.316  1.00  0.00     0.031 C 
ATOM     57  C   UNL A   1      39.491  31.254  34.630  1.00  0.00     0.037 A 
BRANCH  44  58
ATOM     58  C   UNL A   1      44.326  27.430  34.255  1.00  0.00     0.064 A 
ATOM     59  C   UNL A   1      44.176  26.183  34.883  1.00  0.00     0.173 A 
ATOM     60  C   UNL A   1      45.595  28.028  34.280  1.00  0.00     0.173 A 
ATOM     61  F   UNL A   1      42.980  25.577  34.903  1.00  0.00    -0.203 F 
ATOM     62  C   UNL A   1      45.246  25.578  35.535  1.00  0.00     0.198 A 
ATOM     63  C   UNL A   1      46.671  27.402  34.902  1.00  0.00     0.198 A 
ATOM     64  F   UNL A   1      45.794  29.219  33.695  1.00  0.00    -0.203 F 
ATOM     65  F   UNL A   1      45.067  24.414  36.176  1.00  0.00    -0.200 F 
ATOM     66  C   UNL A   1      46.494  26.182  35.537  1.00  0.00     0.200 A 
ATOM     67  F   UNL A   1      47.879  27.982  34.890  1.00  0.00    -0.200 F 
ATOM     68  F   UNL A   1      47.526  25.594  36.158  1.00  0.00    -0.200 F 
ENDBRANCH  44  58
BRANCH  45  69
ATOM     69  C   UNL A   1      36.735  31.529  29.244  1.00  0.00     0.064 A 
ATOM     70  C   UNL A   1      36.703  32.899  28.947  1.00  0.00     0.173 A 
ATOM     71  C   UNL A   1      35.622  30.758  28.875  1.00  0.00     0.173 A 
ATOM     72  F   UNL A   1      37.725  33.686  29.309  1.00  0.00    -0.203 F 
ATOM     73  C   UNL A   1      35.595  33.479  28.329  1.00  0.00     0.198 A 
ATOM     74  C   UNL A   1      34.529  31.332  28.227  1.00  0.00     0.198 A 
ATOM     75  F   UNL A   1      35.595  29.444  29.142  1.00  0.00    -0.203 F 
ATOM     76  F   UNL A   1      35.568  34.800  28.111  1.00  0.00    -0.200 F 
ATOM     77  C   UNL A   1      34.512  32.693  27.964  1.00  0.00     0.200 A 
ATOM     78  F   UNL A   1      33.489  30.568  27.868  1.00  0.00    -0.200 F 
ATOM     79  F   UNL A   1      33.447  33.251  27.370  1.00  0.00    -0.200 F 
ENDBRANCH  45  69
BRANCH  57  80
ATOM     80  C   UNL A   1      39.016  32.050  35.816  1.00  0.00     0.064 A 
ATOM     81  C   UNL A   1      38.215  31.484  36.818  1.00  0.00     0.173 A 
ATOM     82  C   UNL A   1      39.412  33.388  35.974  1.00  0.00     0.173 A 
ATOM     83  F   UNL A   1      37.799  30.213  36.714  1.00  0.00    -0.203 F 
ATOM     84  C   UNL A   1      37.805  32.236  37.918  1.00  0.00     0.198 A 
ATOM     85  C   UNL A   1      39.030  34.125  37.091  1.00  0.00     0.198 A 
ATOM     86  F   UNL A   1      40.187  33.978  35.051  1.00  0.00    -0.203 F 
ATOM     87  F   UNL A   1      36.996  31.688  38.837  1.00  0.00    -0.200 F 
ATOM     88  C   UNL A   1      38.220  33.551  38.058  1.00  0.00     0.200 A 
ATOM     89  F   UNL A   1      39.449  35.390  37.233  1.00  0.00    -0.200 F 
ATOM     90  F   UNL A   1      37.832  34.269  39.122  1.00  0.00    -0.200 F 
ENDBRANCH  57  80
ENDBRANCH  31  32
ENDBRANCH  24  26
ENDBRANCH  23  24
ENDBRANCH  22  23
ENDBRANCH  21  22
ENDBRANCH  20  21
ENDBRANCH  19  20
ENDBRANCH  18  19
ENDBRANCH  17  18
ENDBRANCH   1  17
TORSDOF 23
ENDMDL
MODEL 2
REMARK VINA RESULT:      -9.5      0.800      1.895
REMARK SMILES CCCN(C)S(=O)(=O)CCCC(=O)OCCOCCOCCOC(=O)c1ccc(-c2c3nc(c(-c4c(F)c(F)c(F)c(F)c4F)c4ccc([nH]4)c(-c4c(F)c(F)c(F)c(F)c4F)c4nc(c(-c5c(F)c(F)c(F)c(F)c5F)c5ccc2[nH]5)C=C4)C=C3)cc1
REMARK SMILES IDX 16 1 15 2 14 3 12 4 13 5 11 6 10 7 9 8 6 9 7 10 8 11 4 12
REMARK SMILES IDX 5 13 3 14 2 15 1 16 17 17 18 18 19 19 20 20 21 21 22 22
REMARK SMILES IDX 23 23 24 24 25 25 26 26 27 27 88 28 28 29 87 30 29 31 30 32
REMARK SMILES IDX 31 33 81 34 32 35 86 36 80 37 82 38 33 39 85 40 79 41 78 42
REMARK SMILES IDX 34 44 66 45 46 46 65 47 47 48 50 49 64 50 83 51 48 52 49 53
REMARK SMILES IDX 63 55 84 56 51 57 35 58 36 59 44 60 37 61 38 62 42 63 45 64
REMARK SMILES IDX 39 65 40 66 43 67 41 68 67 69 68 70 76 71 69 72 70 73 74 74
REMARK SMILES IDX 77 75 71 76 72 77 75 78 73 79 52 80 53 81 61 82 54 83 55 84
REMARK SMILES IDX 59 85 62 86 56 87 57 88 60 89 58 90
REMARK H PARENT 82 43 50 54
REMARK Flexibility Score: inf
ROOT
ATOM      1  C   UNL A   1      37.976  20.842  25.408  1.00  0.00     0.202 C 
ENDROOT
BRANCH   1   2
ATOM      2  C   UNL A   1      36.648  21.040  24.660  1.00  0.00     0.261 C 
BRANCH   2   3
ATOM      3  O   UNL A   1      36.666  22.097  23.671  1.00  0.00    -0.463 OA
BRANCH   3   4
ATOM      4  C   UNL A   1      35.864  23.167  23.884  1.00  0.00     0.305 C 
ATOM      5  O   UNL A   1      36.157  24.100  24.626  1.00  0.00    -0.252 OA
BRANCH   4   6
ATOM      6  C   UNL A   1      34.570  23.181  23.080  1.00  0.00     0.124 C 
BRANCH   6   7
ATOM      7  C   UNL A   1      33.168  23.437  23.656  1.00  0.00     0.029 C 
BRANCH   7   8
ATOM      8  C   UNL A   1      32.828  24.777  24.299  1.00  0.00     0.155 C 
BRANCH   8   9
ATOM      9  S   UNL A   1      32.420  26.067  23.135  1.00  0.00     0.213 S 
ATOM     10  O   UNL A   1      31.161  25.733  22.494  1.00  0.00    -0.212 OA
ATOM     11  O   UNL A   1      33.604  26.297  22.348  1.00  0.00    -0.212 OA
BRANCH   9  12
ATOM     12  N   UNL A   1      32.134  27.394  24.174  1.00  0.00    -0.205 NA
ATOM     13  C   UNL A   1      32.716  28.668  23.649  1.00  0.00     0.124 C 
BRANCH  12  14
ATOM     14  C   UNL A   1      32.518  27.229  25.611  1.00  0.00     0.101 C 
BRANCH  14  15
ATOM     15  C   UNL A   1      31.347  27.237  26.594  1.00  0.00     0.013 C 
ATOM     16  C   UNL A   1      31.480  28.223  27.747  1.00  0.00     0.005 C 
ENDBRANCH  14  15
ENDBRANCH  12  14
ENDBRANCH   9  12
ENDBRANCH   8   9
ENDBRANCH   7   8
ENDBRANCH   6   7
ENDBRANCH   4   6
ENDBRANCH   3   4
ENDBRANCH   2   3
ENDBRANCH   1   2
BRANCH   1  17
ATOM     17  O   UNL A   1      38.671  22.004  25.856  1.00  0.00    -0.376 OA
BRANCH  17  18
ATOM     18  C   UNL A   1      39.840  21.832  26.648  1.00  0.00     0.188 C 
BRANCH  18  19
ATOM     19  C   UNL A   1      40.650  20.536  26.495  1.00  0.00     0.188 C 
BRANCH  19  20
ATOM     20  O   UNL A   1      41.998  20.630  26.894  1.00  0.00    -0.376 OA
BRANCH  20  21
ATOM     21  C   UNL A   1      42.994  20.374  25.919  1.00  0.00     0.202 C 
BRANCH  21  22
ATOM     22  C   UNL A   1      43.810  21.584  25.436  1.00  0.00     0.261 C 
BRANCH  22  23
ATOM     23  O   UNL A   1      43.070  22.802  25.226  1.00  0.00    -0.460 OA
BRANCH  23  24
ATOM     24  C   UNL A   1      43.773  23.959  25.164  1.00  0.00     0.338 C 
ATOM     25  O   UNL A   1      44.600  24.267  24.325  1.00  0.00    -0.246 OA
BRANCH  24  26
ATOM     26  C   UNL A   1      43.148  24.904  26.124  1.00  0.00     0.060 A 
ATOM     27  C   UNL A   1      43.543  26.253  26.102  1.00  0.00     0.016 A 
ATOM     28  C   UNL A   1      42.133  24.487  26.985  1.00  0.00     0.016 A 
ATOM     29  C   UNL A   1      42.935  27.179  26.955  1.00  0.00     0.010 A 
ATOM     30  C   UNL A   1      41.544  25.410  27.856  1.00  0.00     0.010 A 
ATOM     31  C   UNL A   1      41.961  26.754  27.867  1.00  0.00    -0.014 A 
BRANCH  31  32
ATOM     32  C   UNL A   1      41.541  27.642  28.980  1.00  0.00     0.031 A 
ATOM     33  C   UNL A   1      42.300  27.552  30.277  1.00  0.00     0.074 A 
ATOM     34  C   UNL A   1      40.516  28.506  28.863  1.00  0.00     0.049 A 
ATOM     35  N   UNL A   1      42.077  28.146  31.421  1.00  0.00    -0.248 NA
ATOM     36  C   UNL A   1      43.471  26.660  30.279  1.00  0.00     0.031 C 
ATOM     37  C   UNL A   1      39.730  28.731  27.654  1.00  0.00     0.029 A 
ATOM     38  N   UNL A   1      39.955  29.348  29.793  1.00  0.00    -0.354 N 
ATOM     39  C   UNL A   1      43.066  27.686  32.280  1.00  0.00     0.074 A 
ATOM     40  C   UNL A   1      43.873  26.745  31.536  1.00  0.00     0.031 C 
ATOM     41  C   UNL A   1      38.776  29.642  27.919  1.00  0.00     0.029 A 
ATOM     42  C   UNL A   1      38.860  30.034  29.326  1.00  0.00     0.049 A 
ATOM     43  H   UNL A   1      40.304  29.450  30.708  1.00  0.00     0.167 HD
ATOM     44  C   UNL A   1      43.287  28.023  33.573  1.00  0.00     0.037 A 
ATOM     45  C   UNL A   1      38.011  30.860  29.972  1.00  0.00     0.037 A 
ATOM     46  C   UNL A   1      42.484  28.959  34.314  1.00  0.00     0.049 A 
ATOM     47  C   UNL A   1      38.225  31.152  31.438  1.00  0.00     0.074 A 
ATOM     48  C   UNL A   1      42.643  29.383  35.622  1.00  0.00     0.029 A 
ATOM     49  N   UNL A   1      41.363  29.606  33.817  1.00  0.00    -0.354 N 
ATOM     50  N   UNL A   1      39.177  30.738  32.239  1.00  0.00    -0.248 NA
ATOM     51  C   UNL A   1      37.242  32.032  32.090  1.00  0.00     0.031 C 
ATOM     52  C   UNL A   1      41.579  30.234  35.937  1.00  0.00     0.029 A 
ATOM     53  C   UNL A   1      40.800  30.400  34.803  1.00  0.00     0.049 A 
ATOM     54  H   UNL A   1      41.018  29.515  32.899  1.00  0.00     0.167 HD
ATOM     55  C   UNL A   1      38.931  31.333  33.471  1.00  0.00     0.074 A 
ATOM     56  C   UNL A   1      37.745  32.146  33.311  1.00  0.00     0.031 C 
ATOM     57  C   UNL A   1      39.626  31.217  34.630  1.00  0.00     0.037 A 
BRANCH  44  58
ATOM     58  C   UNL A   1      44.421  27.342  34.282  1.00  0.00     0.064 A 
ATOM     59  C   UNL A   1      45.707  27.902  34.338  1.00  0.00     0.173 A 
ATOM     60  C   UNL A   1      44.211  26.119  34.937  1.00  0.00     0.173 A 
ATOM     61  F   UNL A   1      45.966  29.061  33.713  1.00  0.00    -0.203 F 
ATOM     62  C   UNL A   1      46.745  27.249  34.997  1.00  0.00     0.198 A 
ATOM     63  C   UNL A   1      45.242  25.487  35.626  1.00  0.00     0.198 A 
ATOM     64  F   UNL A   1      43.002  25.539  34.916  1.00  0.00    -0.203 F 
ATOM     65  F   UNL A   1      47.977  27.776  34.990  1.00  0.00    -0.200 F 
ATOM     66  C   UNL A   1      46.510  26.047  35.647  1.00  0.00     0.200 A 
ATOM     67  F   UNL A   1      45.009  24.332  36.265  1.00  0.00    -0.200 F 
ATOM     68  F   UNL A   1      47.508  25.424  36.289  1.00  0.00    -0.200 F 
ENDBRANCH  44  58
BRANCH  45  69
ATOM     69  C   UNL A   1      36.859  31.466  29.248  1.00  0.00     0.064 A 
ATOM     70  C   UNL A   1      36.836  32.836  28.946  1.00  0.00     0.173 A 
ATOM     71  C   UNL A   1      35.743  30.701  28.880  1.00  0.00     0.173 A 
ATOM     72  F   UNL A   1      37.863  33.618  29.306  1.00  0.00    -0.203 F 
ATOM     73  C   UNL A   1      35.732  33.420  28.326  1.00  0.00     0.198 A 
ATOM     74  C   UNL A   1      34.654  31.279  28.228  1.00  0.00     0.198 A 
ATOM     75  F   UNL A   1      35.708  29.388  29.152  1.00  0.00    -0.203 F 
ATOM     76  F   UNL A   1      35.713  34.741  28.103  1.00  0.00    -0.200 F 
ATOM     77  C   UNL A   1      34.645  32.639  27.961  1.00  0.00     0.200 A 
ATOM     78  F   UNL A   1      33.610  30.520  27.871  1.00  0.00    -0.200 F 
ATOM     79  F   UNL A   1      33.585  33.201  27.364  1.00  0.00    -0.200 F 
ENDBRANCH  45  69
BRANCH  57  80
ATOM     80  C   UNL A   1      39.161  32.030  35.809  1.00  0.00     0.064 A 
ATOM     81  C   UNL A   1      39.516  33.377  35.969  1.00  0.00     0.173 A 
ATOM     82  C   UNL A   1      38.306  31.461  36.767  1.00  0.00     0.173 A 
ATOM     83  F   UNL A   1      40.338  33.968  35.090  1.00  0.00    -0.203 F 
ATOM     84  C   UNL A   1      39.056  34.115  37.059  1.00  0.00     0.198 A 
ATOM     85  C   UNL A   1      37.819  32.210  37.834  1.00  0.00     0.198 A 
ATOM     86  F   UNL A   1      37.926  30.178  36.658  1.00  0.00    -0.203 F 
ATOM     87  F   UNL A   1      39.450  35.386  37.218  1.00  0.00    -0.200 F 
ATOM     88  C   UNL A   1      38.202  33.534  37.984  1.00  0.00     0.200 A 
ATOM     89  F   UNL A   1      36.978  31.652  38.715  1.00  0.00    -0.200 F 
ATOM     90  F   UNL A   1      37.752  34.249  39.025  1.00  0.00    -0.200 F 
ENDBRANCH  57  80
ENDBRANCH  31  32
ENDBRANCH  24  26
ENDBRANCH  23  24
ENDBRANCH  22  23
ENDBRANCH  21  22
ENDBRANCH  20  21
ENDBRANCH  19  20
ENDBRANCH  18  19
ENDBRANCH  17  18
ENDBRANCH   1  17
TORSDOF 23
ENDMDL
MODEL 3
REMARK VINA RESULT:      -9.4      4.484      6.802
REMARK SMILES CCCN(C)S(=O)(=O)CCCC(=O)OCCOCCOCCOC(=O)c1ccc(-c2c3nc(c(-c4c(F)c(F)c(F)c(F)c4F)c4ccc([nH]4)c(-c4c(F)c(F)c(F)c(F)c4F)c4nc(c(-c5c(F)c(F)c(F)c(F)c5F)c5ccc2[nH]5)C=C4)C=C3)cc1
REMARK SMILES IDX 16 1 15 2 14 3 12 4 13 5 11 6 10 7 9 8 6 9 7 10 8 11 4 12
REMARK SMILES IDX 5 13 3 14 2 15 1 16 17 17 18 18 19 19 20 20 21 21 22 22
REMARK SMILES IDX 23 23 24 24 25 25 26 26 27 27 88 28 28 29 87 30 29 31 30 32
REMARK SMILES IDX 31 33 81 34 32 35 86 36 80 37 82 38 33 39 85 40 79 41 78 42
REMARK SMILES IDX 34 44 66 45 46 46 65 47 47 48 50 49 64 50 83 51 48 52 49 53
REMARK SMILES IDX 63 55 84 56 51 57 35 58 36 59 44 60 37 61 38 62 42 63 45 64
REMARK SMILES IDX 39 65 40 66 43 67 41 68 67 69 68 70 76 71 69 72 70 73 74 74
REMARK SMILES IDX 77 75 71 76 72 77 75 78 73 79 52 80 53 81 61 82 54 83 55 84
REMARK SMILES IDX 59 85 62 86 56 87 57 88 60 89 58 90
REMARK H PARENT 82 43 50 54
REMARK Flexibility Score: inf
ROOT
ATOM      1  C   UNL A   1      34.318  22.065  23.862  1.00  0.00     0.202 C 
ENDROOT
BRANCH   1   2
ATOM      2  C   UNL A   1      33.321  23.178  24.219  1.00  0.00     0.261 C 
BRANCH   2   3
ATOM      3  O   UNL A   1      33.909  24.497  24.336  1.00  0.00    -0.463 OA
BRANCH   3   4
ATOM      4  C   UNL A   1      33.545  25.251  25.400  1.00  0.00     0.305 C 
ATOM      5  O   UNL A   1      34.023  26.353  25.649  1.00  0.00    -0.252 OA
BRANCH   4   6
ATOM      6  C   UNL A   1      32.430  24.667  26.259  1.00  0.00     0.124 C 
BRANCH   6   7
ATOM      7  C   UNL A   1      30.925  24.864  26.018  1.00  0.00     0.029 C 
BRANCH   7   8
ATOM      8  C   UNL A   1      30.381  26.221  25.584  1.00  0.00     0.155 C 
BRANCH   8   9
ATOM      9  S   UNL A   1      29.836  26.284  23.886  1.00  0.00     0.213 S 
ATOM     10  O   UNL A   1      28.386  26.267  23.863  1.00  0.00    -0.212 OA
ATOM     11  O   UNL A   1      30.593  25.285  23.177  1.00  0.00    -0.212 OA
BRANCH   9  12
ATOM     12  N   UNL A   1      30.341  27.850  23.418  1.00  0.00    -0.205 NA
ATOM     13  C   UNL A   1      31.268  28.473  24.413  1.00  0.00     0.124 C 
BRANCH  12  14
ATOM     14  C   UNL A   1      29.271  28.831  23.057  1.00  0.00     0.101 C 
BRANCH  14  15
ATOM     15  C   UNL A   1      29.687  29.887  22.033  1.00  0.00     0.013 C 
ATOM     16  C   UNL A   1      28.537  30.539  21.276  1.00  0.00     0.005 C 
ENDBRANCH  14  15
ENDBRANCH  12  14
ENDBRANCH   9  12
ENDBRANCH   8   9
ENDBRANCH   7   8
ENDBRANCH   6   7
ENDBRANCH   4   6
ENDBRANCH   3   4
ENDBRANCH   2   3
ENDBRANCH   1   2
BRANCH   1  17
ATOM     17  O   UNL A   1      34.607  21.082  24.854  1.00  0.00    -0.376 OA
BRANCH  17  18
ATOM     18  C   UNL A   1      35.577  21.385  25.848  1.00  0.00     0.188 C 
BRANCH  18  19
ATOM     19  C   UNL A   1      36.914  22.001  25.409  1.00  0.00     0.188 C 
BRANCH  19  20
ATOM     20  O   UNL A   1      37.729  21.156  24.629  1.00  0.00    -0.376 OA
BRANCH  20  21
ATOM     21  C   UNL A   1      37.803  19.789  24.997  1.00  0.00     0.202 C 
BRANCH  21  22
ATOM     22  C   UNL A   1      39.096  19.336  25.696  1.00  0.00     0.261 C 
BRANCH  22  23
ATOM     23  O   UNL A   1      40.118  20.339  25.847  1.00  0.00    -0.460 OA
BRANCH  23  24
ATOM     24  C   UNL A   1      40.767  20.398  27.035  1.00  0.00     0.338 C 
ATOM     25  O   UNL A   1      41.284  19.472  27.632  1.00  0.00    -0.246 OA
BRANCH  24  26
ATOM     26  C   UNL A   1      40.996  21.835  27.338  1.00  0.00     0.060 A 
ATOM     27  C   UNL A   1      40.249  22.801  26.644  1.00  0.00     0.016 A 
ATOM     28  C   UNL A   1      41.880  22.224  28.345  1.00  0.00     0.016 A 
ATOM     29  C   UNL A   1      40.400  24.158  26.944  1.00  0.00     0.010 A 
ATOM     30  C   UNL A   1      42.050  23.583  28.625  1.00  0.00     0.010 A 
ATOM     31  C   UNL A   1      41.334  24.560  27.908  1.00  0.00    -0.014 A 
BRANCH  31  32
ATOM     32  C   UNL A   1      41.733  25.986  28.013  1.00  0.00     0.031 A 
ATOM     33  C   UNL A   1      43.071  26.384  27.450  1.00  0.00     0.074 A 
ATOM     34  C   UNL A   1      40.948  26.912  28.590  1.00  0.00     0.049 A 
ATOM     35  N   UNL A   1      43.690  27.536  27.496  1.00  0.00    -0.248 NA
ATOM     36  C   UNL A   1      43.815  25.329  26.743  1.00  0.00     0.031 C 
ATOM     37  C   UNL A   1      39.612  26.675  29.130  1.00  0.00     0.029 A 
ATOM     38  N   UNL A   1      41.177  28.246  28.830  1.00  0.00    -0.354 N 
ATOM     39  C   UNL A   1      44.898  27.338  26.841  1.00  0.00     0.074 A 
ATOM     40  C   UNL A   1      44.939  25.952  26.431  1.00  0.00     0.031 C 
ATOM     41  C   UNL A   1      39.144  27.824  29.652  1.00  0.00     0.029 A 
ATOM     42  C   UNL A   1      40.162  28.866  29.518  1.00  0.00     0.049 A 
ATOM     43  H   UNL A   1      41.991  28.714  28.536  1.00  0.00     0.167 HD
ATOM     44  C   UNL A   1      45.884  28.234  26.597  1.00  0.00     0.037 A 
ATOM     45  C   UNL A   1      40.082  30.121  30.006  1.00  0.00     0.037 A 
ATOM     46  C   UNL A   1      45.845  29.613  27.005  1.00  0.00     0.049 A 
ATOM     47  C   UNL A   1      41.232  31.077  29.797  1.00  0.00     0.074 A 
ATOM     48  C   UNL A   1      46.785  30.603  26.783  1.00  0.00     0.029 A 
ATOM     49  N   UNL A   1      44.816  30.193  27.731  1.00  0.00    -0.354 N 
ATOM     50  N   UNL A   1      42.360  30.895  29.154  1.00  0.00    -0.248 NA
ATOM     51  C   UNL A   1      41.095  32.419  30.386  1.00  0.00     0.031 C 
ATOM     52  C   UNL A   1      46.357  31.765  27.432  1.00  0.00     0.029 A 
ATOM     53  C   UNL A   1      45.114  31.521  27.995  1.00  0.00     0.049 A 
ATOM     54  H   UNL A   1      43.994  29.731  28.015  1.00  0.00     0.167 HD
ATOM     55  C   UNL A   1      43.045  32.102  29.227  1.00  0.00     0.074 A 
ATOM     56  C   UNL A   1      42.203  33.015  29.969  1.00  0.00     0.031 C 
ATOM     57  C   UNL A   1      44.263  32.426  28.723  1.00  0.00     0.037 A 
BRANCH  44  58
ATOM     58  C   UNL A   1      47.111  27.737  25.888  1.00  0.00     0.064 A 
ATOM     59  C   UNL A   1      48.215  27.222  26.585  1.00  0.00     0.173 A 
ATOM     60  C   UNL A   1      47.171  27.754  24.487  1.00  0.00     0.173 A 
ATOM     61  F   UNL A   1      48.216  27.200  27.927  1.00  0.00    -0.203 F 
ATOM     62  C   UNL A   1      49.344  26.772  25.906  1.00  0.00     0.198 A 
ATOM     63  C   UNL A   1      48.287  27.269  23.810  1.00  0.00     0.198 A 
ATOM     64  F   UNL A   1      46.144  28.234  23.771  1.00  0.00    -0.203 F 
ATOM     65  F   UNL A   1      50.409  26.337  26.595  1.00  0.00    -0.200 F 
ATOM     66  C   UNL A   1      49.376  26.788  24.520  1.00  0.00     0.200 A 
ATOM     67  F   UNL A   1      48.309  27.272  22.470  1.00  0.00    -0.200 F 
ATOM     68  F   UNL A   1      50.460  26.345  23.867  1.00  0.00    -0.200 F 
ENDBRANCH  44  58
BRANCH  45  69
ATOM     69  C   UNL A   1      38.873  30.556  30.759  1.00  0.00     0.064 A 
ATOM     70  C   UNL A   1      37.772  31.119  30.096  1.00  0.00     0.173 A 
ATOM     71  C   UNL A   1      38.808  30.458  32.157  1.00  0.00     0.173 A 
ATOM     72  F   UNL A   1      37.797  31.267  28.764  1.00  0.00    -0.203 F 
ATOM     73  C   UNL A   1      36.665  31.587  30.804  1.00  0.00     0.198 A 
ATOM     74  C   UNL A   1      37.687  30.894  32.861  1.00  0.00     0.198 A 
ATOM     75  F   UNL A   1      39.836  29.936  32.842  1.00  0.00    -0.203 F 
ATOM     76  F   UNL A   1      35.654  32.174  30.149  1.00  0.00    -0.200 F 
ATOM     77  C   UNL A   1      36.621  31.468  32.185  1.00  0.00     0.200 A 
ATOM     78  F   UNL A   1      37.644  30.770  34.193  1.00  0.00    -0.200 F 
ATOM     79  F   UNL A   1      35.556  31.917  32.864  1.00  0.00    -0.200 F 
ENDBRANCH  45  69
BRANCH  57  80
ATOM     80  C   UNL A   1      44.741  33.841  28.904  1.00  0.00     0.064 A 
ATOM     81  C   UNL A   1      45.539  34.223  29.992  1.00  0.00     0.173 A 
ATOM     82  C   UNL A   1      44.435  34.819  27.944  1.00  0.00     0.173 A 
ATOM     83  F   UNL A   1      45.854  33.332  30.944  1.00  0.00    -0.203 F 
ATOM     84  C   UNL A   1      45.988  35.536  30.126  1.00  0.00     0.198 A 
ATOM     85  C   UNL A   1      44.914  36.121  28.062  1.00  0.00     0.198 A 
ATOM     86  F   UNL A   1      43.683  34.508  26.876  1.00  0.00    -0.203 F 
ATOM     87  F   UNL A   1      46.706  35.889  31.202  1.00  0.00    -0.200 F 
ATOM     88  C   UNL A   1      45.683  36.480  29.158  1.00  0.00     0.200 A 
ATOM     89  F   UNL A   1      44.635  37.026  27.114  1.00  0.00    -0.200 F 
ATOM     90  F   UNL A   1      46.124  37.740  29.284  1.00  0.00    -0.200 F 
ENDBRANCH  57  80
ENDBRANCH  31  32
ENDBRANCH  24  26
ENDBRANCH  23  24
ENDBRANCH  22  23
ENDBRANCH  21  22
ENDBRANCH  20  21
ENDBRANCH  19  20
ENDBRANCH  18  19
ENDBRANCH  17  18
ENDBRANCH   1  17
TORSDOF 23
ENDMDL
