MODEL 1
REMARK VINA RESULT:      -7.4      0.000      0.000
REMARK SMILES CCCCCCOC(=O)Nc1cccc(-c2ccc([C@@H](C)C(=O)OCCOCCOCCOC(=O)c3ccc(-c4c5nc(c(-c6c(F)c(F)c(F)c(F)c6F)c6ccc([nH]6)c(-c6c(F)c(F)c(F)c(F)c6F)c6nc(c(-c7c(F)c(F)c(F)c(F)c7F)c7ccc4[nH]7)C=C6)C=C5)cc3)cc2F)c1
REMARK SMILES IDX 25 1 24 2 22 3 23 4 20 5 21 6 19 7 16 8 17 9 100 10 18 11
REMARK SMILES IDX 99 12 101 13 15 14 11 15 12 16 102 17 13 18 14 19 10 20 8 21
REMARK SMILES IDX 9 22 7 24 6 25 5 26 4 27 3 28 2 29 1 30 26 31 27 32 28 33
REMARK SMILES IDX 29 34 30 35 31 36 32 37 33 38 34 39 35 40 36 41 37 42 98 43
REMARK SMILES IDX 38 44 97 45 39 46 40 47 41 48 91 49 42 50 96 51 90 52 92 53
REMARK SMILES IDX 43 54 95 55 89 56 88 57 44 59 76 60 56 61 75 62 57 63 60 64
REMARK SMILES IDX 74 65 93 66 58 67 59 68 73 70 94 71 61 72 45 73 46 74 54 75
REMARK SMILES IDX 47 76 48 77 52 78 55 79 49 80 50 81 53 82 51 83 77 84 78 85
REMARK SMILES IDX 86 86 79 87 80 88 84 89 87 90 81 91 82 92 85 93 83 94 62 95
REMARK SMILES IDX 63 96 71 97 64 98 65 99 69 100 72 101 66 102 67 103 70 104
REMARK SMILES IDX 68 105
REMARK H PARENT 10 23 92 58 60 69
REMARK Flexibility Score: inf
ROOT
ATOM      1  C   UNL A   1      44.884  34.070  26.880  1.00  0.00     0.261 C 
ENDROOT
BRANCH   1   2
ATOM      2  O   UNL A   1      44.148  32.973  26.291  1.00  0.00    -0.463 OA
BRANCH   2   3
ATOM      3  C   UNL A   1      44.634  31.727  26.515  1.00  0.00     0.313 C 
ATOM      4  O   UNL A   1      45.463  31.185  25.786  1.00  0.00    -0.252 OA
BRANCH   3   5
ATOM      5  C   UNL A   1      44.116  31.006  27.764  1.00  0.00     0.126 C 
ATOM      6  C   UNL A   1      45.267  30.841  28.754  1.00  0.00     0.025 C 
BRANCH   5   7
ATOM      7  C   UNL A   1      43.313  29.711  27.666  1.00  0.00    -0.031 A 
ATOM      8  C   UNL A   1      41.866  27.232  27.599  1.00  0.00     0.018 A 
ATOM      9  C   UNL A   1      41.864  28.115  26.506  1.00  0.00     0.012 A 
ATOM     10  C   UNL A   1      42.616  27.615  28.718  1.00  0.00     0.131 A 
ATOM     11  C   UNL A   1      42.579  29.330  26.534  1.00  0.00     0.005 A 
ATOM     12  C   UNL A   1      43.330  28.816  28.754  1.00  0.00     0.044 A 
ATOM     13  F   UNL A   1      42.681  26.816  29.796  1.00  0.00    -0.206 F 
BRANCH   8  14
ATOM     14  C   UNL A   1      41.152  25.941  27.560  1.00  0.00    -0.013 A 
ATOM     15  C   UNL A   1      41.174  23.504  27.321  1.00  0.00     0.045 A 
ATOM     16  C   UNL A   1      39.785  23.495  27.206  1.00  0.00     0.026 A 
ATOM     17  C   UNL A   1      41.850  24.720  27.508  1.00  0.00     0.035 A 
ATOM     18  C   UNL A   1      39.071  24.685  27.324  1.00  0.00     0.003 A 
ATOM     19  C   UNL A   1      39.749  25.897  27.492  1.00  0.00     0.009 A 
BRANCH  15  20
ATOM     20  N   UNL A   1      41.857  22.298  27.116  1.00  0.00    -0.291 N 
ATOM     21  C   UNL A   1      42.193  21.730  25.920  1.00  0.00     0.411 C 
ATOM     22  O   UNL A   1      42.330  20.516  25.814  1.00  0.00    -0.224 OA
ATOM     23  H   UNL A   1      42.127  21.806  27.925  1.00  0.00     0.173 HD
BRANCH  21  24
ATOM     24  O   UNL A   1      42.483  22.646  24.965  1.00  0.00    -0.449 OA
BRANCH  24  25
ATOM     25  C   UNL A   1      43.861  22.864  24.633  1.00  0.00     0.235 C 
BRANCH  25  26
ATOM     26  C   UNL A   1      44.314  24.305  24.867  1.00  0.00     0.042 C 
BRANCH  26  27
ATOM     27  C   UNL A   1      45.181  24.533  26.107  1.00  0.00     0.003 C 
BRANCH  27  28
ATOM     28  C   UNL A   1      45.286  23.334  27.061  1.00  0.00    -0.000 C 
BRANCH  28  29
ATOM     29  C   UNL A   1      45.380  23.688  28.545  1.00  0.00    -0.003 C 
ATOM     30  C   UNL A   1      45.399  25.186  28.793  1.00  0.00     0.004 C 
ENDBRANCH  28  29
ENDBRANCH  27  28
ENDBRANCH  26  27
ENDBRANCH  25  26
ENDBRANCH  24  25
ENDBRANCH  21  24
ENDBRANCH  15  20
ENDBRANCH   8  14
ENDBRANCH   5   7
ENDBRANCH   3   5
ENDBRANCH   2   3
ENDBRANCH   1   2
BRANCH   1  31
ATOM     31  C   UNL A   1      44.397  35.476  26.502  1.00  0.00     0.202 C 
BRANCH  31  32
ATOM     32  O   UNL A   1      43.022  35.641  26.175  1.00  0.00    -0.376 OA
BRANCH  32  33
ATOM     33  C   UNL A   1      42.209  36.491  26.975  1.00  0.00     0.188 C 
BRANCH  33  34
ATOM     34  C   UNL A   1      42.458  38.005  26.964  1.00  0.00     0.188 C 
BRANCH  34  35
ATOM     35  O   UNL A   1      41.660  38.730  27.872  1.00  0.00    -0.376 OA
BRANCH  35  36
ATOM     36  C   UNL A   1      41.924  40.114  27.986  1.00  0.00     0.202 C 
BRANCH  36  37
ATOM     37  C   UNL A   1      42.685  40.511  29.257  1.00  0.00     0.261 C 
BRANCH  37  38
ATOM     38  O   UNL A   1      44.114  40.322  29.240  1.00  0.00    -0.460 OA
BRANCH  38  39
ATOM     39  C   UNL A   1      44.732  40.106  30.423  1.00  0.00     0.338 C 
ATOM     40  O   UNL A   1      45.270  40.934  31.132  1.00  0.00    -0.246 OA
BRANCH  39  41
ATOM     41  C   UNL A   1      44.434  38.727  30.859  1.00  0.00     0.060 A 
ATOM     42  C   UNL A   1      43.924  38.523  32.150  1.00  0.00     0.016 A 
ATOM     43  C   UNL A   1      44.628  37.650  29.994  1.00  0.00     0.016 A 
ATOM     44  C   UNL A   1      43.592  37.237  32.575  1.00  0.00     0.010 A 
ATOM     45  C   UNL A   1      44.322  36.361  30.432  1.00  0.00     0.010 A 
ATOM     46  C   UNL A   1      43.809  36.146  31.724  1.00  0.00    -0.014 A 
BRANCH  46  47
ATOM     47  C   UNL A   1      43.621  34.756  32.201  1.00  0.00     0.031 A 
ATOM     48  C   UNL A   1      44.726  34.105  32.978  1.00  0.00     0.074 A 
ATOM     49  C   UNL A   1      42.505  34.069  31.900  1.00  0.00     0.049 A 
ATOM     50  N   UNL A   1      44.864  32.856  33.341  1.00  0.00    -0.248 NA
ATOM     51  C   UNL A   1      45.829  34.983  33.396  1.00  0.00     0.031 C 
ATOM     52  C   UNL A   1      41.343  34.607  31.198  1.00  0.00     0.029 A 
ATOM     53  N   UNL A   1      42.185  32.752  32.126  1.00  0.00    -0.354 N 
ATOM     54  C   UNL A   1      46.076  32.794  34.015  1.00  0.00     0.074 A 
ATOM     55  C   UNL A   1      46.643  34.126  33.995  1.00  0.00     0.031 C 
ATOM     56  C   UNL A   1      40.447  33.621  31.022  1.00  0.00     0.029 A 
ATOM     57  C   UNL A   1      40.995  32.373  31.554  1.00  0.00     0.049 A 
ATOM     58  H   UNL A   1      42.753  32.139  32.646  1.00  0.00     0.167 HD
ATOM     59  C   UNL A   1      46.660  31.719  34.595  1.00  0.00     0.037 A 
ATOM     60  C   UNL A   1      40.438  31.152  31.434  1.00  0.00     0.037 A 
ATOM     61  C   UNL A   1      46.092  30.398  34.605  1.00  0.00     0.049 A 
ATOM     62  C   UNL A   1      41.159  29.952  31.998  1.00  0.00     0.074 A 
ATOM     63  C   UNL A   1      46.594  29.248  35.189  1.00  0.00     0.029 A 
ATOM     64  N   UNL A   1      44.900  30.046  33.990  1.00  0.00    -0.354 N 
ATOM     65  N   UNL A   1      42.293  29.897  32.652  1.00  0.00    -0.248 NA
ATOM     66  C   UNL A   1      40.524  28.640  31.796  1.00  0.00     0.031 C 
ATOM     67  C   UNL A   1      45.737  28.189  34.873  1.00  0.00     0.029 A 
ATOM     68  C   UNL A   1      44.669  28.689  34.147  1.00  0.00     0.049 A 
ATOM     69  H   UNL A   1      44.304  30.669  33.513  1.00  0.00     0.167 HD
ATOM     70  C   UNL A   1      42.494  28.558  32.963  1.00  0.00     0.074 A 
ATOM     71  C   UNL A   1      41.357  27.832  32.436  1.00  0.00     0.031 C 
ATOM     72  C   UNL A   1      43.528  27.981  33.623  1.00  0.00     0.037 A 
BRANCH  59  73
ATOM     73  C   UNL A   1      48.003  31.921  35.235  1.00  0.00     0.064 A 
ATOM     74  C   UNL A   1      48.134  32.257  36.590  1.00  0.00     0.173 A 
ATOM     75  C   UNL A   1      49.177  31.736  34.487  1.00  0.00     0.173 A 
ATOM     76  F   UNL A   1      47.043  32.456  37.345  1.00  0.00    -0.203 F 
ATOM     77  C   UNL A   1      49.390  32.426  37.167  1.00  0.00     0.198 A 
ATOM     78  C   UNL A   1      50.430  31.874  35.075  1.00  0.00     0.198 A 
ATOM     79  F   UNL A   1      49.107  31.409  33.189  1.00  0.00    -0.203 F 
ATOM     80  F   UNL A   1      49.491  32.791  38.453  1.00  0.00    -0.200 F 
ATOM     81  C   UNL A   1      50.537  32.226  36.412  1.00  0.00     0.200 A 
ATOM     82  F   UNL A   1      51.536  31.666  34.348  1.00  0.00    -0.200 F 
ATOM     83  F   UNL A   1      51.744  32.378  36.971  1.00  0.00    -0.200 F 
ENDBRANCH  59  73
BRANCH  60  84
ATOM     84  C   UNL A   1      39.146  30.990  30.716  1.00  0.00     0.064 A 
ATOM     85  C   UNL A   1      37.929  31.286  31.346  1.00  0.00     0.173 A 
ATOM     86  C   UNL A   1      39.097  30.508  29.399  1.00  0.00     0.173 A 
ATOM     87  F   UNL A   1      37.920  31.719  32.615  1.00  0.00    -0.203 F 
ATOM     88  C   UNL A   1      36.713  31.092  30.692  1.00  0.00     0.198 A 
ATOM     89  C   UNL A   1      37.882  30.344  28.735  1.00  0.00     0.198 A 
ATOM     90  F   UNL A   1      40.231  30.199  28.754  1.00  0.00    -0.203 F 
ATOM     91  F   UNL A   1      35.563  31.333  31.336  1.00  0.00    -0.200 F 
ATOM     92  C   UNL A   1      36.691  30.628  29.385  1.00  0.00     0.200 A 
ATOM     93  F   UNL A   1      37.867  29.904  27.470  1.00  0.00    -0.200 F 
ATOM     94  F   UNL A   1      35.522  30.442  28.758  1.00  0.00    -0.200 F 
ENDBRANCH  60  84
BRANCH  72  95
ATOM     95  C   UNL A   1      43.471  26.496  33.847  1.00  0.00     0.064 A 
ATOM     96  C   UNL A   1      44.211  25.603  33.058  1.00  0.00     0.173 A 
ATOM     97  C   UNL A   1      42.723  25.966  34.910  1.00  0.00     0.173 A 
ATOM     98  F   UNL A   1      44.932  26.056  32.021  1.00  0.00    -0.203 F 
ATOM     99  C   UNL A   1      44.191  24.234  33.316  1.00  0.00     0.198 A 
ATOM    100  C   UNL A   1      42.730  24.602  35.184  1.00  0.00     0.198 A 
ATOM    101  F   UNL A   1      42.003  26.777  35.700  1.00  0.00    -0.203 F 
ATOM    102  F   UNL A   1      44.875  23.395  32.526  1.00  0.00    -0.200 F 
ATOM    103  C   UNL A   1      43.459  23.736  34.384  1.00  0.00     0.200 A 
ATOM    104  F   UNL A   1      42.036  24.124  36.227  1.00  0.00    -0.200 F 
ATOM    105  F   UNL A   1      43.457  22.421  34.640  1.00  0.00    -0.200 F 
ENDBRANCH  72  95
ENDBRANCH  46  47
ENDBRANCH  39  41
ENDBRANCH  38  39
ENDBRANCH  37  38
ENDBRANCH  36  37
ENDBRANCH  35  36
ENDBRANCH  34  35
ENDBRANCH  33  34
ENDBRANCH  32  33
ENDBRANCH  31  32
ENDBRANCH   1  31
TORSDOF 26
ENDMDL
MODEL 2
REMARK VINA RESULT:      -7.4      4.887      9.309
REMARK SMILES CCCCCCOC(=O)Nc1cccc(-c2ccc([C@@H](C)C(=O)OCCOCCOCCOC(=O)c3ccc(-c4c5nc(c(-c6c(F)c(F)c(F)c(F)c6F)c6ccc([nH]6)c(-c6c(F)c(F)c(F)c(F)c6F)c6nc(c(-c7c(F)c(F)c(F)c(F)c7F)c7ccc4[nH]7)C=C6)C=C5)cc3)cc2F)c1
REMARK SMILES IDX 25 1 24 2 22 3 23 4 20 5 21 6 19 7 16 8 17 9 100 10 18 11
REMARK SMILES IDX 99 12 101 13 15 14 11 15 12 16 102 17 13 18 14 19 10 20 8 21
REMARK SMILES IDX 9 22 7 24 6 25 5 26 4 27 3 28 2 29 1 30 26 31 27 32 28 33
REMARK SMILES IDX 29 34 30 35 31 36 32 37 33 38 34 39 35 40 36 41 37 42 98 43
REMARK SMILES IDX 38 44 97 45 39 46 40 47 41 48 91 49 42 50 96 51 90 52 92 53
REMARK SMILES IDX 43 54 95 55 89 56 88 57 44 59 76 60 56 61 75 62 57 63 60 64
REMARK SMILES IDX 74 65 93 66 58 67 59 68 73 70 94 71 61 72 45 73 46 74 54 75
REMARK SMILES IDX 47 76 48 77 52 78 55 79 49 80 50 81 53 82 51 83 77 84 78 85
REMARK SMILES IDX 86 86 79 87 80 88 84 89 87 90 81 91 82 92 85 93 83 94 62 95
REMARK SMILES IDX 63 96 71 97 64 98 65 99 69 100 72 101 66 102 67 103 70 104
REMARK SMILES IDX 68 105
REMARK H PARENT 10 23 92 58 60 69
REMARK Flexibility Score: inf
ROOT
ATOM      1  C   UNL A   1      32.543  23.512  26.900  1.00  0.00     0.261 C 
ENDROOT
BRANCH   1   2
ATOM      2  O   UNL A   1      33.510  22.772  26.120  1.00  0.00    -0.463 OA
BRANCH   2   3
ATOM      3  C   UNL A   1      34.418  23.504  25.427  1.00  0.00     0.313 C 
ATOM      4  O   UNL A   1      34.340  24.724  25.295  1.00  0.00    -0.252 OA
BRANCH   3   5
ATOM      5  C   UNL A   1      35.592  22.734  24.815  1.00  0.00     0.126 C 
ATOM      6  C   UNL A   1      35.165  21.287  24.578  1.00  0.00     0.025 C 
BRANCH   5   7
ATOM      7  C   UNL A   1      36.989  22.779  25.432  1.00  0.00    -0.031 A 
ATOM      8  C   UNL A   1      39.606  23.002  26.590  1.00  0.00     0.018 A 
ATOM      9  C   UNL A   1      39.114  21.775  26.115  1.00  0.00     0.012 A 
ATOM     10  C   UNL A   1      38.762  24.113  26.462  1.00  0.00     0.131 A 
ATOM     11  C   UNL A   1      37.831  21.665  25.540  1.00  0.00     0.005 A 
ATOM     12  C   UNL A   1      37.490  24.013  25.891  1.00  0.00     0.044 A 
ATOM     13  F   UNL A   1      39.167  25.323  26.879  1.00  0.00    -0.206 F 
BRANCH   8  14
ATOM     14  C   UNL A   1      40.963  23.132  27.156  1.00  0.00    -0.013 A 
ATOM     15  C   UNL A   1      43.328  23.713  26.902  1.00  0.00     0.045 A 
ATOM     16  C   UNL A   1      43.613  23.126  28.134  1.00  0.00     0.026 A 
ATOM     17  C   UNL A   1      42.008  23.725  26.423  1.00  0.00     0.035 A 
ATOM     18  C   UNL A   1      42.581  22.595  28.905  1.00  0.00     0.003 A 
ATOM     19  C   UNL A   1      41.270  22.593  28.417  1.00  0.00     0.009 A 
BRANCH  15  20
ATOM     20  N   UNL A   1      44.403  24.161  26.124  1.00  0.00    -0.291 N 
ATOM     21  C   UNL A   1      45.666  23.641  26.079  1.00  0.00     0.411 C 
ATOM     22  O   UNL A   1      46.628  24.341  25.783  1.00  0.00    -0.224 OA
ATOM     23  H   UNL A   1      44.230  24.937  25.544  1.00  0.00     0.173 HD
BRANCH  21  24
ATOM     24  O   UNL A   1      45.688  22.296  26.249  1.00  0.00    -0.449 OA
BRANCH  24  25
ATOM     25  C   UNL A   1      45.425  21.467  25.109  1.00  0.00     0.235 C 
BRANCH  25  26
ATOM     26  C   UNL A   1      46.277  20.198  25.081  1.00  0.00     0.042 C 
BRANCH  26  27
ATOM     27  C   UNL A   1      45.518  18.886  25.292  1.00  0.00     0.003 C 
BRANCH  27  28
ATOM     28  C   UNL A   1      44.110  18.839  24.681  1.00  0.00    -0.000 C 
BRANCH  28  29
ATOM     29  C   UNL A   1      42.983  18.524  25.664  1.00  0.00    -0.003 C 
ATOM     30  C   UNL A   1      42.682  19.678  26.604  1.00  0.00     0.004 C 
ENDBRANCH  28  29
ENDBRANCH  27  28
ENDBRANCH  26  27
ENDBRANCH  25  26
ENDBRANCH  24  25
ENDBRANCH  21  24
ENDBRANCH  15  20
ENDBRANCH   8  14
ENDBRANCH   5   7
ENDBRANCH   3   5
ENDBRANCH   2   3
ENDBRANCH   1   2
BRANCH   1  31
ATOM     31  C   UNL A   1      31.166  23.702  26.244  1.00  0.00     0.202 C 
BRANCH  31  32
ATOM     32  O   UNL A   1      30.928  24.909  25.531  1.00  0.00    -0.376 OA
BRANCH  32  33
ATOM     33  C   UNL A   1      30.943  26.149  26.228  1.00  0.00     0.188 C 
BRANCH  33  34
ATOM     34  C   UNL A   1      31.710  27.340  25.638  1.00  0.00     0.188 C 
BRANCH  34  35
ATOM     35  O   UNL A   1      32.101  28.305  26.588  1.00  0.00    -0.376 OA
BRANCH  35  36
ATOM     36  C   UNL A   1      33.044  29.268  26.165  1.00  0.00     0.202 C 
BRANCH  36  37
ATOM     37  C   UNL A   1      32.810  30.675  26.730  1.00  0.00     0.261 C 
BRANCH  37  38
ATOM     38  O   UNL A   1      33.821  31.189  27.620  1.00  0.00    -0.460 OA
BRANCH  38  39
ATOM     39  C   UNL A   1      33.778  32.507  27.922  1.00  0.00     0.338 C 
ATOM     40  O   UNL A   1      32.866  33.281  27.705  1.00  0.00    -0.246 OA
BRANCH  39  41
ATOM     41  C   UNL A   1      34.925  32.820  28.797  1.00  0.00     0.060 A 
ATOM     42  C   UNL A   1      35.795  31.783  29.167  1.00  0.00     0.016 A 
ATOM     43  C   UNL A   1      35.158  34.127  29.226  1.00  0.00     0.016 A 
ATOM     44  C   UNL A   1      36.911  32.054  29.958  1.00  0.00     0.010 A 
ATOM     45  C   UNL A   1      36.259  34.391  30.040  1.00  0.00     0.010 A 
ATOM     46  C   UNL A   1      37.137  33.358  30.415  1.00  0.00    -0.014 A 
BRANCH  46  47
ATOM     47  C   UNL A   1      38.218  33.649  31.386  1.00  0.00     0.031 A 
ATOM     48  C   UNL A   1      39.544  34.121  30.868  1.00  0.00     0.074 A 
ATOM     49  C   UNL A   1      38.037  33.444  32.702  1.00  0.00     0.049 A 
ATOM     50  N   UNL A   1      40.680  34.266  31.500  1.00  0.00    -0.248 NA
ATOM     51  C   UNL A   1      39.595  34.471  29.440  1.00  0.00     0.031 C 
ATOM     52  C   UNL A   1      36.782  33.038  33.331  1.00  0.00     0.029 A 
ATOM     53  N   UNL A   1      38.927  33.524  33.745  1.00  0.00    -0.354 N 
ATOM     54  C   UNL A   1      41.585  34.707  30.544  1.00  0.00     0.074 A 
ATOM     55  C   UNL A   1      40.872  34.789  29.288  1.00  0.00     0.031 C 
ATOM     56  C   UNL A   1      36.990  32.873  34.648  1.00  0.00     0.029 A 
ATOM     57  C   UNL A   1      38.401  33.113  34.945  1.00  0.00     0.049 A 
ATOM     58  H   UNL A   1      39.853  33.843  33.642  1.00  0.00     0.167 HD
ATOM     59  C   UNL A   1      42.894  35.013  30.706  1.00  0.00     0.037 A 
ATOM     60  C   UNL A   1      39.003  32.910  36.134  1.00  0.00     0.037 A 
ATOM     61  C   UNL A   1      43.596  34.924  31.959  1.00  0.00     0.049 A 
ATOM     62  C   UNL A   1      40.486  33.159  36.265  1.00  0.00     0.074 A 
ATOM     63  C   UNL A   1      44.917  35.237  32.231  1.00  0.00     0.029 A 
ATOM     64  N   UNL A   1      43.039  34.476  33.147  1.00  0.00    -0.354 N 
ATOM     65  N   UNL A   1      41.336  33.595  35.368  1.00  0.00    -0.248 NA
ATOM     66  C   UNL A   1      41.095  32.876  37.573  1.00  0.00     0.031 C 
ATOM     67  C   UNL A   1      45.174  34.919  33.568  1.00  0.00     0.029 A 
ATOM     68  C   UNL A   1      43.998  34.467  34.146  1.00  0.00     0.049 A 
ATOM     69  H   UNL A   1      42.098  34.205  33.264  1.00  0.00     0.167 HD
ATOM     70  C   UNL A   1      42.568  33.665  36.006  1.00  0.00     0.074 A 
ATOM     71  C   UNL A   1      42.355  33.238  37.373  1.00  0.00     0.031 C 
ATOM     72  C   UNL A   1      43.769  34.047  35.505  1.00  0.00     0.037 A 
BRANCH  59  73
ATOM     73  C   UNL A   1      43.663  35.438  29.489  1.00  0.00     0.064 A 
ATOM     74  C   UNL A   1      43.811  36.788  29.141  1.00  0.00     0.173 A 
ATOM     75  C   UNL A   1      44.293  34.478  28.681  1.00  0.00     0.173 A 
ATOM     76  F   UNL A   1      43.218  37.744  29.872  1.00  0.00    -0.203 F 
ATOM     77  C   UNL A   1      44.540  37.161  28.014  1.00  0.00     0.198 A 
ATOM     78  C   UNL A   1      45.047  34.856  27.574  1.00  0.00     0.198 A 
ATOM     79  F   UNL A   1      44.187  33.174  28.973  1.00  0.00    -0.203 F 
ATOM     80  F   UNL A   1      44.631  38.454  27.674  1.00  0.00    -0.200 F 
ATOM     81  C   UNL A   1      45.164  36.196  27.237  1.00  0.00     0.200 A 
ATOM     82  F   UNL A   1      45.661  33.924  26.835  1.00  0.00    -0.200 F 
ATOM     83  F   UNL A   1      45.874  36.557  26.160  1.00  0.00    -0.200 F 
ENDBRANCH  59  73
BRANCH  60  84
ATOM     84  C   UNL A   1      38.216  32.407  37.292  1.00  0.00     0.064 A 
ATOM     85  C   UNL A   1      37.812  31.067  37.361  1.00  0.00     0.173 A 
ATOM     86  C   UNL A   1      37.828  33.260  38.336  1.00  0.00     0.173 A 
ATOM     87  F   UNL A   1      38.129  30.220  36.371  1.00  0.00    -0.203 F 
ATOM     88  C   UNL A   1      37.035  30.603  38.422  1.00  0.00     0.198 A 
ATOM     89  C   UNL A   1      37.079  32.787  39.413  1.00  0.00     0.198 A 
ATOM     90  F   UNL A   1      38.180  34.554  38.315  1.00  0.00    -0.203 F 
ATOM     91  F   UNL A   1      36.617  29.330  38.436  1.00  0.00    -0.200 F 
ATOM     92  C   UNL A   1      36.675  31.462  39.450  1.00  0.00     0.200 A 
ATOM     93  F   UNL A   1      36.741  33.619  40.407  1.00  0.00    -0.200 F 
ATOM     94  F   UNL A   1      35.930  31.014  40.469  1.00  0.00    -0.200 F 
ENDBRANCH  60  84
BRANCH  72  95
ATOM     95  C   UNL A   1      44.945  34.054  36.441  1.00  0.00     0.064 A 
ATOM     96  C   UNL A   1      45.264  35.180  37.215  1.00  0.00     0.173 A 
ATOM     97  C   UNL A   1      45.719  32.896  36.617  1.00  0.00     0.173 A 
ATOM     98  F   UNL A   1      44.565  36.316  37.073  1.00  0.00    -0.203 F 
ATOM     99  C   UNL A   1      46.323  35.150  38.119  1.00  0.00     0.198 A 
ATOM    100  C   UNL A   1      46.757  32.861  37.544  1.00  0.00     0.198 A 
ATOM    101  F   UNL A   1      45.452  31.790  35.908  1.00  0.00    -0.203 F 
ATOM    102  F   UNL A   1      46.634  36.249  38.820  1.00  0.00    -0.200 F 
ATOM    103  C   UNL A   1      47.062  33.989  38.290  1.00  0.00     0.200 A 
ATOM    104  F   UNL A   1      47.458  31.732  37.721  1.00  0.00    -0.200 F 
ATOM    105  F   UNL A   1      48.069  33.958  39.174  1.00  0.00    -0.200 F 
ENDBRANCH  72  95
ENDBRANCH  46  47
ENDBRANCH  39  41
ENDBRANCH  38  39
ENDBRANCH  37  38
ENDBRANCH  36  37
ENDBRANCH  35  36
ENDBRANCH  34  35
ENDBRANCH  33  34
ENDBRANCH  32  33
ENDBRANCH  31  32
ENDBRANCH   1  31
TORSDOF 26
ENDMDL
MODEL 3
REMARK VINA RESULT:      -7.3      5.385     10.478
REMARK SMILES CCCCCCOC(=O)Nc1cccc(-c2ccc([C@@H](C)C(=O)OCCOCCOCCOC(=O)c3ccc(-c4c5nc(c(-c6c(F)c(F)c(F)c(F)c6F)c6ccc([nH]6)c(-c6c(F)c(F)c(F)c(F)c6F)c6nc(c(-c7c(F)c(F)c(F)c(F)c7F)c7ccc4[nH]7)C=C6)C=C5)cc3)cc2F)c1
REMARK SMILES IDX 25 1 24 2 22 3 23 4 20 5 21 6 19 7 16 8 17 9 100 10 18 11
REMARK SMILES IDX 99 12 101 13 15 14 11 15 12 16 102 17 13 18 14 19 10 20 8 21
REMARK SMILES IDX 9 22 7 24 6 25 5 26 4 27 3 28 2 29 1 30 26 31 27 32 28 33
REMARK SMILES IDX 29 34 30 35 31 36 32 37 33 38 34 39 35 40 36 41 37 42 98 43
REMARK SMILES IDX 38 44 97 45 39 46 40 47 41 48 91 49 42 50 96 51 90 52 92 53
REMARK SMILES IDX 43 54 95 55 89 56 88 57 44 59 76 60 56 61 75 62 57 63 60 64
REMARK SMILES IDX 74 65 93 66 58 67 59 68 73 70 94 71 61 72 45 73 46 74 54 75
REMARK SMILES IDX 47 76 48 77 52 78 55 79 49 80 50 81 53 82 51 83 77 84 78 85
REMARK SMILES IDX 86 86 79 87 80 88 84 89 87 90 81 91 82 92 85 93 83 94 62 95
REMARK SMILES IDX 63 96 71 97 64 98 65 99 69 100 72 101 66 102 67 103 70 104
REMARK SMILES IDX 68 105
REMARK H PARENT 10 23 92 58 60 69
REMARK Flexibility Score: inf
ROOT
ATOM      1  C   UNL A   1      43.362  23.958  26.320  1.00  0.00     0.261 C 
ENDROOT
BRANCH   1   2
ATOM      2  O   UNL A   1      42.460  23.227  25.457  1.00  0.00    -0.463 OA
BRANCH   2   3
ATOM      3  C   UNL A   1      42.413  21.882  25.629  1.00  0.00     0.313 C 
ATOM      4  O   UNL A   1      43.267  21.116  25.186  1.00  0.00    -0.252 OA
BRANCH   3   5
ATOM      5  C   UNL A   1      41.234  21.339  26.441  1.00  0.00     0.126 C 
ATOM      6  C   UNL A   1      41.266  19.812  26.399  1.00  0.00     0.025 C 
BRANCH   5   7
ATOM      7  C   UNL A   1      39.809  21.843  26.221  1.00  0.00    -0.031 A 
ATOM      8  C   UNL A   1      37.160  22.899  25.892  1.00  0.00     0.018 A 
ATOM      9  C   UNL A   1      37.497  21.607  25.454  1.00  0.00     0.012 A 
ATOM     10  C   UNL A   1      38.176  23.642  26.507  1.00  0.00     0.131 A 
ATOM     11  C   UNL A   1      38.796  21.084  25.621  1.00  0.00     0.005 A 
ATOM     12  C   UNL A   1      39.466  23.130  26.678  1.00  0.00     0.044 A 
ATOM     13  F   UNL A   1      37.927  24.879  26.966  1.00  0.00    -0.206 F 
BRANCH   8  14
ATOM     14  C   UNL A   1      35.792  23.436  25.757  1.00  0.00    -0.013 A 
ATOM     15  C   UNL A   1      34.171  24.862  24.602  1.00  0.00     0.045 A 
ATOM     16  C   UNL A   1      33.261  24.685  25.642  1.00  0.00     0.026 A 
ATOM     17  C   UNL A   1      35.424  24.231  24.655  1.00  0.00     0.035 A 
ATOM     18  C   UNL A   1      33.580  23.847  26.708  1.00  0.00     0.003 A 
ATOM     19  C   UNL A   1      34.836  23.234  26.766  1.00  0.00     0.009 A 
BRANCH  15  20
ATOM     20  N   UNL A   1      33.843  25.776  23.591  1.00  0.00    -0.291 N 
ATOM     21  C   UNL A   1      33.387  25.492  22.335  1.00  0.00     0.411 C 
ATOM     22  O   UNL A   1      33.590  26.260  21.400  1.00  0.00    -0.224 OA
ATOM     23  H   UNL A   1      33.953  26.729  23.811  1.00  0.00     0.173 HD
BRANCH  21  24
ATOM     24  O   UNL A   1      32.599  24.390  22.297  1.00  0.00    -0.449 OA
BRANCH  24  25
ATOM     25  C   UNL A   1      33.163  23.172  21.792  1.00  0.00     0.235 C 
BRANCH  25  26
ATOM     26  C   UNL A   1      32.490  21.920  22.354  1.00  0.00     0.042 C 
BRANCH  26  27
ATOM     27  C   UNL A   1      32.144  21.967  23.844  1.00  0.00     0.003 C 
BRANCH  27  28
ATOM     28  C   UNL A   1      32.339  20.646  24.602  1.00  0.00    -0.000 C 
BRANCH  28  29
ATOM     29  C   UNL A   1      33.785  20.313  24.970  1.00  0.00    -0.003 C 
ATOM     30  C   UNL A   1      34.195  18.916  24.540  1.00  0.00     0.004 C 
ENDBRANCH  28  29
ENDBRANCH  27  28
ENDBRANCH  26  27
ENDBRANCH  25  26
ENDBRANCH  24  25
ENDBRANCH  21  24
ENDBRANCH  15  20
ENDBRANCH   8  14
ENDBRANCH   5   7
ENDBRANCH   3   5
ENDBRANCH   2   3
ENDBRANCH   1   2
BRANCH   1  31
ATOM     31  C   UNL A   1      42.698  24.938  27.299  1.00  0.00     0.202 C 
BRANCH  31  32
ATOM     32  O   UNL A   1      42.059  26.088  26.760  1.00  0.00    -0.376 OA
BRANCH  32  33
ATOM     33  C   UNL A   1      40.846  26.553  27.341  1.00  0.00     0.188 C 
BRANCH  33  34
ATOM     34  C   UNL A   1      40.754  26.725  28.863  1.00  0.00     0.188 C 
BRANCH  34  35
ATOM     35  O   UNL A   1      39.529  27.259  29.313  1.00  0.00    -0.376 OA
BRANCH  35  36
ATOM     36  C   UNL A   1      39.029  26.761  30.536  1.00  0.00     0.202 C 
BRANCH  36  37
ATOM     37  C   UNL A   1      38.104  27.730  31.284  1.00  0.00     0.261 C 
BRANCH  37  38
ATOM     38  O   UNL A   1      38.532  28.149  32.595  1.00  0.00    -0.460 OA
BRANCH  38  39
ATOM     39  C   UNL A   1      38.605  29.478  32.835  1.00  0.00     0.338 C 
ATOM     40  O   UNL A   1      38.017  30.102  33.697  1.00  0.00    -0.246 OA
BRANCH  39  41
ATOM     41  C   UNL A   1      39.720  30.033  32.042  1.00  0.00     0.060 A 
ATOM     42  C   UNL A   1      40.984  30.145  32.641  1.00  0.00     0.016 A 
ATOM     43  C   UNL A   1      39.529  30.411  30.713  1.00  0.00     0.016 A 
ATOM     44  C   UNL A   1      42.067  30.625  31.905  1.00  0.00     0.010 A 
ATOM     45  C   UNL A   1      40.608  30.918  29.987  1.00  0.00     0.010 A 
ATOM     46  C   UNL A   1      41.878  31.033  30.579  1.00  0.00    -0.014 A 
BRANCH  46  47
ATOM     47  C   UNL A   1      42.966  31.697  29.823  1.00  0.00     0.031 A 
ATOM     48  C   UNL A   1      44.118  30.867  29.338  1.00  0.00     0.074 A 
ATOM     49  C   UNL A   1      42.954  33.026  29.619  1.00  0.00     0.049 A 
ATOM     50  N   UNL A   1      45.256  31.246  28.819  1.00  0.00    -0.248 NA
ATOM     51  C   UNL A   1      43.964  29.410  29.464  1.00  0.00     0.031 C 
ATOM     52  C   UNL A   1      41.870  33.930  29.995  1.00  0.00     0.029 A 
ATOM     53  N   UNL A   1      43.905  33.849  29.068  1.00  0.00    -0.354 N 
ATOM     54  C   UNL A   1      45.962  30.077  28.572  1.00  0.00     0.074 A 
ATOM     55  C   UNL A   1      45.132  28.977  29.013  1.00  0.00     0.031 C 
ATOM     56  C   UNL A   1      42.229  35.188  29.692  1.00  0.00     0.029 A 
ATOM     57  C   UNL A   1      43.586  35.183  29.148  1.00  0.00     0.049 A 
ATOM     58  H   UNL A   1      44.735  33.516  28.656  1.00  0.00     0.167 HD
ATOM     59  C   UNL A   1      47.194  29.940  28.026  1.00  0.00     0.037 A 
ATOM     60  C   UNL A   1      44.326  36.272  28.859  1.00  0.00     0.037 A 
ATOM     61  C   UNL A   1      48.014  31.039  27.594  1.00  0.00     0.049 A 
ATOM     62  C   UNL A   1      45.735  36.096  28.350  1.00  0.00     0.074 A 
ATOM     63  C   UNL A   1      49.266  31.002  27.005  1.00  0.00     0.029 A 
ATOM     64  N   UNL A   1      47.671  32.377  27.718  1.00  0.00    -0.354 N 
ATOM     65  N   UNL A   1      46.393  34.991  28.096  1.00  0.00    -0.248 NA
ATOM     66  C   UNL A   1      46.508  37.321  28.096  1.00  0.00     0.031 C 
ATOM     67  C   UNL A   1      49.705  32.318  26.830  1.00  0.00     0.029 A 
ATOM     68  C   UNL A   1      48.703  33.176  27.253  1.00  0.00     0.049 A 
ATOM     69  H   UNL A   1      46.818  32.711  28.083  1.00  0.00     0.167 HD
ATOM     70  C   UNL A   1      47.642  35.385  27.630  1.00  0.00     0.074 A 
ATOM     71  C   UNL A   1      47.646  36.833  27.622  1.00  0.00     0.031 C 
ATOM     72  C   UNL A   1      48.690  34.617  27.244  1.00  0.00     0.037 A 
BRANCH  59  73
ATOM     73  C   UNL A   1      47.745  28.549  27.899  1.00  0.00     0.064 A 
ATOM     74  C   UNL A   1      47.577  27.789  26.732  1.00  0.00     0.173 A 
ATOM     75  C   UNL A   1      48.486  27.985  28.949  1.00  0.00     0.173 A 
ATOM     76  F   UNL A   1      46.867  28.278  25.704  1.00  0.00    -0.203 F 
ATOM     77  C   UNL A   1      48.108  26.506  26.631  1.00  0.00     0.198 A 
ATOM     78  C   UNL A   1      49.042  26.715  28.833  1.00  0.00     0.198 A 
ATOM     79  F   UNL A   1      48.680  28.671  30.085  1.00  0.00    -0.203 F 
ATOM     80  F   UNL A   1      47.897  25.781  25.524  1.00  0.00    -0.200 F 
ATOM     81  C   UNL A   1      48.848  25.973  27.677  1.00  0.00     0.200 A 
ATOM     82  F   UNL A   1      49.769  26.209  29.838  1.00  0.00    -0.200 F 
ATOM     83  F   UNL A   1      49.367  24.743  27.574  1.00  0.00    -0.200 F 
ENDBRANCH  59  73
BRANCH  60  84
ATOM     84  C   UNL A   1      43.766  37.632  29.081  1.00  0.00     0.064 A 
ATOM     85  C   UNL A   1      42.983  38.259  28.102  1.00  0.00     0.173 A 
ATOM     86  C   UNL A   1      44.027  38.345  30.261  1.00  0.00     0.173 A 
ATOM     87  F   UNL A   1      42.734  37.632  26.943  1.00  0.00    -0.203 F 
ATOM     88  C   UNL A   1      42.496  39.551  28.288  1.00  0.00     0.198 A 
ATOM     89  C   UNL A   1      43.512  39.626  30.459  1.00  0.00     0.198 A 
ATOM     90  F   UNL A   1      44.778  37.797  31.227  1.00  0.00    -0.203 F 
ATOM     91  F   UNL A   1      41.795  40.146  27.312  1.00  0.00    -0.200 F 
ATOM     92  C   UNL A   1      42.755  40.231  29.468  1.00  0.00     0.200 A 
ATOM     93  F   UNL A   1      43.758  40.275  31.605  1.00  0.00    -0.200 F 
ATOM     94  F   UNL A   1      42.285  41.473  29.645  1.00  0.00    -0.200 F 
ENDBRANCH  60  84
BRANCH  72  95
ATOM     95  C   UNL A   1      49.924  35.318  26.749  1.00  0.00     0.064 A 
ATOM     96  C   UNL A   1      50.985  35.638  27.608  1.00  0.00     0.173 A 
ATOM     97  C   UNL A   1      50.076  35.607  25.383  1.00  0.00     0.173 A 
ATOM     98  F   UNL A   1      50.884  35.396  28.924  1.00  0.00    -0.203 F 
ATOM     99  C   UNL A   1      52.145  36.237  27.122  1.00  0.00     0.198 A 
ATOM    100  C   UNL A   1      51.249  36.177  24.896  1.00  0.00     0.198 A 
ATOM    101  F   UNL A   1      49.095  35.315  24.517  1.00  0.00    -0.203 F 
ATOM    102  F   UNL A   1      53.130  36.570  27.967  1.00  0.00    -0.200 F 
ATOM    103  C   UNL A   1      52.280  36.496  25.766  1.00  0.00     0.200 A 
ATOM    104  F   UNL A   1      51.385  36.410  23.583  1.00  0.00    -0.200 F 
ATOM    105  F   UNL A   1      53.404  37.055  25.299  1.00  0.00    -0.200 F 
ENDBRANCH  72  95
ENDBRANCH  46  47
ENDBRANCH  39  41
ENDBRANCH  38  39
ENDBRANCH  37  38
ENDBRANCH  36  37
ENDBRANCH  35  36
ENDBRANCH  34  35
ENDBRANCH  33  34
ENDBRANCH  32  33
ENDBRANCH  31  32
ENDBRANCH   1  31
TORSDOF 26
ENDMDL
