MODEL 1
REMARK VINA RESULT:      -9.6      0.000      0.000
REMARK SMILES CCCOc1cncc(N[C@@](C)(C(=O)OCCOCCOCCOC(=O)c2ccc(-c3c4nc(c(-c5c(F)c(F)c(F)c(F)c5F)c5ccc([nH]5)c(-c5c(F)c(F)c(F)c(F)c5F)c5nc(c(-c6c(F)c(F)c(F)c(F)c6F)c6ccc3[nH]6)C=C5)C=C4)cc2)C(F)(F)F)n1
REMARK SMILES IDX 18 1 17 2 16 3 15 4 13 5 14 6 11 7 12 8 10 9 9 11 5 12 6 13
REMARK SMILES IDX 94 14 7 15 8 16 4 17 3 18 2 19 1 20 90 21 91 22 92 23 93 24
REMARK SMILES IDX 19 25 20 26 21 27 22 28 23 29 24 30 25 31 26 32 27 33 28 34
REMARK SMILES IDX 89 35 29 36 88 37 30 38 31 39 32 40 82 41 33 42 87 43 81 44
REMARK SMILES IDX 83 45 34 46 86 47 80 48 79 49 35 51 67 52 47 53 66 54 48 55
REMARK SMILES IDX 51 56 65 57 84 58 49 59 50 60 64 62 85 63 52 64 36 65 37 66
REMARK SMILES IDX 45 67 38 68 39 69 43 70 46 71 40 72 41 73 44 74 42 75 68 76
REMARK SMILES IDX 69 77 77 78 70 79 71 80 75 81 78 82 72 83 73 84 76 85 74 86
REMARK SMILES IDX 53 87 54 88 62 89 55 90 56 91 60 92 63 93 57 94 58 95 61 96
REMARK SMILES IDX 59 97
REMARK H PARENT 10 10 83 50 51 61
REMARK Flexibility Score: inf
ROOT
ATOM      1  O   UNL A   1      39.127  21.078  25.997  1.00  0.00    -0.376 OA
ENDROOT
BRANCH   1   2
ATOM      2  C   UNL A   1      38.074  21.855  25.445  1.00  0.00     0.202 C 
BRANCH   2   3
ATOM      3  C   UNL A   1      36.950  21.130  24.683  1.00  0.00     0.261 C 
BRANCH   3   4
ATOM      4  O   UNL A   1      35.687  21.839  24.602  1.00  0.00    -0.461 OA
BRANCH   4   5
ATOM      5  C   UNL A   1      34.584  21.135  24.964  1.00  0.00     0.341 C 
ATOM      6  O   UNL A   1      34.590  19.907  25.004  1.00  0.00    -0.249 OA
BRANCH   5   7
ATOM      7  C   UNL A   1      33.302  21.969  25.231  1.00  0.00     0.230 C 
ATOM      8  C   UNL A   1      32.156  20.963  25.060  1.00  0.00     0.058 C 
BRANCH   7   9
ATOM      9  N   UNL A   1      33.053  23.108  24.255  1.00  0.00    -0.346 N 
ATOM     10  H   UNL A   1      33.523  22.997  23.397  1.00  0.00     0.163 HD
BRANCH   9  11
ATOM     11  C   UNL A   1      32.304  24.267  24.323  1.00  0.00     0.149 A 
ATOM     12  C   UNL A   1      32.269  26.601  24.301  1.00  0.00     0.234 A 
ATOM     13  C   UNL A   1      30.890  26.608  24.240  1.00  0.00     0.179 A 
ATOM     14  N   UNL A   1      32.997  25.440  24.302  1.00  0.00    -0.193 NA
ATOM     15  N   UNL A   1      30.176  25.485  24.372  1.00  0.00    -0.255 NA
ATOM     16  C   UNL A   1      30.913  24.346  24.435  1.00  0.00     0.158 A 
BRANCH  12  17
ATOM     17  O   UNL A   1      32.935  27.805  24.242  1.00  0.00    -0.477 OA
BRANCH  17  18
ATOM     18  C   UNL A   1      32.612  28.699  25.328  1.00  0.00     0.231 C 
BRANCH  18  19
ATOM     19  C   UNL A   1      32.916  28.176  26.746  1.00  0.00     0.038 C 
ATOM     20  C   UNL A   1      31.689  28.161  27.654  1.00  0.00     0.007 C 
ENDBRANCH  18  19
ENDBRANCH  17  18
ENDBRANCH  12  17
ENDBRANCH   9  11
ENDBRANCH   7   9
BRANCH   7  21
ATOM     21  C   UNL A   1      33.466  22.369  26.715  1.00  0.00     0.422 C 
ATOM     22  F   UNL A   1      34.264  23.461  26.840  1.00  0.00    -0.168 F 
ATOM     23  F   UNL A   1      32.263  22.685  27.261  1.00  0.00    -0.168 F 
ATOM     24  F   UNL A   1      33.968  21.422  27.531  1.00  0.00    -0.168 F 
ENDBRANCH   7  21
ENDBRANCH   5   7
ENDBRANCH   4   5
ENDBRANCH   3   4
ENDBRANCH   2   3
ENDBRANCH   1   2
BRANCH   1  25
ATOM     25  C   UNL A   1      40.167  21.729  26.723  1.00  0.00     0.188 C 
BRANCH  25  26
ATOM     26  C   UNL A   1      41.641  21.440  26.378  1.00  0.00     0.188 C 
BRANCH  26  27
ATOM     27  O   UNL A   1      42.117  20.206  26.860  1.00  0.00    -0.376 OA
BRANCH  27  28
ATOM     28  C   UNL A   1      42.178  19.134  25.945  1.00  0.00     0.202 C 
BRANCH  28  29
ATOM     29  C   UNL A   1      43.562  18.619  25.512  1.00  0.00     0.261 C 
BRANCH  29  30
ATOM     30  O   UNL A   1      44.029  19.004  24.205  1.00  0.00    -0.460 OA
BRANCH  30  31
ATOM     31  C   UNL A   1      45.199  19.676  24.128  1.00  0.00     0.338 C 
ATOM     32  O   UNL A   1      46.212  19.327  23.534  1.00  0.00    -0.246 OA
BRANCH  31  33
ATOM     33  C   UNL A   1      45.008  21.023  24.714  1.00  0.00     0.060 A 
ATOM     34  C   UNL A   1      44.510  22.058  23.908  1.00  0.00     0.016 A 
ATOM     35  C   UNL A   1      45.337  21.275  26.047  1.00  0.00     0.016 A 
ATOM     36  C   UNL A   1      44.384  23.354  24.419  1.00  0.00     0.010 A 
ATOM     37  C   UNL A   1      45.234  22.579  26.550  1.00  0.00     0.010 A 
ATOM     38  C   UNL A   1      44.796  23.633  25.728  1.00  0.00    -0.014 A 
BRANCH  38  39
ATOM     39  C   UNL A   1      44.954  25.044  26.172  1.00  0.00     0.031 A 
ATOM     40  C   UNL A   1      46.319  25.677  26.087  1.00  0.00     0.074 A 
ATOM     41  C   UNL A   1      43.914  25.767  26.622  1.00  0.00     0.049 A 
ATOM     42  N   UNL A   1      46.715  26.865  26.467  1.00  0.00    -0.248 NA
ATOM     43  C   UNL A   1      47.381  24.851  25.494  1.00  0.00     0.031 C 
ATOM     44  C   UNL A   1      42.534  25.298  26.712  1.00  0.00     0.029 A 
ATOM     45  N   UNL A   1      43.864  27.055  27.099  1.00  0.00    -0.354 N 
ATOM     46  C   UNL A   1      48.071  26.926  26.166  1.00  0.00     0.074 A 
ATOM     47  C   UNL A   1      48.437  25.643  25.608  1.00  0.00     0.031 C 
ATOM     48  C   UNL A   1      41.774  26.279  27.230  1.00  0.00     0.029 A 
ATOM     49  C   UNL A   1      42.618  27.433  27.539  1.00  0.00     0.049 A 
ATOM     50  H   UNL A   1      44.647  27.651  27.124  1.00  0.00     0.167 HD
ATOM     51  C   UNL A   1      48.932  27.960  26.330  1.00  0.00     0.037 A 
ATOM     52  C   UNL A   1      42.214  28.568  28.143  1.00  0.00     0.037 A 
ATOM     53  C   UNL A   1      48.572  29.236  26.892  1.00  0.00     0.049 A 
ATOM     54  C   UNL A   1      43.210  29.677  28.389  1.00  0.00     0.074 A 
ATOM     55  C   UNL A   1      49.373  30.348  27.092  1.00  0.00     0.029 A 
ATOM     56  N   UNL A   1      47.307  29.569  27.352  1.00  0.00    -0.354 N 
ATOM     57  N   UNL A   1      44.484  29.735  28.085  1.00  0.00    -0.248 NA
ATOM     58  C   UNL A   1      42.702  30.885  29.057  1.00  0.00     0.031 C 
ATOM     59  C   UNL A   1      48.608  31.331  27.729  1.00  0.00     0.029 A 
ATOM     60  C   UNL A   1      47.312  30.860  27.860  1.00  0.00     0.049 A 
ATOM     61  H   UNL A   1      46.521  28.977  27.323  1.00  0.00     0.167 HD
ATOM     62  C   UNL A   1      44.920  30.991  28.490  1.00  0.00     0.074 A 
ATOM     63  C   UNL A   1      43.770  31.670  29.048  1.00  0.00     0.031 C 
ATOM     64  C   UNL A   1      46.161  31.533  28.407  1.00  0.00     0.037 A 
BRANCH  51  65
ATOM     65  C   UNL A   1      50.360  27.742  25.919  1.00  0.00     0.064 A 
ATOM     66  C   UNL A   1      51.355  27.411  26.852  1.00  0.00     0.173 A 
ATOM     67  C   UNL A   1      50.734  27.834  24.570  1.00  0.00     0.173 A 
ATOM     68  F   UNL A   1      51.056  27.324  28.157  1.00  0.00    -0.203 F 
ATOM     69  C   UNL A   1      52.675  27.213  26.453  1.00  0.00     0.198 A 
ATOM     70  C   UNL A   1      52.047  27.601  24.170  1.00  0.00     0.198 A 
ATOM     71  F   UNL A   1      49.822  28.143  23.634  1.00  0.00    -0.203 F 
ATOM     72  F   UNL A   1      53.618  26.954  27.370  1.00  0.00    -0.200 F 
ATOM     73  C   UNL A   1      53.019  27.300  25.112  1.00  0.00     0.200 A 
ATOM     74  F   UNL A   1      52.373  27.672  22.872  1.00  0.00    -0.200 F 
ATOM     75  F   UNL A   1      54.287  27.103  24.729  1.00  0.00    -0.200 F 
ENDBRANCH  51  65
BRANCH  52  76
ATOM     76  C   UNL A   1      40.800  28.718  28.579  1.00  0.00     0.064 A 
ATOM     77  C   UNL A   1      40.398  28.374  29.878  1.00  0.00     0.173 A 
ATOM     78  C   UNL A   1      39.811  29.169  27.691  1.00  0.00     0.173 A 
ATOM     79  F   UNL A   1      41.299  27.905  30.755  1.00  0.00    -0.203 F 
ATOM     80  C   UNL A   1      39.062  28.453  30.265  1.00  0.00     0.198 A 
ATOM     81  C   UNL A   1      38.479  29.280  28.090  1.00  0.00     0.198 A 
ATOM     82  F   UNL A   1      40.137  29.503  26.434  1.00  0.00    -0.203 F 
ATOM     83  F   UNL A   1      38.698  28.060  31.493  1.00  0.00    -0.200 F 
ATOM     84  C   UNL A   1      38.105  28.912  29.373  1.00  0.00     0.200 A 
ATOM     85  F   UNL A   1      37.560  29.733  27.227  1.00  0.00    -0.200 F 
ATOM     86  F   UNL A   1      36.820  28.987  29.745  1.00  0.00    -0.200 F 
ENDBRANCH  52  76
BRANCH  64  87
ATOM     87  C   UNL A   1      46.333  32.951  28.884  1.00  0.00     0.064 A 
ATOM     88  C   UNL A   1      46.703  33.252  30.204  1.00  0.00     0.173 A 
ATOM     89  C   UNL A   1      46.152  34.023  27.996  1.00  0.00     0.173 A 
ATOM     90  F   UNL A   1      46.878  32.267  31.098  1.00  0.00    -0.203 F 
ATOM     91  C   UNL A   1      46.844  34.572  30.625  1.00  0.00     0.198 A 
ATOM     92  C   UNL A   1      46.331  35.340  28.412  1.00  0.00     0.198 A 
ATOM     93  F   UNL A   1      45.812  33.795  26.719  1.00  0.00    -0.203 F 
ATOM     94  F   UNL A   1      47.135  34.836  31.908  1.00  0.00    -0.200 F 
ATOM     95  C   UNL A   1      46.665  35.614  29.729  1.00  0.00     0.200 A 
ATOM     96  F   UNL A   1      46.177  36.344  27.538  1.00  0.00    -0.200 F 
ATOM     97  F   UNL A   1      46.806  36.883  30.136  1.00  0.00    -0.200 F 
ENDBRANCH  64  87
ENDBRANCH  38  39
ENDBRANCH  31  33
ENDBRANCH  30  31
ENDBRANCH  29  30
ENDBRANCH  28  29
ENDBRANCH  27  28
ENDBRANCH  26  27
ENDBRANCH  25  26
ENDBRANCH   1  25
TORSDOF 23
ENDMDL
MODEL 2
REMARK VINA RESULT:      -9.2      4.935      7.228
REMARK SMILES CCCOc1cncc(N[C@@](C)(C(=O)OCCOCCOCCOC(=O)c2ccc(-c3c4nc(c(-c5c(F)c(F)c(F)c(F)c5F)c5ccc([nH]5)c(-c5c(F)c(F)c(F)c(F)c5F)c5nc(c(-c6c(F)c(F)c(F)c(F)c6F)c6ccc3[nH]6)C=C5)C=C4)cc2)C(F)(F)F)n1
REMARK SMILES IDX 18 1 17 2 16 3 15 4 13 5 14 6 11 7 12 8 10 9 9 11 5 12 6 13
REMARK SMILES IDX 94 14 7 15 8 16 4 17 3 18 2 19 1 20 90 21 91 22 92 23 93 24
REMARK SMILES IDX 19 25 20 26 21 27 22 28 23 29 24 30 25 31 26 32 27 33 28 34
REMARK SMILES IDX 89 35 29 36 88 37 30 38 31 39 32 40 82 41 33 42 87 43 81 44
REMARK SMILES IDX 83 45 34 46 86 47 80 48 79 49 35 51 67 52 47 53 66 54 48 55
REMARK SMILES IDX 51 56 65 57 84 58 49 59 50 60 64 62 85 63 52 64 36 65 37 66
REMARK SMILES IDX 45 67 38 68 39 69 43 70 46 71 40 72 41 73 44 74 42 75 68 76
REMARK SMILES IDX 69 77 77 78 70 79 71 80 75 81 78 82 72 83 73 84 76 85 74 86
REMARK SMILES IDX 53 87 54 88 62 89 55 90 56 91 60 92 63 93 57 94 58 95 61 96
REMARK SMILES IDX 59 97
REMARK H PARENT 10 10 83 50 51 61
REMARK Flexibility Score: inf
ROOT
ATOM      1  O   UNL A   1      39.003  21.199  25.982  1.00  0.00    -0.376 OA
ENDROOT
BRANCH   1   2
ATOM      2  C   UNL A   1      37.771  21.795  25.600  1.00  0.00     0.202 C 
BRANCH   2   3
ATOM      3  C   UNL A   1      36.555  20.881  25.367  1.00  0.00     0.261 C 
BRANCH   3   4
ATOM      4  O   UNL A   1      35.297  21.357  25.911  1.00  0.00    -0.461 OA
BRANCH   4   5
ATOM      5  C   UNL A   1      34.240  21.357  25.058  1.00  0.00     0.341 C 
ATOM      6  O   UNL A   1      33.929  20.353  24.422  1.00  0.00    -0.249 OA
BRANCH   5   7
ATOM      7  C   UNL A   1      33.516  22.717  24.872  1.00  0.00     0.230 C 
ATOM      8  C   UNL A   1      32.251  22.364  24.078  1.00  0.00     0.058 C 
BRANCH   7   9
ATOM      9  N   UNL A   1      34.280  23.755  24.066  1.00  0.00    -0.346 N 
ATOM     10  H   UNL A   1      35.228  23.526  23.932  1.00  0.00     0.163 HD
BRANCH   9  11
ATOM     11  C   UNL A   1      33.919  24.954  23.482  1.00  0.00     0.149 A 
ATOM     12  C   UNL A   1      33.504  27.236  23.751  1.00  0.00     0.234 A 
ATOM     13  C   UNL A   1      33.417  27.410  22.384  1.00  0.00     0.179 A 
ATOM     14  N   UNL A   1      33.795  26.024  24.318  1.00  0.00    -0.193 NA
ATOM     15  N   UNL A   1      33.422  26.370  21.542  1.00  0.00    -0.255 NA
ATOM     16  C   UNL A   1      33.649  25.166  22.127  1.00  0.00     0.158 A 
BRANCH  12  17
ATOM     17  O   UNL A   1      33.407  28.345  24.561  1.00  0.00    -0.477 OA
BRANCH  17  18
ATOM     18  C   UNL A   1      33.131  28.031  25.942  1.00  0.00     0.231 C 
BRANCH  18  19
ATOM     19  C   UNL A   1      31.860  28.670  26.538  1.00  0.00     0.038 C 
ATOM     20  C   UNL A   1      31.996  30.174  26.761  1.00  0.00     0.007 C 
ENDBRANCH  18  19
ENDBRANCH  17  18
ENDBRANCH  12  17
ENDBRANCH   9  11
ENDBRANCH   7   9
BRANCH   7  21
ATOM     21  C   UNL A   1      33.162  23.109  26.324  1.00  0.00     0.422 C 
ATOM     22  F   UNL A   1      34.252  23.587  26.980  1.00  0.00    -0.168 F 
ATOM     23  F   UNL A   1      32.223  24.090  26.340  1.00  0.00    -0.168 F 
ATOM     24  F   UNL A   1      32.642  22.132  27.091  1.00  0.00    -0.168 F 
ENDBRANCH   7  21
ENDBRANCH   5   7
ENDBRANCH   4   5
ENDBRANCH   3   4
ENDBRANCH   2   3
ENDBRANCH   1   2
BRANCH   1  25
ATOM     25  C   UNL A   1      40.065  22.029  26.446  1.00  0.00     0.188 C 
BRANCH  25  26
ATOM     26  C   UNL A   1      41.481  21.860  25.862  1.00  0.00     0.188 C 
BRANCH  26  27
ATOM     27  O   UNL A   1      42.321  21.017  26.616  1.00  0.00    -0.376 OA
BRANCH  27  28
ATOM     28  C   UNL A   1      43.510  20.571  26.001  1.00  0.00     0.202 C 
BRANCH  28  29
ATOM     29  C   UNL A   1      44.438  21.617  25.359  1.00  0.00     0.261 C 
BRANCH  29  30
ATOM     30  O   UNL A   1      44.792  22.762  26.158  1.00  0.00    -0.460 OA
BRANCH  30  31
ATOM     31  C   UNL A   1      44.332  23.970  25.765  1.00  0.00     0.338 C 
ATOM     32  O   UNL A   1      44.014  24.304  24.629  1.00  0.00    -0.246 OA
BRANCH  31  33
ATOM     33  C   UNL A   1      44.071  24.791  26.970  1.00  0.00     0.060 A 
ATOM     34  C   UNL A   1      43.175  24.319  27.941  1.00  0.00     0.016 A 
ATOM     35  C   UNL A   1      44.690  26.031  27.135  1.00  0.00     0.016 A 
ATOM     36  C   UNL A   1      42.862  25.105  29.054  1.00  0.00     0.010 A 
ATOM     37  C   UNL A   1      44.355  26.828  28.239  1.00  0.00     0.010 A 
ATOM     38  C   UNL A   1      43.409  26.387  29.183  1.00  0.00    -0.014 A 
BRANCH  38  39
ATOM     39  C   UNL A   1      42.852  27.337  30.183  1.00  0.00     0.031 A 
ATOM     40  C   UNL A   1      43.540  27.462  31.518  1.00  0.00     0.074 A 
ATOM     41  C   UNL A   1      41.773  28.094  29.919  1.00  0.00     0.049 A 
ATOM     42  N   UNL A   1      43.209  28.172  32.566  1.00  0.00    -0.248 NA
ATOM     43  C   UNL A   1      44.768  26.671  31.691  1.00  0.00     0.031 C 
ATOM     44  C   UNL A   1      41.040  28.110  28.656  1.00  0.00     0.029 A 
ATOM     45  N   UNL A   1      41.100  28.993  30.711  1.00  0.00    -0.354 N 
ATOM     46  C   UNL A   1      44.182  27.910  33.523  1.00  0.00     0.074 A 
ATOM     47  C   UNL A   1      45.094  26.947  32.946  1.00  0.00     0.031 C 
ATOM     48  C   UNL A   1      40.007  28.964  28.764  1.00  0.00     0.029 A 
ATOM     49  C   UNL A   1      39.986  29.530  30.112  1.00  0.00     0.049 A 
ATOM     50  H   UNL A   1      41.388  29.230  31.622  1.00  0.00     0.167 HD
ATOM     51  C   UNL A   1      44.312  28.433  34.768  1.00  0.00     0.037 A 
ATOM     52  C   UNL A   1      39.046  30.361  30.605  1.00  0.00     0.037 A 
ATOM     53  C   UNL A   1      43.403  29.386  35.348  1.00  0.00     0.049 A 
ATOM     54  C   UNL A   1      39.168  30.867  32.023  1.00  0.00     0.074 A 
ATOM     55  C   UNL A   1      43.455  29.978  36.600  1.00  0.00     0.029 A 
ATOM     56  N   UNL A   1      42.271  29.883  34.720  1.00  0.00    -0.354 N 
ATOM     57  N   UNL A   1      40.100  30.630  32.915  1.00  0.00    -0.248 NA
ATOM     58  C   UNL A   1      38.106  31.767  32.498  1.00  0.00     0.031 C 
ATOM     59  C   UNL A   1      42.322  30.785  36.751  1.00  0.00     0.029 A 
ATOM     60  C   UNL A   1      41.602  30.753  35.568  1.00  0.00     0.049 A 
ATOM     61  H   UNL A   1      41.984  29.652  33.808  1.00  0.00     0.167 HD
ATOM     62  C   UNL A   1      39.756  31.375  34.037  1.00  0.00     0.074 A 
ATOM     63  C   UNL A   1      38.539  32.085  33.709  1.00  0.00     0.031 C 
ATOM     64  C   UNL A   1      40.393  31.463  35.232  1.00  0.00     0.037 A 
BRANCH  51  65
ATOM     65  C   UNL A   1      45.470  27.957  35.599  1.00  0.00     0.064 A 
ATOM     66  C   UNL A   1      46.705  28.625  35.598  1.00  0.00     0.173 A 
ATOM     67  C   UNL A   1      45.334  26.836  36.431  1.00  0.00     0.173 A 
ATOM     68  F   UNL A   1      46.894  29.694  34.809  1.00  0.00    -0.203 F 
ATOM     69  C   UNL A   1      47.767  28.169  36.374  1.00  0.00     0.198 A 
ATOM     70  C   UNL A   1      46.387  26.403  37.232  1.00  0.00     0.198 A 
ATOM     71  F   UNL A   1      44.174  26.162  36.475  1.00  0.00    -0.203 F 
ATOM     72  F   UNL A   1      48.954  28.789  36.313  1.00  0.00    -0.200 F 
ATOM     73  C   UNL A   1      47.606  27.064  37.197  1.00  0.00     0.200 A 
ATOM     74  F   UNL A   1      46.224  25.344  38.037  1.00  0.00    -0.200 F 
ATOM     75  F   UNL A   1      48.627  26.631  37.948  1.00  0.00    -0.200 F 
ENDBRANCH  51  65
BRANCH  52  76
ATOM     76  C   UNL A   1      37.889  30.763  29.760  1.00  0.00     0.064 A 
ATOM     77  C   UNL A   1      36.852  29.864  29.473  1.00  0.00     0.173 A 
ATOM     78  C   UNL A   1      37.817  32.042  29.188  1.00  0.00     0.173 A 
ATOM     79  F   UNL A   1      36.890  28.617  29.967  1.00  0.00    -0.203 F 
ATOM     80  C   UNL A   1      35.801  30.220  28.629  1.00  0.00     0.198 A 
ATOM     81  C   UNL A   1      36.748  32.409  28.372  1.00  0.00     0.198 A 
ATOM     82  F   UNL A   1      38.786  32.939  29.423  1.00  0.00    -0.203 F 
ATOM     83  F   UNL A   1      34.856  29.321  28.323  1.00  0.00    -0.200 F 
ATOM     84  C   UNL A   1      35.747  31.495  28.085  1.00  0.00     0.200 A 
ATOM     85  F   UNL A   1      36.696  33.644  27.856  1.00  0.00    -0.200 F 
ATOM     86  F   UNL A   1      34.738  31.836  27.273  1.00  0.00    -0.200 F 
ENDBRANCH  52  76
BRANCH  64  87
ATOM     87  C   UNL A   1      39.816  32.399  36.260  1.00  0.00     0.064 A 
ATOM     88  C   UNL A   1      38.715  32.044  37.054  1.00  0.00     0.173 A 
ATOM     89  C   UNL A   1      40.393  33.662  36.471  1.00  0.00     0.173 A 
ATOM     90  F   UNL A   1      38.117  30.855  36.887  1.00  0.00    -0.203 F 
ATOM     91  C   UNL A   1      38.190  32.932  37.990  1.00  0.00     0.198 A 
ATOM     92  C   UNL A   1      39.889  34.532  37.434  1.00  0.00     0.198 A 
ATOM     93  F   UNL A   1      41.455  34.049  35.750  1.00  0.00    -0.203 F 
ATOM     94  F   UNL A   1      37.098  32.595  38.692  1.00  0.00    -0.200 F 
ATOM     95  C   UNL A   1      38.780  34.172  38.184  1.00  0.00     0.200 A 
ATOM     96  F   UNL A   1      40.473  35.721  37.634  1.00  0.00    -0.200 F 
ATOM     97  F   UNL A   1      38.276  35.022  39.089  1.00  0.00    -0.200 F 
ENDBRANCH  64  87
ENDBRANCH  38  39
ENDBRANCH  31  33
ENDBRANCH  30  31
ENDBRANCH  29  30
ENDBRANCH  28  29
ENDBRANCH  27  28
ENDBRANCH  26  27
ENDBRANCH  25  26
ENDBRANCH   1  25
TORSDOF 23
ENDMDL
MODEL 3
REMARK VINA RESULT:      -9.1      1.179      2.480
REMARK SMILES CCCOc1cncc(N[C@@](C)(C(=O)OCCOCCOCCOC(=O)c2ccc(-c3c4nc(c(-c5c(F)c(F)c(F)c(F)c5F)c5ccc([nH]5)c(-c5c(F)c(F)c(F)c(F)c5F)c5nc(c(-c6c(F)c(F)c(F)c(F)c6F)c6ccc3[nH]6)C=C5)C=C4)cc2)C(F)(F)F)n1
REMARK SMILES IDX 18 1 17 2 16 3 15 4 13 5 14 6 11 7 12 8 10 9 9 11 5 12 6 13
REMARK SMILES IDX 94 14 7 15 8 16 4 17 3 18 2 19 1 20 90 21 91 22 92 23 93 24
REMARK SMILES IDX 19 25 20 26 21 27 22 28 23 29 24 30 25 31 26 32 27 33 28 34
REMARK SMILES IDX 89 35 29 36 88 37 30 38 31 39 32 40 82 41 33 42 87 43 81 44
REMARK SMILES IDX 83 45 34 46 86 47 80 48 79 49 35 51 67 52 47 53 66 54 48 55
REMARK SMILES IDX 51 56 65 57 84 58 49 59 50 60 64 62 85 63 52 64 36 65 37 66
REMARK SMILES IDX 45 67 38 68 39 69 43 70 46 71 40 72 41 73 44 74 42 75 68 76
REMARK SMILES IDX 69 77 77 78 70 79 71 80 75 81 78 82 72 83 73 84 76 85 74 86
REMARK SMILES IDX 53 87 54 88 62 89 55 90 56 91 60 92 63 93 57 94 58 95 61 96
REMARK SMILES IDX 59 97
REMARK H PARENT 10 10 83 50 51 61
REMARK Flexibility Score: inf
ROOT
ATOM      1  O   UNL A   1      38.651  20.742  25.722  1.00  0.00    -0.376 OA
ENDROOT
BRANCH   1   2
ATOM      2  C   UNL A   1      37.633  21.292  24.898  1.00  0.00     0.202 C 
BRANCH   2   3
ATOM      3  C   UNL A   1      36.177  21.232  25.392  1.00  0.00     0.261 C 
BRANCH   3   4
ATOM      4  O   UNL A   1      35.316  22.310  24.944  1.00  0.00    -0.461 OA
BRANCH   4   5
ATOM      5  C   UNL A   1      33.983  22.044  24.936  1.00  0.00     0.341 C 
ATOM      6  O   UNL A   1      33.558  20.895  24.857  1.00  0.00    -0.249 OA
BRANCH   5   7
ATOM      7  C   UNL A   1      33.044  23.280  24.941  1.00  0.00     0.230 C 
ATOM      8  C   UNL A   1      31.696  22.725  25.420  1.00  0.00     0.058 C 
BRANCH   7   9
ATOM      9  N   UNL A   1      32.811  23.923  23.583  1.00  0.00    -0.346 N 
ATOM     10  H   UNL A   1      32.797  23.277  22.841  1.00  0.00     0.163 HD
BRANCH   9  11
ATOM     11  C   UNL A   1      32.614  25.229  23.176  1.00  0.00     0.149 A 
ATOM     12  C   UNL A   1      31.118  26.987  22.830  1.00  0.00     0.234 A 
ATOM     13  C   UNL A   1      32.157  27.862  22.588  1.00  0.00     0.179 A 
ATOM     14  N   UNL A   1      31.326  25.675  23.166  1.00  0.00    -0.193 NA
ATOM     15  N   UNL A   1      33.421  27.438  22.479  1.00  0.00    -0.255 NA
ATOM     16  C   UNL A   1      33.604  26.120  22.753  1.00  0.00     0.158 A 
BRANCH  12  17
ATOM     17  O   UNL A   1      29.833  27.482  22.846  1.00  0.00    -0.477 OA
BRANCH  17  18
ATOM     18  C   UNL A   1      29.768  28.921  22.939  1.00  0.00     0.231 C 
BRANCH  18  19
ATOM     19  C   UNL A   1      28.589  29.592  22.206  1.00  0.00     0.038 C 
ATOM     20  C   UNL A   1      27.695  30.410  23.135  1.00  0.00     0.007 C 
ENDBRANCH  18  19
ENDBRANCH  17  18
ENDBRANCH  12  17
ENDBRANCH   9  11
ENDBRANCH   7   9
BRANCH   7  21
ATOM     21  C   UNL A   1      33.683  24.182  26.021  1.00  0.00     0.422 C 
ATOM     22  F   UNL A   1      32.812  25.139  26.435  1.00  0.00    -0.168 F 
ATOM     23  F   UNL A   1      34.026  23.451  27.113  1.00  0.00    -0.168 F 
ATOM     24  F   UNL A   1      34.819  24.814  25.668  1.00  0.00    -0.168 F 
ENDBRANCH   7  21
ENDBRANCH   5   7
ENDBRANCH   4   5
ENDBRANCH   3   4
ENDBRANCH   2   3
ENDBRANCH   1   2
BRANCH   1  25
ATOM     25  C   UNL A   1      39.698  21.586  26.194  1.00  0.00     0.188 C 
BRANCH  25  26
ATOM     26  C   UNL A   1      41.169  21.184  25.969  1.00  0.00     0.188 C 
BRANCH  26  27
ATOM     27  O   UNL A   1      41.846  20.787  27.138  1.00  0.00    -0.376 OA
BRANCH  27  28
ATOM     28  C   UNL A   1      42.186  19.423  27.257  1.00  0.00     0.202 C 
BRANCH  28  29
ATOM     29  C   UNL A   1      42.682  18.681  26.002  1.00  0.00     0.261 C 
BRANCH  29  30
ATOM     30  O   UNL A   1      43.020  19.483  24.854  1.00  0.00    -0.460 OA
BRANCH  30  31
ATOM     31  C   UNL A   1      44.328  19.613  24.542  1.00  0.00     0.338 C 
ATOM     32  O   UNL A   1      45.028  18.801  23.947  1.00  0.00    -0.246 OA
BRANCH  31  33
ATOM     33  C   UNL A   1      44.753  20.997  24.854  1.00  0.00     0.060 A 
ATOM     34  C   UNL A   1      45.311  21.277  26.110  1.00  0.00     0.016 A 
ATOM     35  C   UNL A   1      44.586  22.022  23.921  1.00  0.00     0.016 A 
ATOM     36  C   UNL A   1      45.658  22.588  26.453  1.00  0.00     0.010 A 
ATOM     37  C   UNL A   1      44.911  23.338  24.275  1.00  0.00     0.010 A 
ATOM     38  C   UNL A   1      45.411  23.635  25.556  1.00  0.00    -0.014 A 
BRANCH  38  39
ATOM     39  C   UNL A   1      45.487  25.045  26.022  1.00  0.00     0.031 A 
ATOM     40  C   UNL A   1      46.817  25.751  25.966  1.00  0.00     0.074 A 
ATOM     41  C   UNL A   1      44.403  25.705  26.468  1.00  0.00     0.049 A 
ATOM     42  N   UNL A   1      47.144  26.953  26.369  1.00  0.00    -0.248 NA
ATOM     43  C   UNL A   1      47.930  24.992  25.376  1.00  0.00     0.031 C 
ATOM     44  C   UNL A   1      43.049  25.162  26.531  1.00  0.00     0.029 A 
ATOM     45  N   UNL A   1      44.279  26.982  26.962  1.00  0.00    -0.354 N 
ATOM     46  C   UNL A   1      48.498  27.090  26.088  1.00  0.00     0.074 A 
ATOM     47  C   UNL A   1      48.940  25.837  25.516  1.00  0.00     0.031 C 
ATOM     48  C   UNL A   1      42.231  26.093  27.052  1.00  0.00     0.029 A 
ATOM     49  C   UNL A   1      43.009  27.286  27.390  1.00  0.00     0.049 A 
ATOM     50  H   UNL A   1      45.028  27.618  27.006  1.00  0.00     0.167 HD
ATOM     51  C   UNL A   1      49.300  28.167  26.278  1.00  0.00     0.037 A 
ATOM     52  C   UNL A   1      42.536  28.389  28.004  1.00  0.00     0.037 A 
ATOM     53  C   UNL A   1      48.865  29.413  26.853  1.00  0.00     0.049 A 
ATOM     54  C   UNL A   1      43.468  29.545  28.279  1.00  0.00     0.074 A 
ATOM     55  C   UNL A   1      49.603  30.563  27.080  1.00  0.00     0.029 A 
ATOM     56  N   UNL A   1      47.578  29.672  27.300  1.00  0.00    -0.354 N 
ATOM     57  N   UNL A   1      44.741  29.675  27.995  1.00  0.00    -0.248 NA
ATOM     58  C   UNL A   1      42.887  30.715  28.957  1.00  0.00     0.031 C 
ATOM     59  C   UNL A   1      48.777  31.494  27.720  1.00  0.00     0.029 A 
ATOM     60  C   UNL A   1      47.508  30.953  27.826  1.00  0.00     0.049 A 
ATOM     61  H   UNL A   1      46.826  29.039  27.252  1.00  0.00     0.167 HD
ATOM     62  C   UNL A   1      45.103  30.947  28.424  1.00  0.00     0.074 A 
ATOM     63  C   UNL A   1      43.912  31.556  28.974  1.00  0.00     0.031 C 
ATOM     64  C   UNL A   1      46.315  31.556  28.366  1.00  0.00     0.037 A 
BRANCH  51  65
ATOM     65  C   UNL A   1      50.744  28.031  25.885  1.00  0.00     0.064 A 
ATOM     66  C   UNL A   1      51.161  28.137  24.549  1.00  0.00     0.173 A 
ATOM     67  C   UNL A   1      51.729  27.821  26.862  1.00  0.00     0.173 A 
ATOM     68  F   UNL A   1      50.258  28.322  23.574  1.00  0.00    -0.203 F 
ATOM     69  C   UNL A   1      52.503  28.007  24.204  1.00  0.00     0.198 A 
ATOM     70  C   UNL A   1      53.075  27.727  26.518  1.00  0.00     0.198 A 
ATOM     71  F   UNL A   1      51.388  27.717  28.156  1.00  0.00    -0.203 F 
ATOM     72  F   UNL A   1      52.869  28.055  22.916  1.00  0.00    -0.200 F 
ATOM     73  C   UNL A   1      53.460  27.810  25.188  1.00  0.00     0.200 A 
ATOM     74  F   UNL A   1      53.999  27.550  27.472  1.00  0.00    -0.200 F 
ATOM     75  F   UNL A   1      54.752  27.692  24.855  1.00  0.00    -0.200 F 
ENDBRANCH  51  65
BRANCH  52  76
ATOM     76  C   UNL A   1      41.110  28.456  28.421  1.00  0.00     0.064 A 
ATOM     77  C   UNL A   1      40.123  28.958  27.561  1.00  0.00     0.173 A 
ATOM     78  C   UNL A   1      40.710  28.059  29.706  1.00  0.00     0.173 A 
ATOM     79  F   UNL A   1      40.458  29.384  26.333  1.00  0.00    -0.203 F 
ATOM     80  C   UNL A   1      38.798  29.082  27.975  1.00  0.00     0.198 A 
ATOM     81  C   UNL A   1      39.378  28.151  30.108  1.00  0.00     0.198 A 
ATOM     82  F   UNL A   1      41.613  27.580  30.573  1.00  0.00    -0.203 F 
ATOM     83  F   UNL A   1      37.888  29.621  27.153  1.00  0.00    -0.200 F 
ATOM     84  C   UNL A   1      38.426  28.671  29.247  1.00  0.00     0.200 A 
ATOM     85  F   UNL A   1      39.022  27.745  31.335  1.00  0.00    -0.200 F 
ATOM     86  F   UNL A   1      37.153  28.791  29.646  1.00  0.00    -0.200 F 
ENDBRANCH  52  76
BRANCH  64  87
ATOM     87  C   UNL A   1      46.405  32.973  28.865  1.00  0.00     0.064 A 
ATOM     88  C   UNL A   1      46.181  34.074  28.023  1.00  0.00     0.173 A 
ATOM     89  C   UNL A   1      46.693  33.232  30.214  1.00  0.00     0.173 A 
ATOM     90  F   UNL A   1      45.912  33.886  26.722  1.00  0.00    -0.203 F 
ATOM     91  C   UNL A   1      46.282  35.377  28.505  1.00  0.00     0.198 A 
ATOM     92  C   UNL A   1      46.757  34.535  30.700  1.00  0.00     0.198 A 
ATOM     93  F   UNL A   1      46.904  32.218  31.068  1.00  0.00    -0.203 F 
ATOM     94  F   UNL A   1      46.127  36.412  27.667  1.00  0.00    -0.200 F 
ATOM     95  C   UNL A   1      46.564  35.607  29.843  1.00  0.00     0.200 A 
ATOM     96  F   UNL A   1      47.009  34.754  31.998  1.00  0.00    -0.200 F 
ATOM     97  F   UNL A   1      46.656  36.861  30.305  1.00  0.00    -0.200 F 
ENDBRANCH  64  87
ENDBRANCH  38  39
ENDBRANCH  31  33
ENDBRANCH  30  31
ENDBRANCH  29  30
ENDBRANCH  28  29
ENDBRANCH  27  28
ENDBRANCH  26  27
ENDBRANCH  25  26
ENDBRANCH   1  25
TORSDOF 23
ENDMDL
