MODEL 1
REMARK VINA RESULT:     -11.6      0.000      0.000
REMARK SMILES Cc1ccc(O[C@H](C)C(=O)Nc2ccsc2C(=O)OCCOCCOCCOC(=O)c2ccc(-c3c4nc(c(-c5c(F)c(F)c(F)c(F)c5F)c5ccc([nH]5)c(-c5c(F)c(F)c(F)c(F)c5F)c5nc(c(-c6c(F)c(F)c(F)c(F)c6F)c6ccc3[nH]6)C=C5)C=C4)cc2)cc1
REMARK SMILES IDX 23 1 22 2 21 3 20 4 19 5 17 6 18 7 16 8 12 9 13 10 14 11
REMARK SMILES IDX 15 12 11 13 9 14 10 15 7 17 8 18 6 19 5 20 1 21 2 22 3 23
REMARK SMILES IDX 95 24 4 25 94 26 24 27 25 28 26 29 27 30 28 31 29 32 30 33
REMARK SMILES IDX 31 34 32 35 93 36 33 37 92 38 34 39 35 40 36 41 86 42 37 43
REMARK SMILES IDX 91 44 85 45 87 46 38 47 90 48 84 49 83 50 39 52 71 53 51 54
REMARK SMILES IDX 70 55 52 56 55 57 69 58 88 59 53 60 54 61 68 63 89 64 56 65
REMARK SMILES IDX 40 66 41 67 49 68 42 69 43 70 47 71 50 72 44 73 45 74 48 75
REMARK SMILES IDX 46 76 72 77 73 78 81 79 74 80 75 81 79 82 82 83 76 84 77 85
REMARK SMILES IDX 80 86 78 87 57 88 58 89 66 90 59 91 60 92 64 93 67 94 61 95
REMARK SMILES IDX 62 96 65 97 63 98
REMARK H PARENT 11 16 87 51 55 62
REMARK Flexibility Score: inf
ROOT
ATOM      1  C   UNL A   1      33.366  33.616  28.036  1.00  0.00     0.188 C 
ENDROOT
BRANCH   1   2
ATOM      2  O   UNL A   1      33.976  32.454  28.603  1.00  0.00    -0.376 OA
BRANCH   2   3
ATOM      3  C   UNL A   1      34.042  31.218  27.891  1.00  0.00     0.202 C 
BRANCH   3   4
ATOM      4  C   UNL A   1      32.758  30.663  27.169  1.00  0.00     0.261 C 
BRANCH   4   5
ATOM      5  O   UNL A   1      32.743  29.278  26.642  1.00  0.00    -0.459 OA
BRANCH   5   6
ATOM      6  C   UNL A   1      31.809  28.260  26.787  1.00  0.00     0.350 C 
ATOM      7  O   UNL A   1      31.408  27.948  27.914  1.00  0.00    -0.245 OA
BRANCH   6   8
ATOM      8  C   UNL A   1      31.165  27.663  25.464  1.00  0.00     0.136 A 
ATOM      9  C   UNL A   1      30.473  26.468  25.410  1.00  0.00     0.066 A 
ATOM     10  C   UNL A   1      29.624  26.335  24.255  1.00  0.00     0.039 A 
ATOM     11  C   UNL A   1      29.915  27.218  23.256  1.00  0.00     0.068 A 
ATOM     12  S   UNL A   1      31.065  28.277  23.817  1.00  0.00    -0.135 S 
BRANCH   9  13
ATOM     13  N   UNL A   1      30.631  25.577  26.444  1.00  0.00    -0.321 N 
ATOM     14  C   UNL A   1      31.597  24.607  26.487  1.00  0.00     0.265 C 
ATOM     15  O   UNL A   1      31.761  24.016  27.558  1.00  0.00    -0.270 OA
ATOM     16  H   UNL A   1      30.007  25.639  27.203  1.00  0.00     0.170 HD
BRANCH  14  17
ATOM     17  C   UNL A   1      32.450  24.269  25.240  1.00  0.00     0.259 C 
ATOM     18  C   UNL A   1      33.811  23.792  25.751  1.00  0.00     0.064 C 
BRANCH  17  19
ATOM     19  O   UNL A   1      31.680  23.384  24.414  1.00  0.00    -0.481 OA
BRANCH  19  20
ATOM     20  C   UNL A   1      32.092  22.115  24.124  1.00  0.00     0.120 A 
ATOM     21  C   UNL A   1      32.544  17.952  23.028  1.00  0.00     0.044 C 
ATOM     22  C   UNL A   1      32.440  19.407  23.374  1.00  0.00    -0.051 A 
ATOM     23  C   UNL A   1      32.569  19.808  24.704  1.00  0.00     0.007 A 
ATOM     24  C   UNL A   1      32.171  20.379  22.407  1.00  0.00     0.007 A 
ATOM     25  C   UNL A   1      32.407  21.148  25.071  1.00  0.00     0.047 A 
ATOM     26  C   UNL A   1      31.990  21.719  22.785  1.00  0.00     0.047 A 
ENDBRANCH  19  20
ENDBRANCH  17  19
ENDBRANCH  14  17
ENDBRANCH   9  13
ENDBRANCH   6   8
ENDBRANCH   5   6
ENDBRANCH   4   5
ENDBRANCH   3   4
ENDBRANCH   2   3
ENDBRANCH   1   2
BRANCH   1  27
ATOM     27  C   UNL A   1      33.491  35.003  28.637  1.00  0.00     0.188 C 
BRANCH  27  28
ATOM     28  O   UNL A   1      32.664  35.119  29.784  1.00  0.00    -0.376 OA
BRANCH  28  29
ATOM     29  C   UNL A   1      32.934  36.268  30.576  1.00  0.00     0.202 C 
BRANCH  29  30
ATOM     30  C   UNL A   1      32.841  35.990  32.089  1.00  0.00     0.261 C 
BRANCH  30  31
ATOM     31  O   UNL A   1      33.499  34.738  32.409  1.00  0.00    -0.460 OA
BRANCH  31  32
ATOM     32  C   UNL A   1      34.866  34.747  32.557  1.00  0.00     0.338 C 
ATOM     33  O   UNL A   1      35.520  35.701  32.928  1.00  0.00    -0.246 OA
BRANCH  32  34
ATOM     34  C   UNL A   1      35.446  33.509  31.912  1.00  0.00     0.060 A 
ATOM     35  C   UNL A   1      35.605  32.271  32.547  1.00  0.00     0.016 A 
ATOM     36  C   UNL A   1      36.238  33.725  30.832  1.00  0.00     0.016 A 
ATOM     37  C   UNL A   1      36.704  31.380  32.209  1.00  0.00     0.010 A 
ATOM     38  C   UNL A   1      37.450  33.036  30.830  1.00  0.00     0.010 A 
ATOM     39  C   UNL A   1      37.778  31.775  31.394  1.00  0.00    -0.014 A 
BRANCH  39  40
ATOM     40  C   UNL A   1      39.227  30.974  31.269  1.00  0.00     0.031 A 
ATOM     41  C   UNL A   1      39.778  29.487  30.641  1.00  0.00     0.074 A 
ATOM     42  C   UNL A   1      40.263  31.706  31.724  1.00  0.00     0.049 A 
ATOM     43  N   UNL A   1      40.869  28.843  31.039  1.00  0.00    -0.248 NA
ATOM     44  C   UNL A   1      39.191  28.569  29.613  1.00  0.00     0.031 C 
ATOM     45  C   UNL A   1      41.683  31.514  31.474  1.00  0.00     0.029 A 
ATOM     46  N   UNL A   1      40.232  32.786  32.614  1.00  0.00    -0.354 N 
ATOM     47  C   UNL A   1      41.032  27.735  30.174  1.00  0.00     0.074 A 
ATOM     48  C   UNL A   1      39.735  27.377  29.793  1.00  0.00     0.031 C 
ATOM     49  C   UNL A   1      42.373  32.194  32.402  1.00  0.00     0.029 A 
ATOM     50  C   UNL A   1      41.414  32.694  33.367  1.00  0.00     0.049 A 
ATOM     51  H   UNL A   1      39.529  33.471  32.696  1.00  0.00     0.167 HD
ATOM     52  C   UNL A   1      42.201  27.412  29.528  1.00  0.00     0.037 A 
ATOM     53  C   UNL A   1      41.320  32.395  34.693  1.00  0.00     0.037 A 
ATOM     54  C   UNL A   1      43.283  27.929  30.326  1.00  0.00     0.049 A 
ATOM     55  C   UNL A   1      41.947  31.042  34.996  1.00  0.00     0.074 A 
ATOM     56  C   UNL A   1      44.127  29.015  30.320  1.00  0.00     0.029 A 
ATOM     57  N   UNL A   1      43.331  27.418  31.598  1.00  0.00    -0.354 N 
ATOM     58  N   UNL A   1      42.702  30.373  34.161  1.00  0.00    -0.248 NA
ATOM     59  C   UNL A   1      41.704  30.290  36.226  1.00  0.00     0.031 C 
ATOM     60  C   UNL A   1      44.430  29.291  31.706  1.00  0.00     0.029 A 
ATOM     61  C   UNL A   1      43.814  28.332  32.502  1.00  0.00     0.049 A 
ATOM     62  H   UNL A   1      43.052  26.504  31.835  1.00  0.00     0.167 HD
ATOM     63  C   UNL A   1      42.898  29.106  34.628  1.00  0.00     0.074 A 
ATOM     64  C   UNL A   1      42.289  29.113  35.948  1.00  0.00     0.031 C 
ATOM     65  C   UNL A   1      43.475  28.098  33.906  1.00  0.00     0.037 A 
BRANCH  52  66
ATOM     66  C   UNL A   1      42.381  26.651  28.181  1.00  0.00     0.064 A 
ATOM     67  C   UNL A   1      42.817  25.304  28.203  1.00  0.00     0.173 A 
ATOM     68  C   UNL A   1      42.249  27.155  26.854  1.00  0.00     0.173 A 
ATOM     69  F   UNL A   1      43.026  24.670  29.364  1.00  0.00    -0.203 F 
ATOM     70  C   UNL A   1      43.085  24.552  27.039  1.00  0.00     0.198 A 
ATOM     71  C   UNL A   1      42.471  26.390  25.694  1.00  0.00     0.198 A 
ATOM     72  F   UNL A   1      41.964  28.429  26.576  1.00  0.00    -0.203 F 
ATOM     73  F   UNL A   1      43.541  23.297  27.150  1.00  0.00    -0.200 F 
ATOM     74  C   UNL A   1      42.901  25.090  25.785  1.00  0.00     0.200 A 
ATOM     75  F   UNL A   1      42.292  26.948  24.485  1.00  0.00    -0.200 F 
ATOM     76  F   UNL A   1      43.158  24.378  24.679  1.00  0.00    -0.200 F 
ENDBRANCH  52  66
BRANCH  53  77
ATOM     77  C   UNL A   1      40.129  33.069  35.324  1.00  0.00     0.064 A 
ATOM     78  C   UNL A   1      38.986  32.259  35.572  1.00  0.00     0.173 A 
ATOM     79  C   UNL A   1      40.167  34.297  35.996  1.00  0.00     0.173 A 
ATOM     80  F   UNL A   1      38.872  31.061  34.974  1.00  0.00    -0.203 F 
ATOM     81  C   UNL A   1      38.032  32.587  36.536  1.00  0.00     0.198 A 
ATOM     82  C   UNL A   1      39.171  34.651  36.924  1.00  0.00     0.198 A 
ATOM     83  F   UNL A   1      41.229  35.106  35.887  1.00  0.00    -0.203 F 
ATOM     84  F   UNL A   1      37.083  31.699  36.869  1.00  0.00    -0.200 F 
ATOM     85  C   UNL A   1      38.129  33.782  37.217  1.00  0.00     0.200 A 
ATOM     86  F   UNL A   1      39.304  35.774  37.645  1.00  0.00    -0.200 F 
ATOM     87  F   UNL A   1      37.277  34.059  38.215  1.00  0.00    -0.200 F 
ENDBRANCH  53  77
BRANCH  65  88
ATOM     88  C   UNL A   1      43.675  26.738  34.532  1.00  0.00     0.064 A 
ATOM     89  C   UNL A   1      44.974  26.277  34.792  1.00  0.00     0.173 A 
ATOM     90  C   UNL A   1      42.633  25.821  34.795  1.00  0.00     0.173 A 
ATOM     91  F   UNL A   1      46.033  27.067  34.560  1.00  0.00    -0.203 F 
ATOM     92  C   UNL A   1      45.209  25.001  35.300  1.00  0.00     0.198 A 
ATOM     93  C   UNL A   1      42.876  24.518  35.214  1.00  0.00     0.198 A 
ATOM     94  F   UNL A   1      41.342  26.164  34.681  1.00  0.00    -0.203 F 
ATOM     95  F   UNL A   1      46.460  24.634  35.609  1.00  0.00    -0.200 F 
ATOM     96  C   UNL A   1      44.164  24.112  35.485  1.00  0.00     0.200 A 
ATOM     97  F   UNL A   1      41.852  23.665  35.359  1.00  0.00    -0.200 F 
ATOM     98  F   UNL A   1      44.397  22.874  35.938  1.00  0.00    -0.200 F 
ENDBRANCH  65  88
ENDBRANCH  39  40
ENDBRANCH  32  34
ENDBRANCH  31  32
ENDBRANCH  30  31
ENDBRANCH  29  30
ENDBRANCH  28  29
ENDBRANCH  27  28
ENDBRANCH   1  27
TORSDOF 21
ENDMDL
MODEL 2
REMARK VINA RESULT:     -11.5      3.650      9.835
REMARK SMILES Cc1ccc(O[C@H](C)C(=O)Nc2ccsc2C(=O)OCCOCCOCCOC(=O)c2ccc(-c3c4nc(c(-c5c(F)c(F)c(F)c(F)c5F)c5ccc([nH]5)c(-c5c(F)c(F)c(F)c(F)c5F)c5nc(c(-c6c(F)c(F)c(F)c(F)c6F)c6ccc3[nH]6)C=C5)C=C4)cc2)cc1
REMARK SMILES IDX 23 1 22 2 21 3 20 4 19 5 17 6 18 7 16 8 12 9 13 10 14 11
REMARK SMILES IDX 15 12 11 13 9 14 10 15 7 17 8 18 6 19 5 20 1 21 2 22 3 23
REMARK SMILES IDX 95 24 4 25 94 26 24 27 25 28 26 29 27 30 28 31 29 32 30 33
REMARK SMILES IDX 31 34 32 35 93 36 33 37 92 38 34 39 35 40 36 41 86 42 37 43
REMARK SMILES IDX 91 44 85 45 87 46 38 47 90 48 84 49 83 50 39 52 71 53 51 54
REMARK SMILES IDX 70 55 52 56 55 57 69 58 88 59 53 60 54 61 68 63 89 64 56 65
REMARK SMILES IDX 40 66 41 67 49 68 42 69 43 70 47 71 50 72 44 73 45 74 48 75
REMARK SMILES IDX 46 76 72 77 73 78 81 79 74 80 75 81 79 82 82 83 76 84 77 85
REMARK SMILES IDX 80 86 78 87 57 88 58 89 66 90 59 91 60 92 64 93 67 94 61 95
REMARK SMILES IDX 62 96 65 97 63 98
REMARK H PARENT 11 16 87 51 55 62
REMARK Flexibility Score: inf
ROOT
ATOM      1  C   UNL A   1      40.961  20.277  26.718  1.00  0.00     0.188 C 
ENDROOT
BRANCH   1   2
ATOM      2  O   UNL A   1      39.710  20.733  26.199  1.00  0.00    -0.376 OA
BRANCH   2   3
ATOM      3  C   UNL A   1      39.324  22.107  26.271  1.00  0.00     0.202 C 
BRANCH   3   4
ATOM      4  C   UNL A   1      37.898  22.545  25.771  1.00  0.00     0.261 C 
BRANCH   4   5
ATOM      5  O   UNL A   1      37.389  22.066  24.466  1.00  0.00    -0.459 OA
BRANCH   5   6
ATOM      6  C   UNL A   1      36.319  22.497  23.691  1.00  0.00     0.350 C 
ATOM      7  O   UNL A   1      36.526  23.004  22.583  1.00  0.00    -0.245 OA
BRANCH   6   8
ATOM      8  C   UNL A   1      34.857  22.146  24.202  1.00  0.00     0.136 A 
ATOM      9  C   UNL A   1      33.700  22.457  23.513  1.00  0.00     0.066 A 
ATOM     10  C   UNL A   1      32.552  21.688  23.919  1.00  0.00     0.039 A 
ATOM     11  C   UNL A   1      32.707  21.066  25.124  1.00  0.00     0.068 A 
ATOM     12  S   UNL A   1      34.276  21.285  25.623  1.00  0.00    -0.135 S 
BRANCH   9  13
ATOM     13  N   UNL A   1      33.768  23.406  22.522  1.00  0.00    -0.321 N 
ATOM     14  C   UNL A   1      33.550  24.744  22.718  1.00  0.00     0.265 C 
ATOM     15  O   UNL A   1      33.846  25.510  21.796  1.00  0.00    -0.270 OA
ATOM     16  H   UNL A   1      33.985  23.104  21.611  1.00  0.00     0.170 HD
BRANCH  14  17
ATOM     17  C   UNL A   1      32.956  25.274  24.047  1.00  0.00     0.259 C 
ATOM     18  C   UNL A   1      33.672  26.590  24.357  1.00  0.00     0.064 C 
BRANCH  17  19
ATOM     19  O   UNL A   1      31.528  25.287  23.909  1.00  0.00    -0.481 OA
BRANCH  19  20
ATOM     20  C   UNL A   1      30.829  26.434  23.665  1.00  0.00     0.120 A 
ATOM     21  C   UNL A   1      28.235  29.597  22.250  1.00  0.00     0.044 C 
ATOM     22  C   UNL A   1      29.118  28.518  22.800  1.00  0.00    -0.051 A 
ATOM     23  C   UNL A   1      30.493  28.571  22.567  1.00  0.00     0.007 A 
ATOM     24  C   UNL A   1      28.604  27.428  23.506  1.00  0.00     0.007 A 
ATOM     25  C   UNL A   1      31.339  27.546  23.004  1.00  0.00     0.047 A 
ATOM     26  C   UNL A   1      29.454  26.392  23.924  1.00  0.00     0.047 A 
ENDBRANCH  19  20
ENDBRANCH  17  19
ENDBRANCH  14  17
ENDBRANCH   9  13
ENDBRANCH   6   8
ENDBRANCH   5   6
ENDBRANCH   4   5
ENDBRANCH   3   4
ENDBRANCH   2   3
ENDBRANCH   1   2
BRANCH   1  27
ATOM     27  C   UNL A   1      42.240  21.090  26.649  1.00  0.00     0.188 C 
BRANCH  27  28
ATOM     28  O   UNL A   1      42.431  21.597  25.338  1.00  0.00    -0.376 OA
BRANCH  28  29
ATOM     29  C   UNL A   1      43.068  22.867  25.298  1.00  0.00     0.202 C 
BRANCH  29  30
ATOM     30  C   UNL A   1      42.654  23.783  26.466  1.00  0.00     0.261 C 
BRANCH  30  31
ATOM     31  O   UNL A   1      41.841  24.880  25.979  1.00  0.00    -0.460 OA
BRANCH  31  32
ATOM     32  C   UNL A   1      42.453  26.093  25.769  1.00  0.00     0.338 C 
ATOM     33  O   UNL A   1      43.640  26.248  25.562  1.00  0.00    -0.246 OA
BRANCH  32  34
ATOM     34  C   UNL A   1      41.494  27.205  26.129  1.00  0.00     0.060 A 
ATOM     35  C   UNL A   1      41.843  28.555  26.261  1.00  0.00     0.016 A 
ATOM     36  C   UNL A   1      40.363  26.821  26.772  1.00  0.00     0.016 A 
ATOM     37  C   UNL A   1      41.165  29.426  27.210  1.00  0.00     0.010 A 
ATOM     38  C   UNL A   1      40.030  27.571  27.900  1.00  0.00     0.010 A 
ATOM     39  C   UNL A   1      40.278  28.940  28.186  1.00  0.00    -0.014 A 
BRANCH  39  40
ATOM     40  C   UNL A   1      39.767  29.788  29.518  1.00  0.00     0.031 A 
ATOM     41  C   UNL A   1      38.982  31.271  29.824  1.00  0.00     0.074 A 
ATOM     42  C   UNL A   1      39.959  29.110  30.667  1.00  0.00     0.049 A 
ATOM     43  N   UNL A   1      39.072  31.968  30.951  1.00  0.00    -0.248 NA
ATOM     44  C   UNL A   1      38.117  32.131  28.955  1.00  0.00     0.031 C 
ATOM     45  C   UNL A   1      39.349  29.346  31.966  1.00  0.00     0.029 A 
ATOM     46  N   UNL A   1      40.853  28.061  30.912  1.00  0.00    -0.354 N 
ATOM     47  C   UNL A   1      38.168  33.050  30.840  1.00  0.00     0.074 A 
ATOM     48  C   UNL A   1      38.123  33.347  29.474  1.00  0.00     0.031 C 
ATOM     49  C   UNL A   1      40.085  28.724  32.900  1.00  0.00     0.029 A 
ATOM     50  C   UNL A   1      41.276  28.223  32.241  1.00  0.00     0.049 A 
ATOM     51  H   UNL A   1      41.128  27.355  30.283  1.00  0.00     0.167 HD
ATOM     52  C   UNL A   1      37.236  33.393  31.789  1.00  0.00     0.037 A 
ATOM     53  C   UNL A   1      42.573  28.564  32.476  1.00  0.00     0.037 A 
ATOM     54  C   UNL A   1      37.742  32.944  33.061  1.00  0.00     0.049 A 
ATOM     55  C   UNL A   1      42.673  29.949  33.098  1.00  0.00     0.074 A 
ATOM     56  C   UNL A   1      37.547  31.890  33.923  1.00  0.00     0.029 A 
ATOM     57  N   UNL A   1      38.947  33.500  33.409  1.00  0.00    -0.354 N 
ATOM     58  N   UNL A   1      41.656  30.615  33.586  1.00  0.00    -0.248 NA
ATOM     59  C   UNL A   1      43.905  30.733  33.144  1.00  0.00     0.031 C 
ATOM     60  C   UNL A   1      38.815  31.673  34.581  1.00  0.00     0.029 A 
ATOM     61  C   UNL A   1      39.719  32.636  34.147  1.00  0.00     0.049 A 
ATOM     62  H   UNL A   1      39.225  34.411  33.160  1.00  0.00     0.167 HD
ATOM     63  C   UNL A   1      42.027  31.904  33.838  1.00  0.00     0.074 A 
ATOM     64  C   UNL A   1      43.458  31.920  33.586  1.00  0.00     0.031 C 
ATOM     65  C   UNL A   1      41.157  32.907  34.167  1.00  0.00     0.037 A 
BRANCH  52  66
ATOM     66  C   UNL A   1      35.870  34.113  31.587  1.00  0.00     0.064 A 
ATOM     67  C   UNL A   1      35.409  35.010  32.581  1.00  0.00     0.173 A 
ATOM     68  C   UNL A   1      34.921  33.934  30.538  1.00  0.00     0.173 A 
ATOM     69  F   UNL A   1      36.155  35.279  33.660  1.00  0.00    -0.203 F 
ATOM     70  C   UNL A   1      34.153  35.651  32.531  1.00  0.00     0.198 A 
ATOM     71  C   UNL A   1      33.689  34.611  30.465  1.00  0.00     0.198 A 
ATOM     72  F   UNL A   1      35.077  33.053  29.548  1.00  0.00    -0.203 F 
ATOM     73  F   UNL A   1      33.774  36.449  33.538  1.00  0.00    -0.200 F 
ATOM     74  C   UNL A   1      33.298  35.462  31.468  1.00  0.00     0.200 A 
ATOM     75  F   UNL A   1      32.874  34.396  29.419  1.00  0.00    -0.200 F 
ATOM     76  F   UNL A   1      32.104  36.069  31.420  1.00  0.00    -0.200 F 
ENDBRANCH  52  66
BRANCH  53  77
ATOM     77  C   UNL A   1      43.505  27.869  31.516  1.00  0.00     0.064 A 
ATOM     78  C   UNL A   1      43.841  26.517  31.808  1.00  0.00     0.173 A 
ATOM     79  C   UNL A   1      43.780  28.300  30.213  1.00  0.00     0.173 A 
ATOM     80  F   UNL A   1      43.604  26.019  33.033  1.00  0.00    -0.203 F 
ATOM     81  C   UNL A   1      44.275  25.626  30.827  1.00  0.00     0.198 A 
ATOM     82  C   UNL A   1      44.274  27.412  29.240  1.00  0.00     0.198 A 
ATOM     83  F   UNL A   1      43.441  29.533  29.812  1.00  0.00    -0.203 F 
ATOM     84  F   UNL A   1      44.390  24.320  31.112  1.00  0.00    -0.200 F 
ATOM     85  C   UNL A   1      44.485  26.073  29.539  1.00  0.00     0.200 A 
ATOM     86  F   UNL A   1      44.404  27.823  27.970  1.00  0.00    -0.200 F 
ATOM     87  F   UNL A   1      44.804  25.204  28.568  1.00  0.00    -0.200 F 
ENDBRANCH  53  77
BRANCH  65  88
ATOM     88  C   UNL A   1      41.678  34.294  34.460  1.00  0.00     0.064 A 
ATOM     89  C   UNL A   1      42.182  35.082  33.416  1.00  0.00     0.173 A 
ATOM     90  C   UNL A   1      41.794  34.842  35.757  1.00  0.00     0.173 A 
ATOM     91  F   UNL A   1      42.132  34.642  32.149  1.00  0.00    -0.203 F 
ATOM     92  C   UNL A   1      42.739  36.337  33.651  1.00  0.00     0.198 A 
ATOM     93  C   UNL A   1      42.434  36.053  35.998  1.00  0.00     0.198 A 
ATOM     94  F   UNL A   1      41.269  34.238  36.832  1.00  0.00    -0.203 F 
ATOM     95  F   UNL A   1      43.134  37.089  32.614  1.00  0.00    -0.200 F 
ATOM     96  C   UNL A   1      42.890  36.812  34.942  1.00  0.00     0.200 A 
ATOM     97  F   UNL A   1      42.595  36.480  37.259  1.00  0.00    -0.200 F 
ATOM     98  F   UNL A   1      43.460  38.002  35.167  1.00  0.00    -0.200 F 
ENDBRANCH  65  88
ENDBRANCH  39  40
ENDBRANCH  32  34
ENDBRANCH  31  32
ENDBRANCH  30  31
ENDBRANCH  29  30
ENDBRANCH  28  29
ENDBRANCH  27  28
ENDBRANCH   1  27
TORSDOF 21
ENDMDL
MODEL 3
REMARK VINA RESULT:     -11.3      2.756      4.256
REMARK SMILES Cc1ccc(O[C@H](C)C(=O)Nc2ccsc2C(=O)OCCOCCOCCOC(=O)c2ccc(-c3c4nc(c(-c5c(F)c(F)c(F)c(F)c5F)c5ccc([nH]5)c(-c5c(F)c(F)c(F)c(F)c5F)c5nc(c(-c6c(F)c(F)c(F)c(F)c6F)c6ccc3[nH]6)C=C5)C=C4)cc2)cc1
REMARK SMILES IDX 23 1 22 2 21 3 20 4 19 5 17 6 18 7 16 8 12 9 13 10 14 11
REMARK SMILES IDX 15 12 11 13 9 14 10 15 7 17 8 18 6 19 5 20 1 21 2 22 3 23
REMARK SMILES IDX 95 24 4 25 94 26 24 27 25 28 26 29 27 30 28 31 29 32 30 33
REMARK SMILES IDX 31 34 32 35 93 36 33 37 92 38 34 39 35 40 36 41 86 42 37 43
REMARK SMILES IDX 91 44 85 45 87 46 38 47 90 48 84 49 83 50 39 52 71 53 51 54
REMARK SMILES IDX 70 55 52 56 55 57 69 58 88 59 53 60 54 61 68 63 89 64 56 65
REMARK SMILES IDX 40 66 41 67 49 68 42 69 43 70 47 71 50 72 44 73 45 74 48 75
REMARK SMILES IDX 46 76 72 77 73 78 81 79 74 80 75 81 79 82 82 83 76 84 77 85
REMARK SMILES IDX 80 86 78 87 57 88 58 89 66 90 59 91 60 92 64 93 67 94 61 95
REMARK SMILES IDX 62 96 65 97 63 98
REMARK H PARENT 11 16 87 51 55 62
REMARK Flexibility Score: inf
ROOT
ATOM      1  C   UNL A   1      32.306  30.388  26.266  1.00  0.00     0.188 C 
ENDROOT
BRANCH   1   2
ATOM      2  O   UNL A   1      31.526  29.192  26.227  1.00  0.00    -0.376 OA
BRANCH   2   3
ATOM      3  C   UNL A   1      32.122  27.902  26.374  1.00  0.00     0.202 C 
BRANCH   3   4
ATOM      4  C   UNL A   1      31.213  26.647  26.646  1.00  0.00     0.261 C 
BRANCH   4   5
ATOM      5  O   UNL A   1      30.161  26.267  25.674  1.00  0.00    -0.459 OA
BRANCH   5   6
ATOM      6  C   UNL A   1      30.091  26.435  24.296  1.00  0.00     0.350 C 
ATOM      7  O   UNL A   1      29.149  27.062  23.800  1.00  0.00    -0.245 OA
BRANCH   6   8
ATOM      8  C   UNL A   1      31.338  25.957  23.436  1.00  0.00     0.136 A 
ATOM      9  C   UNL A   1      31.602  24.638  23.122  1.00  0.00     0.066 A 
ATOM     10  C   UNL A   1      32.497  24.471  22.005  1.00  0.00     0.039 A 
ATOM     11  C   UNL A   1      33.200  25.598  21.692  1.00  0.00     0.068 A 
ATOM     12  S   UNL A   1      32.625  26.844  22.628  1.00  0.00    -0.135 S 
BRANCH   9  13
ATOM     13  N   UNL A   1      30.978  23.657  23.852  1.00  0.00    -0.321 N 
ATOM     14  C   UNL A   1      31.485  23.109  25.001  1.00  0.00     0.265 C 
ATOM     15  O   UNL A   1      30.734  22.394  25.670  1.00  0.00    -0.270 OA
ATOM     16  H   UNL A   1      30.110  23.324  23.529  1.00  0.00     0.170 HD
BRANCH  14  17
ATOM     17  C   UNL A   1      32.945  23.380  25.442  1.00  0.00     0.259 C 
ATOM     18  C   UNL A   1      33.005  23.128  26.950  1.00  0.00     0.064 C 
BRANCH  17  19
ATOM     19  O   UNL A   1      33.806  22.617  24.585  1.00  0.00    -0.481 OA
BRANCH  19  20
ATOM     20  C   UNL A   1      35.159  22.573  24.763  1.00  0.00     0.120 A 
ATOM     21  C   UNL A   1      39.242  22.116  26.125  1.00  0.00     0.044 C 
ATOM     22  C   UNL A   1      37.846  22.250  25.597  1.00  0.00    -0.051 A 
ATOM     23  C   UNL A   1      37.282  23.519  25.458  1.00  0.00     0.007 A 
ATOM     24  C   UNL A   1      37.065  21.136  25.279  1.00  0.00     0.007 A 
ATOM     25  C   UNL A   1      35.958  23.677  25.036  1.00  0.00     0.047 A 
ATOM     26  C   UNL A   1      35.731  21.300  24.875  1.00  0.00     0.047 A 
ENDBRANCH  19  20
ENDBRANCH  17  19
ENDBRANCH  14  17
ENDBRANCH   9  13
ENDBRANCH   6   8
ENDBRANCH   5   6
ENDBRANCH   4   5
ENDBRANCH   3   4
ENDBRANCH   2   3
ENDBRANCH   1   2
BRANCH   1  27
ATOM     27  C   UNL A   1      33.432  30.619  27.257  1.00  0.00     0.188 C 
BRANCH  27  28
ATOM     28  O   UNL A   1      34.038  31.881  27.029  1.00  0.00    -0.376 OA
BRANCH  28  29
ATOM     29  C   UNL A   1      33.714  32.862  28.005  1.00  0.00     0.202 C 
BRANCH  29  30
ATOM     30  C   UNL A   1      34.958  33.548  28.602  1.00  0.00     0.261 C 
BRANCH  30  31
ATOM     31  O   UNL A   1      36.001  32.571  28.844  1.00  0.00    -0.460 OA
BRANCH  31  32
ATOM     32  C   UNL A   1      35.796  31.637  29.832  1.00  0.00     0.338 C 
ATOM     33  O   UNL A   1      35.358  31.881  30.939  1.00  0.00    -0.246 OA
BRANCH  32  34
ATOM     34  C   UNL A   1      36.466  30.340  29.443  1.00  0.00     0.060 A 
ATOM     35  C   UNL A   1      36.838  29.328  30.337  1.00  0.00     0.016 A 
ATOM     36  C   UNL A   1      37.120  30.349  28.255  1.00  0.00     0.016 A 
ATOM     37  C   UNL A   1      38.005  28.493  30.096  1.00  0.00     0.010 A 
ATOM     38  C   UNL A   1      38.405  29.805  28.274  1.00  0.00     0.010 A 
ATOM     39  C   UNL A   1      38.940  28.770  29.085  1.00  0.00    -0.014 A 
BRANCH  39  40
ATOM     40  C   UNL A   1      40.460  28.112  28.985  1.00  0.00     0.031 A 
ATOM     41  C   UNL A   1      41.135  26.581  28.652  1.00  0.00     0.074 A 
ATOM     42  C   UNL A   1      41.433  29.031  29.143  1.00  0.00     0.049 A 
ATOM     43  N   UNL A   1      42.327  26.162  29.062  1.00  0.00    -0.248 NA
ATOM     44  C   UNL A   1      40.581  25.391  27.930  1.00  0.00     0.031 C 
ATOM     45  C   UNL A   1      42.840  28.927  28.787  1.00  0.00     0.029 A 
ATOM     46  N   UNL A   1      41.345  30.283  29.763  1.00  0.00    -0.354 N 
ATOM     47  C   UNL A   1      42.552  24.903  28.458  1.00  0.00     0.074 A 
ATOM     48  C   UNL A   1      41.281  24.337  28.315  1.00  0.00     0.031 C 
ATOM     49  C   UNL A   1      43.518  29.874  29.454  1.00  0.00     0.029 A 
ATOM     50  C   UNL A   1      42.589  30.491  30.382  1.00  0.00     0.049 A 
ATOM     51  H   UNL A   1      40.572  30.893  29.765  1.00  0.00     0.167 HD
ATOM     52  C   UNL A   1      43.692  24.553  27.776  1.00  0.00     0.037 A 
ATOM     53  C   UNL A   1      42.646  30.508  31.742  1.00  0.00     0.037 A 
ATOM     54  C   UNL A   1      44.766  25.352  28.310  1.00  0.00     0.049 A 
ATOM     55  C   UNL A   1      43.458  29.335  32.273  1.00  0.00     0.074 A 
ATOM     56  C   UNL A   1      45.467  26.484  27.965  1.00  0.00     0.029 A 
ATOM     57  N   UNL A   1      44.984  25.165  29.652  1.00  0.00    -0.354 N 
ATOM     58  N   UNL A   1      44.216  28.567  31.532  1.00  0.00    -0.248 NA
ATOM     59  C   UNL A   1      43.415  28.877  33.660  1.00  0.00     0.031 C 
ATOM     60  C   UNL A   1      45.850  27.110  29.210  1.00  0.00     0.029 A 
ATOM     61  C   UNL A   1      45.426  26.312  30.266  1.00  0.00     0.049 A 
ATOM     62  H   UNL A   1      44.841  24.310  30.119  1.00  0.00     0.167 HD
ATOM     63  C   UNL A   1      44.606  27.473  32.249  1.00  0.00     0.074 A 
ATOM     64  C   UNL A   1      44.114  27.732  33.592  1.00  0.00     0.031 C 
ATOM     65  C   UNL A   1      45.239  26.385  31.715  1.00  0.00     0.037 A 
BRANCH  52  66
ATOM     66  C   UNL A   1      43.850  23.517  26.625  1.00  0.00     0.064 A 
ATOM     67  C   UNL A   1      43.436  22.179  26.840  1.00  0.00     0.173 A 
ATOM     68  C   UNL A   1      44.458  23.696  25.348  1.00  0.00     0.173 A 
ATOM     69  F   UNL A   1      42.870  21.815  27.997  1.00  0.00    -0.203 F 
ATOM     70  C   UNL A   1      43.607  21.148  25.892  1.00  0.00     0.198 A 
ATOM     71  C   UNL A   1      44.584  22.677  24.385  1.00  0.00     0.198 A 
ATOM     72  F   UNL A   1      45.030  24.837  24.960  1.00  0.00    -0.203 F 
ATOM     73  F   UNL A   1      43.229  19.899  26.195  1.00  0.00    -0.200 F 
ATOM     74  C   UNL A   1      44.169  21.399  24.660  1.00  0.00     0.200 A 
ATOM     75  F   UNL A   1      45.147  22.953  23.196  1.00  0.00    -0.200 F 
ATOM     76  F   UNL A   1      44.334  20.420  23.759  1.00  0.00    -0.200 F 
ENDBRANCH  52  66
BRANCH  53  77
ATOM     77  C   UNL A   1      41.438  31.191  32.333  1.00  0.00     0.064 A 
ATOM     78  C   UNL A   1      41.381  32.608  32.222  1.00  0.00     0.173 A 
ATOM     79  C   UNL A   1      40.235  30.552  32.655  1.00  0.00     0.173 A 
ATOM     80  F   UNL A   1      42.489  33.301  31.909  1.00  0.00    -0.203 F 
ATOM     81  C   UNL A   1      40.179  33.314  32.278  1.00  0.00     0.198 A 
ATOM     82  C   UNL A   1      39.034  31.275  32.769  1.00  0.00     0.198 A 
ATOM     83  F   UNL A   1      40.163  29.215  32.717  1.00  0.00    -0.203 F 
ATOM     84  F   UNL A   1      40.155  34.620  31.974  1.00  0.00    -0.200 F 
ATOM     85  C   UNL A   1      39.003  32.645  32.545  1.00  0.00     0.200 A 
ATOM     86  F   UNL A   1      37.878  30.619  32.950  1.00  0.00    -0.200 F 
ATOM     87  F   UNL A   1      37.832  33.297  32.500  1.00  0.00    -0.200 F 
ENDBRANCH  53  77
BRANCH  65  88
ATOM     88  C   UNL A   1      45.658  25.240  32.607  1.00  0.00     0.064 A 
ATOM     89  C   UNL A   1      44.739  24.227  32.914  1.00  0.00     0.173 A 
ATOM     90  C   UNL A   1      46.909  25.155  33.258  1.00  0.00     0.173 A 
ATOM     91  F   UNL A   1      43.518  24.227  32.359  1.00  0.00    -0.203 F 
ATOM     92  C   UNL A   1      45.059  23.191  33.790  1.00  0.00     0.198 A 
ATOM     93  C   UNL A   1      47.191  24.173  34.202  1.00  0.00     0.198 A 
ATOM     94  F   UNL A   1      47.910  26.003  32.984  1.00  0.00    -0.203 F 
ATOM     95  F   UNL A   1      44.179  22.201  33.991  1.00  0.00    -0.200 F 
ATOM     96  C   UNL A   1      46.273  23.178  34.455  1.00  0.00     0.200 A 
ATOM     97  F   UNL A   1      48.363  24.197  34.854  1.00  0.00    -0.200 F 
ATOM     98  F   UNL A   1      46.562  22.203  35.324  1.00  0.00    -0.200 F 
ENDBRANCH  65  88
ENDBRANCH  39  40
ENDBRANCH  32  34
ENDBRANCH  31  32
ENDBRANCH  30  31
ENDBRANCH  29  30
ENDBRANCH  28  29
ENDBRANCH  27  28
ENDBRANCH   1  27
TORSDOF 21
ENDMDL
