MODEL 1
REMARK VINA RESULT:     -11.6      0.000      0.000
REMARK SMILES CC[C@@H](Oc1ccccc1/C=C1/SC(Nc2ccc(F)cc2)=[NH+]C1=O)C(=O)OCCOCCOCCOC(=O)c1ccc(-c2c3nc(c(-c4c(F)c(F)c(F)c(F)c4F)c4ccc([nH]4)c(-c4c(F)c(F)c(F)c(F)c4F)c4nc(c(-c5c(F)c(F)c(F)c(F)c5F)c5ccc2[nH]5)C=C4)C=C3)cc1
REMARK SMILES IDX 32 1 31 2 30 3 29 4 28 5 26 6 27 7 3 8 2 9 1 10 4 11 5 12
REMARK SMILES IDX 6 13 10 14 7 15 9 16 8 17 11 18 12 19 13 20 24 21 14 22
REMARK SMILES IDX 23 23 25 24 15 25 16 28 17 29 22 30 18 31 21 32 19 33 20 34
REMARK SMILES IDX 33 35 34 36 35 37 36 38 37 39 38 40 39 41 40 42 41 43 102 44
REMARK SMILES IDX 42 45 101 46 43 47 44 48 45 49 95 50 46 51 100 52 94 53
REMARK SMILES IDX 96 54 47 55 99 56 93 57 92 58 48 60 80 61 60 62 79 63 61 64
REMARK SMILES IDX 64 65 78 66 97 67 62 68 63 69 77 71 98 72 65 73 49 74 50 75
REMARK SMILES IDX 58 76 51 77 52 78 56 79 59 80 53 81 54 82 57 83 55 84 81 85
REMARK SMILES IDX 82 86 90 87 83 88 84 89 88 90 91 91 85 92 86 93 89 94 87 95
REMARK SMILES IDX 66 96 67 97 75 98 68 99 69 100 73 101 76 102 70 103 71 104
REMARK SMILES IDX 74 105 72 106
REMARK H PARENT 23 26 15 27 96 59 64 70
REMARK Flexibility Score: inf
ROOT
ATOM      1  C   UNL A   1      38.188  22.453  25.770  1.00  0.00     0.188 C 
ENDROOT
BRANCH   1   2
ATOM      2  O   UNL A   1      37.110  22.422  24.853  1.00  0.00    -0.376 OA
BRANCH   2   3
ATOM      3  C   UNL A   1      36.613  23.685  24.417  1.00  0.00     0.202 C 
BRANCH   3   4
ATOM      4  C   UNL A   1      35.390  24.289  25.135  1.00  0.00     0.261 C 
BRANCH   4   5
ATOM      5  O   UNL A   1      34.753  25.415  24.490  1.00  0.00    -0.461 OA
BRANCH   5   6
ATOM      6  C   UNL A   1      34.210  26.356  25.327  1.00  0.00     0.347 C 
ATOM      7  O   UNL A   1      34.322  26.348  26.549  1.00  0.00    -0.248 OA
BRANCH   6   8
ATOM      8  C   UNL A   1      33.457  27.466  24.580  1.00  0.00     0.282 C 
BRANCH   8   9
ATOM      9  C   UNL A   1      33.060  27.038  23.156  1.00  0.00     0.054 C 
ATOM     10  C   UNL A   1      33.699  27.846  22.030  1.00  0.00     0.008 C 
ENDBRANCH   8   9
BRANCH   8  11
ATOM     11  O   UNL A   1      32.298  27.743  25.369  1.00  0.00    -0.478 OA
BRANCH  11  12
ATOM     12  C   UNL A   1      31.109  27.445  24.755  1.00  0.00     0.127 A 
ATOM     13  C   UNL A   1      30.558  28.328  23.822  1.00  0.00     0.047 A 
ATOM     14  C   UNL A   1      30.435  26.262  25.122  1.00  0.00     0.018 A 
ATOM     15  C   UNL A   1      29.361  28.000  23.189  1.00  0.00     0.004 A 
ATOM     16  C   UNL A   1      29.243  25.941  24.464  1.00  0.00     0.012 A 
ATOM     17  C   UNL A   1      28.710  26.806  23.502  1.00  0.00     0.001 A 
BRANCH  14  18
ATOM     18  C   UNL A   1      31.051  25.277  26.030  1.00  0.00     0.036 C 
ATOM     19  C   UNL A   1      31.562  24.092  25.670  1.00  0.00     0.110 C 
ATOM     20  S   UNL A   1      31.853  22.808  26.794  1.00  0.00     0.006 SA
ATOM     21  C   UNL A   1      31.862  23.604  24.287  1.00  0.00     0.346 C 
ATOM     22  C   UNL A   1      32.100  21.713  25.450  1.00  0.00     0.322 C 
ATOM     23  N   UNL A   1      32.079  22.248  24.276  1.00  0.00    -0.199 N 
ATOM     24  O   UNL A   1      31.982  24.323  23.310  1.00  0.00    -0.240 OA
ATOM     25  N   UNL A   1      32.292  20.392  25.745  1.00  0.00    -0.235 N 
ATOM     26  H   UNL A   1      32.206  21.731  23.449  1.00  0.00     0.316 HD
ATOM     27  H   UNL A   1      32.016  20.067  26.633  1.00  0.00     0.313 HD
BRANCH  25  28
ATOM     28  C   UNL A   1      32.858  19.472  24.849  1.00  0.00     0.125 A 
ATOM     29  C   UNL A   1      34.155  18.985  25.048  1.00  0.00     0.055 A 
ATOM     30  C   UNL A   1      32.100  18.932  23.796  1.00  0.00     0.055 A 
ATOM     31  C   UNL A   1      34.664  17.962  24.241  1.00  0.00     0.043 A 
ATOM     32  C   UNL A   1      32.612  17.930  22.974  1.00  0.00     0.043 A 
ATOM     33  C   UNL A   1      33.886  17.444  23.213  1.00  0.00     0.123 A 
ATOM     34  F   UNL A   1      34.371  16.457  22.450  1.00  0.00    -0.207 F 
ENDBRANCH  25  28
ENDBRANCH  14  18
ENDBRANCH  11  12
ENDBRANCH   8  11
ENDBRANCH   6   8
ENDBRANCH   5   6
ENDBRANCH   4   5
ENDBRANCH   3   4
ENDBRANCH   2   3
ENDBRANCH   1   2
BRANCH   1  35
ATOM     35  C   UNL A   1      39.169  21.278  25.759  1.00  0.00     0.188 C 
BRANCH  35  36
ATOM     36  O   UNL A   1      40.261  21.355  26.656  1.00  0.00    -0.376 OA
BRANCH  36  37
ATOM     37  C   UNL A   1      41.417  20.594  26.309  1.00  0.00     0.202 C 
BRANCH  37  38
ATOM     38  C   UNL A   1      42.631  21.371  25.760  1.00  0.00     0.261 C 
BRANCH  38  39
ATOM     39  O   UNL A   1      42.343  22.573  25.017  1.00  0.00    -0.460 OA
BRANCH  39  40
ATOM     40  C   UNL A   1      43.221  23.601  25.083  1.00  0.00     0.338 C 
ATOM     41  O   UNL A   1      44.167  23.795  24.339  1.00  0.00    -0.246 OA
BRANCH  40  42
ATOM     42  C   UNL A   1      42.678  24.612  26.037  1.00  0.00     0.060 A 
ATOM     43  C   UNL A   1      43.323  25.854  26.130  1.00  0.00     0.016 A 
ATOM     44  C   UNL A   1      41.499  24.390  26.759  1.00  0.00     0.016 A 
ATOM     45  C   UNL A   1      42.821  26.852  26.973  1.00  0.00     0.010 A 
ATOM     46  C   UNL A   1      41.001  25.387  27.607  1.00  0.00     0.010 A 
ATOM     47  C   UNL A   1      41.680  26.611  27.749  1.00  0.00    -0.014 A 
BRANCH  47  48
ATOM     48  C   UNL A   1      41.315  27.527  28.863  1.00  0.00     0.031 A 
ATOM     49  C   UNL A   1      42.126  27.454  30.130  1.00  0.00     0.074 A 
ATOM     50  C   UNL A   1      40.300  28.406  28.774  1.00  0.00     0.049 A 
ATOM     51  N   UNL A   1      41.965  28.084  31.266  1.00  0.00    -0.248 NA
ATOM     52  C   UNL A   1      43.275  26.535  30.109  1.00  0.00     0.031 C 
ATOM     53  C   UNL A   1      39.455  28.612  27.601  1.00  0.00     0.029 A 
ATOM     54  N   UNL A   1      39.800  29.283  29.709  1.00  0.00    -0.354 N 
ATOM     55  C   UNL A   1      42.986  27.633  32.093  1.00  0.00     0.074 A 
ATOM     56  C   UNL A   1      43.737  26.651  31.344  1.00  0.00     0.031 C 
ATOM     57  C   UNL A   1      38.530  29.545  27.891  1.00  0.00     0.029 A 
ATOM     58  C   UNL A   1      38.694  29.976  29.281  1.00  0.00     0.049 A 
ATOM     59  H   UNL A   1      40.198  29.403  30.601  1.00  0.00     0.167 HD
ATOM     60  C   UNL A   1      43.280  28.009  33.360  1.00  0.00     0.037 A 
ATOM     61  C   UNL A   1      37.893  30.837  29.943  1.00  0.00     0.037 A 
ATOM     62  C   UNL A   1      42.533  28.980  34.115  1.00  0.00     0.049 A 
ATOM     63  C   UNL A   1      38.191  31.180  31.383  1.00  0.00     0.074 A 
ATOM     64  C   UNL A   1      42.762  29.433  35.403  1.00  0.00     0.029 A 
ATOM     65  N   UNL A   1      41.404  29.639  33.653  1.00  0.00    -0.354 N 
ATOM     66  N   UNL A   1      39.171  30.769  32.151  1.00  0.00    -0.248 NA
ATOM     67  C   UNL A   1      37.266  32.113  32.049  1.00  0.00     0.031 C 
ATOM     68  C   UNL A   1      41.739  30.324  35.741  1.00  0.00     0.029 A 
ATOM     69  C   UNL A   1      40.909  30.477  34.641  1.00  0.00     0.049 A 
ATOM     70  H   UNL A   1      41.012  29.529  32.757  1.00  0.00     0.167 HD
ATOM     71  C   UNL A   1      39.001  31.413  33.372  1.00  0.00     0.074 A 
ATOM     72  C   UNL A   1      37.830  32.254  33.241  1.00  0.00     0.031 C 
ATOM     73  C   UNL A   1      39.750  31.319  34.499  1.00  0.00     0.037 A 
BRANCH  60  74
ATOM     74  C   UNL A   1      44.452  27.341  34.022  1.00  0.00     0.064 A 
ATOM     75  C   UNL A   1      45.735  27.909  33.997  1.00  0.00     0.173 A 
ATOM     76  C   UNL A   1      44.285  26.127  34.705  1.00  0.00     0.173 A 
ATOM     77  F   UNL A   1      45.953  29.060  33.342  1.00  0.00    -0.203 F 
ATOM     78  C   UNL A   1      46.812  27.269  34.605  1.00  0.00     0.198 A 
ATOM     79  C   UNL A   1      45.357  25.508  35.339  1.00  0.00     0.198 A 
ATOM     80  F   UNL A   1      43.078  25.543  34.759  1.00  0.00    -0.203 F 
ATOM     81  F   UNL A   1      48.040  27.801  34.519  1.00  0.00    -0.200 F 
ATOM     82  C   UNL A   1      46.621  26.074  35.281  1.00  0.00     0.200 A 
ATOM     83  F   UNL A   1      45.168  24.359  36.002  1.00  0.00    -0.200 F 
ATOM     84  F   UNL A   1      47.659  25.461  35.868  1.00  0.00    -0.200 F 
ENDBRANCH  60  74
BRANCH  61  85
ATOM     85  C   UNL A   1      36.708  31.428  29.262  1.00  0.00     0.064 A 
ATOM     86  C   UNL A   1      35.567  30.659  28.992  1.00  0.00     0.173 A 
ATOM     87  C   UNL A   1      36.707  32.764  28.833  1.00  0.00     0.173 A 
ATOM     88  F   UNL A   1      35.530  29.368  29.351  1.00  0.00    -0.203 F 
ATOM     89  C   UNL A   1      34.480  31.198  28.305  1.00  0.00     0.198 A 
ATOM     90  C   UNL A   1      35.607  33.310  28.173  1.00  0.00     0.198 A 
ATOM     91  F   UNL A   1      37.777  33.542  29.054  1.00  0.00    -0.203 F 
ATOM     92  F   UNL A   1      33.426  30.424  28.012  1.00  0.00    -0.200 F 
ATOM     93  C   UNL A   1      34.498  32.524  27.902  1.00  0.00     0.200 A 
ATOM     94  F   UNL A   1      35.627  34.594  27.791  1.00  0.00    -0.200 F 
ATOM     95  F   UNL A   1      33.453  33.041  27.240  1.00  0.00    -0.200 F 
ENDBRANCH  61  85
BRANCH  73  96
ATOM     96  C   UNL A   1      39.361  32.176  35.672  1.00  0.00     0.064 A 
ATOM     97  C   UNL A   1      39.855  33.479  35.835  1.00  0.00     0.173 A 
ATOM     98  C   UNL A   1      38.439  31.703  36.620  1.00  0.00     0.173 A 
ATOM     99  F   UNL A   1      40.746  33.977  34.965  1.00  0.00    -0.203 F 
ATOM    100  C   UNL A   1      39.461  34.266  36.916  1.00  0.00     0.198 A 
ATOM    101  C   UNL A   1      38.022  32.503  37.680  1.00  0.00     0.198 A 
ATOM    102  F   UNL A   1      37.927  30.467  36.507  1.00  0.00    -0.203 F 
ATOM    103  F   UNL A   1      39.982  35.489  37.077  1.00  0.00    -0.200 F 
ATOM    104  C   UNL A   1      38.539  33.780  37.832  1.00  0.00     0.200 A 
ATOM    105  F   UNL A   1      37.118  32.038  38.554  1.00  0.00    -0.200 F 
ATOM    106  F   UNL A   1      38.153  34.542  38.866  1.00  0.00    -0.200 F 
ENDBRANCH  73  96
ENDBRANCH  47  48
ENDBRANCH  40  42
ENDBRANCH  39  40
ENDBRANCH  38  39
ENDBRANCH  37  38
ENDBRANCH  36  37
ENDBRANCH  35  36
ENDBRANCH   1  35
TORSDOF 22
ENDMDL
MODEL 2
REMARK VINA RESULT:     -11.1      5.242      8.839
REMARK SMILES CC[C@@H](Oc1ccccc1/C=C1/SC(Nc2ccc(F)cc2)=[NH+]C1=O)C(=O)OCCOCCOCCOC(=O)c1ccc(-c2c3nc(c(-c4c(F)c(F)c(F)c(F)c4F)c4ccc([nH]4)c(-c4c(F)c(F)c(F)c(F)c4F)c4nc(c(-c5c(F)c(F)c(F)c(F)c5F)c5ccc2[nH]5)C=C4)C=C3)cc1
REMARK SMILES IDX 32 1 31 2 30 3 29 4 28 5 26 6 27 7 3 8 2 9 1 10 4 11 5 12
REMARK SMILES IDX 6 13 10 14 7 15 9 16 8 17 11 18 12 19 13 20 24 21 14 22
REMARK SMILES IDX 23 23 25 24 15 25 16 28 17 29 22 30 18 31 21 32 19 33 20 34
REMARK SMILES IDX 33 35 34 36 35 37 36 38 37 39 38 40 39 41 40 42 41 43 102 44
REMARK SMILES IDX 42 45 101 46 43 47 44 48 45 49 95 50 46 51 100 52 94 53
REMARK SMILES IDX 96 54 47 55 99 56 93 57 92 58 48 60 80 61 60 62 79 63 61 64
REMARK SMILES IDX 64 65 78 66 97 67 62 68 63 69 77 71 98 72 65 73 49 74 50 75
REMARK SMILES IDX 58 76 51 77 52 78 56 79 59 80 53 81 54 82 57 83 55 84 81 85
REMARK SMILES IDX 82 86 90 87 83 88 84 89 88 90 91 91 85 92 86 93 89 94 87 95
REMARK SMILES IDX 66 96 67 97 75 98 68 99 69 100 73 101 76 102 70 103 71 104
REMARK SMILES IDX 74 105 72 106
REMARK H PARENT 23 26 15 27 96 59 64 70
REMARK Flexibility Score: inf
ROOT
ATOM      1  C   UNL A   1      38.659  21.214  25.693  1.00  0.00     0.188 C 
ENDROOT
BRANCH   1   2
ATOM      2  O   UNL A   1      37.448  20.771  25.109  1.00  0.00    -0.376 OA
BRANCH   2   3
ATOM      3  C   UNL A   1      36.255  21.399  25.573  1.00  0.00     0.202 C 
BRANCH   3   4
ATOM      4  C   UNL A   1      35.647  22.544  24.740  1.00  0.00     0.261 C 
BRANCH   4   5
ATOM      5  O   UNL A   1      34.230  22.777  24.899  1.00  0.00    -0.461 OA
BRANCH   5   6
ATOM      6  C   UNL A   1      33.882  23.869  25.653  1.00  0.00     0.347 C 
ATOM      7  O   UNL A   1      34.682  24.671  26.126  1.00  0.00    -0.248 OA
BRANCH   6   8
ATOM      8  C   UNL A   1      32.365  24.020  25.833  1.00  0.00     0.282 C 
BRANCH   8   9
ATOM      9  C   UNL A   1      31.788  22.960  26.787  1.00  0.00     0.054 C 
ATOM     10  C   UNL A   1      30.265  22.923  26.876  1.00  0.00     0.008 C 
ENDBRANCH   8   9
BRANCH   8  11
ATOM     11  O   UNL A   1      32.170  25.336  26.358  1.00  0.00    -0.478 OA
BRANCH  11  12
ATOM     12  C   UNL A   1      31.573  26.211  25.487  1.00  0.00     0.127 A 
ATOM     13  C   UNL A   1      30.348  25.889  24.897  1.00  0.00     0.047 A 
ATOM     14  C   UNL A   1      32.243  27.409  25.165  1.00  0.00     0.018 A 
ATOM     15  C   UNL A   1      29.742  26.799  24.032  1.00  0.00     0.004 A 
ATOM     16  C   UNL A   1      31.612  28.317  24.308  1.00  0.00     0.012 A 
ATOM     17  C   UNL A   1      30.367  28.013  23.746  1.00  0.00     0.001 A 
BRANCH  14  18
ATOM     18  C   UNL A   1      33.485  27.803  25.853  1.00  0.00     0.036 C 
ATOM     19  C   UNL A   1      33.645  28.892  26.620  1.00  0.00     0.110 C 
ATOM     20  S   UNL A   1      35.197  29.542  27.024  1.00  0.00     0.006 SA
ATOM     21  C   UNL A   1      32.583  29.798  27.159  1.00  0.00     0.346 C 
ATOM     22  C   UNL A   1      34.414  30.988  27.625  1.00  0.00     0.322 C 
ATOM     23  N   UNL A   1      33.124  30.968  27.631  1.00  0.00    -0.199 N 
ATOM     24  O   UNL A   1      31.403  29.506  27.247  1.00  0.00    -0.240 OA
ATOM     25  N   UNL A   1      35.219  32.015  28.032  1.00  0.00    -0.235 N 
ATOM     26  H   UNL A   1      32.577  31.724  27.946  1.00  0.00     0.316 HD
ATOM     27  H   UNL A   1      36.156  32.022  27.727  1.00  0.00     0.313 HD
BRANCH  25  28
ATOM     28  C   UNL A   1      34.783  33.060  28.860  1.00  0.00     0.125 A 
ATOM     29  C   UNL A   1      34.096  34.157  28.325  1.00  0.00     0.055 A 
ATOM     30  C   UNL A   1      34.921  32.979  30.256  1.00  0.00     0.055 A 
ATOM     31  C   UNL A   1      33.535  35.125  29.165  1.00  0.00     0.043 A 
ATOM     32  C   UNL A   1      34.384  33.954  31.095  1.00  0.00     0.043 A 
ATOM     33  C   UNL A   1      33.682  35.012  30.541  1.00  0.00     0.123 A 
ATOM     34  F   UNL A   1      33.134  35.932  31.343  1.00  0.00    -0.207 F 
ENDBRANCH  25  28
ENDBRANCH  14  18
ENDBRANCH  11  12
ENDBRANCH   8  11
ENDBRANCH   6   8
ENDBRANCH   5   6
ENDBRANCH   4   5
ENDBRANCH   3   4
ENDBRANCH   2   3
ENDBRANCH   1   2
BRANCH   1  35
ATOM     35  C   UNL A   1      39.784  20.190  25.866  1.00  0.00     0.188 C 
BRANCH  35  36
ATOM     36  O   UNL A   1      41.025  20.684  26.333  1.00  0.00    -0.376 OA
BRANCH  36  37
ATOM     37  C   UNL A   1      41.898  19.730  26.937  1.00  0.00     0.202 C 
BRANCH  37  38
ATOM     38  C   UNL A   1      42.603  18.730  26.000  1.00  0.00     0.261 C 
BRANCH  38  39
ATOM     39  O   UNL A   1      43.066  19.249  24.736  1.00  0.00    -0.460 OA
BRANCH  39  40
ATOM     40  C   UNL A   1      44.396  19.435  24.561  1.00  0.00     0.338 C 
ATOM     41  O   UNL A   1      45.173  18.658  24.035  1.00  0.00    -0.246 OA
BRANCH  40  42
ATOM     42  C   UNL A   1      44.704  20.865  24.859  1.00  0.00     0.060 A 
ATOM     43  C   UNL A   1      45.394  21.165  26.043  1.00  0.00     0.016 A 
ATOM     44  C   UNL A   1      44.412  21.889  23.950  1.00  0.00     0.016 A 
ATOM     45  C   UNL A   1      45.750  22.486  26.340  1.00  0.00     0.010 A 
ATOM     46  C   UNL A   1      44.763  23.211  24.252  1.00  0.00     0.010 A 
ATOM     47  C   UNL A   1      45.401  23.523  25.467  1.00  0.00    -0.014 A 
BRANCH  47  48
ATOM     48  C   UNL A   1      45.493  24.942  25.904  1.00  0.00     0.031 A 
ATOM     49  C   UNL A   1      46.837  25.618  25.828  1.00  0.00     0.074 A 
ATOM     50  C   UNL A   1      44.430  25.630  26.358  1.00  0.00     0.049 A 
ATOM     51  N   UNL A   1      47.198  26.814  26.218  1.00  0.00    -0.248 NA
ATOM     52  C   UNL A   1      47.925  24.826  25.232  1.00  0.00     0.031 C 
ATOM     53  C   UNL A   1      43.065  25.119  26.454  1.00  0.00     0.029 A 
ATOM     54  N   UNL A   1      44.344  26.915  26.843  1.00  0.00    -0.354 N 
ATOM     55  C   UNL A   1      48.551  26.914  25.921  1.00  0.00     0.074 A 
ATOM     56  C   UNL A   1      48.956  25.647  25.354  1.00  0.00     0.031 C 
ATOM     57  C   UNL A   1      42.279  26.075  26.980  1.00  0.00     0.029 A 
ATOM     58  C   UNL A   1      43.090  27.253  27.292  1.00  0.00     0.049 A 
ATOM     59  H   UNL A   1      45.108  27.535  26.864  1.00  0.00     0.167 HD
ATOM     60  C   UNL A   1      49.383  27.968  26.094  1.00  0.00     0.037 A 
ATOM     61  C   UNL A   1      42.656  28.373  27.908  1.00  0.00     0.037 A 
ATOM     62  C   UNL A   1      48.990  29.229  26.665  1.00  0.00     0.049 A 
ATOM     63  C   UNL A   1      43.620  29.506  28.168  1.00  0.00     0.074 A 
ATOM     64  C   UNL A   1      49.760  30.360  26.872  1.00  0.00     0.029 A 
ATOM     65  N   UNL A   1      47.717  29.521  27.132  1.00  0.00    -0.354 N 
ATOM     66  N   UNL A   1      44.891  29.603  27.862  1.00  0.00    -0.248 NA
ATOM     67  C   UNL A   1      43.084  30.690  28.858  1.00  0.00     0.031 C 
ATOM     68  C   UNL A   1      48.969  31.317  27.515  1.00  0.00     0.029 A 
ATOM     69  C   UNL A   1      47.688  30.807  27.650  1.00  0.00     0.049 A 
ATOM     70  H   UNL A   1      46.948  28.907  27.100  1.00  0.00     0.167 HD
ATOM     71  C   UNL A   1      45.297  30.863  28.291  1.00  0.00     0.074 A 
ATOM     72  C   UNL A   1      44.133  31.502  28.868  1.00  0.00     0.031 C 
ATOM     73  C   UNL A   1      46.522  31.439  28.212  1.00  0.00     0.037 A 
BRANCH  60  74
ATOM     74  C   UNL A   1      50.817  27.789  25.684  1.00  0.00     0.064 A 
ATOM     75  C   UNL A   1      51.231  27.966  24.355  1.00  0.00     0.173 A 
ATOM     76  C   UNL A   1      51.791  27.452  26.636  1.00  0.00     0.173 A 
ATOM     77  F   UNL A   1      50.337  28.271  23.403  1.00  0.00    -0.203 F 
ATOM     78  C   UNL A   1      52.563  27.783  23.991  1.00  0.00     0.198 A 
ATOM     79  C   UNL A   1      53.126  27.303  26.274  1.00  0.00     0.198 A 
ATOM     80  F   UNL A   1      51.447  27.272  27.921  1.00  0.00    -0.203 F 
ATOM     81  F   UNL A   1      52.926  27.902  22.706  1.00  0.00    -0.200 F 
ATOM     82  C   UNL A   1      53.509  27.459  24.950  1.00  0.00     0.200 A 
ATOM     83  F   UNL A   1      54.041  27.002  27.205  1.00  0.00    -0.200 F 
ATOM     84  F   UNL A   1      54.791  27.286  24.598  1.00  0.00    -0.200 F 
ENDBRANCH  60  74
BRANCH  61  85
ATOM     85  C   UNL A   1      41.239  28.481  28.350  1.00  0.00     0.064 A 
ATOM     86  C   UNL A   1      40.242  28.959  27.486  1.00  0.00     0.173 A 
ATOM     87  C   UNL A   1      40.856  28.143  29.657  1.00  0.00     0.173 A 
ATOM     88  F   UNL A   1      40.561  29.329  26.237  1.00  0.00    -0.203 F 
ATOM     89  C   UNL A   1      38.926  29.112  27.918  1.00  0.00     0.198 A 
ATOM     90  C   UNL A   1      39.533  28.267  30.078  1.00  0.00     0.198 A 
ATOM     91  F   UNL A   1      41.771  27.691  30.528  1.00  0.00    -0.203 F 
ATOM     92  F   UNL A   1      38.007  29.625  27.088  1.00  0.00    -0.200 F 
ATOM     93  C   UNL A   1      38.571  28.760  29.211  1.00  0.00     0.200 A 
ATOM     94  F   UNL A   1      39.194  27.920  31.327  1.00  0.00    -0.200 F 
ATOM     95  F   UNL A   1      37.305  28.909  29.626  1.00  0.00    -0.200 F 
ENDBRANCH  61  85
BRANCH  73  96
ATOM     96  C   UNL A   1      46.668  32.849  28.718  1.00  0.00     0.064 A 
ATOM     97  C   UNL A   1      47.037  33.127  30.041  1.00  0.00     0.173 A 
ATOM     98  C   UNL A   1      46.484  33.935  27.847  1.00  0.00     0.173 A 
ATOM     99  F   UNL A   1      47.215  32.128  30.918  1.00  0.00    -0.203 F 
ATOM    100  C   UNL A   1      47.192  34.441  30.481  1.00  0.00     0.198 A 
ATOM    101  C   UNL A   1      46.672  35.244  28.280  1.00  0.00     0.198 A 
ATOM    102  F   UNL A   1      46.140  33.725  26.566  1.00  0.00    -0.203 F 
ATOM    103  F   UNL A   1      47.499  34.685  31.763  1.00  0.00    -0.200 F 
ATOM    104  C   UNL A   1      47.017  35.497  29.599  1.00  0.00     0.200 A 
ATOM    105  F   UNL A   1      46.519  36.262  27.421  1.00  0.00    -0.200 F 
ATOM    106  F   UNL A   1      47.176  36.759  30.021  1.00  0.00    -0.200 F 
ENDBRANCH  73  96
ENDBRANCH  47  48
ENDBRANCH  40  42
ENDBRANCH  39  40
ENDBRANCH  38  39
ENDBRANCH  37  38
ENDBRANCH  36  37
ENDBRANCH  35  36
ENDBRANCH   1  35
TORSDOF 22
ENDMDL
MODEL 3
REMARK VINA RESULT:     -10.7      4.497      7.751
REMARK SMILES CC[C@@H](Oc1ccccc1/C=C1/SC(Nc2ccc(F)cc2)=[NH+]C1=O)C(=O)OCCOCCOCCOC(=O)c1ccc(-c2c3nc(c(-c4c(F)c(F)c(F)c(F)c4F)c4ccc([nH]4)c(-c4c(F)c(F)c(F)c(F)c4F)c4nc(c(-c5c(F)c(F)c(F)c(F)c5F)c5ccc2[nH]5)C=C4)C=C3)cc1
REMARK SMILES IDX 32 1 31 2 30 3 29 4 28 5 26 6 27 7 3 8 2 9 1 10 4 11 5 12
REMARK SMILES IDX 6 13 10 14 7 15 9 16 8 17 11 18 12 19 13 20 24 21 14 22
REMARK SMILES IDX 23 23 25 24 15 25 16 28 17 29 22 30 18 31 21 32 19 33 20 34
REMARK SMILES IDX 33 35 34 36 35 37 36 38 37 39 38 40 39 41 40 42 41 43 102 44
REMARK SMILES IDX 42 45 101 46 43 47 44 48 45 49 95 50 46 51 100 52 94 53
REMARK SMILES IDX 96 54 47 55 99 56 93 57 92 58 48 60 80 61 60 62 79 63 61 64
REMARK SMILES IDX 64 65 78 66 97 67 62 68 63 69 77 71 98 72 65 73 49 74 50 75
REMARK SMILES IDX 58 76 51 77 52 78 56 79 59 80 53 81 54 82 57 83 55 84 81 85
REMARK SMILES IDX 82 86 90 87 83 88 84 89 88 90 91 91 85 92 86 93 89 94 87 95
REMARK SMILES IDX 66 96 67 97 75 98 68 99 69 100 73 101 76 102 70 103 71 104
REMARK SMILES IDX 74 105 72 106
REMARK H PARENT 23 26 15 27 96 59 64 70
REMARK Flexibility Score: inf
ROOT
ATOM      1  C   UNL A   1      35.835  21.856  25.400  1.00  0.00     0.188 C 
ENDROOT
BRANCH   1   2
ATOM      2  O   UNL A   1      35.047  21.890  26.576  1.00  0.00    -0.376 OA
BRANCH   2   3
ATOM      3  C   UNL A   1      33.821  21.165  26.537  1.00  0.00     0.202 C 
BRANCH   3   4
ATOM      4  C   UNL A   1      32.509  21.938  26.302  1.00  0.00     0.261 C 
BRANCH   4   5
ATOM      5  O   UNL A   1      32.349  23.176  27.030  1.00  0.00    -0.461 OA
BRANCH   5   6
ATOM      6  C   UNL A   1      31.386  24.030  26.556  1.00  0.00     0.347 C 
ATOM      7  O   UNL A   1      30.219  24.043  26.935  1.00  0.00    -0.248 OA
BRANCH   6   8
ATOM      8  C   UNL A   1      31.917  25.016  25.505  1.00  0.00     0.282 C 
BRANCH   8   9
ATOM      9  C   UNL A   1      33.385  24.736  25.140  1.00  0.00     0.054 C 
ATOM     10  C   UNL A   1      34.414  25.593  25.873  1.00  0.00     0.008 C 
ENDBRANCH   8   9
BRANCH   8  11
ATOM     11  O   UNL A   1      31.070  24.855  24.364  1.00  0.00    -0.478 OA
BRANCH  11  12
ATOM     12  C   UNL A   1      31.739  24.710  23.176  1.00  0.00     0.127 A 
ATOM     13  C   UNL A   1      32.390  23.509  22.879  1.00  0.00     0.047 A 
ATOM     14  C   UNL A   1      31.799  25.807  22.293  1.00  0.00     0.018 A 
ATOM     15  C   UNL A   1      33.046  23.367  21.658  1.00  0.00     0.004 A 
ATOM     16  C   UNL A   1      32.447  25.641  21.065  1.00  0.00     0.012 A 
ATOM     17  C   UNL A   1      33.067  24.427  20.750  1.00  0.00     0.001 A 
BRANCH  14  18
ATOM     18  C   UNL A   1      31.037  27.042  22.551  1.00  0.00     0.036 C 
ATOM     19  C   UNL A   1      31.424  28.052  23.343  1.00  0.00     0.110 C 
ATOM     20  S   UNL A   1      30.330  29.242  23.960  1.00  0.00     0.006 SA
ATOM     21  C   UNL A   1      32.780  28.287  23.931  1.00  0.00     0.346 C 
ATOM     22  C   UNL A   1      31.575  29.790  25.061  1.00  0.00     0.322 C 
ATOM     23  N   UNL A   1      32.730  29.229  24.929  1.00  0.00    -0.199 N 
ATOM     24  O   UNL A   1      33.809  27.775  23.525  1.00  0.00    -0.240 OA
ATOM     25  N   UNL A   1      31.232  30.754  25.967  1.00  0.00    -0.235 N 
ATOM     26  H   UNL A   1      33.505  29.457  25.492  1.00  0.00     0.316 HD
ATOM     27  H   UNL A   1      30.275  30.899  26.154  1.00  0.00     0.313 HD
BRANCH  25  28
ATOM     28  C   UNL A   1      32.169  31.546  26.648  1.00  0.00     0.125 A 
ATOM     29  C   UNL A   1      31.930  32.908  26.867  1.00  0.00     0.055 A 
ATOM     30  C   UNL A   1      33.314  30.972  27.226  1.00  0.00     0.055 A 
ATOM     31  C   UNL A   1      32.791  33.663  27.669  1.00  0.00     0.043 A 
ATOM     32  C   UNL A   1      34.188  31.726  28.006  1.00  0.00     0.043 A 
ATOM     33  C   UNL A   1      33.911  33.064  28.232  1.00  0.00     0.123 A 
ATOM     34  F   UNL A   1      34.727  33.785  29.009  1.00  0.00    -0.207 F 
ENDBRANCH  25  28
ENDBRANCH  14  18
ENDBRANCH  11  12
ENDBRANCH   8  11
ENDBRANCH   6   8
ENDBRANCH   5   6
ENDBRANCH   4   5
ENDBRANCH   3   4
ENDBRANCH   2   3
ENDBRANCH   1   2
BRANCH   1  35
ATOM     35  C   UNL A   1      37.357  21.842  25.560  1.00  0.00     0.188 C 
BRANCH  35  36
ATOM     36  O   UNL A   1      38.087  21.075  24.621  1.00  0.00    -0.376 OA
BRANCH  36  37
ATOM     37  C   UNL A   1      38.287  19.700  24.948  1.00  0.00     0.202 C 
BRANCH  37  38
ATOM     38  C   UNL A   1      39.352  19.380  26.016  1.00  0.00     0.261 C 
BRANCH  38  39
ATOM     39  O   UNL A   1      40.702  19.794  25.724  1.00  0.00    -0.460 OA
BRANCH  39  40
ATOM     40  C   UNL A   1      41.575  19.924  26.750  1.00  0.00     0.338 C 
ATOM     41  O   UNL A   1      42.296  19.051  27.203  1.00  0.00    -0.246 OA
BRANCH  40  42
ATOM     42  C   UNL A   1      41.722  21.378  27.051  1.00  0.00     0.060 A 
ATOM     43  C   UNL A   1      41.207  22.304  26.131  1.00  0.00     0.016 A 
ATOM     44  C   UNL A   1      42.265  21.833  28.258  1.00  0.00     0.016 A 
ATOM     45  C   UNL A   1      41.276  23.677  26.394  1.00  0.00     0.010 A 
ATOM     46  C   UNL A   1      42.339  23.208  28.517  1.00  0.00     0.010 A 
ATOM     47  C   UNL A   1      41.879  24.140  27.570  1.00  0.00    -0.014 A 
BRANCH  47  48
ATOM     48  C   UNL A   1      42.235  25.577  27.721  1.00  0.00     0.031 A 
ATOM     49  C   UNL A   1      43.544  26.044  27.139  1.00  0.00     0.074 A 
ATOM     50  C   UNL A   1      41.437  26.458  28.352  1.00  0.00     0.049 A 
ATOM     51  N   UNL A   1      44.117  27.219  27.203  1.00  0.00    -0.248 NA
ATOM     52  C   UNL A   1      44.310  25.040  26.385  1.00  0.00     0.031 C 
ATOM     53  C   UNL A   1      40.131  26.157  28.931  1.00  0.00     0.029 A 
ATOM     54  N   UNL A   1      41.627  27.793  28.623  1.00  0.00    -0.354 N 
ATOM     55  C   UNL A   1      45.312  27.091  26.505  1.00  0.00     0.074 A 
ATOM     56  C   UNL A   1      45.399  25.719  26.059  1.00  0.00     0.031 C 
ATOM     57  C   UNL A   1      39.642  27.272  29.503  1.00  0.00     0.029 A 
ATOM     58  C   UNL A   1      40.616  28.356  29.363  1.00  0.00     0.049 A 
ATOM     59  H   UNL A   1      42.413  28.298  28.315  1.00  0.00     0.167 HD
ATOM     60  C   UNL A   1      46.249  28.033  26.249  1.00  0.00     0.037 A 
ATOM     61  C   UNL A   1      40.503  29.595  29.888  1.00  0.00     0.037 A 
ATOM     62  C   UNL A   1      46.175  29.399  26.696  1.00  0.00     0.049 A 
ATOM     63  C   UNL A   1      41.601  30.607  29.660  1.00  0.00     0.074 A 
ATOM     64  C   UNL A   1      47.072  30.429  26.476  1.00  0.00     0.029 A 
ATOM     65  N   UNL A   1      45.146  29.921  27.465  1.00  0.00    -0.354 N 
ATOM     66  N   UNL A   1      42.714  30.487  28.979  1.00  0.00    -0.248 NA
ATOM     67  C   UNL A   1      41.421  31.932  30.275  1.00  0.00     0.031 C 
ATOM     68  C   UNL A   1      46.616  31.560  27.160  1.00  0.00     0.029 A 
ATOM     69  C   UNL A   1      45.401  31.254  27.751  1.00  0.00     0.049 A 
ATOM     70  H   UNL A   1      44.353  29.421  27.764  1.00  0.00     0.167 HD
ATOM     71  C   UNL A   1      43.349  31.722  29.056  1.00  0.00     0.074 A 
ATOM     72  C   UNL A   1      42.490  32.585  29.840  1.00  0.00     0.031 C 
ATOM     73  C   UNL A   1      44.535  32.109  28.523  1.00  0.00     0.037 A 
BRANCH  60  74
ATOM     74  C   UNL A   1      47.458  27.606  25.466  1.00  0.00     0.064 A 
ATOM     75  C   UNL A   1      48.594  27.075  26.095  1.00  0.00     0.173 A 
ATOM     76  C   UNL A   1      47.473  27.715  24.067  1.00  0.00     0.173 A 
ATOM     77  F   UNL A   1      48.639  26.966  27.431  1.00  0.00    -0.203 F 
ATOM     78  C   UNL A   1      49.711  26.696  25.354  1.00  0.00     0.198 A 
ATOM     79  C   UNL A   1      48.578  27.304  23.328  1.00  0.00     0.198 A 
ATOM     80  F   UNL A   1      46.411  28.216  23.416  1.00  0.00    -0.203 F 
ATOM     81  F   UNL A   1      50.807  26.244  25.980  1.00  0.00    -0.200 F 
ATOM     82  C   UNL A   1      49.699  26.804  23.972  1.00  0.00     0.200 A 
ATOM     83  F   UNL A   1      48.560  27.399  21.991  1.00  0.00    -0.200 F 
ATOM     84  F   UNL A   1      50.774  26.437  23.260  1.00  0.00    -0.200 F 
ENDBRANCH  60  74
BRANCH  61  85
ATOM     85  C   UNL A   1      39.313  29.953  30.707  1.00  0.00     0.064 A 
ATOM     86  C   UNL A   1      38.203  30.593  30.136  1.00  0.00     0.173 A 
ATOM     87  C   UNL A   1      39.276  29.697  32.086  1.00  0.00     0.173 A 
ATOM     88  F   UNL A   1      38.203  30.891  28.828  1.00  0.00    -0.203 F 
ATOM     89  C   UNL A   1      37.113  30.978  30.914  1.00  0.00     0.198 A 
ATOM     90  C   UNL A   1      38.172  30.056  32.858  1.00  0.00     0.198 A 
ATOM     91  F   UNL A   1      40.315  29.098  32.687  1.00  0.00    -0.203 F 
ATOM     92  F   UNL A   1      36.091  31.638  30.351  1.00  0.00    -0.200 F 
ATOM     93  C   UNL A   1      37.095  30.704  32.273  1.00  0.00     0.200 A 
ATOM     94  F   UNL A   1      38.156  29.782  34.170  1.00  0.00    -0.200 F 
ATOM     95  F   UNL A   1      36.047  31.075  33.021  1.00  0.00    -0.200 F 
ENDBRANCH  61  85
BRANCH  73  96
ATOM     96  C   UNL A   1      44.962  33.537  28.724  1.00  0.00     0.064 A 
ATOM     97  C   UNL A   1      44.573  34.558  27.845  1.00  0.00     0.173 A 
ATOM     98  C   UNL A   1      45.731  33.894  29.844  1.00  0.00     0.173 A 
ATOM     99  F   UNL A   1      43.848  34.271  26.755  1.00  0.00    -0.203 F 
ATOM    100  C   UNL A   1      44.959  35.880  28.066  1.00  0.00     0.198 A 
ATOM    101  C   UNL A   1      46.086  35.219  30.079  1.00  0.00     0.198 A 
ATOM    102  F   UNL A   1      46.123  32.958  30.722  1.00  0.00    -0.203 F 
ATOM    103  F   UNL A   1      44.615  36.831  27.188  1.00  0.00    -0.200 F 
ATOM    104  C   UNL A   1      45.707  36.209  29.186  1.00  0.00     0.200 A 
ATOM    105  F   UNL A   1      46.795  35.538  31.172  1.00  0.00    -0.200 F 
ATOM    106  F   UNL A   1      46.068  37.482  29.403  1.00  0.00    -0.200 F 
ENDBRANCH  73  96
ENDBRANCH  47  48
ENDBRANCH  40  42
ENDBRANCH  39  40
ENDBRANCH  38  39
ENDBRANCH  37  38
ENDBRANCH  36  37
ENDBRANCH  35  36
ENDBRANCH   1  35
TORSDOF 22
ENDMDL
