MODEL 1
REMARK VINA RESULT:     -10.0      0.000      0.000
REMARK SMILES C[C@@](NC(=O)CS(C)(=O)=O)(C(=O)OCCOCCOCCOC(=O)c1ccc(-c2c3nc(c(-c4c(F)c(F)c(F)c(F)c4F)c4ccc([nH]4)c(-c4c(F)c(F)c(F)c(F)c4F)c4nc(c(-c5c(F)c(F)c(F)c(F)c5F)c5ccc2[nH]5)C=C4)C=C3)cc1)C(F)(F)F
REMARK SMILES IDX 17 1 16 2 15 3 14 4 13 5 11 6 12 7 2 8 1 9 3 10 4 11 5 13
REMARK SMILES IDX 6 14 7 15 8 16 9 17 10 18 88 19 89 20 90 21 91 22 18 23
REMARK SMILES IDX 19 24 20 25 21 26 22 27 23 28 24 29 25 30 26 31 87 32 27 33
REMARK SMILES IDX 86 34 28 35 29 36 30 37 80 38 31 39 85 40 79 41 81 42 32 43
REMARK SMILES IDX 84 44 78 45 77 46 33 48 65 49 45 50 64 51 46 52 49 53 63 54
REMARK SMILES IDX 82 55 47 56 48 57 62 59 83 60 50 61 34 62 35 63 43 64 36 65
REMARK SMILES IDX 37 66 41 67 44 68 38 69 39 70 42 71 40 72 66 73 67 74 75 75
REMARK SMILES IDX 68 76 69 77 73 78 76 79 70 80 71 81 74 82 72 83 51 84 52 85
REMARK SMILES IDX 60 86 53 87 54 88 58 89 61 90 55 91 56 92 59 93 57 94
REMARK H PARENT 3 12 81 47 49 58
REMARK Flexibility Score: inf
ROOT
ATOM      1  C   UNL A   1      34.023  31.426  27.723  1.00  0.00     0.188 C 
ENDROOT
BRANCH   1   2
ATOM      2  O   UNL A   1      32.713  31.668  27.244  1.00  0.00    -0.376 OA
BRANCH   2   3
ATOM      3  C   UNL A   1      32.098  30.555  26.613  1.00  0.00     0.202 C 
BRANCH   3   4
ATOM      4  C   UNL A   1      32.918  29.270  26.688  1.00  0.00     0.261 C 
BRANCH   4   5
ATOM      5  O   UNL A   1      32.386  28.139  25.946  1.00  0.00    -0.461 OA
BRANCH   5   6
ATOM      6  C   UNL A   1      31.550  27.266  26.567  1.00  0.00     0.341 C 
ATOM      7  O   UNL A   1      31.043  27.503  27.653  1.00  0.00    -0.249 OA
BRANCH   6   8
ATOM      8  C   UNL A   1      31.546  25.893  25.864  1.00  0.00     0.231 C 
ATOM      9  C   UNL A   1      32.682  25.584  24.867  1.00  0.00     0.058 C 
BRANCH   8  10
ATOM     10  N   UNL A   1      31.520  24.776  26.871  1.00  0.00    -0.332 N 
ATOM     11  C   UNL A   1      31.173  23.459  26.703  1.00  0.00     0.236 C 
ATOM     12  H   UNL A   1      31.793  25.026  27.784  1.00  0.00     0.164 HD
ATOM     13  O   UNL A   1      30.463  22.962  27.574  1.00  0.00    -0.274 OA
BRANCH  11  14
ATOM     14  C   UNL A   1      31.779  22.634  25.611  1.00  0.00     0.236 C 
BRANCH  14  15
ATOM     15  S   UNL A   1      33.420  22.045  25.933  1.00  0.00     0.156 S 
ATOM     16  C   UNL A   1      34.396  22.316  24.475  1.00  0.00     0.158 C 
ATOM     17  O   UNL A   1      33.970  22.916  26.959  1.00  0.00    -0.229 OA
ATOM     18  O   UNL A   1      33.370  20.615  26.160  1.00  0.00    -0.229 OA
ENDBRANCH  14  15
ENDBRANCH  11  14
ENDBRANCH   8  10
BRANCH   8  19
ATOM     19  C   UNL A   1      30.265  25.959  24.998  1.00  0.00     0.422 C 
ATOM     20  F   UNL A   1      30.165  27.151  24.358  1.00  0.00    -0.168 F 
ATOM     21  F   UNL A   1      30.309  25.002  24.032  1.00  0.00    -0.168 F 
ATOM     22  F   UNL A   1      29.128  25.756  25.688  1.00  0.00    -0.168 F 
ENDBRANCH   8  19
ENDBRANCH   6   8
ENDBRANCH   5   6
ENDBRANCH   4   5
ENDBRANCH   3   4
ENDBRANCH   2   3
ENDBRANCH   1   2
BRANCH   1  23
ATOM     23  C   UNL A   1      34.765  32.693  28.189  1.00  0.00     0.188 C 
BRANCH  23  24
ATOM     24  O   UNL A   1      34.172  33.602  29.095  1.00  0.00    -0.376 OA
BRANCH  24  25
ATOM     25  C   UNL A   1      34.041  34.958  28.695  1.00  0.00     0.202 C 
BRANCH  25  26
ATOM     26  C   UNL A   1      33.081  35.890  29.463  1.00  0.00     0.261 C 
BRANCH  26  27
ATOM     27  O   UNL A   1      32.387  35.290  30.577  1.00  0.00    -0.460 OA
BRANCH  27  28
ATOM     28  C   UNL A   1      32.702  35.773  31.811  1.00  0.00     0.338 C 
ATOM     29  O   UNL A   1      32.042  36.531  32.490  1.00  0.00    -0.246 OA
BRANCH  28  30
ATOM     30  C   UNL A   1      33.865  35.015  32.351  1.00  0.00     0.060 A 
ATOM     31  C   UNL A   1      35.130  35.627  32.312  1.00  0.00     0.016 A 
ATOM     32  C   UNL A   1      33.723  33.750  32.924  1.00  0.00     0.016 A 
ATOM     33  C   UNL A   1      36.251  34.978  32.831  1.00  0.00     0.010 A 
ATOM     34  C   UNL A   1      34.856  33.082  33.409  1.00  0.00     0.010 A 
ATOM     35  C   UNL A   1      36.129  33.680  33.340  1.00  0.00    -0.014 A 
BRANCH  35  36
ATOM     36  C   UNL A   1      37.358  32.877  33.577  1.00  0.00     0.031 A 
ATOM     37  C   UNL A   1      38.132  33.131  34.844  1.00  0.00     0.074 A 
ATOM     38  C   UNL A   1      37.759  31.913  32.729  1.00  0.00     0.049 A 
ATOM     39  N   UNL A   1      39.243  32.585  35.269  1.00  0.00    -0.248 NA
ATOM     40  C   UNL A   1      37.571  34.141  35.757  1.00  0.00     0.031 C 
ATOM     41  C   UNL A   1      37.078  31.528  31.496  1.00  0.00     0.029 A 
ATOM     42  N   UNL A   1      38.854  31.082  32.782  1.00  0.00    -0.354 N 
ATOM     43  C   UNL A   1      39.508  33.179  36.496  1.00  0.00     0.074 A 
ATOM     44  C   UNL A   1      38.468  34.156  36.731  1.00  0.00     0.031 C 
ATOM     45  C   UNL A   1      37.782  30.551  30.896  1.00  0.00     0.029 A 
ATOM     46  C   UNL A   1      38.977  30.260  31.689  1.00  0.00     0.049 A 
ATOM     47  H   UNL A   1      39.491  31.079  33.533  1.00  0.00     0.167 HD
ATOM     48  C   UNL A   1      40.519  32.924  37.360  1.00  0.00     0.037 A 
ATOM     49  C   UNL A   1      39.954  29.391  31.358  1.00  0.00     0.037 A 
ATOM     50  C   UNL A   1      41.565  31.964  37.128  1.00  0.00     0.049 A 
ATOM     51  C   UNL A   1      41.122  29.192  32.299  1.00  0.00     0.074 A 
ATOM     52  C   UNL A   1      42.637  31.642  37.941  1.00  0.00     0.029 A 
ATOM     53  N   UNL A   1      41.674  31.176  35.992  1.00  0.00    -0.354 N 
ATOM     54  N   UNL A   1      41.352  29.741  33.467  1.00  0.00    -0.248 NA
ATOM     55  C   UNL A   1      42.160  28.242  31.874  1.00  0.00     0.031 C 
ATOM     56  C   UNL A   1      43.425  30.698  37.275  1.00  0.00     0.029 A 
ATOM     57  C   UNL A   1      42.809  30.384  36.074  1.00  0.00     0.049 A 
ATOM     58  H   UNL A   1      41.039  31.178  35.239  1.00  0.00     0.167 HD
ATOM     59  C   UNL A   1      42.540  29.181  33.927  1.00  0.00     0.074 A 
ATOM     60  C   UNL A   1      42.966  28.230  32.925  1.00  0.00     0.031 C 
ATOM     61  C   UNL A   1      43.220  29.435  35.073  1.00  0.00     0.037 A 
BRANCH  48  62
ATOM     62  C   UNL A   1      40.554  33.711  38.638  1.00  0.00     0.064 A 
ATOM     63  C   UNL A   1      39.768  33.351  39.744  1.00  0.00     0.173 A 
ATOM     64  C   UNL A   1      41.420  34.806  38.776  1.00  0.00     0.173 A 
ATOM     65  F   UNL A   1      38.910  32.323  39.657  1.00  0.00    -0.203 F 
ATOM     66  C   UNL A   1      39.838  34.068  40.934  1.00  0.00     0.198 A 
ATOM     67  C   UNL A   1      41.509  35.502  39.978  1.00  0.00     0.198 A 
ATOM     68  F   UNL A   1      42.191  35.191  37.748  1.00  0.00    -0.203 F 
ATOM     69  F   UNL A   1      39.048  33.732  41.964  1.00  0.00    -0.200 F 
ATOM     70  C   UNL A   1      40.715  35.137  41.054  1.00  0.00     0.200 A 
ATOM     71  F   UNL A   1      42.366  36.525  40.096  1.00  0.00    -0.200 F 
ATOM     72  F   UNL A   1      40.791  35.817  42.207  1.00  0.00    -0.200 F 
ENDBRANCH  48  62
BRANCH  49  73
ATOM     73  C   UNL A   1      39.907  28.653  30.065  1.00  0.00     0.064 A 
ATOM     74  C   UNL A   1      39.313  27.385  29.968  1.00  0.00     0.173 A 
ATOM     75  C   UNL A   1      40.520  29.171  28.915  1.00  0.00     0.173 A 
ATOM     76  F   UNL A   1      38.740  26.831  31.046  1.00  0.00    -0.203 F 
ATOM     77  C   UNL A   1      39.371  26.650  28.785  1.00  0.00     0.198 A 
ATOM     78  C   UNL A   1      40.545  28.450  27.722  1.00  0.00     0.198 A 
ATOM     79  F   UNL A   1      41.110  30.375  28.950  1.00  0.00    -0.203 F 
ATOM     80  F   UNL A   1      38.863  25.411  28.744  1.00  0.00    -0.200 F 
ATOM     81  C   UNL A   1      39.983  27.185  27.661  1.00  0.00     0.200 A 
ATOM     82  F   UNL A   1      41.129  28.976  26.637  1.00  0.00    -0.200 F 
ATOM     83  F   UNL A   1      40.046  26.474  26.526  1.00  0.00    -0.200 F 
ENDBRANCH  49  73
BRANCH  61  84
ATOM     84  C   UNL A   1      44.474  28.641  35.323  1.00  0.00     0.064 A 
ATOM     85  C   UNL A   1      44.449  27.406  35.989  1.00  0.00     0.173 A 
ATOM     86  C   UNL A   1      45.717  29.115  34.876  1.00  0.00     0.173 A 
ATOM     87  F   UNL A   1      43.290  26.909  36.446  1.00  0.00    -0.203 F 
ATOM     88  C   UNL A   1      45.625  26.701  36.240  1.00  0.00     0.198 A 
ATOM     89  C   UNL A   1      46.886  28.389  35.093  1.00  0.00     0.198 A 
ATOM     90  F   UNL A   1      45.801  30.284  34.221  1.00  0.00    -0.203 F 
ATOM     91  F   UNL A   1      45.582  25.559  36.939  1.00  0.00    -0.200 F 
ATOM     92  C   UNL A   1      46.840  27.190  35.787  1.00  0.00     0.200 A 
ATOM     93  F   UNL A   1      48.058  28.855  34.637  1.00  0.00    -0.200 F 
ATOM     94  F   UNL A   1      47.969  26.511  36.029  1.00  0.00    -0.200 F 
ENDBRANCH  61  84
ENDBRANCH  35  36
ENDBRANCH  28  30
ENDBRANCH  27  28
ENDBRANCH  26  27
ENDBRANCH  25  26
ENDBRANCH  24  25
ENDBRANCH  23  24
ENDBRANCH   1  23
TORSDOF 21
ENDMDL
MODEL 2
REMARK VINA RESULT:      -9.8      5.165      9.560
REMARK SMILES C[C@@](NC(=O)CS(C)(=O)=O)(C(=O)OCCOCCOCCOC(=O)c1ccc(-c2c3nc(c(-c4c(F)c(F)c(F)c(F)c4F)c4ccc([nH]4)c(-c4c(F)c(F)c(F)c(F)c4F)c4nc(c(-c5c(F)c(F)c(F)c(F)c5F)c5ccc2[nH]5)C=C4)C=C3)cc1)C(F)(F)F
REMARK SMILES IDX 17 1 16 2 15 3 14 4 13 5 11 6 12 7 2 8 1 9 3 10 4 11 5 13
REMARK SMILES IDX 6 14 7 15 8 16 9 17 10 18 88 19 89 20 90 21 91 22 18 23
REMARK SMILES IDX 19 24 20 25 21 26 22 27 23 28 24 29 25 30 26 31 87 32 27 33
REMARK SMILES IDX 86 34 28 35 29 36 30 37 80 38 31 39 85 40 79 41 81 42 32 43
REMARK SMILES IDX 84 44 78 45 77 46 33 48 65 49 45 50 64 51 46 52 49 53 63 54
REMARK SMILES IDX 82 55 47 56 48 57 62 59 83 60 50 61 34 62 35 63 43 64 36 65
REMARK SMILES IDX 37 66 41 67 44 68 38 69 39 70 42 71 40 72 66 73 67 74 75 75
REMARK SMILES IDX 68 76 69 77 73 78 76 79 70 80 71 81 74 82 72 83 51 84 52 85
REMARK SMILES IDX 60 86 53 87 54 88 58 89 61 90 55 91 56 92 59 93 57 94
REMARK H PARENT 3 12 81 47 49 58
REMARK Flexibility Score: inf
ROOT
ATOM      1  C   UNL A   1      34.774  33.715  28.007  1.00  0.00     0.188 C 
ENDROOT
BRANCH   1   2
ATOM      2  O   UNL A   1      34.955  32.314  27.914  1.00  0.00    -0.376 OA
BRANCH   2   3
ATOM      3  C   UNL A   1      33.771  31.581  27.636  1.00  0.00     0.202 C 
BRANCH   3   4
ATOM      4  C   UNL A   1      34.021  30.126  27.246  1.00  0.00     0.261 C 
BRANCH   4   5
ATOM      5  O   UNL A   1      33.128  29.584  26.235  1.00  0.00    -0.461 OA
BRANCH   5   6
ATOM      6  C   UNL A   1      32.192  28.667  26.593  1.00  0.00     0.341 C 
ATOM      7  O   UNL A   1      31.467  28.814  27.566  1.00  0.00    -0.249 OA
BRANCH   6   8
ATOM      8  C   UNL A   1      32.350  27.358  25.793  1.00  0.00     0.231 C 
ATOM      9  C   UNL A   1      33.562  27.227  24.847  1.00  0.00     0.058 C 
BRANCH   8  10
ATOM     10  N   UNL A   1      32.370  26.167  26.712  1.00  0.00    -0.332 N 
ATOM     11  C   UNL A   1      32.108  24.849  26.435  1.00  0.00     0.236 C 
ATOM     12  H   UNL A   1      32.606  26.362  27.648  1.00  0.00     0.164 HD
ATOM     13  O   UNL A   1      31.410  24.245  27.247  1.00  0.00    -0.274 OA
BRANCH  11  14
ATOM     14  C   UNL A   1      32.788  24.147  25.301  1.00  0.00     0.236 C 
BRANCH  14  15
ATOM     15  S   UNL A   1      34.349  23.407  25.700  1.00  0.00     0.156 S 
ATOM     16  C   UNL A   1      34.546  21.963  24.686  1.00  0.00     0.158 C 
ATOM     17  O   UNL A   1      35.368  24.351  25.266  1.00  0.00    -0.229 OA
ATOM     18  O   UNL A   1      34.322  22.967  27.079  1.00  0.00    -0.229 OA
ENDBRANCH  14  15
ENDBRANCH  11  14
ENDBRANCH   8  10
BRANCH   8  19
ATOM     19  C   UNL A   1      31.118  27.382  24.856  1.00  0.00     0.422 C 
ATOM     20  F   UNL A   1      31.364  26.711  23.703  1.00  0.00    -0.168 F 
ATOM     21  F   UNL A   1      30.069  26.755  25.454  1.00  0.00    -0.168 F 
ATOM     22  F   UNL A   1      30.695  28.620  24.540  1.00  0.00    -0.168 F 
ENDBRANCH   8  19
ENDBRANCH   6   8
ENDBRANCH   5   6
ENDBRANCH   4   5
ENDBRANCH   3   4
ENDBRANCH   2   3
ENDBRANCH   1   2
BRANCH   1  23
ATOM     23  C   UNL A   1      33.436  34.134  28.645  1.00  0.00     0.188 C 
BRANCH  23  24
ATOM     24  O   UNL A   1      33.285  34.217  30.049  1.00  0.00    -0.376 OA
BRANCH  24  25
ATOM     25  C   UNL A   1      34.457  34.307  30.846  1.00  0.00     0.202 C 
BRANCH  25  26
ATOM     26  C   UNL A   1      34.546  33.508  32.162  1.00  0.00     0.261 C 
BRANCH  26  27
ATOM     27  O   UNL A   1      35.123  32.191  32.056  1.00  0.00    -0.460 OA
BRANCH  27  28
ATOM     28  C   UNL A   1      36.221  31.952  32.827  1.00  0.00     0.338 C 
ATOM     29  O   UNL A   1      36.285  31.985  34.038  1.00  0.00    -0.246 OA
BRANCH  28  30
ATOM     30  C   UNL A   1      37.294  31.361  31.981  1.00  0.00     0.060 A 
ATOM     31  C   UNL A   1      38.394  30.768  32.624  1.00  0.00     0.016 A 
ATOM     32  C   UNL A   1      37.214  31.344  30.587  1.00  0.00     0.016 A 
ATOM     33  C   UNL A   1      39.416  30.170  31.884  1.00  0.00     0.010 A 
ATOM     34  C   UNL A   1      38.259  30.779  29.843  1.00  0.00     0.010 A 
ATOM     35  C   UNL A   1      39.378  30.216  30.486  1.00  0.00    -0.014 A 
BRANCH  35  36
ATOM     36  C   UNL A   1      40.607  29.884  29.718  1.00  0.00     0.031 A 
ATOM     37  C   UNL A   1      40.733  28.492  29.155  1.00  0.00     0.074 A 
ATOM     38  C   UNL A   1      41.568  30.793  29.476  1.00  0.00     0.049 A 
ATOM     39  N   UNL A   1      41.710  27.950  28.475  1.00  0.00    -0.248 NA
ATOM     40  C   UNL A   1      39.593  27.589  29.392  1.00  0.00     0.031 C 
ATOM     41  C   UNL A   1      41.551  32.185  29.916  1.00  0.00     0.029 A 
ATOM     42  N   UNL A   1      42.758  30.669  28.797  1.00  0.00    -0.354 N 
ATOM     43  C   UNL A   1      41.302  26.652  28.199  1.00  0.00     0.074 A 
ATOM     44  C   UNL A   1      40.008  26.471  28.819  1.00  0.00     0.031 C 
ATOM     45  C   UNL A   1      42.688  32.783  29.515  1.00  0.00     0.029 A 
ATOM     46  C   UNL A   1      43.525  31.809  28.814  1.00  0.00     0.049 A 
ATOM     47  H   UNL A   1      43.034  29.840  28.343  1.00  0.00     0.167 HD
ATOM     48  C   UNL A   1      41.940  25.697  27.481  1.00  0.00     0.037 A 
ATOM     49  C   UNL A   1      44.767  32.029  28.337  1.00  0.00     0.037 A 
ATOM     50  C   UNL A   1      43.233  25.864  26.874  1.00  0.00     0.049 A 
ATOM     51  C   UNL A   1      45.496  30.916  27.619  1.00  0.00     0.074 A 
ATOM     52  C   UNL A   1      43.963  24.952  26.134  1.00  0.00     0.029 A 
ATOM     53  N   UNL A   1      43.993  27.022  26.943  1.00  0.00    -0.354 N 
ATOM     54  N   UNL A   1      45.094  29.699  27.344  1.00  0.00    -0.248 NA
ATOM     55  C   UNL A   1      46.853  31.217  27.136  1.00  0.00     0.031 C 
ATOM     56  C   UNL A   1      45.189  25.537  25.801  1.00  0.00     0.029 A 
ATOM     57  C   UNL A   1      45.196  26.838  26.277  1.00  0.00     0.049 A 
ATOM     58  H   UNL A   1      43.720  27.852  27.397  1.00  0.00     0.167 HD
ATOM     59  C   UNL A   1      46.130  29.103  26.632  1.00  0.00     0.074 A 
ATOM     60  C   UNL A   1      47.167  30.102  26.494  1.00  0.00     0.031 C 
ATOM     61  C   UNL A   1      46.219  27.842  26.141  1.00  0.00     0.037 A 
BRANCH  48  62
ATOM     62  C   UNL A   1      41.252  24.372  27.325  1.00  0.00     0.064 A 
ATOM     63  C   UNL A   1      40.128  24.221  26.500  1.00  0.00     0.173 A 
ATOM     64  C   UNL A   1      41.755  23.230  27.968  1.00  0.00     0.173 A 
ATOM     65  F   UNL A   1      39.597  25.285  25.879  1.00  0.00    -0.203 F 
ATOM     66  C   UNL A   1      39.522  22.978  26.337  1.00  0.00     0.198 A 
ATOM     67  C   UNL A   1      41.165  21.983  27.778  1.00  0.00     0.198 A 
ATOM     68  F   UNL A   1      42.828  23.322  28.768  1.00  0.00    -0.203 F 
ATOM     69  F   UNL A   1      38.424  22.864  25.577  1.00  0.00    -0.200 F 
ATOM     70  C   UNL A   1      40.047  21.859  26.968  1.00  0.00     0.200 A 
ATOM     71  F   UNL A   1      41.682  20.902  28.377  1.00  0.00    -0.200 F 
ATOM     72  F   UNL A   1      39.472  20.660  26.797  1.00  0.00    -0.200 F 
ENDBRANCH  48  62
BRANCH  49  73
ATOM     73  C   UNL A   1      45.435  33.346  28.542  1.00  0.00     0.064 A 
ATOM     74  C   UNL A   1      46.236  33.592  29.667  1.00  0.00     0.173 A 
ATOM     75  C   UNL A   1      45.224  34.409  27.651  1.00  0.00     0.173 A 
ATOM     76  F   UNL A   1      46.445  32.619  30.565  1.00  0.00    -0.203 F 
ATOM     77  C   UNL A   1      46.767  34.858  29.911  1.00  0.00     0.198 A 
ATOM     78  C   UNL A   1      45.785  35.664  27.878  1.00  0.00     0.198 A 
ATOM     79  F   UNL A   1      44.460  34.233  26.562  1.00  0.00    -0.203 F 
ATOM     80  F   UNL A   1      47.464  35.083  31.033  1.00  0.00    -0.200 F 
ATOM     81  C   UNL A   1      46.544  35.892  29.015  1.00  0.00     0.200 A 
ATOM     82  F   UNL A   1      45.575  36.657  27.004  1.00  0.00    -0.200 F 
ATOM     83  F   UNL A   1      47.046  37.111  29.256  1.00  0.00    -0.200 F 
ENDBRANCH  49  73
BRANCH  61  84
ATOM     84  C   UNL A   1      47.462  27.484  25.373  1.00  0.00     0.064 A 
ATOM     85  C   UNL A   1      48.587  26.927  26.001  1.00  0.00     0.173 A 
ATOM     86  C   UNL A   1      47.525  27.687  23.985  1.00  0.00     0.173 A 
ATOM     87  F   UNL A   1      48.586  26.719  27.326  1.00  0.00    -0.203 F 
ATOM     88  C   UNL A   1      49.741  26.631  25.278  1.00  0.00     0.198 A 
ATOM     89  C   UNL A   1      48.665  27.354  23.259  1.00  0.00     0.198 A 
ATOM     90  F   UNL A   1      46.474  28.204  23.328  1.00  0.00    -0.203 F 
ATOM     91  F   UNL A   1      50.825  26.166  25.913  1.00  0.00    -0.200 F 
ATOM     92  C   UNL A   1      49.777  26.840  23.908  1.00  0.00     0.200 A 
ATOM     93  F   UNL A   1      48.692  27.539  21.931  1.00  0.00    -0.200 F 
ATOM     94  F   UNL A   1      50.888  26.556  23.215  1.00  0.00    -0.200 F 
ENDBRANCH  61  84
ENDBRANCH  35  36
ENDBRANCH  28  30
ENDBRANCH  27  28
ENDBRANCH  26  27
ENDBRANCH  25  26
ENDBRANCH  24  25
ENDBRANCH  23  24
ENDBRANCH   1  23
TORSDOF 21
ENDMDL
MODEL 3
REMARK VINA RESULT:      -9.7      5.353     11.387
REMARK SMILES C[C@@](NC(=O)CS(C)(=O)=O)(C(=O)OCCOCCOCCOC(=O)c1ccc(-c2c3nc(c(-c4c(F)c(F)c(F)c(F)c4F)c4ccc([nH]4)c(-c4c(F)c(F)c(F)c(F)c4F)c4nc(c(-c5c(F)c(F)c(F)c(F)c5F)c5ccc2[nH]5)C=C4)C=C3)cc1)C(F)(F)F
REMARK SMILES IDX 17 1 16 2 15 3 14 4 13 5 11 6 12 7 2 8 1 9 3 10 4 11 5 13
REMARK SMILES IDX 6 14 7 15 8 16 9 17 10 18 88 19 89 20 90 21 91 22 18 23
REMARK SMILES IDX 19 24 20 25 21 26 22 27 23 28 24 29 25 30 26 31 87 32 27 33
REMARK SMILES IDX 86 34 28 35 29 36 30 37 80 38 31 39 85 40 79 41 81 42 32 43
REMARK SMILES IDX 84 44 78 45 77 46 33 48 65 49 45 50 64 51 46 52 49 53 63 54
REMARK SMILES IDX 82 55 47 56 48 57 62 59 83 60 50 61 34 62 35 63 43 64 36 65
REMARK SMILES IDX 37 66 41 67 44 68 38 69 39 70 42 71 40 72 66 73 67 74 75 75
REMARK SMILES IDX 68 76 69 77 73 78 76 79 70 80 71 81 74 82 72 83 51 84 52 85
REMARK SMILES IDX 60 86 53 87 54 88 58 89 61 90 55 91 56 92 59 93 57 94
REMARK H PARENT 3 12 81 47 49 58
REMARK Flexibility Score: inf
ROOT
ATOM      1  C   UNL A   1      34.265  20.577  25.324  1.00  0.00     0.188 C 
ENDROOT
BRANCH   1   2
ATOM      2  O   UNL A   1      33.329  21.637  25.256  1.00  0.00    -0.376 OA
BRANCH   2   3
ATOM      3  C   UNL A   1      32.542  21.658  24.075  1.00  0.00     0.202 C 
BRANCH   3   4
ATOM      4  C   UNL A   1      33.139  22.496  22.947  1.00  0.00     0.261 C 
BRANCH   4   5
ATOM      5  O   UNL A   1      33.706  23.774  23.345  1.00  0.00    -0.461 OA
BRANCH   5   6
ATOM      6  C   UNL A   1      33.279  24.913  22.738  1.00  0.00     0.341 C 
ATOM      7  O   UNL A   1      33.707  25.278  21.653  1.00  0.00    -0.249 OA
BRANCH   6   8
ATOM      8  C   UNL A   1      32.421  25.770  23.689  1.00  0.00     0.231 C 
ATOM      9  C   UNL A   1      32.196  25.258  25.126  1.00  0.00     0.058 C 
BRANCH   8  10
ATOM     10  N   UNL A   1      32.970  27.167  23.794  1.00  0.00    -0.332 N 
ATOM     11  C   UNL A   1      32.326  28.334  24.121  1.00  0.00     0.236 C 
ATOM     12  H   UNL A   1      33.931  27.257  23.600  1.00  0.00     0.164 HD
ATOM     13  O   UNL A   1      32.593  29.320  23.436  1.00  0.00    -0.274 OA
BRANCH  11  14
ATOM     14  C   UNL A   1      31.486  28.434  25.355  1.00  0.00     0.236 C 
BRANCH  14  15
ATOM     15  S   UNL A   1      32.391  28.564  26.875  1.00  0.00     0.156 S 
ATOM     16  C   UNL A   1      32.589  30.288  27.249  1.00  0.00     0.158 C 
ATOM     17  O   UNL A   1      31.528  28.019  27.910  1.00  0.00    -0.229 OA
ATOM     18  O   UNL A   1      33.715  28.009  26.682  1.00  0.00    -0.229 OA
ENDBRANCH  14  15
ENDBRANCH  11  14
ENDBRANCH   8  10
BRANCH   8  19
ATOM     19  C   UNL A   1      31.023  25.716  23.026  1.00  0.00     0.422 C 
ATOM     20  F   UNL A   1      30.661  24.439  22.745  1.00  0.00    -0.168 F 
ATOM     21  F   UNL A   1      30.085  26.207  23.881  1.00  0.00    -0.168 F 
ATOM     22  F   UNL A   1      30.926  26.439  21.895  1.00  0.00    -0.168 F 
ENDBRANCH   8  19
ENDBRANCH   6   8
ENDBRANCH   5   6
ENDBRANCH   4   5
ENDBRANCH   3   4
ENDBRANCH   2   3
ENDBRANCH   1   2
BRANCH   1  23
ATOM     23  C   UNL A   1      35.735  21.032  25.267  1.00  0.00     0.188 C 
BRANCH  23  24
ATOM     24  O   UNL A   1      36.780  20.117  25.000  1.00  0.00    -0.376 OA
BRANCH  24  25
ATOM     25  C   UNL A   1      38.116  20.536  25.237  1.00  0.00     0.202 C 
BRANCH  25  26
ATOM     26  C   UNL A   1      39.232  19.481  25.376  1.00  0.00     0.261 C 
BRANCH  26  27
ATOM     27  O   UNL A   1      40.102  19.638  26.515  1.00  0.00    -0.460 OA
BRANCH  27  28
ATOM     28  C   UNL A   1      41.370  20.061  26.249  1.00  0.00     0.338 C 
ATOM     29  O   UNL A   1      42.203  19.493  25.574  1.00  0.00    -0.246 OA
BRANCH  28  30
ATOM     30  C   UNL A   1      41.513  21.479  26.680  1.00  0.00     0.060 A 
ATOM     31  C   UNL A   1      41.137  22.487  25.775  1.00  0.00     0.016 A 
ATOM     32  C   UNL A   1      41.963  21.824  27.955  1.00  0.00     0.016 A 
ATOM     33  C   UNL A   1      41.220  23.833  26.134  1.00  0.00     0.010 A 
ATOM     34  C   UNL A   1      42.084  23.177  28.302  1.00  0.00     0.010 A 
ATOM     35  C   UNL A   1      41.740  24.188  27.384  1.00  0.00    -0.014 A 
BRANCH  35  36
ATOM     36  C   UNL A   1      42.135  25.601  27.629  1.00  0.00     0.031 A 
ATOM     37  C   UNL A   1      43.473  26.059  27.112  1.00  0.00     0.074 A 
ATOM     38  C   UNL A   1      41.320  26.475  28.246  1.00  0.00     0.049 A 
ATOM     39  N   UNL A   1      44.055  27.227  27.217  1.00  0.00    -0.248 NA
ATOM     40  C   UNL A   1      44.261  25.060  26.370  1.00  0.00     0.031 C 
ATOM     41  C   UNL A   1      39.981  26.180  28.751  1.00  0.00     0.029 A 
ATOM     42  N   UNL A   1      41.512  27.801  28.559  1.00  0.00    -0.354 N 
ATOM     43  C   UNL A   1      45.268  27.103  26.553  1.00  0.00     0.074 A 
ATOM     44  C   UNL A   1      45.360  25.739  26.083  1.00  0.00     0.031 C 
ATOM     45  C   UNL A   1      39.480  27.286  29.330  1.00  0.00     0.029 A 
ATOM     46  C   UNL A   1      40.472  28.359  29.261  1.00  0.00     0.049 A 
ATOM     47  H   UNL A   1      42.320  28.302  28.304  1.00  0.00     0.167 HD
ATOM     48  C   UNL A   1      46.217  28.045  26.339  1.00  0.00     0.037 A 
ATOM     49  C   UNL A   1      40.348  29.588  29.803  1.00  0.00     0.037 A 
ATOM     50  C   UNL A   1      46.139  29.401  26.815  1.00  0.00     0.049 A 
ATOM     51  C   UNL A   1      41.464  30.594  29.629  1.00  0.00     0.074 A 
ATOM     52  C   UNL A   1      47.055  30.425  26.655  1.00  0.00     0.029 A 
ATOM     53  N   UNL A   1      45.085  29.918  27.553  1.00  0.00    -0.354 N 
ATOM     54  N   UNL A   1      42.597  30.475  28.980  1.00  0.00    -0.248 NA
ATOM     55  C   UNL A   1      41.273  31.910  30.257  1.00  0.00     0.031 C 
ATOM     56  C   UNL A   1      46.582  31.548  27.341  1.00  0.00     0.029 A 
ATOM     57  C   UNL A   1      45.340  31.243  27.874  1.00  0.00     0.049 A 
ATOM     58  H   UNL A   1      44.276  29.419  27.810  1.00  0.00     0.167 HD
ATOM     59  C   UNL A   1      43.237  31.706  29.096  1.00  0.00     0.074 A 
ATOM     60  C   UNL A   1      42.352  32.564  29.852  1.00  0.00     0.031 C 
ATOM     61  C   UNL A   1      44.449  32.090  28.623  1.00  0.00     0.037 A 
BRANCH  48  62
ATOM     62  C   UNL A   1      47.437  27.638  25.565  1.00  0.00     0.064 A 
ATOM     63  C   UNL A   1      47.494  27.758  24.168  1.00  0.00     0.173 A 
ATOM     64  C   UNL A   1      48.578  27.169  26.232  1.00  0.00     0.173 A 
ATOM     65  F   UNL A   1      46.422  28.184  23.482  1.00  0.00    -0.203 F 
ATOM     66  C   UNL A   1      48.645  27.410  23.467  1.00  0.00     0.198 A 
ATOM     67  C   UNL A   1      49.738  26.851  25.531  1.00  0.00     0.198 A 
ATOM     68  F   UNL A   1      48.574  27.034  27.567  1.00  0.00    -0.203 F 
ATOM     69  F   UNL A   1      48.664  27.494  22.129  1.00  0.00    -0.200 F 
ATOM     70  C   UNL A   1      49.769  26.966  24.149  1.00  0.00     0.200 A 
ATOM     71  F   UNL A   1      50.827  26.435  26.192  1.00  0.00    -0.200 F 
ATOM     72  F   UNL A   1      50.882  26.646  23.474  1.00  0.00    -0.200 F 
ENDBRANCH  48  62
BRANCH  49  73
ATOM     73  C   UNL A   1      39.139  29.948  30.597  1.00  0.00     0.064 A 
ATOM     74  C   UNL A   1      38.039  30.586  30.004  1.00  0.00     0.173 A 
ATOM     75  C   UNL A   1      39.092  29.727  31.981  1.00  0.00     0.173 A 
ATOM     76  F   UNL A   1      38.047  30.848  28.689  1.00  0.00    -0.203 F 
ATOM     77  C   UNL A   1      36.959  31.022  30.770  1.00  0.00     0.198 A 
ATOM     78  C   UNL A   1      37.994  30.131  32.740  1.00  0.00     0.198 A 
ATOM     79  F   UNL A   1      40.118  29.127  32.603  1.00  0.00    -0.203 F 
ATOM     80  F   UNL A   1      35.958  31.696  30.188  1.00  0.00    -0.200 F 
ATOM     81  C   UNL A   1      36.936  30.790  32.137  1.00  0.00     0.200 A 
ATOM     82  F   UNL A   1      37.973  29.896  34.059  1.00  0.00    -0.200 F 
ATOM     83  F   UNL A   1      35.902  31.219  32.874  1.00  0.00    -0.200 F 
ENDBRANCH  49  73
BRANCH  61  84
ATOM     84  C   UNL A   1      44.870  33.513  28.875  1.00  0.00     0.064 A 
ATOM     85  C   UNL A   1      44.528  34.553  27.997  1.00  0.00     0.173 A 
ATOM     86  C   UNL A   1      45.613  33.843  30.019  1.00  0.00     0.173 A 
ATOM     87  F   UNL A   1      43.827  34.294  26.883  1.00  0.00    -0.203 F 
ATOM     88  C   UNL A   1      44.954  35.859  28.230  1.00  0.00     0.198 A 
ATOM     89  C   UNL A   1      46.004  35.156  30.270  1.00  0.00     0.198 A 
ATOM     90  F   UNL A   1      45.957  32.892  30.901  1.00  0.00    -0.203 F 
ATOM     91  F   UNL A   1      44.674  36.822  27.341  1.00  0.00    -0.200 F 
ATOM     92  C   UNL A   1      45.687  36.160  29.369  1.00  0.00     0.200 A 
ATOM     93  F   UNL A   1      46.696  35.448  31.381  1.00  0.00    -0.200 F 
ATOM     94  F   UNL A   1      46.096  37.416  29.591  1.00  0.00    -0.200 F 
ENDBRANCH  61  84
ENDBRANCH  35  36
ENDBRANCH  28  30
ENDBRANCH  27  28
ENDBRANCH  26  27
ENDBRANCH  25  26
ENDBRANCH  24  25
ENDBRANCH  23  24
ENDBRANCH   1  23
TORSDOF 21
ENDMDL
