MODEL 1
REMARK VINA RESULT:     -11.2      0.000      0.000
REMARK SMILES O=C(OCCOCCOCCOC(=O)c1cccn1CC(=O)N1CCS(=O)CC1)c1ccc(-c2c3nc(c(-c4c(F)c(F)c(F)c(F)c4F)c4ccc([nH]4)c(-c4c(F)c(F)c(F)c(F)c4F)c4nc(c(-c5c(F)c(F)c(F)c(F)c5F)c5ccc2[nH]5)C=C4)C=C3)cc1
REMARK SMILES IDX 7 1 6 2 5 3 4 4 3 5 2 6 1 7 30 8 31 9 92 10 32 11 91 12
REMARK SMILES IDX 33 13 34 14 35 15 85 16 36 17 90 18 84 19 86 20 37 21 89 22
REMARK SMILES IDX 83 23 82 24 38 26 70 27 50 28 69 29 51 30 54 31 68 32 87 33
REMARK SMILES IDX 52 34 53 35 67 37 88 38 55 39 39 40 40 41 48 42 41 43 42 44
REMARK SMILES IDX 46 45 49 46 43 47 44 48 47 49 45 50 71 51 72 52 80 53 73 54
REMARK SMILES IDX 74 55 78 56 81 57 75 58 76 59 79 60 77 61 56 62 57 63 65 64
REMARK SMILES IDX 58 65 59 66 63 67 66 68 60 69 61 70 64 71 62 72 8 73 9 74
REMARK SMILES IDX 10 75 11 76 12 77 13 78 14 79 15 80 16 81 19 82 17 83 18 84
REMARK SMILES IDX 20 85 21 86 22 87 23 88 24 89 29 90 25 91 28 92 26 93 27 94
REMARK H PARENT 86 25 54 36
REMARK Flexibility Score: inf
ROOT
ATOM      1  C   UNL A   1      34.290  33.871  29.362  1.00  0.00     0.188 C 
ENDROOT
BRANCH   1   2
ATOM      2  O   UNL A   1      33.077  34.578  29.142  1.00  0.00    -0.376 OA
BRANCH   2   3
ATOM      3  C   UNL A   1      33.064  35.960  28.841  1.00  0.00     0.202 C 
BRANCH   3   4
ATOM      4  C   UNL A   1      33.305  36.913  30.010  1.00  0.00     0.261 C 
BRANCH   4   5
ATOM      5  O   UNL A   1      32.223  36.906  30.950  1.00  0.00    -0.460 OA
BRANCH   5   6
ATOM      6  C   UNL A   1      32.311  36.489  32.225  1.00  0.00     0.338 C 
ATOM      7  O   UNL A   1      31.389  36.614  33.023  1.00  0.00    -0.246 OA
BRANCH   6   8
ATOM      8  C   UNL A   1      33.482  35.789  32.686  1.00  0.00     0.060 A 
ATOM      9  C   UNL A   1      34.550  35.629  33.343  1.00  0.00     0.016 A 
ATOM     10  C   UNL A   1      33.758  34.600  33.007  1.00  0.00     0.016 A 
ATOM     11  C   UNL A   1      36.069  34.400  33.289  1.00  0.00     0.010 A 
ATOM     12  C   UNL A   1      35.273  33.355  33.092  1.00  0.00     0.010 A 
ATOM     13  C   UNL A   1      36.483  33.330  32.701  1.00  0.00    -0.014 A 
BRANCH  13  14
ATOM     14  C   UNL A   1      37.805  32.726  32.583  1.00  0.00     0.031 A 
ATOM     15  C   UNL A   1      37.827  31.430  31.814  1.00  0.00     0.074 A 
ATOM     16  C   UNL A   1      38.831  33.263  33.345  1.00  0.00     0.049 A 
ATOM     17  N   UNL A   1      38.448  30.325  32.080  1.00  0.00    -0.248 NA
ATOM     18  C   UNL A   1      36.969  31.306  30.609  1.00  0.00     0.031 C 
ATOM     19  C   UNL A   1      38.841  34.638  33.866  1.00  0.00     0.029 A 
ATOM     20  N   UNL A   1      40.064  32.825  33.842  1.00  0.00    -0.354 N 
ATOM     21  C   UNL A   1      38.240  29.490  30.972  1.00  0.00     0.074 A 
ATOM     22  C   UNL A   1      37.128  30.031  30.258  1.00  0.00     0.031 C 
ATOM     23  C   UNL A   1      39.822  34.858  34.760  1.00  0.00     0.029 A 
ATOM     24  C   UNL A   1      40.685  33.703  34.798  1.00  0.00     0.049 A 
ATOM     25  H   UNL A   1      40.477  31.976  33.559  1.00  0.00     0.167 HD
ATOM     26  C   UNL A   1      39.174  28.597  30.535  1.00  0.00     0.037 A 
ATOM     27  C   UNL A   1      41.848  33.601  35.524  1.00  0.00     0.037 A 
ATOM     28  C   UNL A   1      40.293  28.584  31.417  1.00  0.00     0.049 A 
ATOM     29  C   UNL A   1      42.611  32.547  34.853  1.00  0.00     0.074 A 
ATOM     30  C   UNL A   1      40.455  28.170  32.712  1.00  0.00     0.029 A 
ATOM     31  N   UNL A   1      41.358  29.378  31.058  1.00  0.00    -0.354 N 
ATOM     32  N   UNL A   1      43.168  32.710  33.688  1.00  0.00    -0.248 NA
ATOM     33  C   UNL A   1      42.782  31.236  35.481  1.00  0.00     0.031 C 
ATOM     34  C   UNL A   1      41.435  29.039  33.229  1.00  0.00     0.029 A 
ATOM     35  C   UNL A   1      41.959  29.831  32.201  1.00  0.00     0.049 A 
ATOM     36  H   UNL A   1      41.639  29.585  30.139  1.00  0.00     0.167 HD
ATOM     37  C   UNL A   1      43.363  31.410  33.292  1.00  0.00     0.074 A 
ATOM     38  C   UNL A   1      43.455  30.627  34.505  1.00  0.00     0.031 C 
ATOM     39  C   UNL A   1      42.773  31.027  32.128  1.00  0.00     0.037 A 
BRANCH  26  40
ATOM     40  C   UNL A   1      39.349  27.968  29.181  1.00  0.00     0.064 A 
ATOM     41  C   UNL A   1      39.271  26.557  29.092  1.00  0.00     0.173 A 
ATOM     42  C   UNL A   1      39.909  28.623  28.073  1.00  0.00     0.173 A 
ATOM     43  F   UNL A   1      38.744  25.836  30.095  1.00  0.00    -0.203 F 
ATOM     44  C   UNL A   1      39.818  25.853  28.022  1.00  0.00     0.198 A 
ATOM     45  C   UNL A   1      40.398  27.917  26.975  1.00  0.00     0.198 A 
ATOM     46  F   UNL A   1      40.109  29.946  28.059  1.00  0.00    -0.203 F 
ATOM     47  F   UNL A   1      39.850  24.514  28.052  1.00  0.00    -0.200 F 
ATOM     48  C   UNL A   1      40.389  26.535  26.967  1.00  0.00     0.200 A 
ATOM     49  F   UNL A   1      40.954  28.588  25.956  1.00  0.00    -0.200 F 
ATOM     50  F   UNL A   1      40.969  25.864  25.963  1.00  0.00    -0.200 F 
ENDBRANCH  26  40
BRANCH  27  51
ATOM     51  C   UNL A   1      42.601  34.331  36.635  1.00  0.00     0.064 A 
ATOM     52  C   UNL A   1      43.345  35.513  36.502  1.00  0.00     0.173 A 
ATOM     53  C   UNL A   1      42.512  33.867  37.986  1.00  0.00     0.173 A 
ATOM     54  F   UNL A   1      43.570  36.065  35.307  1.00  0.00    -0.203 F 
ATOM     55  C   UNL A   1      43.894  36.189  37.615  1.00  0.00     0.198 A 
ATOM     56  C   UNL A   1      43.012  34.562  39.090  1.00  0.00     0.198 A 
ATOM     57  F   UNL A   1      41.920  32.708  38.300  1.00  0.00    -0.203 F 
ATOM     58  F   UNL A   1      44.606  37.311  37.426  1.00  0.00    -0.200 F 
ATOM     59  C   UNL A   1      43.701  35.732  38.906  1.00  0.00     0.200 A 
ATOM     60  F   UNL A   1      42.800  34.085  40.326  1.00  0.00    -0.200 F 
ATOM     61  F   UNL A   1      44.173  36.409  39.961  1.00  0.00    -0.200 F 
ENDBRANCH  27  51
BRANCH  39  62
ATOM     62  C   UNL A   1      42.653  32.159  31.116  1.00  0.00     0.064 A 
ATOM     63  C   UNL A   1      43.802  32.867  30.714  1.00  0.00     0.173 A 
ATOM     64  C   UNL A   1      41.430  32.671  30.654  1.00  0.00     0.173 A 
ATOM     65  F   UNL A   1      45.018  32.425  31.069  1.00  0.00    -0.203 F 
ATOM     66  C   UNL A   1      43.722  34.038  29.954  1.00  0.00     0.198 A 
ATOM     67  C   UNL A   1      41.344  33.845  29.900  1.00  0.00     0.198 A 
ATOM     68  F   UNL A   1      40.289  32.029  30.909  1.00  0.00    -0.203 F 
ATOM     69  F   UNL A   1      44.842  34.686  29.603  1.00  0.00    -0.200 F 
ATOM     70  C   UNL A   1      42.491  34.535  29.560  1.00  0.00     0.200 A 
ATOM     71  F   UNL A   1      40.148  34.301  29.500  1.00  0.00    -0.200 F 
ATOM     72  F   UNL A   1      42.415  35.660  28.833  1.00  0.00    -0.200 F 
ENDBRANCH  39  62
ENDBRANCH  13  14
ENDBRANCH   6   8
ENDBRANCH   5   6
ENDBRANCH   4   5
ENDBRANCH   3   4
ENDBRANCH   2   3
ENDBRANCH   1   2
BRANCH   1  73
ATOM     73  C   UNL A   1      35.240  33.368  28.258  1.00  0.00     0.188 C 
BRANCH  73  74
ATOM     74  O   UNL A   1      35.005  32.123  27.626  1.00  0.00    -0.376 OA
BRANCH  74  75
ATOM     75  C   UNL A   1      33.699  31.596  27.661  1.00  0.00     0.202 C 
BRANCH  75  76
ATOM     76  C   UNL A   1      33.638  30.106  27.300  1.00  0.00     0.261 C 
BRANCH  76  77
ATOM     77  O   UNL A   1      33.530  29.780  25.892  1.00  0.00    -0.459 OA
BRANCH  77  78
ATOM     78  C   UNL A   1      33.368  28.475  25.504  1.00  0.00     0.355 C 
ATOM     79  O   UNL A   1      34.006  27.526  25.931  1.00  0.00    -0.244 OA
BRANCH  78  80
ATOM     80  C   UNL A   1      32.292  28.384  24.525  1.00  0.00     0.128 A 
ATOM     81  C   UNL A   1      31.010  28.886  24.718  1.00  0.00     0.035 A 
ATOM     82  N   UNL A   1      32.327  27.891  23.207  1.00  0.00    -0.333 N 
ATOM     83  C   UNL A   1      30.347  28.891  23.476  1.00  0.00     0.020 A 
ATOM     84  C   UNL A   1      31.187  28.305  22.559  1.00  0.00     0.087 A 
BRANCH  82  85
ATOM     85  C   UNL A   1      33.435  27.167  22.563  1.00  0.00     0.222 C 
BRANCH  85  86
ATOM     86  C   UNL A   1      33.259  25.682  22.114  1.00  0.00     0.242 C 
ATOM     87  O   UNL A   1      33.299  25.372  20.921  1.00  0.00    -0.273 OA
ATOM     88  N   UNL A   1      33.347  24.670  23.103  1.00  0.00    -0.339 N 
ATOM     89  C   UNL A   1      34.892  23.342  23.013  1.00  0.00     0.133 C 
ATOM     90  C   UNL A   1      32.245  24.822  24.731  1.00  0.00     0.133 C 
ATOM     91  C   UNL A   1      35.343  22.352  24.818  1.00  0.00     0.126 C 
ATOM     92  C   UNL A   1      32.295  23.970  26.622  1.00  0.00     0.126 C 
ATOM     93  S   UNL A   1      34.258  22.414  27.062  1.00  0.00     0.025 S 
ATOM     94  O   UNL A   1      33.639  21.062  27.303  1.00  0.00    -0.259 OA
ENDBRANCH  85  86
ENDBRANCH  82  85
ENDBRANCH  78  80
ENDBRANCH  77  78
ENDBRANCH  76  77
ENDBRANCH  75  76
ENDBRANCH  74  75
ENDBRANCH  73  74
ENDBRANCH   1  73
TORSDOF 19
ENDMDL
MODEL 2
REMARK VINA RESULT:     -11.0      3.261      8.489
REMARK SMILES O=C(OCCOCCOCCOC(=O)c1cccn1CC(=O)N1CCS(=O)CC1)c1ccc(-c2c3nc(c(-c4c(F)c(F)c(F)c(F)c4F)c4ccc([nH]4)c(-c4c(F)c(F)c(F)c(F)c4F)c4nc(c(-c5c(F)c(F)c(F)c(F)c5F)c5ccc2[nH]5)C=C4)C=C3)cc1
REMARK SMILES IDX 7 1 6 2 5 3 4 4 3 5 2 6 1 7 30 8 31 9 92 10 32 11 91 12
REMARK SMILES IDX 33 13 34 14 35 15 85 16 36 17 90 18 84 19 86 20 37 21 89 22
REMARK SMILES IDX 83 23 82 24 38 26 70 27 50 28 69 29 51 30 54 31 68 32 87 33
REMARK SMILES IDX 52 34 53 35 67 37 88 38 55 39 39 40 40 41 48 42 41 43 42 44
REMARK SMILES IDX 46 45 49 46 43 47 44 48 47 49 45 50 71 51 72 52 80 53 73 54
REMARK SMILES IDX 74 55 78 56 81 57 75 58 76 59 79 60 77 61 56 62 57 63 65 64
REMARK SMILES IDX 58 65 59 66 63 67 66 68 60 69 61 70 64 71 62 72 8 73 9 74
REMARK SMILES IDX 10 75 11 76 12 77 13 78 14 79 15 80 16 81 19 82 17 83 18 84
REMARK SMILES IDX 20 85 21 86 22 87 23 88 24 89 29 90 25 91 28 92 26 93 27 94
REMARK H PARENT 86 25 54 36
REMARK Flexibility Score: inf
ROOT
ATOM      1  C   UNL A   1      36.712  20.422  24.865  1.00  0.00     0.188 C 
ENDROOT
BRANCH   1   2
ATOM      2  O   UNL A   1      37.440  21.627  24.665  1.00  0.00    -0.376 OA
BRANCH   2   3
ATOM      3  C   UNL A   1      38.052  22.315  25.739  1.00  0.00     0.202 C 
BRANCH   3   4
ATOM      4  C   UNL A   1      39.419  21.801  26.184  1.00  0.00     0.261 C 
BRANCH   4   5
ATOM      5  O   UNL A   1      40.380  22.856  26.324  1.00  0.00    -0.460 OA
BRANCH   5   6
ATOM      6  C   UNL A   1      40.690  23.471  27.479  1.00  0.00     0.338 C 
ATOM      7  O   UNL A   1      41.401  22.950  28.329  1.00  0.00    -0.246 OA
BRANCH   6   8
ATOM      8  C   UNL A   1      40.261  24.823  27.725  1.00  0.00     0.060 A 
ATOM      9  C   UNL A   1      40.044  26.036  27.446  1.00  0.00     0.016 A 
ATOM     10  C   UNL A   1      39.314  25.372  28.355  1.00  0.00     0.016 A 
ATOM     11  C   UNL A   1      39.694  27.675  28.453  1.00  0.00     0.010 A 
ATOM     12  C   UNL A   1      38.861  27.045  29.273  1.00  0.00     0.010 A 
ATOM     13  C   UNL A   1      39.469  28.098  29.649  1.00  0.00    -0.014 A 
BRANCH  13  14
ATOM     14  C   UNL A   1      39.533  29.426  30.248  1.00  0.00     0.031 A 
ATOM     15  C   UNL A   1      38.435  30.359  29.805  1.00  0.00     0.074 A 
ATOM     16  C   UNL A   1      40.674  29.758  30.961  1.00  0.00     0.049 A 
ATOM     17  N   UNL A   1      38.502  31.607  29.464  1.00  0.00    -0.248 NA
ATOM     18  C   UNL A   1      37.066  29.811  29.635  1.00  0.00     0.031 C 
ATOM     19  C   UNL A   1      41.580  28.775  31.576  1.00  0.00     0.029 A 
ATOM     20  N   UNL A   1      41.326  30.936  31.345  1.00  0.00    -0.354 N 
ATOM     21  C   UNL A   1      37.176  32.026  29.278  1.00  0.00     0.074 A 
ATOM     22  C   UNL A   1      36.391  30.842  29.128  1.00  0.00     0.031 C 
ATOM     23  C   UNL A   1      42.730  29.319  32.015  1.00  0.00     0.029 A 
ATOM     24  C   UNL A   1      42.639  30.754  31.904  1.00  0.00     0.049 A 
ATOM     25  H   UNL A   1      40.916  31.825  31.240  1.00  0.00     0.167 HD
ATOM     26  C   UNL A   1      36.754  33.290  29.568  1.00  0.00     0.037 A 
ATOM     27  C   UNL A   1      43.586  31.649  32.346  1.00  0.00     0.037 A 
ATOM     28  C   UNL A   1      37.858  34.097  29.969  1.00  0.00     0.049 A 
ATOM     29  C   UNL A   1      42.854  32.904  32.518  1.00  0.00     0.074 A 
ATOM     30  C   UNL A   1      38.951  34.579  29.300  1.00  0.00     0.029 A 
ATOM     31  N   UNL A   1      38.070  34.207  31.323  1.00  0.00    -0.354 N 
ATOM     32  N   UNL A   1      41.997  33.098  33.478  1.00  0.00    -0.248 NA
ATOM     33  C   UNL A   1      43.063  34.021  31.595  1.00  0.00     0.031 C 
ATOM     34  C   UNL A   1      39.961  34.623  30.282  1.00  0.00     0.029 A 
ATOM     35  C   UNL A   1      39.416  34.336  31.538  1.00  0.00     0.049 A 
ATOM     36  H   UNL A   1      37.374  34.195  32.019  1.00  0.00     0.167 HD
ATOM     37  C   UNL A   1      41.284  34.168  32.999  1.00  0.00     0.074 A 
ATOM     38  C   UNL A   1      42.169  34.872  32.097  1.00  0.00     0.031 C 
ATOM     39  C   UNL A   1      39.944  33.995  32.843  1.00  0.00     0.037 A 
BRANCH  26  40
ATOM     40  C   UNL A   1      35.373  33.802  29.869  1.00  0.00     0.064 A 
ATOM     41  C   UNL A   1      34.756  34.642  28.912  1.00  0.00     0.173 A 
ATOM     42  C   UNL A   1      34.791  33.794  31.146  1.00  0.00     0.173 A 
ATOM     43  F   UNL A   1      35.231  34.717  27.658  1.00  0.00    -0.203 F 
ATOM     44  C   UNL A   1      33.704  35.493  29.245  1.00  0.00     0.198 A 
ATOM     45  C   UNL A   1      33.697  34.601  31.457  1.00  0.00     0.198 A 
ATOM     46  F   UNL A   1      35.320  33.101  32.161  1.00  0.00    -0.203 F 
ATOM     47  F   UNL A   1      33.250  36.374  28.344  1.00  0.00    -0.200 F 
ATOM     48  C   UNL A   1      33.181  35.477  30.522  1.00  0.00     0.200 A 
ATOM     49  F   UNL A   1      33.198  34.581  32.702  1.00  0.00    -0.200 F 
ATOM     50  F   UNL A   1      32.210  36.333  30.865  1.00  0.00    -0.200 F 
ENDBRANCH  26  40
BRANCH  27  51
ATOM     51  C   UNL A   1      45.029  31.673  32.844  1.00  0.00     0.064 A 
ATOM     52  C   UNL A   1      45.477  31.319  34.125  1.00  0.00     0.173 A 
ATOM     53  C   UNL A   1      46.093  31.995  31.942  1.00  0.00     0.173 A 
ATOM     54  F   UNL A   1      44.620  31.030  35.108  1.00  0.00    -0.203 F 
ATOM     55  C   UNL A   1      46.850  31.242  34.452  1.00  0.00     0.198 A 
ATOM     56  C   UNL A   1      47.450  31.872  32.251  1.00  0.00     0.198 A 
ATOM     57  F   UNL A   1      45.861  32.443  30.702  1.00  0.00    -0.203 F 
ATOM     58  F   UNL A   1      47.218  30.909  35.698  1.00  0.00    -0.200 F 
ATOM     59  C   UNL A   1      47.832  31.487  33.509  1.00  0.00     0.200 A 
ATOM     60  F   UNL A   1      48.371  32.116  31.306  1.00  0.00    -0.200 F 
ATOM     61  F   UNL A   1      49.131  31.355  33.809  1.00  0.00    -0.200 F 
ENDBRANCH  27  51
BRANCH  39  62
ATOM     62  C   UNL A   1      39.343  33.025  33.852  1.00  0.00     0.064 A 
ATOM     63  C   UNL A   1      39.533  33.239  35.231  1.00  0.00     0.173 A 
ATOM     64  C   UNL A   1      38.728  31.812  33.502  1.00  0.00     0.173 A 
ATOM     65  F   UNL A   1      40.071  34.390  35.661  1.00  0.00    -0.203 F 
ATOM     66  C   UNL A   1      39.184  32.276  36.185  1.00  0.00     0.198 A 
ATOM     67  C   UNL A   1      38.384  30.844  34.452  1.00  0.00     0.198 A 
ATOM     68  F   UNL A   1      38.428  31.547  32.230  1.00  0.00    -0.203 F 
ATOM     69  F   UNL A   1      39.393  32.518  37.486  1.00  0.00    -0.200 F 
ATOM     70  C   UNL A   1      38.623  31.073  35.793  1.00  0.00     0.200 A 
ATOM     71  F   UNL A   1      37.815  29.693  34.062  1.00  0.00    -0.200 F 
ATOM     72  F   UNL A   1      38.291  30.149  36.707  1.00  0.00    -0.200 F 
ENDBRANCH  39  62
ENDBRANCH  13  14
ENDBRANCH   6   8
ENDBRANCH   5   6
ENDBRANCH   4   5
ENDBRANCH   3   4
ENDBRANCH   2   3
ENDBRANCH   1   2
BRANCH   1  73
ATOM     73  C   UNL A   1      35.260  20.334  25.373  1.00  0.00     0.188 C 
BRANCH  73  74
ATOM     74  O   UNL A   1      34.178  20.471  24.471  1.00  0.00    -0.376 OA
BRANCH  74  75
ATOM     75  C   UNL A   1      32.870  20.438  24.992  1.00  0.00     0.202 C 
BRANCH  75  76
ATOM     76  C   UNL A   1      32.051  21.691  24.652  1.00  0.00     0.261 C 
BRANCH  76  77
ATOM     77  O   UNL A   1      31.326  22.311  25.742  1.00  0.00    -0.459 OA
BRANCH  77  78
ATOM     78  C   UNL A   1      31.832  23.433  26.348  1.00  0.00     0.355 C 
ATOM     79  O   UNL A   1      31.445  23.897  27.409  1.00  0.00    -0.244 OA
BRANCH  78  80
ATOM     80  C   UNL A   1      32.927  23.971  25.550  1.00  0.00     0.128 A 
ATOM     81  C   UNL A   1      34.271  23.708  25.784  1.00  0.00     0.035 A 
ATOM     82  N   UNL A   1      32.876  24.747  24.378  1.00  0.00    -0.333 N 
ATOM     83  C   UNL A   1      35.005  24.134  24.660  1.00  0.00     0.020 A 
ATOM     84  C   UNL A   1      34.122  24.740  23.798  1.00  0.00     0.087 A 
BRANCH  82  85
ATOM     85  C   UNL A   1      31.682  25.365  23.778  1.00  0.00     0.222 C 
BRANCH  85  86
ATOM     86  C   UNL A   1      31.782  26.737  23.039  1.00  0.00     0.242 C 
ATOM     87  O   UNL A   1      31.307  26.885  21.912  1.00  0.00    -0.273 OA
ATOM     88  N   UNL A   1      32.163  27.875  23.795  1.00  0.00    -0.339 N 
ATOM     89  C   UNL A   1      30.810  29.380  24.048  1.00  0.00     0.133 C 
ATOM     90  C   UNL A   1      33.795  27.793  24.898  1.00  0.00     0.133 C 
ATOM     91  C   UNL A   1      31.172  30.657  25.686  1.00  0.00     0.126 C 
ATOM     92  C   UNL A   1      34.547  28.890  26.489  1.00  0.00     0.126 C 
ATOM     93  S   UNL A   1      33.034  30.748  27.341  1.00  0.00     0.025 S 
ATOM     94  O   UNL A   1      33.800  32.021  27.091  1.00  0.00    -0.259 OA
ENDBRANCH  85  86
ENDBRANCH  82  85
ENDBRANCH  78  80
ENDBRANCH  77  78
ENDBRANCH  76  77
ENDBRANCH  75  76
ENDBRANCH  74  75
ENDBRANCH  73  74
ENDBRANCH   1  73
TORSDOF 19
ENDMDL
MODEL 3
REMARK VINA RESULT:     -11.0      3.500      8.572
REMARK SMILES O=C(OCCOCCOCCOC(=O)c1cccn1CC(=O)N1CCS(=O)CC1)c1ccc(-c2c3nc(c(-c4c(F)c(F)c(F)c(F)c4F)c4ccc([nH]4)c(-c4c(F)c(F)c(F)c(F)c4F)c4nc(c(-c5c(F)c(F)c(F)c(F)c5F)c5ccc2[nH]5)C=C4)C=C3)cc1
REMARK SMILES IDX 7 1 6 2 5 3 4 4 3 5 2 6 1 7 30 8 31 9 92 10 32 11 91 12
REMARK SMILES IDX 33 13 34 14 35 15 85 16 36 17 90 18 84 19 86 20 37 21 89 22
REMARK SMILES IDX 83 23 82 24 38 26 70 27 50 28 69 29 51 30 54 31 68 32 87 33
REMARK SMILES IDX 52 34 53 35 67 37 88 38 55 39 39 40 40 41 48 42 41 43 42 44
REMARK SMILES IDX 46 45 49 46 43 47 44 48 47 49 45 50 71 51 72 52 80 53 73 54
REMARK SMILES IDX 74 55 78 56 81 57 75 58 76 59 79 60 77 61 56 62 57 63 65 64
REMARK SMILES IDX 58 65 59 66 63 67 66 68 60 69 61 70 64 71 62 72 8 73 9 74
REMARK SMILES IDX 10 75 11 76 12 77 13 78 14 79 15 80 16 81 19 82 17 83 18 84
REMARK SMILES IDX 20 85 21 86 22 87 23 88 24 89 29 90 25 91 28 92 26 93 27 94
REMARK H PARENT 86 25 54 36
REMARK Flexibility Score: inf
ROOT
ATOM      1  C   UNL A   1      34.983  33.019  28.699  1.00  0.00     0.188 C 
ENDROOT
BRANCH   1   2
ATOM      2  O   UNL A   1      33.798  33.444  29.358  1.00  0.00    -0.376 OA
BRANCH   2   3
ATOM      3  C   UNL A   1      33.701  34.715  29.971  1.00  0.00     0.202 C 
BRANCH   3   4
ATOM      4  C   UNL A   1      34.206  34.816  31.409  1.00  0.00     0.261 C 
BRANCH   4   5
ATOM      5  O   UNL A   1      34.043  33.588  32.132  1.00  0.00    -0.460 OA
BRANCH   5   6
ATOM      6  C   UNL A   1      34.911  33.104  33.036  1.00  0.00     0.338 C 
ATOM      7  O   UNL A   1      34.904  33.457  34.209  1.00  0.00    -0.246 OA
BRANCH   6   8
ATOM      8  C   UNL A   1      35.844  32.069  32.672  1.00  0.00     0.060 A 
ATOM      9  C   UNL A   1      36.637  31.105  32.870  1.00  0.00     0.016 A 
ATOM     10  C   UNL A   1      35.957  31.245  31.722  1.00  0.00     0.016 A 
ATOM     11  C   UNL A   1      38.045  30.204  31.856  1.00  0.00     0.010 A 
ATOM     12  C   UNL A   1      37.316  30.220  30.746  1.00  0.00     0.010 A 
ATOM     13  C   UNL A   1      38.586  30.173  30.687  1.00  0.00    -0.014 A 
BRANCH  13  14
ATOM     14  C   UNL A   1      39.851  29.631  30.206  1.00  0.00     0.031 A 
ATOM     15  C   UNL A   1      40.924  30.667  29.985  1.00  0.00     0.074 A 
ATOM     16  C   UNL A   1      39.875  28.305  29.803  1.00  0.00     0.049 A 
ATOM     17  N   UNL A   1      41.756  30.794  29.000  1.00  0.00    -0.248 NA
ATOM     18  C   UNL A   1      41.046  31.779  30.960  1.00  0.00     0.031 C 
ATOM     19  C   UNL A   1      38.918  27.286  30.259  1.00  0.00     0.029 A 
ATOM     20  N   UNL A   1      40.668  27.511  28.967  1.00  0.00    -0.354 N 
ATOM     21  C   UNL A   1      42.624  31.836  29.362  1.00  0.00     0.074 A 
ATOM     22  C   UNL A   1      41.979  32.558  30.412  1.00  0.00     0.031 C 
ATOM     23  C   UNL A   1      38.998  26.137  29.565  1.00  0.00     0.029 A 
ATOM     24  C   UNL A   1      40.142  26.202  28.688  1.00  0.00     0.049 A 
ATOM     25  H   UNL A   1      41.524  27.826  28.595  1.00  0.00     0.167 HD
ATOM     26  C   UNL A   1      43.939  31.858  29.004  1.00  0.00     0.037 A 
ATOM     27  C   UNL A   1      40.597  25.174  27.895  1.00  0.00     0.037 A 
ATOM     28  C   UNL A   1      44.237  30.754  28.153  1.00  0.00     0.049 A 
ATOM     29  C   UNL A   1      42.001  25.498  27.641  1.00  0.00     0.074 A 
ATOM     30  C   UNL A   1      43.860  30.433  26.877  1.00  0.00     0.029 A 
ATOM     31  N   UNL A   1      44.759  29.639  28.766  1.00  0.00    -0.354 N 
ATOM     32  N   UNL A   1      42.924  25.410  28.554  1.00  0.00    -0.248 NA
ATOM     33  C   UNL A   1      42.435  25.946  26.316  1.00  0.00     0.031 C 
ATOM     34  C   UNL A   1      43.818  29.026  26.876  1.00  0.00     0.029 A 
ATOM     35  C   UNL A   1      44.331  28.533  28.081  1.00  0.00     0.049 A 
ATOM     36  H   UNL A   1      45.340  29.636  29.560  1.00  0.00     0.167 HD
ATOM     37  C   UNL A   1      43.916  26.193  28.020  1.00  0.00     0.074 A 
ATOM     38  C   UNL A   1      43.720  26.173  26.587  1.00  0.00     0.031 C 
ATOM     39  C   UNL A   1      44.329  27.256  28.763  1.00  0.00     0.037 A 
BRANCH  26  40
ATOM     40  C   UNL A   1      45.098  32.588  29.626  1.00  0.00     0.064 A 
ATOM     41  C   UNL A   1      45.417  32.294  30.973  1.00  0.00     0.173 A 
ATOM     42  C   UNL A   1      45.665  33.759  29.101  1.00  0.00     0.173 A 
ATOM     43  F   UNL A   1      44.932  31.192  31.568  1.00  0.00    -0.203 F 
ATOM     44  C   UNL A   1      46.157  33.170  31.764  1.00  0.00     0.198 A 
ATOM     45  C   UNL A   1      46.458  34.601  29.880  1.00  0.00     0.198 A 
ATOM     46  F   UNL A   1      45.384  34.190  27.866  1.00  0.00    -0.203 F 
ATOM     47  F   UNL A   1      46.310  32.920  33.072  1.00  0.00    -0.200 F 
ATOM     48  C   UNL A   1      46.671  34.329  31.218  1.00  0.00     0.200 A 
ATOM     49  F   UNL A   1      46.949  35.726  29.340  1.00  0.00    -0.200 F 
ATOM     50  F   UNL A   1      47.333  35.203  31.986  1.00  0.00    -0.200 F 
ENDBRANCH  26  40
BRANCH  27  51
ATOM     51  C   UNL A   1      40.152  23.805  27.385  1.00  0.00     0.064 A 
ATOM     52  C   UNL A   1      39.099  23.546  26.495  1.00  0.00     0.173 A 
ATOM     53  C   UNL A   1      40.891  22.632  27.743  1.00  0.00     0.173 A 
ATOM     54  F   UNL A   1      38.276  24.517  26.089  1.00  0.00    -0.203 F 
ATOM     55  C   UNL A   1      38.849  22.256  25.975  1.00  0.00     0.198 A 
ATOM     56  C   UNL A   1      40.674  21.367  27.191  1.00  0.00     0.198 A 
ATOM     57  F   UNL A   1      41.874  22.663  28.651  1.00  0.00    -0.203 F 
ATOM     58  F   UNL A   1      37.820  22.068  25.134  1.00  0.00    -0.200 F 
ATOM     59  C   UNL A   1      39.653  21.178  26.297  1.00  0.00     0.200 A 
ATOM     60  F   UNL A   1      41.479  20.348  27.528  1.00  0.00    -0.200 F 
ATOM     61  F   UNL A   1      39.446  19.971  25.754  1.00  0.00    -0.200 F 
ENDBRANCH  27  51
BRANCH  39  62
ATOM     62  C   UNL A   1      44.225  27.015  30.263  1.00  0.00     0.064 A 
ATOM     63  C   UNL A   1      44.841  25.886  30.838  1.00  0.00     0.173 A 
ATOM     64  C   UNL A   1      43.408  27.767  31.122  1.00  0.00     0.173 A 
ATOM     65  F   UNL A   1      45.676  25.134  30.105  1.00  0.00    -0.203 F 
ATOM     66  C   UNL A   1      44.605  25.508  32.164  1.00  0.00     0.198 A 
ATOM     67  C   UNL A   1      43.164  27.390  32.447  1.00  0.00     0.198 A 
ATOM     68  F   UNL A   1      42.845  28.899  30.700  1.00  0.00    -0.203 F 
ATOM     69  F   UNL A   1      45.204  24.420  32.666  1.00  0.00    -0.200 F 
ATOM     70  C   UNL A   1      43.754  26.253  32.963  1.00  0.00     0.200 A 
ATOM     71  F   UNL A   1      42.360  28.135  33.220  1.00  0.00    -0.200 F 
ATOM     72  F   UNL A   1      43.526  25.889  34.234  1.00  0.00    -0.200 F 
ENDBRANCH  39  62
ENDBRANCH  13  14
ENDBRANCH   6   8
ENDBRANCH   5   6
ENDBRANCH   4   5
ENDBRANCH   3   4
ENDBRANCH   2   3
ENDBRANCH   1   2
BRANCH   1  73
ATOM     73  C   UNL A   1      35.168  31.667  27.983  1.00  0.00     0.188 C 
BRANCH  73  74
ATOM     74  O   UNL A   1      34.099  31.093  27.254  1.00  0.00    -0.376 OA
BRANCH  74  75
ATOM     75  C   UNL A   1      34.044  29.690  27.147  1.00  0.00     0.202 C 
BRANCH  75  76
ATOM     76  C   UNL A   1      32.664  29.169  26.723  1.00  0.00     0.261 C 
BRANCH  76  77
ATOM     77  O   UNL A   1      32.004  29.875  25.644  1.00  0.00    -0.459 OA
BRANCH  77  78
ATOM     78  C   UNL A   1      31.964  29.323  24.389  1.00  0.00     0.355 C 
ATOM     79  O   UNL A   1      32.933  28.924  23.763  1.00  0.00    -0.244 OA
BRANCH  78  80
ATOM     80  C   UNL A   1      30.584  29.252  23.928  1.00  0.00     0.128 A 
ATOM     81  C   UNL A   1      29.779  30.359  23.686  1.00  0.00     0.035 A 
ATOM     82  N   UNL A   1      29.829  28.127  23.548  1.00  0.00    -0.333 N 
ATOM     83  C   UNL A   1      28.641  29.931  22.976  1.00  0.00     0.020 A 
ATOM     84  C   UNL A   1      28.711  28.561  22.877  1.00  0.00     0.087 A 
BRANCH  82  85
ATOM     85  C   UNL A   1      30.206  26.714  23.711  1.00  0.00     0.222 C 
BRANCH  85  86
ATOM     86  C   UNL A   1      31.181  26.030  22.701  1.00  0.00     0.242 C 
ATOM     87  O   UNL A   1      31.438  26.553  21.615  1.00  0.00    -0.273 OA
ATOM     88  N   UNL A   1      31.984  24.959  23.171  1.00  0.00    -0.339 N 
ATOM     89  C   UNL A   1      34.008  25.207  23.233  1.00  0.00     0.133 C 
ATOM     90  C   UNL A   1      31.125  23.457  24.115  1.00  0.00     0.133 C 
ATOM     91  C   UNL A   1      35.040  23.909  24.536  1.00  0.00     0.126 C 
ATOM     92  C   UNL A   1      31.783  21.946  25.374  1.00  0.00     0.126 C 
ATOM     93  S   UNL A   1      34.256  22.020  25.962  1.00  0.00     0.025 S 
ATOM     94  O   UNL A   1      34.833  20.752  25.389  1.00  0.00    -0.259 OA
ENDBRANCH  85  86
ENDBRANCH  82  85
ENDBRANCH  78  80
ENDBRANCH  77  78
ENDBRANCH  76  77
ENDBRANCH  75  76
ENDBRANCH  74  75
ENDBRANCH  73  74
ENDBRANCH   1  73
TORSDOF 19
ENDMDL
