MODEL 1
REMARK VINA RESULT:     -11.0      0.000      0.000
REMARK SMILES C[C@H](Oc1ccnc2c(F)cc(F)cc12)C(=O)OCCOCCOCCOC(=O)c1ccc(-c2c3nc(c(-c4c(F)c(F)c(F)c(F)c4F)c4ccc([nH]4)c(-c4c(F)c(F)c(F)c(F)c4F)c4nc(c(-c5c(F)c(F)c(F)c(F)c5F)c5ccc2[nH]5)C=C4)C=C3)cc1
REMARK SMILES IDX 22 1 21 2 20 3 19 4 18 5 16 6 17 7 2 8 1 9 3 10 4 11 5 12
REMARK SMILES IDX 15 13 6 14 8 15 14 16 7 17 9 18 12 19 10 20 11 21 13 22
REMARK SMILES IDX 23 23 24 24 25 25 26 26 27 27 28 28 29 29 30 30 31 31 92 32
REMARK SMILES IDX 32 33 91 34 33 35 34 36 35 37 85 38 36 39 90 40 84 41 86 42
REMARK SMILES IDX 37 43 89 44 83 45 82 46 38 48 70 49 50 50 69 51 51 52 54 53
REMARK SMILES IDX 68 54 87 55 52 56 53 57 67 59 88 60 55 61 39 62 40 63 48 64
REMARK SMILES IDX 41 65 42 66 46 67 49 68 43 69 44 70 47 71 45 72 71 73 72 74
REMARK SMILES IDX 80 75 73 76 74 77 78 78 81 79 75 80 76 81 79 82 77 83 56 84
REMARK SMILES IDX 57 85 65 86 58 87 59 88 63 89 66 90 60 91 61 92 64 93 62 94
REMARK H PARENT 86 47 54 58
REMARK Flexibility Score: inf
ROOT
ATOM      1  C   UNL A   1      37.065  23.040  25.081  1.00  0.00     0.188 C 
ENDROOT
BRANCH   1   2
ATOM      2  O   UNL A   1      36.171  23.841  25.836  1.00  0.00    -0.376 OA
BRANCH   2   3
ATOM      3  C   UNL A   1      35.235  24.659  25.138  1.00  0.00     0.202 C 
BRANCH   3   4
ATOM      4  C   UNL A   1      33.893  24.931  25.815  1.00  0.00     0.261 C 
BRANCH   4   5
ATOM      5  O   UNL A   1      33.382  23.727  26.420  1.00  0.00    -0.461 OA
BRANCH   5   6
ATOM      6  C   UNL A   1      32.037  23.578  26.395  1.00  0.00     0.347 C 
ATOM      7  O   UNL A   1      31.285  24.055  27.240  1.00  0.00    -0.248 OA
BRANCH   6   8
ATOM      8  C   UNL A   1      31.514  22.804  25.150  1.00  0.00     0.279 C 
ATOM      9  C   UNL A   1      32.387  21.564  24.969  1.00  0.00     0.066 C 
BRANCH   8  10
ATOM     10  O   UNL A   1      31.114  23.253  23.866  1.00  0.00    -0.478 OA
BRANCH  10  11
ATOM     11  C   UNL A   1      31.617  24.331  23.200  1.00  0.00     0.131 A 
ATOM     12  C   UNL A   1      32.829  24.352  22.533  1.00  0.00     0.067 A 
ATOM     13  C   UNL A   1      30.819  25.507  23.240  1.00  0.00     0.048 A 
ATOM     14  C   UNL A   1      33.265  25.561  22.028  1.00  0.00     0.115 A 
ATOM     15  C   UNL A   1      31.351  26.689  22.678  1.00  0.00     0.110 A 
ATOM     16  C   UNL A   1      29.524  25.544  23.812  1.00  0.00     0.053 A 
ATOM     17  N   UNL A   1      32.564  26.710  22.094  1.00  0.00    -0.253 NA
ATOM     18  C   UNL A   1      30.571  27.852  22.734  1.00  0.00     0.152 A 
ATOM     19  C   UNL A   1      28.778  26.717  23.816  1.00  0.00     0.127 A 
ATOM     20  F   UNL A   1      31.050  29.000  22.225  1.00  0.00    -0.204 F 
ATOM     21  C   UNL A   1      29.294  27.880  23.286  1.00  0.00     0.080 A 
ATOM     22  F   UNL A   1      27.541  26.713  24.332  1.00  0.00    -0.207 F 
ENDBRANCH  10  11
ENDBRANCH   8  10
ENDBRANCH   6   8
ENDBRANCH   5   6
ENDBRANCH   4   5
ENDBRANCH   3   4
ENDBRANCH   2   3
ENDBRANCH   1   2
BRANCH   1  23
ATOM     23  C   UNL A   1      36.604  21.661  24.573  1.00  0.00     0.188 C 
BRANCH  23  24
ATOM     24  O   UNL A   1      36.912  20.482  25.285  1.00  0.00    -0.376 OA
BRANCH  24  25
ATOM     25  C   UNL A   1      37.976  19.657  24.822  1.00  0.00     0.202 C 
BRANCH  25  26
ATOM     26  C   UNL A   1      39.157  19.360  25.750  1.00  0.00     0.261 C 
BRANCH  26  27
ATOM     27  O   UNL A   1      40.072  20.462  25.859  1.00  0.00    -0.460 OA
BRANCH  27  28
ATOM     28  C   UNL A   1      40.813  20.481  26.995  1.00  0.00     0.338 C 
ATOM     29  O   UNL A   1      41.434  19.567  27.502  1.00  0.00    -0.246 OA
BRANCH  28  30
ATOM     30  C   UNL A   1      40.944  21.878  27.440  1.00  0.00     0.060 A 
ATOM     31  C   UNL A   1      40.123  22.847  26.845  1.00  0.00     0.016 A 
ATOM     32  C   UNL A   1      41.900  22.231  28.391  1.00  0.00     0.016 A 
ATOM     33  C   UNL A   1      40.258  24.185  27.198  1.00  0.00     0.010 A 
ATOM     34  C   UNL A   1      42.075  23.579  28.703  1.00  0.00     0.010 A 
ATOM     35  C   UNL A   1      41.276  24.558  28.083  1.00  0.00    -0.014 A 
BRANCH  35  36
ATOM     36  C   UNL A   1      41.686  25.974  28.150  1.00  0.00     0.031 A 
ATOM     37  C   UNL A   1      43.036  26.332  27.597  1.00  0.00     0.074 A 
ATOM     38  C   UNL A   1      40.887  26.913  28.682  1.00  0.00     0.049 A 
ATOM     39  N   UNL A   1      43.664  27.478  27.616  1.00  0.00    -0.248 NA
ATOM     40  C   UNL A   1      43.776  25.249  26.926  1.00  0.00     0.031 C 
ATOM     41  C   UNL A   1      39.533  26.688  29.180  1.00  0.00     0.029 A 
ATOM     42  N   UNL A   1      41.114  28.247  28.900  1.00  0.00    -0.354 N 
ATOM     43  C   UNL A   1      44.864  27.254  26.956  1.00  0.00     0.074 A 
ATOM     44  C   UNL A   1      44.892  25.862  26.567  1.00  0.00     0.031 C 
ATOM     45  C   UNL A   1      39.053  27.847  29.666  1.00  0.00     0.029 A 
ATOM     46  C   UNL A   1      40.082  28.879  29.547  1.00  0.00     0.049 A 
ATOM     47  H   UNL A   1      41.937  28.707  28.618  1.00  0.00     0.167 HD
ATOM     48  C   UNL A   1      45.857  28.135  26.697  1.00  0.00     0.037 A 
ATOM     49  C   UNL A   1      40.001  30.141  30.013  1.00  0.00     0.037 A 
ATOM     50  C   UNL A   1      45.839  29.508  27.117  1.00  0.00     0.049 A 
ATOM     51  C   UNL A   1      41.175  31.069  29.824  1.00  0.00     0.074 A 
ATOM     52  C   UNL A   1      46.803  30.481  26.926  1.00  0.00     0.029 A 
ATOM     53  N   UNL A   1      44.804  30.097  27.828  1.00  0.00    -0.354 N 
ATOM     54  N   UNL A   1      42.309  30.857  29.202  1.00  0.00    -0.248 NA
ATOM     55  C   UNL A   1      41.059  32.411  30.413  1.00  0.00     0.031 C 
ATOM     56  C   UNL A   1      46.372  31.646  27.566  1.00  0.00     0.029 A 
ATOM     57  C   UNL A   1      45.118  31.416  28.109  1.00  0.00     0.049 A 
ATOM     58  H   UNL A   1      43.970  29.645  28.094  1.00  0.00     0.167 HD
ATOM     59  C   UNL A   1      43.033  32.039  29.304  1.00  0.00     0.074 A 
ATOM     60  C   UNL A   1      42.201  32.972  30.036  1.00  0.00     0.031 C 
ATOM     61  C   UNL A   1      44.273  32.327  28.838  1.00  0.00     0.037 A 
BRANCH  48  62
ATOM     62  C   UNL A   1      47.052  27.628  25.951  1.00  0.00     0.064 A 
ATOM     63  C   UNL A   1      47.127  27.698  24.552  1.00  0.00     0.173 A 
ATOM     64  C   UNL A   1      48.150  27.097  26.643  1.00  0.00     0.173 A 
ATOM     65  F   UNL A   1      46.092  28.175  23.843  1.00  0.00    -0.203 F 
ATOM     66  C   UNL A   1      48.253  27.244  23.871  1.00  0.00     0.198 A 
ATOM     67  C   UNL A   1      49.286  26.668  25.962  1.00  0.00     0.198 A 
ATOM     68  F   UNL A   1      48.125  27.002  27.981  1.00  0.00    -0.203 F 
ATOM     69  F   UNL A   1      48.288  27.286  22.533  1.00  0.00    -0.200 F 
ATOM     70  C   UNL A   1      49.335  26.739  24.578  1.00  0.00     0.200 A 
ATOM     71  F   UNL A   1      50.333  26.187  26.645  1.00  0.00    -0.200 F 
ATOM     72  F   UNL A   1      50.424  26.313  23.923  1.00  0.00    -0.200 F 
ENDBRANCH  48  62
BRANCH  49  73
ATOM     73  C   UNL A   1      38.775  30.597  30.717  1.00  0.00     0.064 A 
ATOM     74  C   UNL A   1      37.694  31.130  30.005  1.00  0.00     0.173 A 
ATOM     75  C   UNL A   1      38.661  30.519  32.114  1.00  0.00     0.173 A 
ATOM     76  F   UNL A   1      37.766  31.252  28.670  1.00  0.00    -0.203 F 
ATOM     77  C   UNL A   1      36.548  31.576  30.660  1.00  0.00     0.198 A 
ATOM     78  C   UNL A   1      37.505  30.941  32.767  1.00  0.00     0.198 A 
ATOM     79  F   UNL A   1      39.671  30.024  32.844  1.00  0.00    -0.203 F 
ATOM     80  F   UNL A   1      35.544  32.118  29.957  1.00  0.00    -0.200 F 
ATOM     81  C   UNL A   1      36.451  31.475  32.040  1.00  0.00     0.200 A 
ATOM     82  F   UNL A   1      37.413  30.834  34.099  1.00  0.00    -0.200 F 
ATOM     83  F   UNL A   1      35.347  31.899  32.670  1.00  0.00    -0.200 F 
ENDBRANCH  49  73
BRANCH  61  84
ATOM     84  C   UNL A   1      44.808  33.708  29.085  1.00  0.00     0.064 A 
ATOM     85  C   UNL A   1      45.623  33.989  30.191  1.00  0.00     0.173 A 
ATOM     86  C   UNL A   1      44.572  34.738  28.162  1.00  0.00     0.173 A 
ATOM     87  F   UNL A   1      45.868  33.041  31.109  1.00  0.00    -0.203 F 
ATOM     88  C   UNL A   1      46.170  35.256  30.371  1.00  0.00     0.198 A 
ATOM     89  C   UNL A   1      45.147  35.994  28.329  1.00  0.00     0.198 A 
ATOM     90  F   UNL A   1      43.809  34.517  27.081  1.00  0.00    -0.203 F 
ATOM     91  F   UNL A   1      46.918  35.514  31.453  1.00  0.00    -0.200 F 
ATOM     92  C   UNL A   1      45.941  36.254  29.434  1.00  0.00     0.200 A 
ATOM     93  F   UNL A   1      44.941  36.950  27.412  1.00  0.00    -0.200 F 
ATOM     94  F   UNL A   1      46.486  37.467  29.600  1.00  0.00    -0.200 F 
ENDBRANCH  61  84
ENDBRANCH  35  36
ENDBRANCH  28  30
ENDBRANCH  27  28
ENDBRANCH  26  27
ENDBRANCH  25  26
ENDBRANCH  24  25
ENDBRANCH  23  24
ENDBRANCH   1  23
TORSDOF 19
ENDMDL
MODEL 2
REMARK VINA RESULT:     -10.9      2.122      3.220
REMARK SMILES C[C@H](Oc1ccnc2c(F)cc(F)cc12)C(=O)OCCOCCOCCOC(=O)c1ccc(-c2c3nc(c(-c4c(F)c(F)c(F)c(F)c4F)c4ccc([nH]4)c(-c4c(F)c(F)c(F)c(F)c4F)c4nc(c(-c5c(F)c(F)c(F)c(F)c5F)c5ccc2[nH]5)C=C4)C=C3)cc1
REMARK SMILES IDX 22 1 21 2 20 3 19 4 18 5 16 6 17 7 2 8 1 9 3 10 4 11 5 12
REMARK SMILES IDX 15 13 6 14 8 15 14 16 7 17 9 18 12 19 10 20 11 21 13 22
REMARK SMILES IDX 23 23 24 24 25 25 26 26 27 27 28 28 29 29 30 30 31 31 92 32
REMARK SMILES IDX 32 33 91 34 33 35 34 36 35 37 85 38 36 39 90 40 84 41 86 42
REMARK SMILES IDX 37 43 89 44 83 45 82 46 38 48 70 49 50 50 69 51 51 52 54 53
REMARK SMILES IDX 68 54 87 55 52 56 53 57 67 59 88 60 55 61 39 62 40 63 48 64
REMARK SMILES IDX 41 65 42 66 46 67 49 68 43 69 44 70 47 71 45 72 71 73 72 74
REMARK SMILES IDX 80 75 73 76 74 77 78 78 81 79 75 80 76 81 79 82 77 83 56 84
REMARK SMILES IDX 57 85 65 86 58 87 59 88 63 89 66 90 60 91 61 92 64 93 62 94
REMARK H PARENT 86 47 54 58
REMARK Flexibility Score: inf
ROOT
ATOM      1  C   UNL A   1      36.868  22.352  24.432  1.00  0.00     0.188 C 
ENDROOT
BRANCH   1   2
ATOM      2  O   UNL A   1      36.336  23.587  24.884  1.00  0.00    -0.376 OA
BRANCH   2   3
ATOM      3  C   UNL A   1      35.265  24.176  24.149  1.00  0.00     0.202 C 
BRANCH   3   4
ATOM      4  C   UNL A   1      34.360  25.159  24.886  1.00  0.00     0.261 C 
BRANCH   4   5
ATOM      5  O   UNL A   1      34.132  24.716  26.239  1.00  0.00    -0.461 OA
BRANCH   5   6
ATOM      6  C   UNL A   1      32.921  24.166  26.485  1.00  0.00     0.347 C 
ATOM      7  O   UNL A   1      31.859  24.753  26.303  1.00  0.00    -0.248 OA
BRANCH   6   8
ATOM      8  C   UNL A   1      32.989  22.682  26.953  1.00  0.00     0.279 C 
ATOM      9  C   UNL A   1      34.356  22.457  27.596  1.00  0.00     0.066 C 
BRANCH   8  10
ATOM     10  O   UNL A   1      32.599  21.479  26.315  1.00  0.00    -0.478 OA
BRANCH  10  11
ATOM     11  C   UNL A   1      32.500  21.278  24.970  1.00  0.00     0.131 A 
ATOM     12  C   UNL A   1      32.297  22.277  24.036  1.00  0.00     0.067 A 
ATOM     13  C   UNL A   1      32.594  19.926  24.541  1.00  0.00     0.048 A 
ATOM     14  C   UNL A   1      32.077  21.899  22.726  1.00  0.00     0.115 A 
ATOM     15  C   UNL A   1      32.370  19.646  23.174  1.00  0.00     0.110 A 
ATOM     16  C   UNL A   1      32.902  18.856  25.416  1.00  0.00     0.053 A 
ATOM     17  N   UNL A   1      32.102  20.624  22.288  1.00  0.00    -0.253 NA
ATOM     18  C   UNL A   1      32.444  18.312  22.756  1.00  0.00     0.152 A 
ATOM     19  C   UNL A   1      32.993  17.551  24.946  1.00  0.00     0.127 A 
ATOM     20  F   UNL A   1      32.220  18.005  21.466  1.00  0.00    -0.204 F 
ATOM     21  C   UNL A   1      32.759  17.265  23.617  1.00  0.00     0.080 A 
ATOM     22  F   UNL A   1      33.321  16.564  25.790  1.00  0.00    -0.207 F 
ENDBRANCH  10  11
ENDBRANCH   8  10
ENDBRANCH   6   8
ENDBRANCH   5   6
ENDBRANCH   4   5
ENDBRANCH   3   4
ENDBRANCH   2   3
ENDBRANCH   1   2
BRANCH   1  23
ATOM     23  C   UNL A   1      36.053  21.060  24.622  1.00  0.00     0.188 C 
BRANCH  23  24
ATOM     24  O   UNL A   1      36.666  19.871  25.073  1.00  0.00    -0.376 OA
BRANCH  24  25
ATOM     25  C   UNL A   1      37.994  19.579  24.651  1.00  0.00     0.202 C 
BRANCH  25  26
ATOM     26  C   UNL A   1      39.087  19.360  25.701  1.00  0.00     0.261 C 
BRANCH  26  27
ATOM     27  O   UNL A   1      39.970  20.485  25.830  1.00  0.00    -0.460 OA
BRANCH  27  28
ATOM     28  C   UNL A   1      40.716  20.501  26.964  1.00  0.00     0.338 C 
ATOM     29  O   UNL A   1      41.336  19.584  27.468  1.00  0.00    -0.246 OA
BRANCH  28  30
ATOM     30  C   UNL A   1      40.852  21.896  27.410  1.00  0.00     0.060 A 
ATOM     31  C   UNL A   1      40.047  22.872  26.804  1.00  0.00     0.016 A 
ATOM     32  C   UNL A   1      41.797  22.242  28.374  1.00  0.00     0.016 A 
ATOM     33  C   UNL A   1      40.188  24.209  27.158  1.00  0.00     0.010 A 
ATOM     34  C   UNL A   1      41.979  23.589  28.688  1.00  0.00     0.010 A 
ATOM     35  C   UNL A   1      41.196  24.574  28.057  1.00  0.00    -0.014 A 
BRANCH  35  36
ATOM     36  C   UNL A   1      41.617  25.987  28.129  1.00  0.00     0.031 A 
ATOM     37  C   UNL A   1      42.973  26.336  27.585  1.00  0.00     0.074 A 
ATOM     38  C   UNL A   1      40.822  26.930  28.658  1.00  0.00     0.049 A 
ATOM     39  N   UNL A   1      43.610  27.476  27.610  1.00  0.00    -0.248 NA
ATOM     40  C   UNL A   1      43.709  25.248  26.916  1.00  0.00     0.031 C 
ATOM     41  C   UNL A   1      39.463  26.715  29.147  1.00  0.00     0.029 A 
ATOM     42  N   UNL A   1      41.058  28.263  28.880  1.00  0.00    -0.354 N 
ATOM     43  C   UNL A   1      44.812  27.244  26.957  1.00  0.00     0.074 A 
ATOM     44  C   UNL A   1      44.831  25.853  26.566  1.00  0.00     0.031 C 
ATOM     45  C   UNL A   1      38.989  27.877  29.632  1.00  0.00     0.029 A 
ATOM     46  C   UNL A   1      40.027  28.902  29.521  1.00  0.00     0.049 A 
ATOM     47  H   UNL A   1      41.886  28.717  28.603  1.00  0.00     0.167 HD
ATOM     48  C   UNL A   1      45.813  28.119  26.705  1.00  0.00     0.037 A 
ATOM     49  C   UNL A   1      39.953  30.163  29.989  1.00  0.00     0.037 A 
ATOM     50  C   UNL A   1      45.804  29.490  27.128  1.00  0.00     0.049 A 
ATOM     51  C   UNL A   1      41.135  31.083  29.809  1.00  0.00     0.074 A 
ATOM     52  C   UNL A   1      46.776  30.456  26.945  1.00  0.00     0.029 A 
ATOM     53  N   UNL A   1      44.769  30.086  27.834  1.00  0.00    -0.354 N 
ATOM     54  N   UNL A   1      42.271  30.863  29.193  1.00  0.00    -0.248 NA
ATOM     55  C   UNL A   1      41.026  32.424  30.400  1.00  0.00     0.031 C 
ATOM     56  C   UNL A   1      46.350  31.624  27.585  1.00  0.00     0.029 A 
ATOM     57  C   UNL A   1      45.091  31.402  28.119  1.00  0.00     0.049 A 
ATOM     58  H   UNL A   1      43.929  29.640  28.094  1.00  0.00     0.167 HD
ATOM     59  C   UNL A   1      43.003  32.039  29.302  1.00  0.00     0.074 A 
ATOM     60  C   UNL A   1      42.174  32.977  30.031  1.00  0.00     0.031 C 
ATOM     61  C   UNL A   1      44.248  32.319  28.845  1.00  0.00     0.037 A 
BRANCH  48  62
ATOM     62  C   UNL A   1      47.009  27.603  25.966  1.00  0.00     0.064 A 
ATOM     63  C   UNL A   1      48.090  27.016  26.641  1.00  0.00     0.173 A 
ATOM     64  C   UNL A   1      47.062  27.665  24.566  1.00  0.00     0.173 A 
ATOM     65  F   UNL A   1      48.096  26.955  27.981  1.00  0.00    -0.203 F 
ATOM     66  C   UNL A   1      49.186  26.520  25.941  1.00  0.00     0.198 A 
ATOM     67  C   UNL A   1      48.148  27.145  23.867  1.00  0.00     0.198 A 
ATOM     68  F   UNL A   1      46.057  28.223  23.875  1.00  0.00    -0.203 F 
ATOM     69  F   UNL A   1      50.224  25.996  26.607  1.00  0.00    -0.200 F 
ATOM     70  C   UNL A   1      49.209  26.576  24.555  1.00  0.00     0.200 A 
ATOM     71  F   UNL A   1      48.167  27.193  22.528  1.00  0.00    -0.200 F 
ATOM     72  F   UNL A   1      50.260  26.087  23.881  1.00  0.00    -0.200 F 
ENDBRANCH  48  62
BRANCH  49  73
ATOM     73  C   UNL A   1      38.726  30.627  30.687  1.00  0.00     0.064 A 
ATOM     74  C   UNL A   1      37.626  31.105  29.964  1.00  0.00     0.173 A 
ATOM     75  C   UNL A   1      38.630  30.612  32.087  1.00  0.00     0.173 A 
ATOM     76  F   UNL A   1      37.681  31.166  28.624  1.00  0.00    -0.203 F 
ATOM     77  C   UNL A   1      36.479  31.559  30.612  1.00  0.00     0.198 A 
ATOM     78  C   UNL A   1      37.473  31.042  32.734  1.00  0.00     0.198 A 
ATOM     79  F   UNL A   1      39.658  30.172  32.827  1.00  0.00    -0.203 F 
ATOM     80  F   UNL A   1      35.456  32.048  29.897  1.00  0.00    -0.200 F 
ATOM     81  C   UNL A   1      36.400  31.520  31.996  1.00  0.00     0.200 A 
ATOM     82  F   UNL A   1      37.398  30.995  34.071  1.00  0.00    -0.200 F 
ATOM     83  F   UNL A   1      35.295  31.952  32.620  1.00  0.00    -0.200 F 
ENDBRANCH  49  73
BRANCH  61  84
ATOM     84  C   UNL A   1      44.793  33.695  29.098  1.00  0.00     0.064 A 
ATOM     85  C   UNL A   1      45.582  33.973  30.222  1.00  0.00     0.173 A 
ATOM     86  C   UNL A   1      44.592  34.722  28.164  1.00  0.00     0.173 A 
ATOM     87  F   UNL A   1      45.794  33.028  31.151  1.00  0.00    -0.203 F 
ATOM     88  C   UNL A   1      46.139  35.235  30.409  1.00  0.00     0.198 A 
ATOM     89  C   UNL A   1      45.177  35.973  28.337  1.00  0.00     0.198 A 
ATOM     90  F   UNL A   1      43.854  34.503  27.065  1.00  0.00    -0.203 F 
ATOM     91  F   UNL A   1      46.862  35.491  31.508  1.00  0.00    -0.200 F 
ATOM     92  C   UNL A   1      45.946  36.230  29.461  1.00  0.00     0.200 A 
ATOM     93  F   UNL A   1      45.005  36.925  27.411  1.00  0.00    -0.200 F 
ATOM     94  F   UNL A   1      46.500  37.437  29.634  1.00  0.00    -0.200 F 
ENDBRANCH  61  84
ENDBRANCH  35  36
ENDBRANCH  28  30
ENDBRANCH  27  28
ENDBRANCH  26  27
ENDBRANCH  25  26
ENDBRANCH  24  25
ENDBRANCH  23  24
ENDBRANCH   1  23
TORSDOF 19
ENDMDL
MODEL 3
REMARK VINA RESULT:     -10.9      2.260      7.886
REMARK SMILES C[C@H](Oc1ccnc2c(F)cc(F)cc12)C(=O)OCCOCCOCCOC(=O)c1ccc(-c2c3nc(c(-c4c(F)c(F)c(F)c(F)c4F)c4ccc([nH]4)c(-c4c(F)c(F)c(F)c(F)c4F)c4nc(c(-c5c(F)c(F)c(F)c(F)c5F)c5ccc2[nH]5)C=C4)C=C3)cc1
REMARK SMILES IDX 22 1 21 2 20 3 19 4 18 5 16 6 17 7 2 8 1 9 3 10 4 11 5 12
REMARK SMILES IDX 15 13 6 14 8 15 14 16 7 17 9 18 12 19 10 20 11 21 13 22
REMARK SMILES IDX 23 23 24 24 25 25 26 26 27 27 28 28 29 29 30 30 31 31 92 32
REMARK SMILES IDX 32 33 91 34 33 35 34 36 35 37 85 38 36 39 90 40 84 41 86 42
REMARK SMILES IDX 37 43 89 44 83 45 82 46 38 48 70 49 50 50 69 51 51 52 54 53
REMARK SMILES IDX 68 54 87 55 52 56 53 57 67 59 88 60 55 61 39 62 40 63 48 64
REMARK SMILES IDX 41 65 42 66 46 67 49 68 43 69 44 70 47 71 45 72 71 73 72 74
REMARK SMILES IDX 80 75 73 76 74 77 78 78 81 79 75 80 76 81 79 82 77 83 56 84
REMARK SMILES IDX 57 85 65 86 58 87 59 88 63 89 66 90 60 91 61 92 64 93 62 94
REMARK H PARENT 86 47 54 58
REMARK Flexibility Score: inf
ROOT
ATOM      1  C   UNL A   1      35.676  23.142  25.413  1.00  0.00     0.188 C 
ENDROOT
BRANCH   1   2
ATOM      2  O   UNL A   1      34.890  24.102  26.100  1.00  0.00    -0.376 OA
BRANCH   2   3
ATOM      3  C   UNL A   1      34.406  25.229  25.373  1.00  0.00     0.202 C 
BRANCH   3   4
ATOM      4  C   UNL A   1      34.357  25.120  23.851  1.00  0.00     0.261 C 
BRANCH   4   5
ATOM      5  O   UNL A   1      33.639  26.236  23.289  1.00  0.00    -0.461 OA
BRANCH   5   6
ATOM      6  C   UNL A   1      32.869  25.962  22.210  1.00  0.00     0.347 C 
ATOM      7  O   UNL A   1      33.324  25.675  21.107  1.00  0.00    -0.248 OA
BRANCH   6   8
ATOM      8  C   UNL A   1      31.342  25.969  22.511  1.00  0.00     0.279 C 
ATOM      9  C   UNL A   1      30.966  27.370  22.991  1.00  0.00     0.066 C 
BRANCH   8  10
ATOM     10  O   UNL A   1      30.514  25.036  23.183  1.00  0.00    -0.478 OA
BRANCH  10  11
ATOM     11  C   UNL A   1      30.839  24.338  24.307  1.00  0.00     0.131 A 
ATOM     12  C   UNL A   1      30.697  24.811  25.599  1.00  0.00     0.067 A 
ATOM     13  C   UNL A   1      31.386  23.043  24.092  1.00  0.00     0.048 A 
ATOM     14  C   UNL A   1      31.204  24.040  26.627  1.00  0.00     0.115 A 
ATOM     15  C   UNL A   1      31.861  22.328  25.214  1.00  0.00     0.110 A 
ATOM     16  C   UNL A   1      31.471  22.443  22.812  1.00  0.00     0.053 A 
ATOM     17  N   UNL A   1      31.779  22.833  26.460  1.00  0.00    -0.253 NA
ATOM     18  C   UNL A   1      32.415  21.059  24.998  1.00  0.00     0.152 A 
ATOM     19  C   UNL A   1      32.004  21.168  22.654  1.00  0.00     0.127 A 
ATOM     20  F   UNL A   1      32.892  20.356  26.039  1.00  0.00    -0.204 F 
ATOM     21  C   UNL A   1      32.486  20.469  23.740  1.00  0.00     0.080 A 
ATOM     22  F   UNL A   1      32.039  20.611  21.436  1.00  0.00    -0.207 F 
ENDBRANCH  10  11
ENDBRANCH   8  10
ENDBRANCH   6   8
ENDBRANCH   5   6
ENDBRANCH   4   5
ENDBRANCH   3   4
ENDBRANCH   2   3
ENDBRANCH   1   2
BRANCH   1  23
ATOM     23  C   UNL A   1      37.208  23.289  25.393  1.00  0.00     0.188 C 
BRANCH  23  24
ATOM     24  O   UNL A   1      38.049  22.210  25.742  1.00  0.00    -0.376 OA
BRANCH  24  25
ATOM     25  C   UNL A   1      37.985  21.013  24.975  1.00  0.00     0.202 C 
BRANCH  25  26
ATOM     26  C   UNL A   1      38.916  19.846  25.321  1.00  0.00     0.261 C 
BRANCH  26  27
ATOM     27  O   UNL A   1      39.812  20.149  26.401  1.00  0.00    -0.460 OA
BRANCH  27  28
ATOM     28  C   UNL A   1      41.096  19.754  26.208  1.00  0.00     0.338 C 
ATOM     29  O   UNL A   1      41.497  18.719  25.713  1.00  0.00    -0.246 OA
BRANCH  28  30
ATOM     30  C   UNL A   1      41.981  20.892  26.502  1.00  0.00     0.060 A 
ATOM     31  C   UNL A   1      42.231  21.213  27.845  1.00  0.00     0.016 A 
ATOM     32  C   UNL A   1      42.510  21.663  25.468  1.00  0.00     0.016 A 
ATOM     33  C   UNL A   1      43.015  22.317  28.162  1.00  0.00     0.010 A 
ATOM     34  C   UNL A   1      43.249  22.802  25.787  1.00  0.00     0.010 A 
ATOM     35  C   UNL A   1      43.474  23.146  27.133  1.00  0.00    -0.014 A 
BRANCH  35  36
ATOM     36  C   UNL A   1      43.945  24.506  27.462  1.00  0.00     0.031 A 
ATOM     37  C   UNL A   1      42.918  25.506  27.910  1.00  0.00     0.074 A 
ATOM     38  C   UNL A   1      45.241  24.842  27.370  1.00  0.00     0.049 A 
ATOM     39  N   UNL A   1      43.056  26.780  28.168  1.00  0.00    -0.248 NA
ATOM     40  C   UNL A   1      41.547  24.998  28.094  1.00  0.00     0.031 C 
ATOM     41  C   UNL A   1      46.329  23.933  27.018  1.00  0.00     0.029 A 
ATOM     42  N   UNL A   1      45.856  26.053  27.557  1.00  0.00    -0.354 N 
ATOM     43  C   UNL A   1      41.796  27.219  28.551  1.00  0.00     0.074 A 
ATOM     44  C   UNL A   1      40.900  26.088  28.472  1.00  0.00     0.031 C 
ATOM     45  C   UNL A   1      47.481  24.625  26.995  1.00  0.00     0.029 A 
ATOM     46  C   UNL A   1      47.202  26.030  27.292  1.00  0.00     0.049 A 
ATOM     47  H   UNL A   1      45.378  26.860  27.855  1.00  0.00     0.167 HD
ATOM     48  C   UNL A   1      41.422  28.460  28.938  1.00  0.00     0.037 A 
ATOM     49  C   UNL A   1      48.092  27.041  27.266  1.00  0.00     0.037 A 
ATOM     50  C   UNL A   1      42.309  29.587  28.981  1.00  0.00     0.049 A 
ATOM     51  C   UNL A   1      47.623  28.441  27.576  1.00  0.00     0.074 A 
ATOM     52  C   UNL A   1      42.028  30.893  29.336  1.00  0.00     0.029 A 
ATOM     53  N   UNL A   1      43.654  29.541  28.642  1.00  0.00    -0.354 N 
ATOM     54  N   UNL A   1      46.433  28.856  27.937  1.00  0.00    -0.248 NA
ATOM     55  C   UNL A   1      48.621  29.514  27.463  1.00  0.00     0.031 C 
ATOM     56  C   UNL A   1      43.192  31.648  29.163  1.00  0.00     0.029 A 
ATOM     57  C   UNL A   1      44.211  30.803  28.754  1.00  0.00     0.049 A 
ATOM     58  H   UNL A   1      44.140  28.730  28.364  1.00  0.00     0.167 HD
ATOM     59  C   UNL A   1      46.541  30.229  28.116  1.00  0.00     0.074 A 
ATOM     60  C   UNL A   1      47.920  30.576  27.839  1.00  0.00     0.031 C 
ATOM     61  C   UNL A   1      45.588  31.124  28.474  1.00  0.00     0.037 A 
BRANCH  48  62
ATOM     62  C   UNL A   1      39.986  28.662  29.313  1.00  0.00     0.064 A 
ATOM     63  C   UNL A   1      39.533  28.439  30.622  1.00  0.00     0.173 A 
ATOM     64  C   UNL A   1      39.060  29.115  28.363  1.00  0.00     0.173 A 
ATOM     65  F   UNL A   1      40.376  27.982  31.560  1.00  0.00    -0.203 F 
ATOM     66  C   UNL A   1      38.200  28.652  30.963  1.00  0.00     0.198 A 
ATOM     67  C   UNL A   1      37.733  29.352  28.714  1.00  0.00     0.198 A 
ATOM     68  F   UNL A   1      39.442  29.336  27.096  1.00  0.00    -0.203 F 
ATOM     69  F   UNL A   1      37.780  28.399  32.210  1.00  0.00    -0.200 F 
ATOM     70  C   UNL A   1      37.305  29.118  30.011  1.00  0.00     0.200 A 
ATOM     71  F   UNL A   1      36.871  29.808  27.795  1.00  0.00    -0.200 F 
ATOM     72  F   UNL A   1      36.024  29.334  30.344  1.00  0.00    -0.200 F 
ENDBRANCH  48  62
BRANCH  49  73
ATOM     73  C   UNL A   1      49.512  26.773  26.917  1.00  0.00     0.064 A 
ATOM     74  C   UNL A   1      50.454  26.485  27.913  1.00  0.00     0.173 A 
ATOM     75  C   UNL A   1      49.959  26.810  25.588  1.00  0.00     0.173 A 
ATOM     76  F   UNL A   1      50.081  26.467  29.202  1.00  0.00    -0.203 F 
ATOM     77  C   UNL A   1      51.790  26.251  27.595  1.00  0.00     0.198 A 
ATOM     78  C   UNL A   1      51.290  26.550  25.268  1.00  0.00     0.198 A 
ATOM     79  F   UNL A   1      49.100  27.090  24.597  1.00  0.00    -0.203 F 
ATOM     80  F   UNL A   1      52.678  26.016  28.571  1.00  0.00    -0.200 F 
ATOM     81  C   UNL A   1      52.206  26.277  26.273  1.00  0.00     0.200 A 
ATOM     82  F   UNL A   1      51.686  26.568  23.988  1.00  0.00    -0.200 F 
ATOM     83  F   UNL A   1      53.491  26.046  25.966  1.00  0.00    -0.200 F 
ENDBRANCH  49  73
BRANCH  61  84
ATOM     84  C   UNL A   1      45.995  32.563  28.605  1.00  0.00     0.064 A 
ATOM     85  C   UNL A   1      46.539  33.063  29.797  1.00  0.00     0.173 A 
ATOM     86  C   UNL A   1      45.918  33.427  27.503  1.00  0.00     0.173 A 
ATOM     87  F   UNL A   1      46.622  32.280  30.883  1.00  0.00    -0.203 F 
ATOM     88  C   UNL A   1      46.978  34.381  29.884  1.00  0.00     0.198 A 
ATOM     89  C   UNL A   1      46.388  34.735  27.584  1.00  0.00     0.198 A 
ATOM     90  F   UNL A   1      45.417  32.995  26.336  1.00  0.00    -0.203 F 
ATOM     91  F   UNL A   1      47.462  34.849  31.043  1.00  0.00    -0.200 F 
ATOM     92  C   UNL A   1      46.912  35.212  28.775  1.00  0.00     0.200 A 
ATOM     93  F   UNL A   1      46.342  35.530  26.506  1.00  0.00    -0.200 F 
ATOM     94  F   UNL A   1      47.354  36.475  28.856  1.00  0.00    -0.200 F 
ENDBRANCH  61  84
ENDBRANCH  35  36
ENDBRANCH  28  30
ENDBRANCH  27  28
ENDBRANCH  26  27
ENDBRANCH  25  26
ENDBRANCH  24  25
ENDBRANCH  23  24
ENDBRANCH   1  23
TORSDOF 19
ENDMDL
