MODEL 1
REMARK VINA RESULT:     -10.2      0.000      0.000
REMARK SMILES COc1cc(/C=C/C(=O)OCCOCCOCCOC(=O)c2ccc(-c3c4nc(c(-c5c(F)c(F)c(F)c(F)c5F)c5ccc([nH]5)c(-c5c(F)c(F)c(F)c(F)c5F)c5nc(c(-c6c(F)c(F)c(F)c(F)c6F)c6ccc3[nH]6)C=C5)C=C4)cc2)cc(OC)c1O
REMARK SMILES IDX 14 1 13 2 12 3 11 4 10 5 8 6 9 7 7 8 6 9 5 10 3 11 4 12
REMARK SMILES IDX 89 13 86 14 85 15 2 16 1 17 90 18 87 20 88 21 15 22 16 23
REMARK SMILES IDX 17 24 18 25 19 26 20 27 21 28 22 29 23 30 84 31 24 32 83 33
REMARK SMILES IDX 25 34 26 35 27 36 77 37 28 38 82 39 76 40 78 41 29 42 81 43
REMARK SMILES IDX 75 44 74 45 30 47 62 48 42 49 61 50 43 51 46 52 60 53 79 54
REMARK SMILES IDX 44 55 45 56 59 58 80 59 47 60 31 61 32 62 40 63 33 64 34 65
REMARK SMILES IDX 38 66 41 67 35 68 36 69 39 70 37 71 63 72 64 73 72 74 65 75
REMARK SMILES IDX 66 76 70 77 73 78 67 79 68 80 71 81 69 82 48 83 49 84 57 85
REMARK SMILES IDX 50 86 51 87 55 88 58 89 52 90 53 91 56 92 54 93
REMARK H PARENT 90 19 78 46 46 57
REMARK Flexibility Score: inf
ROOT
ATOM      1  C   UNL A   1      35.528  21.472  25.818  1.00  0.00     0.188 C 
ENDROOT
BRANCH   1   2
ATOM      2  O   UNL A   1      34.312  22.212  25.842  1.00  0.00    -0.376 OA
BRANCH   2   3
ATOM      3  C   UNL A   1      33.091  21.552  26.146  1.00  0.00     0.202 C 
BRANCH   3   4
ATOM      4  C   UNL A   1      31.845  21.891  25.316  1.00  0.00     0.261 C 
BRANCH   4   5
ATOM      5  O   UNL A   1      30.609  21.885  26.052  1.00  0.00    -0.460 OA
BRANCH   5   6
ATOM      6  C   UNL A   1      30.217  23.089  26.532  1.00  0.00     0.330 C 
ATOM      7  O   UNL A   1      29.660  23.298  27.602  1.00  0.00    -0.247 OA
BRANCH   6   8
ATOM      8  C   UNL A   1      30.629  24.216  25.669  1.00  0.00     0.094 C 
ATOM      9  C   UNL A   1      30.783  25.502  26.027  1.00  0.00     0.016 C 
BRANCH   9  10
ATOM     10  C   UNL A   1      31.209  26.537  25.066  1.00  0.00    -0.018 A 
ATOM     11  C   UNL A   1      32.007  28.796  24.558  1.00  0.00     0.165 A 
ATOM     12  C   UNL A   1      31.685  27.786  25.478  1.00  0.00     0.058 A 
ATOM     13  C   UNL A   1      31.864  28.538  23.186  1.00  0.00     0.200 A 
ATOM     14  C   UNL A   1      31.459  27.267  22.745  1.00  0.00     0.165 A 
ATOM     15  C   UNL A   1      31.144  26.279  23.694  1.00  0.00     0.058 A 
BRANCH  11  16
ATOM     16  O   UNL A   1      32.396  29.954  25.177  1.00  0.00    -0.493 OA
ATOM     17  C   UNL A   1      31.839  30.302  26.435  1.00  0.00     0.278 C 
ENDBRANCH  11  16
BRANCH  13  18
ATOM     18  O   UNL A   1      32.058  29.540  22.278  1.00  0.00    -0.502 OA
ATOM     19  H   UNL A   1      32.899  29.657  21.882  1.00  0.00     0.293 HD
ENDBRANCH  13  18
BRANCH  14  20
ATOM     20  O   UNL A   1      31.275  26.831  21.459  1.00  0.00    -0.493 OA
ATOM     21  C   UNL A   1      32.071  25.761  20.972  1.00  0.00     0.278 C 
ENDBRANCH  14  20
ENDBRANCH   9  10
ENDBRANCH   6   8
ENDBRANCH   5   6
ENDBRANCH   4   5
ENDBRANCH   3   4
ENDBRANCH   2   3
ENDBRANCH   1   2
BRANCH   1  22
ATOM     22  C   UNL A   1      35.645  20.181  24.981  1.00  0.00     0.188 C 
BRANCH  22  23
ATOM     23  O   UNL A   1      36.961  19.876  24.560  1.00  0.00    -0.376 OA
BRANCH  23  24
ATOM     24  C   UNL A   1      38.013  20.579  25.205  1.00  0.00     0.202 C 
BRANCH  24  25
ATOM     25  C   UNL A   1      39.195  19.736  25.704  1.00  0.00     0.261 C 
BRANCH  25  26
ATOM     26  O   UNL A   1      40.418  20.453  25.944  1.00  0.00    -0.460 OA
BRANCH  26  27
ATOM     27  C   UNL A   1      40.843  20.538  27.221  1.00  0.00     0.338 C 
ATOM     28  O   UNL A   1      41.081  19.613  27.985  1.00  0.00    -0.246 OA
BRANCH  27  29
ATOM     29  C   UNL A   1      41.134  21.957  27.510  1.00  0.00     0.060 A 
ATOM     30  C   UNL A   1      40.555  22.947  26.707  1.00  0.00     0.016 A 
ATOM     31  C   UNL A   1      41.974  22.310  28.570  1.00  0.00     0.016 A 
ATOM     32  C   UNL A   1      40.830  24.295  26.955  1.00  0.00     0.010 A 
ATOM     33  C   UNL A   1      42.259  23.660  28.807  1.00  0.00     0.010 A 
ATOM     34  C   UNL A   1      41.707  24.658  27.987  1.00  0.00    -0.014 A 
BRANCH  34  35
ATOM     35  C   UNL A   1      42.144  26.072  28.123  1.00  0.00     0.031 A 
ATOM     36  C   UNL A   1      43.466  26.488  27.542  1.00  0.00     0.074 A 
ATOM     37  C   UNL A   1      41.367  26.982  28.739  1.00  0.00     0.049 A 
ATOM     38  N   UNL A   1      44.042  27.664  27.536  1.00  0.00    -0.248 NA
ATOM     39  C   UNL A   1      44.245  25.434  26.876  1.00  0.00     0.031 C 
ATOM     40  C   UNL A   1      40.059  26.713  29.329  1.00  0.00     0.029 A 
ATOM     41  N   UNL A   1      41.576  28.320  28.971  1.00  0.00    -0.354 N 
ATOM     42  C   UNL A   1      45.246  27.492  26.866  1.00  0.00     0.074 A 
ATOM     43  C   UNL A   1      45.336  26.092  26.510  1.00  0.00     0.031 C 
ATOM     44  C   UNL A   1      39.581  27.851  29.864  1.00  0.00     0.029 A 
ATOM     45  C   UNL A   1      40.560  28.920  29.675  1.00  0.00     0.049 A 
ATOM     46  H   UNL A   1      42.376  28.802  28.664  1.00  0.00     0.167 HD
ATOM     47  C   UNL A   1      46.186  28.419  26.563  1.00  0.00     0.037 A 
ATOM     48  C   UNL A   1      40.443  30.185  30.126  1.00  0.00     0.037 A 
ATOM     49  C   UNL A   1      46.104  29.811  26.924  1.00  0.00     0.049 A 
ATOM     50  C   UNL A   1      41.534  31.183  29.834  1.00  0.00     0.074 A 
ATOM     51  C   UNL A   1      46.993  30.832  26.636  1.00  0.00     0.029 A 
ATOM     52  N   UNL A   1      45.077  30.374  27.666  1.00  0.00    -0.354 N 
ATOM     53  N   UNL A   1      42.645  31.025  29.156  1.00  0.00    -0.248 NA
ATOM     54  C   UNL A   1      41.351  32.541  30.367  1.00  0.00     0.031 C 
ATOM     55  C   UNL A   1      46.532  32.001  27.249  1.00  0.00     0.029 A 
ATOM     56  C   UNL A   1      45.327  31.723  27.874  1.00  0.00     0.049 A 
ATOM     57  H   UNL A   1      44.287  29.889  27.998  1.00  0.00     0.167 HD
ATOM     58  C   UNL A   1      43.278  32.261  29.161  1.00  0.00     0.074 A 
ATOM     59  C   UNL A   1      42.420  33.166  29.895  1.00  0.00     0.031 C 
ATOM     60  C   UNL A   1      44.466  32.615  28.608  1.00  0.00     0.037 A 
BRANCH  47  61
ATOM     61  C   UNL A   1      47.403  27.950  25.820  1.00  0.00     0.064 A 
ATOM     62  C   UNL A   1      48.592  27.621  26.489  1.00  0.00     0.173 A 
ATOM     63  C   UNL A   1      47.371  27.801  24.426  1.00  0.00     0.173 A 
ATOM     64  F   UNL A   1      48.679  27.758  27.820  1.00  0.00    -0.203 F 
ATOM     65  C   UNL A   1      49.712  27.186  25.785  1.00  0.00     0.198 A 
ATOM     66  C   UNL A   1      48.484  27.339  23.728  1.00  0.00     0.198 A 
ATOM     67  F   UNL A   1      46.257  28.098  23.739  1.00  0.00    -0.203 F 
ATOM     68  F   UNL A   1      50.852  26.922  26.439  1.00  0.00    -0.200 F 
ATOM     69  C   UNL A   1      49.655  27.039  24.407  1.00  0.00     0.200 A 
ATOM     70  F   UNL A   1      48.423  27.186  22.398  1.00  0.00    -0.200 F 
ATOM     71  F   UNL A   1      50.732  26.615  23.732  1.00  0.00    -0.200 F 
ENDBRANCH  47  61
BRANCH  48  72
ATOM     72  C   UNL A   1      39.244  30.584  30.908  1.00  0.00     0.064 A 
ATOM     73  C   UNL A   1      39.188  30.392  32.296  1.00  0.00     0.173 A 
ATOM     74  C   UNL A   1      38.124  31.147  30.282  1.00  0.00     0.173 A 
ATOM     75  F   UNL A   1      40.224  29.828  32.936  1.00  0.00    -0.203 F 
ATOM     76  C   UNL A   1      38.050  30.734  33.025  1.00  0.00     0.198 A 
ATOM     77  C   UNL A   1      36.996  31.514  31.015  1.00  0.00     0.198 A 
ATOM     78  F   UNL A   1      38.123  31.344  28.956  1.00  0.00    -0.203 F 
ATOM     79  F   UNL A   1      38.005  30.495  34.342  1.00  0.00    -0.200 F 
ATOM     80  C   UNL A   1      36.958  31.300  32.385  1.00  0.00     0.200 A 
ATOM     81  F   UNL A   1      35.945  32.067  30.394  1.00  0.00    -0.200 F 
ATOM     82  F   UNL A   1      35.865  31.629  33.087  1.00  0.00    -0.200 F 
ENDBRANCH  48  72
BRANCH  60  83
ATOM     83  C   UNL A   1      44.895  34.048  28.753  1.00  0.00     0.064 A 
ATOM     84  C   UNL A   1      45.680  34.475  29.834  1.00  0.00     0.173 A 
ATOM     85  C   UNL A   1      44.545  34.998  27.781  1.00  0.00     0.173 A 
ATOM     86  F   UNL A   1      46.031  33.610  30.798  1.00  0.00    -0.203 F 
ATOM     87  C   UNL A   1      46.073  35.807  29.953  1.00  0.00     0.198 A 
ATOM     88  C   UNL A   1      44.966  36.321  27.886  1.00  0.00     0.198 A 
ATOM     89  F   UNL A   1      43.803  34.640  26.722  1.00  0.00    -0.203 F 
ATOM     90  F   UNL A   1      46.778  36.202  31.021  1.00  0.00    -0.200 F 
ATOM     91  C   UNL A   1      45.721  36.726  28.976  1.00  0.00     0.200 A 
ATOM     92  F   UNL A   1      44.636  37.205  26.934  1.00  0.00    -0.200 F 
ATOM     93  F   UNL A   1      46.104  38.006  29.089  1.00  0.00    -0.200 F 
ENDBRANCH  60  83
ENDBRANCH  34  35
ENDBRANCH  27  29
ENDBRANCH  26  27
ENDBRANCH  25  26
ENDBRANCH  24  25
ENDBRANCH  23  24
ENDBRANCH  22  23
ENDBRANCH   1  22
TORSDOF 21
ENDMDL
MODEL 2
REMARK VINA RESULT:     -10.2      1.652      7.494
REMARK SMILES COc1cc(/C=C/C(=O)OCCOCCOCCOC(=O)c2ccc(-c3c4nc(c(-c5c(F)c(F)c(F)c(F)c5F)c5ccc([nH]5)c(-c5c(F)c(F)c(F)c(F)c5F)c5nc(c(-c6c(F)c(F)c(F)c(F)c6F)c6ccc3[nH]6)C=C5)C=C4)cc2)cc(OC)c1O
REMARK SMILES IDX 14 1 13 2 12 3 11 4 10 5 8 6 9 7 7 8 6 9 5 10 3 11 4 12
REMARK SMILES IDX 89 13 86 14 85 15 2 16 1 17 90 18 87 20 88 21 15 22 16 23
REMARK SMILES IDX 17 24 18 25 19 26 20 27 21 28 22 29 23 30 84 31 24 32 83 33
REMARK SMILES IDX 25 34 26 35 27 36 77 37 28 38 82 39 76 40 78 41 29 42 81 43
REMARK SMILES IDX 75 44 74 45 30 47 62 48 42 49 61 50 43 51 46 52 60 53 79 54
REMARK SMILES IDX 44 55 45 56 59 58 80 59 47 60 31 61 32 62 40 63 33 64 34 65
REMARK SMILES IDX 38 66 41 67 35 68 36 69 39 70 37 71 63 72 64 73 72 74 65 75
REMARK SMILES IDX 66 76 70 77 73 78 67 79 68 80 71 81 69 82 48 83 49 84 57 85
REMARK SMILES IDX 50 86 51 87 55 88 58 89 52 90 53 91 56 92 54 93
REMARK H PARENT 90 19 78 46 46 57
REMARK Flexibility Score: inf
ROOT
ATOM      1  C   UNL A   1      36.288  21.778  25.816  1.00  0.00     0.188 C 
ENDROOT
BRANCH   1   2
ATOM      2  O   UNL A   1      35.372  22.866  25.852  1.00  0.00    -0.376 OA
BRANCH   2   3
ATOM      3  C   UNL A   1      34.304  22.859  26.790  1.00  0.00     0.202 C 
BRANCH   3   4
ATOM      4  C   UNL A   1      32.882  23.142  26.287  1.00  0.00     0.261 C 
BRANCH   4   5
ATOM      5  O   UNL A   1      31.962  23.593  27.298  1.00  0.00    -0.460 OA
BRANCH   5   6
ATOM      6  C   UNL A   1      30.751  23.990  26.840  1.00  0.00     0.330 C 
ATOM      7  O   UNL A   1      29.661  23.615  27.250  1.00  0.00    -0.247 OA
BRANCH   6   8
ATOM      8  C   UNL A   1      30.841  25.054  25.818  1.00  0.00     0.094 C 
ATOM      9  C   UNL A   1      29.827  25.641  25.161  1.00  0.00     0.016 C 
BRANCH   9  10
ATOM     10  C   UNL A   1      30.050  26.703  24.163  1.00  0.00    -0.018 A 
ATOM     11  C   UNL A   1      31.538  28.058  22.766  1.00  0.00     0.165 A 
ATOM     12  C   UNL A   1      31.320  26.989  23.649  1.00  0.00     0.058 A 
ATOM     13  C   UNL A   1      30.449  28.850  22.373  1.00  0.00     0.200 A 
ATOM     14  C   UNL A   1      29.153  28.537  22.816  1.00  0.00     0.165 A 
ATOM     15  C   UNL A   1      28.970  27.460  23.701  1.00  0.00     0.058 A 
BRANCH  11  16
ATOM     16  O   UNL A   1      32.860  28.193  22.435  1.00  0.00    -0.493 OA
ATOM     17  C   UNL A   1      33.697  27.047  22.393  1.00  0.00     0.278 C 
ENDBRANCH  11  16
BRANCH  13  18
ATOM     18  O   UNL A   1      30.654  29.963  21.609  1.00  0.00    -0.502 OA
ATOM     19  H   UNL A   1      29.922  30.449  21.282  1.00  0.00     0.293 HD
ENDBRANCH  13  18
BRANCH  14  20
ATOM     20  O   UNL A   1      27.978  29.183  22.533  1.00  0.00    -0.493 OA
ATOM     21  C   UNL A   1      27.720  30.442  23.137  1.00  0.00     0.278 C 
ENDBRANCH  14  20
ENDBRANCH   9  10
ENDBRANCH   6   8
ENDBRANCH   5   6
ENDBRANCH   4   5
ENDBRANCH   3   4
ENDBRANCH   2   3
ENDBRANCH   1   2
BRANCH   1  22
ATOM     22  C   UNL A   1      35.967  20.507  25.001  1.00  0.00     0.188 C 
BRANCH  22  23
ATOM     23  O   UNL A   1      37.019  19.561  24.956  1.00  0.00    -0.376 OA
BRANCH  23  24
ATOM     24  C   UNL A   1      38.339  20.077  25.041  1.00  0.00     0.202 C 
BRANCH  24  25
ATOM     25  C   UNL A   1      39.342  19.258  25.868  1.00  0.00     0.261 C 
BRANCH  25  26
ATOM     26  O   UNL A   1      40.682  19.203  25.352  1.00  0.00    -0.460 OA
BRANCH  26  27
ATOM     27  C   UNL A   1      41.691  19.233  26.247  1.00  0.00     0.338 C 
ATOM     28  O   UNL A   1      42.341  18.282  26.659  1.00  0.00    -0.246 OA
BRANCH  27  29
ATOM     29  C   UNL A   1      41.998  20.647  26.540  1.00  0.00     0.060 A 
ATOM     30  C   UNL A   1      42.036  21.568  25.485  1.00  0.00     0.016 A 
ATOM     31  C   UNL A   1      42.247  21.065  27.850  1.00  0.00     0.016 A 
ATOM     32  C   UNL A   1      42.339  22.908  25.740  1.00  0.00     0.010 A 
ATOM     33  C   UNL A   1      42.566  22.405  28.101  1.00  0.00     0.010 A 
ATOM     34  C   UNL A   1      42.636  23.329  27.044  1.00  0.00    -0.014 A 
BRANCH  34  35
ATOM     35  C   UNL A   1      43.143  24.705  27.280  1.00  0.00     0.031 A 
ATOM     36  C   UNL A   1      42.218  25.735  27.867  1.00  0.00     0.074 A 
ATOM     37  C   UNL A   1      44.416  25.034  26.995  1.00  0.00     0.049 A 
ATOM     38  N   UNL A   1      42.448  26.989  28.164  1.00  0.00    -0.248 NA
ATOM     39  C   UNL A   1      40.848  25.288  28.160  1.00  0.00     0.031 C 
ATOM     40  C   UNL A   1      45.417  24.127  26.440  1.00  0.00     0.029 A 
ATOM     41  N   UNL A   1      45.080  26.229  27.133  1.00  0.00    -0.354 N 
ATOM     42  C   UNL A   1      41.255  27.480  28.680  1.00  0.00     0.074 A 
ATOM     43  C   UNL A   1      40.294  26.398  28.624  1.00  0.00     0.031 C 
ATOM     44  C   UNL A   1      46.570  24.800  26.277  1.00  0.00     0.029 A 
ATOM     45  C   UNL A   1      46.381  26.189  26.693  1.00  0.00     0.049 A 
ATOM     46  H   UNL A   1      44.664  27.036  27.510  1.00  0.00     0.167 HD
ATOM     47  C   UNL A   1      40.989  28.715  29.168  1.00  0.00     0.037 A 
ATOM     48  C   UNL A   1      47.306  27.166  26.622  1.00  0.00     0.037 A 
ATOM     49  C   UNL A   1      41.940  29.795  29.216  1.00  0.00     0.049 A 
ATOM     50  C   UNL A   1      46.964  28.552  27.110  1.00  0.00     0.074 A 
ATOM     51  C   UNL A   1      41.770  31.073  29.720  1.00  0.00     0.029 A 
ATOM     52  N   UNL A   1      43.236  29.726  28.729  1.00  0.00    -0.354 N 
ATOM     53  N   UNL A   1      45.851  28.993  27.643  1.00  0.00    -0.248 NA
ATOM     54  C   UNL A   1      48.014  29.574  26.990  1.00  0.00     0.031 C 
ATOM     55  C   UNL A   1      42.946  31.795  29.490  1.00  0.00     0.029 A 
ATOM     56  C   UNL A   1      43.868  30.951  28.892  1.00  0.00     0.049 A 
ATOM     57  H   UNL A   1      43.648  28.928  28.327  1.00  0.00     0.167 HD
ATOM     58  C   UNL A   1      46.072  30.332  27.942  1.00  0.00     0.074 A 
ATOM     59  C   UNL A   1      47.433  30.627  27.548  1.00  0.00     0.031 C 
ATOM     60  C   UNL A   1      45.224  31.235  28.493  1.00  0.00     0.037 A 
BRANCH  47  61
ATOM     61  C   UNL A   1      39.597  28.972  29.669  1.00  0.00     0.064 A 
ATOM     62  C   UNL A   1      39.244  28.749  31.009  1.00  0.00     0.173 A 
ATOM     63  C   UNL A   1      38.612  29.475  28.806  1.00  0.00     0.173 A 
ATOM     64  F   UNL A   1      40.145  28.257  31.872  1.00  0.00    -0.203 F 
ATOM     65  C   UNL A   1      37.949  28.994  31.459  1.00  0.00     0.198 A 
ATOM     66  C   UNL A   1      37.326  29.745  29.265  1.00  0.00     0.198 A 
ATOM     67  F   UNL A   1      38.899  29.710  27.516  1.00  0.00    -0.203 F 
ATOM     68  F   UNL A   1      37.622  28.729  32.731  1.00  0.00    -0.200 F 
ATOM     69  C   UNL A   1      36.993  29.498  30.588  1.00  0.00     0.200 A 
ATOM     70  F   UNL A   1      36.408  30.244  28.426  1.00  0.00    -0.200 F 
ATOM     71  F   UNL A   1      35.749  29.738  31.024  1.00  0.00    -0.200 F 
ENDBRANCH  47  61
BRANCH  48  72
ATOM     72  C   UNL A   1      48.651  26.874  26.062  1.00  0.00     0.064 A 
ATOM     73  C   UNL A   1      48.933  27.088  24.705  1.00  0.00     0.173 A 
ATOM     74  C   UNL A   1      49.675  26.356  26.867  1.00  0.00     0.173 A 
ATOM     75  F   UNL A   1      47.976  27.552  23.888  1.00  0.00    -0.203 F 
ATOM     76  C   UNL A   1      50.183  26.780  24.172  1.00  0.00     0.198 A 
ATOM     77  C   UNL A   1      50.935  26.074  26.339  1.00  0.00     0.198 A 
ATOM     78  F   UNL A   1      49.455  26.126  28.169  1.00  0.00    -0.203 F 
ATOM     79  F   UNL A   1      50.411  26.949  22.863  1.00  0.00    -0.200 F 
ATOM     80  C   UNL A   1      51.185  26.280  24.991  1.00  0.00     0.200 A 
ATOM     81  F   UNL A   1      51.901  25.597  27.135  1.00  0.00    -0.200 F 
ATOM     82  F   UNL A   1      52.387  25.985  24.478  1.00  0.00    -0.200 F 
ENDBRANCH  48  72
BRANCH  60  83
ATOM     83  C   UNL A   1      45.749  32.623  28.727  1.00  0.00     0.064 A 
ATOM     84  C   UNL A   1      46.425  32.966  29.908  1.00  0.00     0.173 A 
ATOM     85  C   UNL A   1      45.604  33.614  27.743  1.00  0.00     0.173 A 
ATOM     86  F   UNL A   1      46.579  32.059  30.885  1.00  0.00    -0.203 F 
ATOM     87  C   UNL A   1      46.909  34.257  30.108  1.00  0.00     0.198 A 
ATOM     88  C   UNL A   1      46.117  34.895  27.934  1.00  0.00     0.198 A 
ATOM     89  F   UNL A   1      44.973  33.338  26.593  1.00  0.00    -0.203 F 
ATOM     90  F   UNL A   1      47.505  34.574  31.265  1.00  0.00    -0.200 F 
ATOM     91  C   UNL A   1      46.761  35.217  29.119  1.00  0.00     0.200 A 
ATOM     92  F   UNL A   1      45.984  35.818  26.972  1.00  0.00    -0.200 F 
ATOM     93  F   UNL A   1      47.231  36.458  29.311  1.00  0.00    -0.200 F 
ENDBRANCH  60  83
ENDBRANCH  34  35
ENDBRANCH  27  29
ENDBRANCH  26  27
ENDBRANCH  25  26
ENDBRANCH  24  25
ENDBRANCH  23  24
ENDBRANCH  22  23
ENDBRANCH   1  22
TORSDOF 21
ENDMDL
MODEL 3
REMARK VINA RESULT:     -10.1      1.816      2.610
REMARK SMILES COc1cc(/C=C/C(=O)OCCOCCOCCOC(=O)c2ccc(-c3c4nc(c(-c5c(F)c(F)c(F)c(F)c5F)c5ccc([nH]5)c(-c5c(F)c(F)c(F)c(F)c5F)c5nc(c(-c6c(F)c(F)c(F)c(F)c6F)c6ccc3[nH]6)C=C5)C=C4)cc2)cc(OC)c1O
REMARK SMILES IDX 14 1 13 2 12 3 11 4 10 5 8 6 9 7 7 8 6 9 5 10 3 11 4 12
REMARK SMILES IDX 89 13 86 14 85 15 2 16 1 17 90 18 87 20 88 21 15 22 16 23
REMARK SMILES IDX 17 24 18 25 19 26 20 27 21 28 22 29 23 30 84 31 24 32 83 33
REMARK SMILES IDX 25 34 26 35 27 36 77 37 28 38 82 39 76 40 78 41 29 42 81 43
REMARK SMILES IDX 75 44 74 45 30 47 62 48 42 49 61 50 43 51 46 52 60 53 79 54
REMARK SMILES IDX 44 55 45 56 59 58 80 59 47 60 31 61 32 62 40 63 33 64 34 65
REMARK SMILES IDX 38 66 41 67 35 68 36 69 39 70 37 71 63 72 64 73 72 74 65 75
REMARK SMILES IDX 66 76 70 77 73 78 67 79 68 80 71 81 69 82 48 83 49 84 57 85
REMARK SMILES IDX 50 86 51 87 55 88 58 89 52 90 53 91 56 92 54 93
REMARK H PARENT 90 19 78 46 46 57
REMARK Flexibility Score: inf
ROOT
ATOM      1  C   UNL A   1      35.469  21.631  24.931  1.00  0.00     0.188 C 
ENDROOT
BRANCH   1   2
ATOM      2  O   UNL A   1      34.564  22.629  24.471  1.00  0.00    -0.376 OA
BRANCH   2   3
ATOM      3  C   UNL A   1      33.438  22.254  23.689  1.00  0.00     0.202 C 
BRANCH   3   4
ATOM      4  C   UNL A   1      32.034  22.524  24.245  1.00  0.00     0.261 C 
BRANCH   4   5
ATOM      5  O   UNL A   1      31.971  22.695  25.672  1.00  0.00    -0.460 OA
BRANCH   5   6
ATOM      6  C   UNL A   1      31.208  23.731  26.096  1.00  0.00     0.330 C 
ATOM      7  O   UNL A   1      30.664  23.834  27.187  1.00  0.00    -0.247 OA
BRANCH   6   8
ATOM      8  C   UNL A   1      31.163  24.848  25.129  1.00  0.00     0.094 C 
ATOM      9  C   UNL A   1      30.538  26.028  25.276  1.00  0.00     0.016 C 
BRANCH   9  10
ATOM     10  C   UNL A   1      30.575  27.069  24.232  1.00  0.00    -0.018 A 
ATOM     11  C   UNL A   1      31.808  28.584  22.753  1.00  0.00     0.165 A 
ATOM     12  C   UNL A   1      31.775  27.533  23.683  1.00  0.00     0.058 A 
ATOM     13  C   UNL A   1      30.600  29.173  22.350  1.00  0.00     0.200 A 
ATOM     14  C   UNL A   1      29.377  28.676  22.830  1.00  0.00     0.165 A 
ATOM     15  C   UNL A   1      29.381  27.622  23.761  1.00  0.00     0.058 A 
BRANCH  11  16
ATOM     16  O   UNL A   1      33.086  28.915  22.392  1.00  0.00    -0.493 OA
ATOM     17  C   UNL A   1      34.184  28.394  23.127  1.00  0.00     0.278 C 
ENDBRANCH  11  16
BRANCH  13  18
ATOM     18  O   UNL A   1      30.613  30.271  21.538  1.00  0.00    -0.502 OA
ATOM     19  H   UNL A   1      30.896  31.100  21.873  1.00  0.00     0.293 HD
ENDBRANCH  13  18
BRANCH  14  20
ATOM     20  O   UNL A   1      28.110  29.113  22.544  1.00  0.00    -0.493 OA
ATOM     21  C   UNL A   1      27.006  28.506  23.200  1.00  0.00     0.278 C 
ENDBRANCH  14  20
ENDBRANCH   9  10
ENDBRANCH   6   8
ENDBRANCH   5   6
ENDBRANCH   4   5
ENDBRANCH   3   4
ENDBRANCH   2   3
ENDBRANCH   1   2
BRANCH   1  22
ATOM     22  C   UNL A   1      36.977  21.734  24.621  1.00  0.00     0.188 C 
BRANCH  22  23
ATOM     23  O   UNL A   1      37.725  20.586  24.972  1.00  0.00    -0.376 OA
BRANCH  23  24
ATOM     24  C   UNL A   1      39.006  20.813  25.541  1.00  0.00     0.202 C 
BRANCH  24  25
ATOM     25  C   UNL A   1      39.732  19.584  26.107  1.00  0.00     0.261 C 
BRANCH  25  26
ATOM     26  O   UNL A   1      40.922  19.182  25.406  1.00  0.00    -0.460 OA
BRANCH  26  27
ATOM     27  C   UNL A   1      42.058  19.080  26.125  1.00  0.00     0.338 C 
ATOM     28  O   UNL A   1      42.674  18.058  26.395  1.00  0.00    -0.246 OA
BRANCH  27  29
ATOM     29  C   UNL A   1      42.540  20.447  26.412  1.00  0.00     0.060 A 
ATOM     30  C   UNL A   1      42.517  20.913  27.732  1.00  0.00     0.016 A 
ATOM     31  C   UNL A   1      43.015  21.264  25.382  1.00  0.00     0.016 A 
ATOM     32  C   UNL A   1      42.955  22.208  28.021  1.00  0.00     0.010 A 
ATOM     33  C   UNL A   1      43.439  22.567  25.672  1.00  0.00     0.010 A 
ATOM     34  C   UNL A   1      43.390  23.053  26.990  1.00  0.00    -0.014 A 
BRANCH  34  35
ATOM     35  C   UNL A   1      43.672  24.484  27.275  1.00  0.00     0.031 A 
ATOM     36  C   UNL A   1      45.063  25.012  27.063  1.00  0.00     0.074 A 
ATOM     37  C   UNL A   1      42.699  25.312  27.698  1.00  0.00     0.049 A 
ATOM     38  N   UNL A   1      45.532  26.222  27.239  1.00  0.00    -0.248 NA
ATOM     39  C   UNL A   1      46.062  24.043  26.588  1.00  0.00     0.031 C 
ATOM     40  C   UNL A   1      41.307  24.931  27.926  1.00  0.00     0.029 A 
ATOM     41  N   UNL A   1      42.741  26.648  28.015  1.00  0.00    -0.354 N 
ATOM     42  C   UNL A   1      46.876  26.161  26.894  1.00  0.00     0.074 A 
ATOM     43  C   UNL A   1      47.157  24.787  26.531  1.00  0.00     0.031 C 
ATOM     44  C   UNL A   1      40.626  26.008  28.354  1.00  0.00     0.029 A 
ATOM     45  C   UNL A   1      41.539  27.147  28.453  1.00  0.00     0.049 A 
ATOM     46  H   UNL A   1      43.555  27.195  27.937  1.00  0.00     0.167 HD
ATOM     47  C   UNL A   1      47.789  27.160  26.869  1.00  0.00     0.037 A 
ATOM     48  C   UNL A   1      41.217  28.379  28.896  1.00  0.00     0.037 A 
ATOM     49  C   UNL A   1      47.515  28.525  27.237  1.00  0.00     0.049 A 
ATOM     50  C   UNL A   1      42.269  29.459  28.922  1.00  0.00     0.074 A 
ATOM     51  C   UNL A   1      48.370  29.613  27.215  1.00  0.00     0.029 A 
ATOM     52  N   UNL A   1      46.295  28.984  27.709  1.00  0.00    -0.354 N 
ATOM     53  N   UNL A   1      43.524  29.405  28.546  1.00  0.00    -0.248 NA
ATOM     54  C   UNL A   1      41.856  30.775  29.430  1.00  0.00     0.031 C 
ATOM     55  C   UNL A   1      47.682  30.721  27.724  1.00  0.00     0.029 A 
ATOM     56  C   UNL A   1      46.383  30.335  28.012  1.00  0.00     0.049 A 
ATOM     57  H   UNL A   1      45.485  28.434  27.814  1.00  0.00     0.167 HD
ATOM     58  C   UNL A   1      44.041  30.678  28.749  1.00  0.00     0.074 A 
ATOM     59  C   UNL A   1      42.959  31.490  29.265  1.00  0.00     0.031 C 
ATOM     60  C   UNL A   1      45.299  31.134  28.528  1.00  0.00     0.037 A 
BRANCH  47  61
ATOM     61  C   UNL A   1      49.187  26.806  26.448  1.00  0.00     0.064 A 
ATOM     62  C   UNL A   1      50.133  26.328  27.367  1.00  0.00     0.173 A 
ATOM     63  C   UNL A   1      49.574  26.920  25.104  1.00  0.00     0.173 A 
ATOM     64  F   UNL A   1      49.816  26.214  28.665  1.00  0.00    -0.203 F 
ATOM     65  C   UNL A   1      51.425  26.004  26.960  1.00  0.00     0.198 A 
ATOM     66  C   UNL A   1      50.858  26.568  24.696  1.00  0.00     0.198 A 
ATOM     67  F   UNL A   1      48.705  27.367  24.185  1.00  0.00    -0.203 F 
ATOM     68  F   UNL A   1      52.327  25.595  27.863  1.00  0.00    -0.200 F 
ATOM     69  C   UNL A   1      51.784  26.118  25.625  1.00  0.00     0.200 A 
ATOM     70  F   UNL A   1      51.199  26.666  23.404  1.00  0.00    -0.200 F 
ATOM     71  F   UNL A   1      53.026  25.799  25.235  1.00  0.00    -0.200 F 
ENDBRANCH  47  61
BRANCH  48  72
ATOM     72  C   UNL A   1      39.833  28.662  29.358  1.00  0.00     0.064 A 
ATOM     73  C   UNL A   1      39.446  28.411  30.681  1.00  0.00     0.173 A 
ATOM     74  C   UNL A   1      38.866  29.170  28.480  1.00  0.00     0.173 A 
ATOM     75  F   UNL A   1      40.328  27.894  31.551  1.00  0.00    -0.203 F 
ATOM     76  C   UNL A   1      38.138  28.643  31.105  1.00  0.00     0.198 A 
ATOM     77  C   UNL A   1      37.565  29.428  28.912  1.00  0.00     0.198 A 
ATOM     78  F   UNL A   1      39.183  29.420  27.202  1.00  0.00    -0.203 F 
ATOM     79  F   UNL A   1      37.782  28.349  32.363  1.00  0.00    -0.200 F 
ATOM     80  C   UNL A   1      37.201  29.158  30.222  1.00  0.00     0.200 A 
ATOM     81  F   UNL A   1      36.665  29.932  28.057  1.00  0.00    -0.200 F 
ATOM     82  F   UNL A   1      35.945  29.381  30.631  1.00  0.00    -0.200 F 
ENDBRANCH  48  72
BRANCH  60  83
ATOM     83  C   UNL A   1      45.570  32.583  28.820  1.00  0.00     0.064 A 
ATOM     84  C   UNL A   1      45.347  33.581  27.861  1.00  0.00     0.173 A 
ATOM     85  C   UNL A   1      46.028  32.981  30.086  1.00  0.00     0.173 A 
ATOM     86  F   UNL A   1      44.922  33.254  26.630  1.00  0.00    -0.203 F 
ATOM     87  C   UNL A   1      45.600  34.921  28.148  1.00  0.00     0.198 A 
ATOM     88  C   UNL A   1      46.250  34.324  30.379  1.00  0.00     0.198 A 
ATOM     89  F   UNL A   1      46.251  32.067  31.042  1.00  0.00    -0.203 F 
ATOM     90  F   UNL A   1      45.428  35.851  27.199  1.00  0.00    -0.200 F 
ATOM     91  C   UNL A   1      46.045  35.291  29.408  1.00  0.00     0.200 A 
ATOM     92  F   UNL A   1      46.667  34.680  31.602  1.00  0.00    -0.200 F 
ATOM     93  F   UNL A   1      46.284  36.581  29.684  1.00  0.00    -0.200 F 
ENDBRANCH  60  83
ENDBRANCH  34  35
ENDBRANCH  27  29
ENDBRANCH  26  27
ENDBRANCH  25  26
ENDBRANCH  24  25
ENDBRANCH  23  24
ENDBRANCH  22  23
ENDBRANCH   1  22
TORSDOF 21
ENDMDL
