MODEL 1
REMARK VINA RESULT:     -10.6      0.000      0.000
REMARK SMILES O=C(COC[C@@H]1COc2ccccc2O1)OCCOCCOCCOC(=O)c1ccc(-c2c3nc(c(-c4c(F)c(F)c(F)c(F)c4F)c4ccc([nH]4)c(-c4c(F)c(F)c(F)c(F)c4F)c4nc(c(-c5c(F)c(F)c(F)c(F)c5F)c5ccc2[nH]5)C=C4)C=C3)cc1
REMARK SMILES IDX 20 1 19 2 18 3 17 4 16 5 2 6 1 7 3 8 4 9 5 10 6 11 7 12
REMARK SMILES IDX 15 13 8 14 14 15 9 16 13 17 10 18 12 19 11 20 21 21 22 22
REMARK SMILES IDX 23 23 24 24 25 25 26 26 27 27 28 28 29 29 90 30 30 31 89 32
REMARK SMILES IDX 31 33 32 34 33 35 83 36 34 37 88 38 82 39 84 40 35 41 87 42
REMARK SMILES IDX 81 43 80 44 36 46 68 47 48 48 67 49 49 50 52 51 66 52 85 53
REMARK SMILES IDX 50 54 51 55 65 57 86 58 53 59 37 60 38 61 46 62 39 63 40 64
REMARK SMILES IDX 44 65 47 66 41 67 42 68 45 69 43 70 69 71 70 72 78 73 71 74
REMARK SMILES IDX 72 75 76 76 79 77 73 78 74 79 77 80 75 81 54 82 55 83 63 84
REMARK SMILES IDX 56 85 57 86 61 87 64 88 58 89 59 90 62 91 60 92
REMARK H PARENT 84 45 52 56
REMARK Flexibility Score: inf
ROOT
ATOM      1  C   UNL A   1      39.345  22.032  26.296  1.00  0.00     0.188 C 
ENDROOT
BRANCH   1   2
ATOM      2  O   UNL A   1      38.286  21.518  25.513  1.00  0.00    -0.376 OA
BRANCH   2   3
ATOM      3  C   UNL A   1      37.079  22.220  25.253  1.00  0.00     0.202 C 
BRANCH   3   4
ATOM      4  C   UNL A   1      36.008  21.796  24.240  1.00  0.00     0.261 C 
BRANCH   4   5
ATOM      5  O   UNL A   1      34.890  21.076  24.737  1.00  0.00    -0.462 OA
BRANCH   5   6
ATOM      6  C   UNL A   1      33.621  21.518  24.535  1.00  0.00     0.332 C 
ATOM      7  O   UNL A   1      32.846  20.800  23.910  1.00  0.00    -0.250 OA
BRANCH   6   8
ATOM      8  C   UNL A   1      33.299  22.980  24.957  1.00  0.00     0.282 C 
BRANCH   8   9
ATOM      9  O   UNL A   1      32.275  23.729  24.315  1.00  0.00    -0.366 OA
BRANCH   9  10
ATOM     10  C   UNL A   1      31.029  23.776  25.002  1.00  0.00     0.209 C 
BRANCH  10  11
ATOM     11  C   UNL A   1      30.884  24.854  26.095  1.00  0.00     0.236 C 
ATOM     12  C   UNL A   1      29.823  25.874  25.681  1.00  0.00     0.277 C 
ATOM     13  O   UNL A   1      32.109  25.505  26.470  1.00  0.00    -0.481 OA
ATOM     14  O   UNL A   1      30.268  26.654  24.561  1.00  0.00    -0.486 OA
ATOM     15  C   UNL A   1      32.370  26.654  25.773  1.00  0.00     0.161 A 
ATOM     16  C   UNL A   1      31.513  27.172  24.803  1.00  0.00     0.161 A 
ATOM     17  C   UNL A   1      33.575  27.295  26.055  1.00  0.00     0.050 A 
ATOM     18  C   UNL A   1      31.914  28.263  24.034  1.00  0.00     0.050 A 
ATOM     19  C   UNL A   1      33.954  28.420  25.322  1.00  0.00     0.004 A 
ATOM     20  C   UNL A   1      33.136  28.888  24.293  1.00  0.00     0.004 A 
ENDBRANCH  10  11
ENDBRANCH   9  10
ENDBRANCH   8   9
ENDBRANCH   6   8
ENDBRANCH   5   6
ENDBRANCH   4   5
ENDBRANCH   3   4
ENDBRANCH   2   3
ENDBRANCH   1   2
BRANCH   1  21
ATOM     21  C   UNL A   1      40.450  21.140  26.881  1.00  0.00     0.188 C 
BRANCH  21  22
ATOM     22  O   UNL A   1      41.302  20.420  26.018  1.00  0.00    -0.376 OA
BRANCH  22  23
ATOM     23  C   UNL A   1      42.704  20.511  26.219  1.00  0.00     0.202 C 
BRANCH  23  24
ATOM     24  C   UNL A   1      43.530  21.604  25.527  1.00  0.00     0.261 C 
BRANCH  24  25
ATOM     25  O   UNL A   1      42.753  22.707  25.021  1.00  0.00    -0.460 OA
BRANCH  25  26
ATOM     26  C   UNL A   1      43.394  23.901  24.998  1.00  0.00     0.338 C 
ATOM     27  O   UNL A   1      44.380  24.198  24.344  1.00  0.00    -0.246 OA
BRANCH  26  28
ATOM     28  C   UNL A   1      42.667  24.906  25.794  1.00  0.00     0.060 A 
ATOM     29  C   UNL A   1      42.945  26.263  25.571  1.00  0.00     0.016 A 
ATOM     30  C   UNL A   1      41.855  24.517  26.857  1.00  0.00     0.016 A 
ATOM     31  C   UNL A   1      42.439  27.237  26.434  1.00  0.00     0.010 A 
ATOM     32  C   UNL A   1      41.367  25.491  27.735  1.00  0.00     0.010 A 
ATOM     33  C   UNL A   1      41.684  26.850  27.549  1.00  0.00    -0.014 A 
BRANCH  33  34
ATOM     34  C   UNL A   1      41.378  27.814  28.634  1.00  0.00     0.031 A 
ATOM     35  C   UNL A   1      42.196  27.764  29.893  1.00  0.00     0.074 A 
ATOM     36  C   UNL A   1      40.358  28.682  28.534  1.00  0.00     0.049 A 
ATOM     37  N   UNL A   1      41.998  28.358  31.042  1.00  0.00    -0.248 NA
ATOM     38  C   UNL A   1      43.398  26.919  29.848  1.00  0.00     0.031 C 
ATOM     39  C   UNL A   1      39.529  28.880  27.350  1.00  0.00     0.029 A 
ATOM     40  N   UNL A   1      39.828  29.538  29.470  1.00  0.00    -0.354 N 
ATOM     41  C   UNL A   1      43.036  27.942  31.864  1.00  0.00     0.074 A 
ATOM     42  C   UNL A   1      43.858  27.040  31.084  1.00  0.00     0.031 C 
ATOM     43  C   UNL A   1      38.564  29.768  27.642  1.00  0.00     0.029 A 
ATOM     44  C   UNL A   1      38.682  30.163  29.047  1.00  0.00     0.049 A 
ATOM     45  H   UNL A   1      40.230  29.687  30.356  1.00  0.00     0.167 HD
ATOM     46  C   UNL A   1      43.276  28.272  33.155  1.00  0.00     0.037 A 
ATOM     47  C   UNL A   1      37.803  30.924  29.729  1.00  0.00     0.037 A 
ATOM     48  C   UNL A   1      42.451  29.157  33.934  1.00  0.00     0.049 A 
ATOM     49  C   UNL A   1      38.037  31.213  31.190  1.00  0.00     0.074 A 
ATOM     50  C   UNL A   1      42.618  29.562  35.247  1.00  0.00     0.029 A 
ATOM     51  N   UNL A   1      41.292  29.763  33.473  1.00  0.00    -0.354 N 
ATOM     52  N   UNL A   1      39.018  30.820  31.967  1.00  0.00    -0.248 NA
ATOM     53  C   UNL A   1      37.035  32.046  31.874  1.00  0.00     0.031 C 
ATOM     54  C   UNL A   1      41.529  30.367  35.598  1.00  0.00     0.029 A 
ATOM     55  C   UNL A   1      40.716  30.515  34.484  1.00  0.00     0.049 A 
ATOM     56  H   UNL A   1      40.931  29.673  32.561  1.00  0.00     0.167 HD
ATOM     57  C   UNL A   1      38.771  31.382  33.214  1.00  0.00     0.074 A 
ATOM     58  C   UNL A   1      37.546  32.142  33.094  1.00  0.00     0.031 C 
ATOM     59  C   UNL A   1      39.502  31.280  34.353  1.00  0.00     0.037 A 
BRANCH  46  60
ATOM     60  C   UNL A   1      44.452  27.619  33.821  1.00  0.00     0.064 A 
ATOM     61  C   UNL A   1      45.739  28.175  33.770  1.00  0.00     0.173 A 
ATOM     62  C   UNL A   1      44.286  26.410  34.515  1.00  0.00     0.173 A 
ATOM     63  F   UNL A   1      45.953  29.320  33.106  1.00  0.00    -0.203 F 
ATOM     64  C   UNL A   1      46.822  27.524  34.354  1.00  0.00     0.198 A 
ATOM     65  C   UNL A   1      45.366  25.779  35.124  1.00  0.00     0.198 A 
ATOM     66  F   UNL A   1      43.076  25.838  34.598  1.00  0.00    -0.203 F 
ATOM     67  F   UNL A   1      48.054  28.041  34.237  1.00  0.00    -0.200 F 
ATOM     68  C   UNL A   1      46.635  26.329  35.033  1.00  0.00     0.200 A 
ATOM     69  F   UNL A   1      45.181  24.631  35.790  1.00  0.00    -0.200 F 
ATOM     70  F   UNL A   1      47.681  25.703  35.589  1.00  0.00    -0.200 F 
ENDBRANCH  46  60
BRANCH  47  71
ATOM     71  C   UNL A   1      36.592  31.436  29.038  1.00  0.00     0.064 A 
ATOM     72  C   UNL A   1      35.514  30.590  28.746  1.00  0.00     0.173 A 
ATOM     73  C   UNL A   1      36.486  32.784  28.666  1.00  0.00     0.173 A 
ATOM     74  F   UNL A   1      35.581  29.287  29.056  1.00  0.00    -0.203 F 
ATOM     75  C   UNL A   1      34.375  31.074  28.105  1.00  0.00     0.198 A 
ATOM     76  C   UNL A   1      35.337  33.272  28.048  1.00  0.00     0.198 A 
ATOM     77  F   UNL A   1      37.493  33.632  28.917  1.00  0.00    -0.203 F 
ATOM     78  F   UNL A   1      33.372  30.238  27.806  1.00  0.00    -0.200 F 
ATOM     79  C   UNL A   1      34.284  32.416  27.763  1.00  0.00     0.200 A 
ATOM     80  F   UNL A   1      35.249  34.571  27.730  1.00  0.00    -0.200 F 
ATOM     81  F   UNL A   1      33.184  32.881  27.157  1.00  0.00    -0.200 F 
ENDBRANCH  47  71
BRANCH  59  82
ATOM     82  C   UNL A   1      39.034  32.047  35.557  1.00  0.00     0.064 A 
ATOM     83  C   UNL A   1      38.302  31.437  36.586  1.00  0.00     0.173 A 
ATOM     84  C   UNL A   1      39.394  33.395  35.717  1.00  0.00     0.173 A 
ATOM     85  F   UNL A   1      37.923  30.156  36.477  1.00  0.00    -0.203 F 
ATOM     86  C   UNL A   1      37.939  32.152  37.726  1.00  0.00     0.198 A 
ATOM     87  C   UNL A   1      39.052  34.098  36.870  1.00  0.00     0.198 A 
ATOM     88  F   UNL A   1      40.099  34.024  34.765  1.00  0.00    -0.203 F 
ATOM     89  F   UNL A   1      37.213  31.559  38.684  1.00  0.00    -0.200 F 
ATOM     90  C   UNL A   1      38.323  33.478  37.871  1.00  0.00     0.200 A 
ATOM     91  F   UNL A   1      39.437  35.374  37.014  1.00  0.00    -0.200 F 
ATOM     92  F   UNL A   1      37.986  34.157  38.976  1.00  0.00    -0.200 F 
ENDBRANCH  59  82
ENDBRANCH  33  34
ENDBRANCH  26  28
ENDBRANCH  25  26
ENDBRANCH  24  25
ENDBRANCH  23  24
ENDBRANCH  22  23
ENDBRANCH  21  22
ENDBRANCH   1  21
TORSDOF 20
ENDMDL
MODEL 2
REMARK VINA RESULT:     -10.4      4.296      9.394
REMARK SMILES O=C(COC[C@@H]1COc2ccccc2O1)OCCOCCOCCOC(=O)c1ccc(-c2c3nc(c(-c4c(F)c(F)c(F)c(F)c4F)c4ccc([nH]4)c(-c4c(F)c(F)c(F)c(F)c4F)c4nc(c(-c5c(F)c(F)c(F)c(F)c5F)c5ccc2[nH]5)C=C4)C=C3)cc1
REMARK SMILES IDX 20 1 19 2 18 3 17 4 16 5 2 6 1 7 3 8 4 9 5 10 6 11 7 12
REMARK SMILES IDX 15 13 8 14 14 15 9 16 13 17 10 18 12 19 11 20 21 21 22 22
REMARK SMILES IDX 23 23 24 24 25 25 26 26 27 27 28 28 29 29 90 30 30 31 89 32
REMARK SMILES IDX 31 33 32 34 33 35 83 36 34 37 88 38 82 39 84 40 35 41 87 42
REMARK SMILES IDX 81 43 80 44 36 46 68 47 48 48 67 49 49 50 52 51 66 52 85 53
REMARK SMILES IDX 50 54 51 55 65 57 86 58 53 59 37 60 38 61 46 62 39 63 40 64
REMARK SMILES IDX 44 65 47 66 41 67 42 68 45 69 43 70 69 71 70 72 78 73 71 74
REMARK SMILES IDX 72 75 76 76 79 77 73 78 74 79 77 80 75 81 54 82 55 83 63 84
REMARK SMILES IDX 56 85 57 86 61 87 64 88 58 89 59 90 62 91 60 92
REMARK H PARENT 84 45 52 56
REMARK Flexibility Score: inf
ROOT
ATOM      1  C   UNL A   1      36.752  32.501  28.505  1.00  0.00     0.188 C 
ENDROOT
BRANCH   1   2
ATOM      2  O   UNL A   1      37.144  31.296  27.879  1.00  0.00    -0.376 OA
BRANCH   2   3
ATOM      3  C   UNL A   1      36.598  30.023  28.196  1.00  0.00     0.202 C 
BRANCH   3   4
ATOM      4  C   UNL A   1      35.399  29.373  27.495  1.00  0.00     0.261 C 
BRANCH   4   5
ATOM      5  O   UNL A   1      34.162  30.068  27.540  1.00  0.00    -0.462 OA
BRANCH   5   6
ATOM      6  C   UNL A   1      33.117  29.698  26.753  1.00  0.00     0.332 C 
ATOM      7  O   UNL A   1      31.979  29.867  27.179  1.00  0.00    -0.250 OA
BRANCH   6   8
ATOM      8  C   UNL A   1      33.448  28.925  25.445  1.00  0.00     0.282 C 
BRANCH   8   9
ATOM      9  O   UNL A   1      33.112  29.449  24.168  1.00  0.00    -0.366 OA
BRANCH   9  10
ATOM     10  C   UNL A   1      32.238  28.643  23.386  1.00  0.00     0.209 C 
BRANCH  10  11
ATOM     11  C   UNL A   1      30.786  28.511  23.889  1.00  0.00     0.236 C 
ATOM     12  C   UNL A   1      29.911  27.894  22.797  1.00  0.00     0.277 C 
ATOM     13  O   UNL A   1      30.206  29.726  24.392  1.00  0.00    -0.481 OA
ATOM     14  O   UNL A   1      29.754  28.796  21.692  1.00  0.00    -0.486 OA
ATOM     15  C   UNL A   1      29.513  30.446  23.456  1.00  0.00     0.161 A 
ATOM     16  C   UNL A   1      29.353  30.030  22.134  1.00  0.00     0.161 A 
ATOM     17  C   UNL A   1      28.979  31.664  23.875  1.00  0.00     0.050 A 
ATOM     18  C   UNL A   1      28.761  30.883  21.206  1.00  0.00     0.050 A 
ATOM     19  C   UNL A   1      28.339  32.496  22.956  1.00  0.00     0.004 A 
ATOM     20  C   UNL A   1      28.254  32.118  21.616  1.00  0.00     0.004 A 
ENDBRANCH  10  11
ENDBRANCH   9  10
ENDBRANCH   8   9
ENDBRANCH   6   8
ENDBRANCH   5   6
ENDBRANCH   4   5
ENDBRANCH   3   4
ENDBRANCH   2   3
ENDBRANCH   1   2
BRANCH   1  21
ATOM     21  C   UNL A   1      35.499  33.283  28.084  1.00  0.00     0.188 C 
BRANCH  21  22
ATOM     22  O   UNL A   1      34.803  34.059  29.033  1.00  0.00    -0.376 OA
BRANCH  22  23
ATOM     23  C   UNL A   1      34.125  35.225  28.590  1.00  0.00     0.202 C 
BRANCH  23  24
ATOM     24  C   UNL A   1      32.981  35.833  29.414  1.00  0.00     0.261 C 
BRANCH  24  25
ATOM     25  O   UNL A   1      32.608  35.063  30.573  1.00  0.00    -0.460 OA
BRANCH  25  26
ATOM     26  C   UNL A   1      32.760  35.699  31.760  1.00  0.00     0.338 C 
ATOM     27  O   UNL A   1      32.083  36.611  32.202  1.00  0.00    -0.246 OA
BRANCH  26  28
ATOM     28  C   UNL A   1      33.812  35.058  32.571  1.00  0.00     0.060 A 
ATOM     29  C   UNL A   1      35.085  35.647  32.598  1.00  0.00     0.016 A 
ATOM     30  C   UNL A   1      33.598  33.811  33.153  1.00  0.00     0.016 A 
ATOM     31  C   UNL A   1      36.161  34.973  33.181  1.00  0.00     0.010 A 
ATOM     32  C   UNL A   1      34.680  33.126  33.715  1.00  0.00     0.010 A 
ATOM     33  C   UNL A   1      35.971  33.687  33.701  1.00  0.00    -0.014 A 
BRANCH  33  34
ATOM     34  C   UNL A   1      37.130  32.832  34.059  1.00  0.00     0.031 A 
ATOM     35  C   UNL A   1      37.871  33.120  35.334  1.00  0.00     0.074 A 
ATOM     36  C   UNL A   1      37.558  31.853  33.245  1.00  0.00     0.049 A 
ATOM     37  N   UNL A   1      39.015  32.650  35.760  1.00  0.00    -0.248 NA
ATOM     38  C   UNL A   1      37.232  34.078  36.249  1.00  0.00     0.031 C 
ATOM     39  C   UNL A   1      36.897  31.427  32.016  1.00  0.00     0.029 A 
ATOM     40  N   UNL A   1      38.680  31.063  33.322  1.00  0.00    -0.354 N 
ATOM     41  C   UNL A   1      39.246  33.271  36.979  1.00  0.00     0.074 A 
ATOM     42  C   UNL A   1      38.126  34.156  37.222  1.00  0.00     0.031 C 
ATOM     43  C   UNL A   1      37.648  30.480  31.428  1.00  0.00     0.029 A 
ATOM     44  C   UNL A   1      38.864  30.272  32.216  1.00  0.00     0.049 A 
ATOM     45  H   UNL A   1      39.291  31.065  34.094  1.00  0.00     0.167 HD
ATOM     46  C   UNL A   1      40.302  33.125  37.816  1.00  0.00     0.037 A 
ATOM     47  C   UNL A   1      39.915  29.508  31.858  1.00  0.00     0.037 A 
ATOM     48  C   UNL A   1      41.420  32.256  37.567  1.00  0.00     0.049 A 
ATOM     49  C   UNL A   1      41.122  29.422  32.759  1.00  0.00     0.074 A 
ATOM     50  C   UNL A   1      42.533  32.032  38.359  1.00  0.00     0.029 A 
ATOM     51  N   UNL A   1      41.576  31.477  36.430  1.00  0.00    -0.354 N 
ATOM     52  N   UNL A   1      41.340  30.009  33.911  1.00  0.00    -0.248 NA
ATOM     53  C   UNL A   1      42.234  28.574  32.303  1.00  0.00     0.031 C 
ATOM     54  C   UNL A   1      43.388  31.162  37.675  1.00  0.00     0.029 A 
ATOM     55  C   UNL A   1      42.780  30.794  36.484  1.00  0.00     0.049 A 
ATOM     56  H   UNL A   1      40.926  31.419  35.692  1.00  0.00     0.167 HD
ATOM     57  C   UNL A   1      42.592  29.577  34.332  1.00  0.00     0.074 A 
ATOM     58  C   UNL A   1      43.089  28.680  33.311  1.00  0.00     0.031 C 
ATOM     59  C   UNL A   1      43.263  29.892  35.469  1.00  0.00     0.037 A 
BRANCH  46  60
ATOM     60  C   UNL A   1      40.317  33.977  39.051  1.00  0.00     0.064 A 
ATOM     61  C   UNL A   1      39.741  33.548  40.257  1.00  0.00     0.173 A 
ATOM     62  C   UNL A   1      40.913  35.248  39.023  1.00  0.00     0.173 A 
ATOM     63  F   UNL A   1      39.146  32.348  40.331  1.00  0.00    -0.203 F 
ATOM     64  C   UNL A   1      39.726  34.376  41.376  1.00  0.00     0.198 A 
ATOM     65  C   UNL A   1      40.922  36.060  40.153  1.00  0.00     0.198 A 
ATOM     66  F   UNL A   1      41.481  35.704  37.898  1.00  0.00    -0.203 F 
ATOM     67  F   UNL A   1      39.114  33.972  42.498  1.00  0.00    -0.200 F 
ATOM     68  C   UNL A   1      40.319  35.630  41.325  1.00  0.00     0.200 A 
ATOM     69  F   UNL A   1      41.507  37.265  40.105  1.00  0.00    -0.200 F 
ATOM     70  F   UNL A   1      40.298  36.426  42.401  1.00  0.00    -0.200 F 
ENDBRANCH  46  60
BRANCH  47  71
ATOM     71  C   UNL A   1      39.885  28.789  30.559  1.00  0.00     0.064 A 
ATOM     72  C   UNL A   1      39.337  27.503  30.456  1.00  0.00     0.173 A 
ATOM     73  C   UNL A   1      40.396  29.379  29.393  1.00  0.00     0.173 A 
ATOM     74  F   UNL A   1      38.864  26.888  31.549  1.00  0.00    -0.203 F 
ATOM     75  C   UNL A   1      39.304  26.834  29.234  1.00  0.00     0.198 A 
ATOM     76  C   UNL A   1      40.338  28.718  28.168  1.00  0.00     0.198 A 
ATOM     77  F   UNL A   1      40.937  30.604  29.440  1.00  0.00    -0.203 F 
ATOM     78  F   UNL A   1      38.806  25.592  29.168  1.00  0.00    -0.200 F 
ATOM     79  C   UNL A   1      39.796  27.444  28.090  1.00  0.00     0.200 A 
ATOM     80  F   UNL A   1      40.805  29.316  27.063  1.00  0.00    -0.200 F 
ATOM     81  F   UNL A   1      39.753  26.803  26.915  1.00  0.00    -0.200 F 
ENDBRANCH  47  71
BRANCH  59  82
ATOM     82  C   UNL A   1      44.590  29.230  35.707  1.00  0.00     0.064 A 
ATOM     83  C   UNL A   1      45.796  29.818  35.302  1.00  0.00     0.173 A 
ATOM     84  C   UNL A   1      44.655  28.022  36.422  1.00  0.00     0.173 A 
ATOM     85  F   UNL A   1      45.788  30.963  34.605  1.00  0.00    -0.203 F 
ATOM     86  C   UNL A   1      47.019  29.217  35.596  1.00  0.00     0.198 A 
ATOM     87  C   UNL A   1      45.880  27.440  36.737  1.00  0.00     0.198 A 
ATOM     88  F   UNL A   1      43.531  27.421  36.838  1.00  0.00    -0.203 F 
ATOM     89  F   UNL A   1      48.159  29.781  35.172  1.00  0.00    -0.200 F 
ATOM     90  C   UNL A   1      47.060  28.035  36.321  1.00  0.00     0.200 A 
ATOM     91  F   UNL A   1      45.918  26.306  37.451  1.00  0.00    -0.200 F 
ATOM     92  F   UNL A   1      48.238  27.469  36.616  1.00  0.00    -0.200 F 
ENDBRANCH  59  82
ENDBRANCH  33  34
ENDBRANCH  26  28
ENDBRANCH  25  26
ENDBRANCH  24  25
ENDBRANCH  23  24
ENDBRANCH  22  23
ENDBRANCH  21  22
ENDBRANCH   1  21
TORSDOF 20
ENDMDL
MODEL 3
REMARK VINA RESULT:     -10.3      4.951     10.498
REMARK SMILES O=C(COC[C@@H]1COc2ccccc2O1)OCCOCCOCCOC(=O)c1ccc(-c2c3nc(c(-c4c(F)c(F)c(F)c(F)c4F)c4ccc([nH]4)c(-c4c(F)c(F)c(F)c(F)c4F)c4nc(c(-c5c(F)c(F)c(F)c(F)c5F)c5ccc2[nH]5)C=C4)C=C3)cc1
REMARK SMILES IDX 20 1 19 2 18 3 17 4 16 5 2 6 1 7 3 8 4 9 5 10 6 11 7 12
REMARK SMILES IDX 15 13 8 14 14 15 9 16 13 17 10 18 12 19 11 20 21 21 22 22
REMARK SMILES IDX 23 23 24 24 25 25 26 26 27 27 28 28 29 29 90 30 30 31 89 32
REMARK SMILES IDX 31 33 32 34 33 35 83 36 34 37 88 38 82 39 84 40 35 41 87 42
REMARK SMILES IDX 81 43 80 44 36 46 68 47 48 48 67 49 49 50 52 51 66 52 85 53
REMARK SMILES IDX 50 54 51 55 65 57 86 58 53 59 37 60 38 61 46 62 39 63 40 64
REMARK SMILES IDX 44 65 47 66 41 67 42 68 45 69 43 70 69 71 70 72 78 73 71 74
REMARK SMILES IDX 72 75 76 76 79 77 73 78 74 79 77 80 75 81 54 82 55 83 63 84
REMARK SMILES IDX 56 85 57 86 61 87 64 88 58 89 59 90 62 91 60 92
REMARK H PARENT 84 45 52 56
REMARK Flexibility Score: inf
ROOT
ATOM      1  C   UNL A   1      34.136  33.575  28.291  1.00  0.00     0.188 C 
ENDROOT
BRANCH   1   2
ATOM      2  O   UNL A   1      33.729  32.255  27.991  1.00  0.00    -0.376 OA
BRANCH   2   3
ATOM      3  C   UNL A   1      34.616  31.226  27.576  1.00  0.00     0.202 C 
BRANCH   3   4
ATOM      4  C   UNL A   1      34.205  29.792  27.221  1.00  0.00     0.261 C 
BRANCH   4   5
ATOM      5  O   UNL A   1      32.824  29.473  27.290  1.00  0.00    -0.462 OA
BRANCH   5   6
ATOM      6  C   UNL A   1      32.389  28.192  27.160  1.00  0.00     0.332 C 
ATOM      7  O   UNL A   1      31.391  27.849  27.786  1.00  0.00    -0.250 OA
BRANCH   6   8
ATOM      8  C   UNL A   1      33.295  27.208  26.366  1.00  0.00     0.282 C 
BRANCH   8   9
ATOM      9  O   UNL A   1      32.774  26.014  25.798  1.00  0.00    -0.366 OA
BRANCH   9  10
ATOM     10  C   UNL A   1      31.805  26.197  24.771  1.00  0.00     0.209 C 
BRANCH  10  11
ATOM     11  C   UNL A   1      31.920  25.272  23.542  1.00  0.00     0.236 C 
ATOM     12  C   UNL A   1      30.725  24.318  23.497  1.00  0.00     0.277 C 
ATOM     13  O   UNL A   1      33.160  24.554  23.439  1.00  0.00    -0.481 OA
ATOM     14  O   UNL A   1      30.780  23.374  24.577  1.00  0.00    -0.486 OA
ATOM     15  C   UNL A   1      33.139  23.312  24.014  1.00  0.00     0.161 A 
ATOM     16  C   UNL A   1      32.009  22.769  24.624  1.00  0.00     0.161 A 
ATOM     17  C   UNL A   1      34.335  22.595  23.994  1.00  0.00     0.050 A 
ATOM     18  C   UNL A   1      32.105  21.563  25.315  1.00  0.00     0.050 A 
ATOM     19  C   UNL A   1      34.418  21.361  24.641  1.00  0.00     0.004 A 
ATOM     20  C   UNL A   1      33.310  20.858  25.324  1.00  0.00     0.004 A 
ENDBRANCH  10  11
ENDBRANCH   9  10
ENDBRANCH   8   9
ENDBRANCH   6   8
ENDBRANCH   5   6
ENDBRANCH   4   5
ENDBRANCH   3   4
ENDBRANCH   2   3
ENDBRANCH   1   2
BRANCH   1  21
ATOM     21  C   UNL A   1      33.138  34.694  28.622  1.00  0.00     0.188 C 
BRANCH  21  22
ATOM     22  O   UNL A   1      32.690  34.866  29.948  1.00  0.00    -0.376 OA
BRANCH  22  23
ATOM     23  C   UNL A   1      33.597  35.382  30.910  1.00  0.00     0.202 C 
BRANCH  23  24
ATOM     24  C   UNL A   1      34.257  34.459  31.944  1.00  0.00     0.261 C 
BRANCH  24  25
ATOM     25  O   UNL A   1      35.014  33.373  31.377  1.00  0.00    -0.460 OA
BRANCH  25  26
ATOM     26  C   UNL A   1      35.650  32.583  32.276  1.00  0.00     0.338 C 
ATOM     27  O   UNL A   1      35.439  32.509  33.475  1.00  0.00    -0.246 OA
BRANCH  26  28
ATOM     28  C   UNL A   1      36.595  31.672  31.604  1.00  0.00     0.060 A 
ATOM     29  C   UNL A   1      37.277  30.725  32.382  1.00  0.00     0.016 A 
ATOM     30  C   UNL A   1      36.931  31.862  30.265  1.00  0.00     0.016 A 
ATOM     31  C   UNL A   1      38.325  29.984  31.830  1.00  0.00     0.010 A 
ATOM     32  C   UNL A   1      37.996  31.136  29.721  1.00  0.00     0.010 A 
ATOM     33  C   UNL A   1      38.719  30.220  30.508  1.00  0.00    -0.014 A 
BRANCH  33  34
ATOM     34  C   UNL A   1      39.994  29.673  29.984  1.00  0.00     0.031 A 
ATOM     35  C   UNL A   1      41.174  30.594  29.853  1.00  0.00     0.074 A 
ATOM     36  C   UNL A   1      40.095  28.397  29.576  1.00  0.00     0.049 A 
ATOM     37  N   UNL A   1      42.318  30.405  29.247  1.00  0.00    -0.248 NA
ATOM     38  C   UNL A   1      41.036  31.913  30.488  1.00  0.00     0.031 C 
ATOM     39  C   UNL A   1      39.054  27.384  29.706  1.00  0.00     0.029 A 
ATOM     40  N   UNL A   1      41.125  27.751  28.934  1.00  0.00    -0.354 N 
ATOM     41  C   UNL A   1      43.028  31.587  29.408  1.00  0.00     0.074 A 
ATOM     42  C   UNL A   1      42.183  32.489  30.162  1.00  0.00     0.031 C 
ATOM     43  C   UNL A   1      39.479  26.250  29.120  1.00  0.00     0.029 A 
ATOM     44  C   UNL A   1      40.802  26.477  28.535  1.00  0.00     0.049 A 
ATOM     45  H   UNL A   1      42.006  28.160  28.775  1.00  0.00     0.167 HD
ATOM     46  C   UNL A   1      44.267  31.898  28.957  1.00  0.00     0.037 A 
ATOM     47  C   UNL A   1      41.474  25.616  27.747  1.00  0.00     0.037 A 
ATOM     48  C   UNL A   1      45.100  31.006  28.196  1.00  0.00     0.049 A 
ATOM     49  C   UNL A   1      42.815  26.008  27.180  1.00  0.00     0.074 A 
ATOM     50  C   UNL A   1      46.375  31.225  27.703  1.00  0.00     0.029 A 
ATOM     51  N   UNL A   1      44.734  29.728  27.803  1.00  0.00    -0.354 N 
ATOM     52  N   UNL A   1      43.486  27.124  27.332  1.00  0.00    -0.248 NA
ATOM     53  C   UNL A   1      43.491  25.020  26.324  1.00  0.00     0.031 C 
ATOM     54  C   UNL A   1      46.757  30.100  26.963  1.00  0.00     0.029 A 
ATOM     55  C   UNL A   1      45.745  29.156  27.048  1.00  0.00     0.049 A 
ATOM     56  H   UNL A   1      43.880  29.290  28.027  1.00  0.00     0.167 HD
ATOM     57  C   UNL A   1      44.670  26.962  26.622  1.00  0.00     0.074 A 
ATOM     58  C   UNL A   1      44.627  25.640  26.036  1.00  0.00     0.031 C 
ATOM     59  C   UNL A   1      45.701  27.832  26.479  1.00  0.00     0.037 A 
BRANCH  46  60
ATOM     60  C   UNL A   1      44.765  33.287  29.229  1.00  0.00     0.064 A 
ATOM     61  C   UNL A   1      44.517  34.351  28.348  1.00  0.00     0.173 A 
ATOM     62  C   UNL A   1      45.512  33.554  30.387  1.00  0.00     0.173 A 
ATOM     63  F   UNL A   1      43.822  34.145  27.220  1.00  0.00    -0.203 F 
ATOM     64  C   UNL A   1      45.032  35.620  28.598  1.00  0.00     0.198 A 
ATOM     65  C   UNL A   1      45.998  34.831  30.648  1.00  0.00     0.198 A 
ATOM     66  F   UNL A   1      45.774  32.574  31.264  1.00  0.00    -0.203 F 
ATOM     67  F   UNL A   1      44.837  36.607  27.711  1.00  0.00    -0.200 F 
ATOM     68  C   UNL A   1      45.769  35.861  29.749  1.00  0.00     0.200 A 
ATOM     69  F   UNL A   1      46.699  35.064  31.767  1.00  0.00    -0.200 F 
ATOM     70  F   UNL A   1      46.268  37.081  29.984  1.00  0.00    -0.200 F 
ENDBRANCH  46  60
BRANCH  47  71
ATOM     71  C   UNL A   1      40.864  24.303  27.415  1.00  0.00     0.064 A 
ATOM     72  C   UNL A   1      39.793  24.209  26.516  1.00  0.00     0.173 A 
ATOM     73  C   UNL A   1      41.347  23.115  27.984  1.00  0.00     0.173 A 
ATOM     74  F   UNL A   1      39.278  25.321  25.971  1.00  0.00    -0.203 F 
ATOM     75  C   UNL A   1      39.227  22.976  26.201  1.00  0.00     0.198 A 
ATOM     76  C   UNL A   1      40.797  21.880  27.648  1.00  0.00     0.198 A 
ATOM     77  F   UNL A   1      42.366  23.152  28.855  1.00  0.00    -0.203 F 
ATOM     78  F   UNL A   1      38.182  22.916  25.365  1.00  0.00    -0.200 F 
ATOM     79  C   UNL A   1      39.734  21.812  26.760  1.00  0.00     0.200 A 
ATOM     80  F   UNL A   1      41.297  20.758  28.182  1.00  0.00    -0.200 F 
ATOM     81  F   UNL A   1      39.195  20.626  26.446  1.00  0.00    -0.200 F 
ENDBRANCH  47  71
BRANCH  59  82
ATOM     82  C   UNL A   1      46.901  27.375  25.698  1.00  0.00     0.064 A 
ATOM     83  C   UNL A   1      47.033  27.627  24.326  1.00  0.00     0.173 A 
ATOM     84  C   UNL A   1      47.969  26.743  26.356  1.00  0.00     0.173 A 
ATOM     85  F   UNL A   1      46.038  28.216  23.648  1.00  0.00    -0.203 F 
ATOM     86  C   UNL A   1      48.187  27.254  23.638  1.00  0.00     0.198 A 
ATOM     87  C   UNL A   1      49.131  26.396  25.670  1.00  0.00     0.198 A 
ATOM     88  F   UNL A   1      47.896  26.484  27.670  1.00  0.00    -0.203 F 
ATOM     89  F   UNL A   1      48.280  27.478  22.319  1.00  0.00    -0.200 F 
ATOM     90  C   UNL A   1      49.237  26.649  24.312  1.00  0.00     0.200 A 
ATOM     91  F   UNL A   1      50.150  25.825  26.327  1.00  0.00    -0.200 F 
ATOM     92  F   UNL A   1      50.351  26.307  23.651  1.00  0.00    -0.200 F 
ENDBRANCH  59  82
ENDBRANCH  33  34
ENDBRANCH  26  28
ENDBRANCH  25  26
ENDBRANCH  24  25
ENDBRANCH  23  24
ENDBRANCH  22  23
ENDBRANCH  21  22
ENDBRANCH   1  21
TORSDOF 20
ENDMDL
