MODEL 1
REMARK VINA RESULT:     -12.5      0.000      0.000
REMARK SMILES Cc1ccccc1OCC(=O)N[C@@H](Cc1c[nH]c2ccccc12)C(=O)OCCOCCOCCOC(=O)c1ccc(-c2c3nc(c(-c4c(F)c(F)c(F)c(F)c4F)c4ccc([nH]4)c(-c4c(F)c(F)c(F)c(F)c4F)c4nc(c(-c5c(F)c(F)c(F)c(F)c5F)c5ccc2[nH]5)C=C4)C=C3)cc1
REMARK SMILES IDX 30 1 29 2 28 3 27 4 26 5 24 6 25 7 13 8 12 9 10 10 11 11
REMARK SMILES IDX 9 13 8 14 7 15 1 16 2 17 3 18 4 19 6 20 5 21 14 22 15 23
REMARK SMILES IDX 16 24 23 25 17 26 18 27 22 28 19 30 21 31 20 32 31 33 32 34
REMARK SMILES IDX 33 35 34 36 35 37 36 38 37 39 38 40 39 41 100 42 40 43 99 44
REMARK SMILES IDX 41 45 42 46 43 47 93 48 44 49 98 50 92 51 94 52 45 53 97 54
REMARK SMILES IDX 91 55 90 56 46 58 78 59 58 60 77 61 59 62 62 63 76 64 95 65
REMARK SMILES IDX 60 66 61 67 75 69 96 70 63 71 47 72 48 73 56 74 49 75 50 76
REMARK SMILES IDX 54 77 57 78 51 79 52 80 55 81 53 82 79 83 80 84 88 85 81 86
REMARK SMILES IDX 82 87 86 88 89 89 83 90 84 91 87 92 85 93 64 94 65 95 73 96
REMARK SMILES IDX 66 97 67 98 71 99 74 100 68 101 69 102 72 103 70 104
REMARK H PARENT 12 12 17 29 94 57 62 68
REMARK Flexibility Score: inf
ROOT
ATOM      1  C   UNL A   1      33.970  32.419  28.059  1.00  0.00     0.188 C 
ENDROOT
BRANCH   1   2
ATOM      2  O   UNL A   1      33.171  31.348  27.638  1.00  0.00    -0.376 OA
BRANCH   2   3
ATOM      3  C   UNL A   1      32.055  31.776  26.903  1.00  0.00     0.202 C 
BRANCH   3   4
ATOM      4  C   UNL A   1      31.400  30.799  25.891  1.00  0.00     0.261 C 
BRANCH   4   5
ATOM      5  O   UNL A   1      31.666  28.987  25.790  1.00  0.00    -0.462 OA
BRANCH   5   6
ATOM      6  C   UNL A   1      32.134  27.771  26.506  1.00  0.00     0.329 C 
ATOM      7  O   UNL A   1      32.803  27.865  27.535  1.00  0.00    -0.250 OA
BRANCH   6   8
ATOM      8  C   UNL A   1      31.943  26.122  26.222  1.00  0.00     0.196 C 
BRANCH   8   9
ATOM      9  N   UNL A   1      30.852  25.156  26.489  1.00  0.00    -0.339 N 
ATOM     10  C   UNL A   1      30.798  23.797  26.470  1.00  0.00     0.258 C 
ATOM     11  O   UNL A   1      30.248  23.237  27.422  1.00  0.00    -0.271 OA
ATOM     12  H   UNL A   1      29.996  25.581  26.726  1.00  0.00     0.164 HD
BRANCH  10  13
ATOM     13  C   UNL A   1      31.191  22.990  25.253  1.00  0.00     0.329 C 
BRANCH  13  14
ATOM     14  O   UNL A   1      32.388  22.242  25.426  1.00  0.00    -0.484 OA
BRANCH  14  15
ATOM     15  C   UNL A   1      32.516  21.010  24.831  1.00  0.00     0.122 A 
ATOM     16  C   UNL A   1      32.110  21.560  22.300  1.00  0.00     0.048 C 
ATOM     17  C   UNL A   1      32.344  20.652  23.478  1.00  0.00    -0.009 A 
ATOM     18  C   UNL A   1      32.414  19.284  23.135  1.00  0.00     0.007 A 
ATOM     19  C   UNL A   1      32.606  18.293  24.094  1.00  0.00     0.001 A 
ATOM     20  C   UNL A   1      32.766  20.002  25.777  1.00  0.00     0.047 A 
ATOM     21  C   UNL A   1      32.799  18.655  25.418  1.00  0.00     0.004 A 
ENDBRANCH  14  15
ENDBRANCH  13  14
ENDBRANCH  10  13
ENDBRANCH   8   9
BRANCH   8  22
ATOM     22  C   UNL A   1      32.502  25.741  24.729  1.00  0.00     0.074 C 
BRANCH  22  23
ATOM     23  C   UNL A   1      32.131  26.671  23.599  1.00  0.00    -0.020 A 
ATOM     24  C   UNL A   1      33.112  27.910  22.858  1.00  0.00     0.087 A 
ATOM     25  C   UNL A   1      30.303  27.088  23.159  1.00  0.00     0.003 A 
ATOM     26  N   UNL A   1      32.140  29.375  22.186  1.00  0.00    -0.361 N 
ATOM     27  C   UNL A   1      30.333  29.017  22.333  1.00  0.00     0.046 A 
ATOM     28  C   UNL A   1      28.758  26.446  23.806  1.00  0.00     0.010 A 
ATOM     29  H   UNL A   1      32.531  30.199  21.814  1.00  0.00     0.166 HD
ATOM     30  C   UNL A   1      28.748  29.930  22.380  1.00  0.00     0.026 A 
ATOM     31  C   UNL A   1      27.327  27.453  23.732  1.00  0.00     0.001 A 
ATOM     32  C   UNL A   1      27.312  29.092  23.066  1.00  0.00     0.002 A 
ENDBRANCH  22  23
ENDBRANCH   8  22
ENDBRANCH   6   8
ENDBRANCH   5   6
ENDBRANCH   4   5
ENDBRANCH   3   4
ENDBRANCH   2   3
ENDBRANCH   1   2
BRANCH   1  33
ATOM     33  C   UNL A   1      33.365  33.783  27.850  1.00  0.00     0.188 C 
BRANCH  33  34
ATOM     34  O   UNL A   1      33.240  34.586  29.002  1.00  0.00    -0.376 OA
BRANCH  34  35
ATOM     35  C   UNL A   1      33.193  35.995  29.079  1.00  0.00     0.202 C 
BRANCH  35  36
ATOM     36  C   UNL A   1      32.555  36.308  30.365  1.00  0.00     0.261 C 
BRANCH  36  37
ATOM     37  O   UNL A   1      33.496  36.944  31.306  1.00  0.00    -0.460 OA
BRANCH  37  38
ATOM     38  C   UNL A   1      33.930  36.491  32.531  1.00  0.00     0.338 C 
ATOM     39  O   UNL A   1      33.934  37.270  33.487  1.00  0.00    -0.246 OA
BRANCH  38  40
ATOM     40  C   UNL A   1      34.509  35.091  32.729  1.00  0.00     0.060 A 
ATOM     41  C   UNL A   1      35.049  34.850  33.965  1.00  0.00     0.016 A 
ATOM     42  C   UNL A   1      34.828  34.114  31.779  1.00  0.00     0.016 A 
ATOM     43  C   UNL A   1      35.990  33.815  34.114  1.00  0.00     0.010 A 
ATOM     44  C   UNL A   1      36.028  33.303  31.933  1.00  0.00     0.010 A 
ATOM     45  C   UNL A   1      36.809  33.410  33.082  1.00  0.00    -0.014 A 
BRANCH  45  46
ATOM     46  C   UNL A   1      38.399  32.999  33.330  1.00  0.00     0.031 A 
ATOM     47  C   UNL A   1      38.105  31.263  33.062  1.00  0.00     0.074 A 
ATOM     48  C   UNL A   1      39.683  33.555  34.132  1.00  0.00     0.049 A 
ATOM     49  N   UNL A   1      39.317  29.862  33.045  1.00  0.00    -0.248 NA
ATOM     50  C   UNL A   1      36.648  30.437  31.979  1.00  0.00     0.031 C 
ATOM     51  C   UNL A   1      41.201  33.644  33.761  1.00  0.00     0.029 A 
ATOM     52  N   UNL A   1      39.942  34.470  35.284  1.00  0.00    -0.354 N 
ATOM     53  C   UNL A   1      39.191  28.615  32.073  1.00  0.00     0.074 A 
ATOM     54  C   UNL A   1      37.436  28.818  31.512  1.00  0.00     0.031 C 
ATOM     55  C   UNL A   1      41.976  34.084  34.806  1.00  0.00     0.029 A 
ATOM     56  C   UNL A   1      41.147  34.433  35.936  1.00  0.00     0.049 A 
ATOM     57  H   UNL A   1      39.246  35.101  35.576  1.00  0.00     0.167 HD
ATOM     58  C   UNL A   1      40.453  28.540  31.442  1.00  0.00     0.037 A 
ATOM     59  C   UNL A   1      41.309  34.265  37.295  1.00  0.00     0.037 A 
ATOM     60  C   UNL A   1      41.599  29.285  32.264  1.00  0.00     0.049 A 
ATOM     61  C   UNL A   1      41.936  32.880  37.392  1.00  0.00     0.074 A 
ATOM     62  C   UNL A   1      42.479  30.353  31.997  1.00  0.00     0.029 A 
ATOM     63  N   UNL A   1      41.647  29.206  33.679  1.00  0.00    -0.354 N 
ATOM     64  N   UNL A   1      41.868  31.990  36.427  1.00  0.00    -0.248 NA
ATOM     65  C   UNL A   1      42.814  32.467  38.470  1.00  0.00     0.031 C 
ATOM     66  C   UNL A   1      43.043  30.858  33.231  1.00  0.00     0.029 A 
ATOM     67  C   UNL A   1      42.577  30.084  34.283  1.00  0.00     0.049 A 
ATOM     68  H   UNL A   1      41.079  28.591  34.197  1.00  0.00     0.167 HD
ATOM     69  C   UNL A   1      42.748  30.965  36.634  1.00  0.00     0.074 A 
ATOM     70  C   UNL A   1      43.320  31.340  37.934  1.00  0.00     0.031 C 
ATOM     71  C   UNL A   1      42.958  29.936  35.725  1.00  0.00     0.037 A 
BRANCH  58  72
ATOM     72  C   UNL A   1      40.664  28.276  29.953  1.00  0.00     0.064 A 
ATOM     73  C   UNL A   1      39.952  29.033  28.993  1.00  0.00     0.173 A 
ATOM     74  C   UNL A   1      41.509  27.297  29.393  1.00  0.00     0.173 A 
ATOM     75  F   UNL A   1      39.118  30.017  29.351  1.00  0.00    -0.203 F 
ATOM     76  C   UNL A   1      40.082  28.834  27.615  1.00  0.00     0.198 A 
ATOM     77  C   UNL A   1      41.611  27.070  28.016  1.00  0.00     0.198 A 
ATOM     78  F   UNL A   1      42.313  26.539  30.137  1.00  0.00    -0.203 F 
ATOM     79  F   UNL A   1      39.399  29.613  26.766  1.00  0.00    -0.200 F 
ATOM     80  C   UNL A   1      40.918  27.856  27.124  1.00  0.00     0.200 A 
ATOM     81  F   UNL A   1      42.409  26.093  27.561  1.00  0.00    -0.200 F 
ATOM     82  F   UNL A   1      41.081  27.695  25.805  1.00  0.00    -0.200 F 
ENDBRANCH  58  72
BRANCH  59  83
ATOM     83  C   UNL A   1      40.297  34.875  38.305  1.00  0.00     0.064 A 
ATOM     84  C   UNL A   1      39.185  34.108  38.727  1.00  0.00     0.173 A 
ATOM     85  C   UNL A   1      40.575  35.988  39.123  1.00  0.00     0.173 A 
ATOM     86  F   UNL A   1      38.758  33.080  37.979  1.00  0.00    -0.203 F 
ATOM     87  C   UNL A   1      38.574  34.293  39.982  1.00  0.00     0.198 A 
ATOM     88  C   UNL A   1      40.113  36.039  40.457  1.00  0.00     0.198 A 
ATOM     89  F   UNL A   1      41.483  36.902  38.748  1.00  0.00    -0.203 F 
ATOM     90  F   UNL A   1      37.623  33.440  40.398  1.00  0.00    -0.200 F 
ATOM     91  C   UNL A   1      39.129  35.176  40.893  1.00  0.00     0.200 A 
ATOM     92  F   UNL A   1      40.767  36.786  41.366  1.00  0.00    -0.200 F 
ATOM     93  F   UNL A   1      38.839  35.077  42.202  1.00  0.00    -0.200 F 
ENDBRANCH  59  83
BRANCH  71  94
ATOM     94  C   UNL A   1      43.630  28.602  36.052  1.00  0.00     0.064 A 
ATOM     95  C   UNL A   1      45.005  28.348  36.059  1.00  0.00     0.173 A 
ATOM     96  C   UNL A   1      42.849  27.492  36.493  1.00  0.00     0.173 A 
ATOM     97  F   UNL A   1      45.921  29.256  35.739  1.00  0.00    -0.203 F 
ATOM     98  C   UNL A   1      45.536  27.114  36.435  1.00  0.00     0.198 A 
ATOM     99  C   UNL A   1      43.385  26.315  36.984  1.00  0.00     0.198 A 
ATOM    100  F   UNL A   1      41.516  27.448  36.447  1.00  0.00    -0.203 F 
ATOM    101  F   UNL A   1      46.856  26.919  36.328  1.00  0.00    -0.200 F 
ATOM    102  C   UNL A   1      44.733  26.111  36.927  1.00  0.00     0.200 A 
ATOM    103  F   UNL A   1      42.564  25.385  37.487  1.00  0.00    -0.200 F 
ATOM    104  F   UNL A   1      45.253  24.948  37.329  1.00  0.00    -0.200 F 
ENDBRANCH  71  94
ENDBRANCH  45  46
ENDBRANCH  38  40
ENDBRANCH  37  38
ENDBRANCH  36  37
ENDBRANCH  35  36
ENDBRANCH  34  35
ENDBRANCH  33  34
ENDBRANCH   1  33
TORSDOF 23
ENDMDL
MODEL 2
REMARK VINA RESULT:     -12.4      5.659      7.463
REMARK SMILES Cc1ccccc1OCC(=O)N[C@@H](Cc1c[nH]c2ccccc12)C(=O)OCCOCCOCCOC(=O)c1ccc(-c2c3nc(c(-c4c(F)c(F)c(F)c(F)c4F)c4ccc([nH]4)c(-c4c(F)c(F)c(F)c(F)c4F)c4nc(c(-c5c(F)c(F)c(F)c(F)c5F)c5ccc2[nH]5)C=C4)C=C3)cc1
REMARK SMILES IDX 30 1 29 2 28 3 27 4 26 5 24 6 25 7 13 8 12 9 10 10 11 11
REMARK SMILES IDX 9 13 8 14 7 15 1 16 2 17 3 18 4 19 6 20 5 21 14 22 15 23
REMARK SMILES IDX 16 24 23 25 17 26 18 27 22 28 19 30 21 31 20 32 31 33 32 34
REMARK SMILES IDX 33 35 34 36 35 37 36 38 37 39 38 40 39 41 100 42 40 43 99 44
REMARK SMILES IDX 41 45 42 46 43 47 93 48 44 49 98 50 92 51 94 52 45 53 97 54
REMARK SMILES IDX 91 55 90 56 46 58 78 59 58 60 77 61 59 62 62 63 76 64 95 65
REMARK SMILES IDX 60 66 61 67 75 69 96 70 63 71 47 72 48 73 56 74 49 75 50 76
REMARK SMILES IDX 54 77 57 78 51 79 52 80 55 81 53 82 79 83 80 84 88 85 81 86
REMARK SMILES IDX 82 87 86 88 89 89 83 90 84 91 87 92 85 93 64 94 65 95 73 96
REMARK SMILES IDX 66 97 67 98 71 99 74 100 68 101 69 102 72 103 70 104
REMARK H PARENT 12 12 17 29 94 57 62 68
REMARK Flexibility Score: inf
ROOT
ATOM      1  C   UNL A   1      34.917  31.343  27.847  1.00  0.00     0.188 C 
ENDROOT
BRANCH   1   2
ATOM      2  O   UNL A   1      33.631  30.791  27.910  1.00  0.00    -0.376 OA
BRANCH   2   3
ATOM      3  C   UNL A   1      32.780  31.318  26.927  1.00  0.00     0.202 C 
BRANCH   3   4
ATOM      4  C   UNL A   1      31.809  30.363  26.181  1.00  0.00     0.261 C 
BRANCH   4   5
ATOM      5  O   UNL A   1      31.655  28.552  26.424  1.00  0.00    -0.462 OA
BRANCH   5   6
ATOM      6  C   UNL A   1      32.330  27.233  26.303  1.00  0.00     0.329 C 
ATOM      7  O   UNL A   1      33.531  27.117  26.544  1.00  0.00    -0.250 OA
BRANCH   6   8
ATOM      8  C   UNL A   1      31.786  25.695  25.880  1.00  0.00     0.196 C 
BRANCH   8   9
ATOM      9  N   UNL A   1      30.545  24.936  26.154  1.00  0.00    -0.339 N 
ATOM     10  C   UNL A   1      30.316  23.666  26.583  1.00  0.00     0.258 C 
ATOM     11  O   UNL A   1      29.487  23.510  27.483  1.00  0.00    -0.271 OA
ATOM     12  H   UNL A   1      29.721  25.452  25.994  1.00  0.00     0.164 HD
BRANCH  10  13
ATOM     13  C   UNL A   1      30.874  22.459  25.863  1.00  0.00     0.329 C 
BRANCH  13  14
ATOM     14  O   UNL A   1      31.935  21.818  26.562  1.00  0.00    -0.484 OA
BRANCH  14  15
ATOM     15  C   UNL A   1      33.127  21.577  25.923  1.00  0.00     0.122 A 
ATOM     16  C   UNL A   1      32.869  19.080  25.169  1.00  0.00     0.048 C 
ATOM     17  C   UNL A   1      33.606  20.380  25.352  1.00  0.00    -0.009 A 
ATOM     18  C   UNL A   1      34.929  20.357  24.856  1.00  0.00     0.007 A 
ATOM     19  C   UNL A   1      35.769  21.463  24.954  1.00  0.00     0.001 A 
ATOM     20  C   UNL A   1      33.971  22.699  25.962  1.00  0.00     0.047 A 
ATOM     21  C   UNL A   1      35.283  22.643  25.494  1.00  0.00     0.004 A 
ENDBRANCH  14  15
ENDBRANCH  13  14
ENDBRANCH  10  13
ENDBRANCH   8   9
BRANCH   8  22
ATOM     22  C   UNL A   1      32.145  25.386  24.311  1.00  0.00     0.074 C 
BRANCH  22  23
ATOM     23  C   UNL A   1      31.944  26.511  23.325  1.00  0.00    -0.020 A 
ATOM     24  C   UNL A   1      33.124  27.663  22.751  1.00  0.00     0.087 A 
ATOM     25  C   UNL A   1      30.214  27.281  22.971  1.00  0.00     0.003 A 
ATOM     26  N   UNL A   1      32.413  29.347  22.300  1.00  0.00    -0.361 N 
ATOM     27  C   UNL A   1      30.571  29.274  22.420  1.00  0.00     0.046 A 
ATOM     28  C   UNL A   1      28.578  26.819  23.543  1.00  0.00     0.010 A 
ATOM     29  H   UNL A   1      32.938  30.138  22.041  1.00  0.00     0.166 HD
ATOM     30  C   UNL A   1      29.158  30.420  22.613  1.00  0.00     0.026 A 
ATOM     31  C   UNL A   1      27.334  28.048  23.628  1.00  0.00     0.001 A 
ATOM     32  C   UNL A   1      27.597  29.744  23.196  1.00  0.00     0.002 A 
ENDBRANCH  22  23
ENDBRANCH   8  22
ENDBRANCH   6   8
ENDBRANCH   5   6
ENDBRANCH   4   5
ENDBRANCH   3   4
ENDBRANCH   2   3
ENDBRANCH   1   2
BRANCH   1  33
ATOM     33  C   UNL A   1      34.969  32.846  27.940  1.00  0.00     0.188 C 
BRANCH  33  34
ATOM     34  O   UNL A   1      35.251  33.377  29.215  1.00  0.00    -0.376 OA
BRANCH  34  35
ATOM     35  C   UNL A   1      34.403  34.140  30.046  1.00  0.00     0.202 C 
BRANCH  35  36
ATOM     36  C   UNL A   1      34.813  33.841  31.425  1.00  0.00     0.261 C 
BRANCH  36  37
ATOM     37  O   UNL A   1      35.851  34.772  31.904  1.00  0.00    -0.460 OA
BRANCH  37  38
ATOM     38  C   UNL A   1      36.838  34.558  32.840  1.00  0.00     0.338 C 
ATOM     39  O   UNL A   1      36.706  35.041  33.966  1.00  0.00    -0.246 OA
BRANCH  38  40
ATOM     40  C   UNL A   1      38.141  33.834  32.505  1.00  0.00     0.060 A 
ATOM     41  C   UNL A   1      39.284  34.563  32.704  1.00  0.00     0.016 A 
ATOM     42  C   UNL A   1      38.347  32.660  31.770  1.00  0.00     0.016 A 
ATOM     43  C   UNL A   1      40.459  34.200  32.020  1.00  0.00     0.010 A 
ATOM     44  C   UNL A   1      39.481  32.551  30.862  1.00  0.00     0.010 A 
ATOM     45  C   UNL A   1      40.433  33.565  30.797  1.00  0.00    -0.014 A 
BRANCH  45  46
ATOM     46  C   UNL A   1      41.514  33.935  29.592  1.00  0.00     0.031 A 
ATOM     47  C   UNL A   1      42.599  32.583  30.000  1.00  0.00     0.074 A 
ATOM     48  C   UNL A   1      42.000  35.225  28.755  1.00  0.00     0.049 A 
ATOM     49  N   UNL A   1      44.158  32.042  29.159  1.00  0.00    -0.248 NA
ATOM     50  C   UNL A   1      42.111  30.872  30.901  1.00  0.00     0.031 C 
ATOM     51  C   UNL A   1      42.360  35.429  27.244  1.00  0.00     0.029 A 
ATOM     52  N   UNL A   1      41.970  36.710  28.916  1.00  0.00    -0.354 N 
ATOM     53  C   UNL A   1      44.586  30.521  29.018  1.00  0.00     0.074 A 
ATOM     54  C   UNL A   1      43.444  29.747  30.256  1.00  0.00     0.031 C 
ATOM     55  C   UNL A   1      42.851  36.684  26.982  1.00  0.00     0.029 A 
ATOM     56  C   UNL A   1      42.807  37.501  28.173  1.00  0.00     0.049 A 
ATOM     57  H   UNL A   1      41.348  37.122  29.558  1.00  0.00     0.167 HD
ATOM     58  C   UNL A   1      44.842  30.361  27.637  1.00  0.00     0.037 A 
ATOM     59  C   UNL A   1      43.674  38.442  28.688  1.00  0.00     0.037 A 
ATOM     60  C   UNL A   1      45.137  31.744  26.899  1.00  0.00     0.049 A 
ATOM     61  C   UNL A   1      45.041  37.831  28.406  1.00  0.00     0.074 A 
ATOM     62  C   UNL A   1      44.537  32.452  25.838  1.00  0.00     0.029 A 
ATOM     63  N   UNL A   1      45.916  32.749  27.525  1.00  0.00    -0.354 N 
ATOM     64  N   UNL A   1      45.221  36.553  28.161  1.00  0.00    -0.248 NA
ATOM     65  C   UNL A   1      46.246  38.613  28.206  1.00  0.00     0.031 C 
ATOM     66  C   UNL A   1      44.986  33.829  25.837  1.00  0.00     0.029 A 
ATOM     67  C   UNL A   1      45.915  33.994  26.854  1.00  0.00     0.049 A 
ATOM     68  H   UNL A   1      46.417  32.593  28.358  1.00  0.00     0.167 HD
ATOM     69  C   UNL A   1      46.467  36.315  27.653  1.00  0.00     0.074 A 
ATOM     70  C   UNL A   1      47.052  37.662  27.696  1.00  0.00     0.031 C 
ATOM     71  C   UNL A   1      46.895  35.069  27.213  1.00  0.00     0.037 A 
BRANCH  58  72
ATOM     72  C   UNL A   1      44.394  29.161  26.805  1.00  0.00     0.064 A 
ATOM     73  C   UNL A   1      43.015  28.903  26.624  1.00  0.00     0.173 A 
ATOM     74  C   UNL A   1      45.236  28.216  26.188  1.00  0.00     0.173 A 
ATOM     75  F   UNL A   1      42.074  29.711  27.129  1.00  0.00    -0.203 F 
ATOM     76  C   UNL A   1      42.532  27.814  25.890  1.00  0.00     0.198 A 
ATOM     77  C   UNL A   1      44.755  27.103  25.487  1.00  0.00     0.198 A 
ATOM     78  F   UNL A   1      46.562  28.335  26.188  1.00  0.00    -0.203 F 
ATOM     79  F   UNL A   1      41.211  27.653  25.735  1.00  0.00    -0.200 F 
ATOM     80  C   UNL A   1      43.403  26.916  25.314  1.00  0.00     0.200 A 
ATOM     81  F   UNL A   1      45.622  26.226  24.959  1.00  0.00    -0.200 F 
ATOM     82  F   UNL A   1      42.946  25.900  24.573  1.00  0.00    -0.200 F 
ENDBRANCH  58  72
BRANCH  59  83
ATOM     83  C   UNL A   1      43.296  39.280  29.940  1.00  0.00     0.064 A 
ATOM     84  C   UNL A   1      43.831  38.929  31.203  1.00  0.00     0.173 A 
ATOM     85  C   UNL A   1      42.756  40.581  29.884  1.00  0.00     0.173 A 
ATOM     86  F   UNL A   1      44.285  37.685  31.415  1.00  0.00    -0.203 F 
ATOM     87  C   UNL A   1      44.034  39.875  32.225  1.00  0.00     0.198 A 
ATOM     88  C   UNL A   1      43.148  41.569  30.814  1.00  0.00     0.198 A 
ATOM     89  F   UNL A   1      42.058  40.984  28.811  1.00  0.00    -0.203 F 
ATOM     90  F   UNL A   1      44.684  39.522  33.347  1.00  0.00    -0.200 F 
ATOM     91  C   UNL A   1      43.808  41.219  31.974  1.00  0.00     0.200 A 
ATOM     92  F   UNL A   1      43.066  42.871  30.485  1.00  0.00    -0.200 F 
ATOM     93  F   UNL A   1      44.366  42.161  32.753  1.00  0.00    -0.200 F 
ENDBRANCH  59  83
BRANCH  71  94
ATOM     94  C   UNL A   1      48.355  34.672  26.991  1.00  0.00     0.064 A 
ATOM     95  C   UNL A   1      49.044  34.699  25.775  1.00  0.00     0.173 A 
ATOM     96  C   UNL A   1      49.181  34.321  28.100  1.00  0.00     0.173 A 
ATOM     97  F   UNL A   1      48.485  35.053  24.622  1.00  0.00    -0.203 F 
ATOM     98  C   UNL A   1      50.399  34.381  25.675  1.00  0.00     0.198 A 
ATOM     99  C   UNL A   1      50.549  34.130  28.016  1.00  0.00     0.198 A 
ATOM    100  F   UNL A   1      48.726  34.100  29.334  1.00  0.00    -0.203 F 
ATOM    101  F   UNL A   1      50.965  34.341  24.463  1.00  0.00    -0.200 F 
ATOM    102  C   UNL A   1      51.157  34.129  26.795  1.00  0.00     0.200 A 
ATOM    103  F   UNL A   1      51.249  33.925  29.139  1.00  0.00    -0.200 F 
ATOM    104  F   UNL A   1      52.464  33.871  26.696  1.00  0.00    -0.200 F 
ENDBRANCH  71  94
ENDBRANCH  45  46
ENDBRANCH  38  40
ENDBRANCH  37  38
ENDBRANCH  36  37
ENDBRANCH  35  36
ENDBRANCH  34  35
ENDBRANCH  33  34
ENDBRANCH   1  33
TORSDOF 23
ENDMDL
MODEL 3
REMARK VINA RESULT:     -12.2      1.240      2.285
REMARK SMILES Cc1ccccc1OCC(=O)N[C@@H](Cc1c[nH]c2ccccc12)C(=O)OCCOCCOCCOC(=O)c1ccc(-c2c3nc(c(-c4c(F)c(F)c(F)c(F)c4F)c4ccc([nH]4)c(-c4c(F)c(F)c(F)c(F)c4F)c4nc(c(-c5c(F)c(F)c(F)c(F)c5F)c5ccc2[nH]5)C=C4)C=C3)cc1
REMARK SMILES IDX 30 1 29 2 28 3 27 4 26 5 24 6 25 7 13 8 12 9 10 10 11 11
REMARK SMILES IDX 9 13 8 14 7 15 1 16 2 17 3 18 4 19 6 20 5 21 14 22 15 23
REMARK SMILES IDX 16 24 23 25 17 26 18 27 22 28 19 30 21 31 20 32 31 33 32 34
REMARK SMILES IDX 33 35 34 36 35 37 36 38 37 39 38 40 39 41 100 42 40 43 99 44
REMARK SMILES IDX 41 45 42 46 43 47 93 48 44 49 98 50 92 51 94 52 45 53 97 54
REMARK SMILES IDX 91 55 90 56 46 58 78 59 58 60 77 61 59 62 62 63 76 64 95 65
REMARK SMILES IDX 60 66 61 67 75 69 96 70 63 71 47 72 48 73 56 74 49 75 50 76
REMARK SMILES IDX 54 77 57 78 51 79 52 80 55 81 53 82 79 83 80 84 88 85 81 86
REMARK SMILES IDX 82 87 86 88 89 89 83 90 84 91 87 92 85 93 64 94 65 95 73 96
REMARK SMILES IDX 66 97 67 98 71 99 74 100 68 101 69 102 72 103 70 104
REMARK H PARENT 12 12 17 29 94 57 62 68
REMARK Flexibility Score: inf
ROOT
ATOM      1  C   UNL A   1      34.388  32.441  28.018  1.00  0.00     0.188 C 
ENDROOT
BRANCH   1   2
ATOM      2  O   UNL A   1      33.494  31.372  27.879  1.00  0.00    -0.376 OA
BRANCH   2   3
ATOM      3  C   UNL A   1      32.357  31.727  27.137  1.00  0.00     0.202 C 
BRANCH   3   4
ATOM      4  C   UNL A   1      31.876  30.785  25.999  1.00  0.00     0.261 C 
BRANCH   4   5
ATOM      5  O   UNL A   1      31.869  28.952  26.027  1.00  0.00    -0.462 OA
BRANCH   5   6
ATOM      6  C   UNL A   1      31.569  27.734  26.826  1.00  0.00     0.329 C 
ATOM      7  O   UNL A   1      31.294  27.820  28.023  1.00  0.00    -0.250 OA
BRANCH   6   8
ATOM      8  C   UNL A   1      31.500  26.095  26.445  1.00  0.00     0.196 C 
BRANCH   8   9
ATOM      9  N   UNL A   1      30.410  25.093  26.426  1.00  0.00    -0.339 N 
ATOM     10  C   UNL A   1      30.394  23.744  26.599  1.00  0.00     0.258 C 
ATOM     11  O   UNL A   1      29.531  23.277  27.346  1.00  0.00    -0.271 OA
ATOM     12  H   UNL A   1      29.521  25.478  26.252  1.00  0.00     0.164 HD
BRANCH  10  13
ATOM     13  C   UNL A   1      31.241  22.813  25.762  1.00  0.00     0.329 C 
BRANCH  13  14
ATOM     14  O   UNL A   1      32.541  22.589  26.294  1.00  0.00    -0.484 OA
BRANCH  14  15
ATOM     15  C   UNL A   1      33.297  21.537  25.836  1.00  0.00     0.122 A 
ATOM     16  C   UNL A   1      35.729  22.512  25.914  1.00  0.00     0.048 C 
ATOM     17  C   UNL A   1      34.684  21.476  25.594  1.00  0.00    -0.009 A 
ATOM     18  C   UNL A   1      35.209  20.306  25.002  1.00  0.00     0.007 A 
ATOM     19  C   UNL A   1      34.392  19.245  24.619  1.00  0.00     0.001 A 
ATOM     20  C   UNL A   1      32.495  20.435  25.495  1.00  0.00     0.047 A 
ATOM     21  C   UNL A   1      33.032  19.303  24.882  1.00  0.00     0.004 A 
ENDBRANCH  14  15
ENDBRANCH  13  14
ENDBRANCH  10  13
ENDBRANCH   8   9
BRANCH   8  22
ATOM     22  C   UNL A   1      32.390  25.792  25.103  1.00  0.00     0.074 C 
BRANCH  22  23
ATOM     23  C   UNL A   1      32.170  26.697  23.915  1.00  0.00    -0.020 A 
ATOM     24  C   UNL A   1      33.286  27.839  23.209  1.00  0.00     0.087 A 
ATOM     25  C   UNL A   1      30.413  27.214  23.318  1.00  0.00     0.003 A 
ATOM     26  N   UNL A   1      32.469  29.335  22.410  1.00  0.00    -0.361 N 
ATOM     27  C   UNL A   1      30.637  29.101  22.429  1.00  0.00     0.046 A 
ATOM     28  C   UNL A   1      28.784  26.701  23.865  1.00  0.00     0.010 A 
ATOM     29  H   UNL A   1      32.943  30.116  22.042  1.00  0.00     0.166 HD
ATOM     30  C   UNL A   1      29.119  30.117  22.318  1.00  0.00     0.026 A 
ATOM     31  C   UNL A   1      27.434  27.794  23.643  1.00  0.00     0.001 A 
ATOM     32  C   UNL A   1      27.581  29.403  22.920  1.00  0.00     0.002 A 
ENDBRANCH  22  23
ENDBRANCH   8  22
ENDBRANCH   6   8
ENDBRANCH   5   6
ENDBRANCH   4   5
ENDBRANCH   3   4
ENDBRANCH   2   3
ENDBRANCH   1   2
BRANCH   1  33
ATOM     33  C   UNL A   1      33.752  33.807  28.015  1.00  0.00     0.188 C 
BRANCH  33  34
ATOM     34  O   UNL A   1      33.613  34.426  29.275  1.00  0.00    -0.376 OA
BRANCH  34  35
ATOM     35  C   UNL A   1      33.142  35.726  29.557  1.00  0.00     0.202 C 
BRANCH  35  36
ATOM     36  C   UNL A   1      32.787  35.727  30.982  1.00  0.00     0.261 C 
BRANCH  36  37
ATOM     37  O   UNL A   1      33.872  36.273  31.819  1.00  0.00    -0.460 OA
BRANCH  37  38
ATOM     38  C   UNL A   1      34.359  35.801  33.017  1.00  0.00     0.338 C 
ATOM     39  O   UNL A   1      34.332  36.539  34.003  1.00  0.00    -0.246 OA
BRANCH  38  40
ATOM     40  C   UNL A   1      35.032  34.435  33.147  1.00  0.00     0.060 A 
ATOM     41  C   UNL A   1      35.767  34.250  34.288  1.00  0.00     0.016 A 
ATOM     42  C   UNL A   1      35.251  33.451  32.175  1.00  0.00     0.016 A 
ATOM     43  C   UNL A   1      36.771  33.265  34.307  1.00  0.00     0.010 A 
ATOM     44  C   UNL A   1      36.500  32.702  32.155  1.00  0.00     0.010 A 
ATOM     45  C   UNL A   1      37.441  32.874  33.168  1.00  0.00    -0.014 A 
BRANCH  45  46
ATOM     46  C   UNL A   1      39.069  32.545  33.174  1.00  0.00     0.031 A 
ATOM     47  C   UNL A   1      38.826  30.794  32.954  1.00  0.00     0.074 A 
ATOM     48  C   UNL A   1      40.429  33.171  33.773  1.00  0.00     0.049 A 
ATOM     49  N   UNL A   1      40.092  29.456  32.756  1.00  0.00    -0.248 NA
ATOM     50  C   UNL A   1      37.266  29.888  32.104  1.00  0.00     0.031 C 
ATOM     51  C   UNL A   1      41.868  33.333  33.177  1.00  0.00     0.029 A 
ATOM     52  N   UNL A   1      40.812  34.108  34.872  1.00  0.00    -0.354 N 
ATOM     53  C   UNL A   1      39.884  28.196  31.815  1.00  0.00     0.074 A 
ATOM     54  C   UNL A   1      38.056  28.306  31.525  1.00  0.00     0.031 C 
ATOM     55  C   UNL A   1      42.768  33.820  34.093  1.00  0.00     0.029 A 
ATOM     56  C   UNL A   1      42.101  34.137  35.335  1.00  0.00     0.049 A 
ATOM     57  H   UNL A   1      40.136  34.706  35.265  1.00  0.00     0.167 HD
ATOM     58  C   UNL A   1      41.040  28.178  31.002  1.00  0.00     0.037 A 
ATOM     59  C   UNL A   1      42.474  33.989  36.654  1.00  0.00     0.037 A 
ATOM     60  C   UNL A   1      42.257  28.987  31.641  1.00  0.00     0.049 A 
ATOM     61  C   UNL A   1      43.178  32.637  36.657  1.00  0.00     0.074 A 
ATOM     62  C   UNL A   1      43.031  30.095  31.243  1.00  0.00     0.029 A 
ATOM     63  N   UNL A   1      42.521  28.922  33.033  1.00  0.00    -0.354 N 
ATOM     64  N   UNL A   1      43.011  31.737  35.714  1.00  0.00    -0.248 NA
ATOM     65  C   UNL A   1      44.228  32.278  37.591  1.00  0.00     0.031 C 
ATOM     66  C   UNL A   1      43.748  30.639  32.378  1.00  0.00     0.029 A 
ATOM     67  C   UNL A   1      43.485  29.850  33.489  1.00  0.00     0.049 A 
ATOM     68  H   UNL A   1      42.069  28.284  33.631  1.00  0.00     0.167 HD
ATOM     69  C   UNL A   1      43.962  30.759  35.786  1.00  0.00     0.074 A 
ATOM     70  C   UNL A   1      44.704  31.174  36.985  1.00  0.00     0.031 C 
ATOM     71  C   UNL A   1      44.085  29.735  34.857  1.00  0.00     0.037 A 
BRANCH  58  72
ATOM     72  C   UNL A   1      41.037  27.913  29.498  1.00  0.00     0.064 A 
ATOM     73  C   UNL A   1      41.793  26.840  28.969  1.00  0.00     0.173 A 
ATOM     74  C   UNL A   1      40.358  28.666  28.521  1.00  0.00     0.173 A 
ATOM     75  F   UNL A   1      42.488  26.011  29.758  1.00  0.00    -0.203 F 
ATOM     76  C   UNL A   1      41.852  26.549  27.602  1.00  0.00     0.198 A 
ATOM     77  C   UNL A   1      40.446  28.401  27.149  1.00  0.00     0.198 A 
ATOM     78  F   UNL A   1      39.538  29.667  28.836  1.00  0.00    -0.203 F 
ATOM     79  F   UNL A   1      42.565  25.496  27.179  1.00  0.00    -0.200 F 
ATOM     80  C   UNL A   1      41.172  27.325  26.691  1.00  0.00     0.200 A 
ATOM     81  F   UNL A   1      39.798  29.188  26.278  1.00  0.00    -0.200 F 
ATOM     82  F   UNL A   1      41.188  27.022  25.387  1.00  0.00    -0.200 F 
ENDBRANCH  58  72
BRANCH  59  83
ATOM     83  C   UNL A   1      41.596  34.555  37.804  1.00  0.00     0.064 A 
ATOM     84  C   UNL A   1      41.855  35.854  38.304  1.00  0.00     0.173 A 
ATOM     85  C   UNL A   1      40.330  34.043  38.154  1.00  0.00     0.173 A 
ATOM     86  F   UNL A   1      43.060  36.413  38.124  1.00  0.00    -0.203 F 
ATOM     87  C   UNL A   1      40.849  36.655  38.878  1.00  0.00     0.198 A 
ATOM     88  C   UNL A   1      39.278  34.907  38.529  1.00  0.00     0.198 A 
ATOM     89  F   UNL A   1      40.019  32.762  37.903  1.00  0.00    -0.203 F 
ATOM     90  F   UNL A   1      41.111  37.934  39.198  1.00  0.00    -0.200 F 
ATOM     91  C   UNL A   1      39.534  36.220  38.869  1.00  0.00     0.200 A 
ATOM     92  F   UNL A   1      38.000  34.521  38.361  1.00  0.00    -0.200 F 
ATOM     93  F   UNL A   1      38.525  37.096  39.018  1.00  0.00    -0.200 F 
ENDBRANCH  59  83
BRANCH  71  94
ATOM     94  C   UNL A   1      44.866  28.439  35.081  1.00  0.00     0.064 A 
ATOM     95  C   UNL A   1      44.707  27.550  36.149  1.00  0.00     0.173 A 
ATOM     96  C   UNL A   1      45.794  27.980  34.099  1.00  0.00     0.173 A 
ATOM     97  F   UNL A   1      43.854  27.750  37.149  1.00  0.00    -0.203 F 
ATOM     98  C   UNL A   1      45.419  26.354  36.240  1.00  0.00     0.198 A 
ATOM     99  C   UNL A   1      46.402  26.738  34.129  1.00  0.00     0.198 A 
ATOM    100  F   UNL A   1      46.210  28.709  33.062  1.00  0.00    -0.203 F 
ATOM    101  F   UNL A   1      45.279  25.601  37.338  1.00  0.00    -0.200 F 
ATOM    102  C   UNL A   1      46.239  25.932  35.219  1.00  0.00     0.200 A 
ATOM    103  F   UNL A   1      47.162  26.357  33.094  1.00  0.00    -0.200 F 
ATOM    104  F   UNL A   1      46.881  24.763  35.292  1.00  0.00    -0.200 F 
ENDBRANCH  71  94
ENDBRANCH  45  46
ENDBRANCH  38  40
ENDBRANCH  37  38
ENDBRANCH  36  37
ENDBRANCH  35  36
ENDBRANCH  34  35
ENDBRANCH  33  34
ENDBRANCH   1  33
TORSDOF 23
ENDMDL
