MODEL 1
REMARK VINA RESULT:     -11.3      0.000      0.000
REMARK SMILES N#Cc1ccc(C[N@H+]2CCCC[C@H]2C(=O)OCCOCCOCCOC(=O)c2ccc(-c3c4nc(c(-c5c(F)c(F)c(F)c(F)c5F)c5ccc([nH]5)c(-c5c(F)c(F)c(F)c(F)c5F)c5nc(c(-c6c(F)c(F)c(F)c(F)c6F)c6ccc3[nH]6)C=C5)C=C4)cc2)c(F)c1
REMARK SMILES IDX 20 1 19 2 18 3 17 4 16 5 14 6 15 7 13 8 8 9 9 10 10 12 12 13
REMARK SMILES IDX 11 14 7 15 6 16 3 17 4 18 93 19 5 20 91 21 92 22 2 23 1 24
REMARK SMILES IDX 21 25 22 26 23 27 24 28 25 29 26 30 27 31 28 32 29 33 90 34
REMARK SMILES IDX 30 35 89 36 31 37 32 38 33 39 83 40 34 41 88 42 82 43 84 44
REMARK SMILES IDX 35 45 87 46 81 47 80 48 36 50 68 51 48 52 67 53 49 54 52 55
REMARK SMILES IDX 66 56 85 57 50 58 51 59 65 61 86 62 53 63 37 64 38 65 46 66
REMARK SMILES IDX 39 67 40 68 44 69 47 70 41 71 42 72 45 73 43 74 69 75 70 76
REMARK SMILES IDX 78 77 71 78 72 79 76 80 79 81 73 82 74 83 77 84 75 85 54 86
REMARK SMILES IDX 55 87 63 88 56 89 57 90 61 91 64 92 58 93 59 94 62 95 60 96
REMARK H PARENT 8 11 84 49 52 60
REMARK Flexibility Score: inf
ROOT
ATOM      1  C   UNL A   1      38.688  20.672  25.119  1.00  0.00     0.188 C 
ENDROOT
BRANCH   1   2
ATOM      2  O   UNL A   1      37.616  21.322  25.751  1.00  0.00    -0.376 OA
BRANCH   2   3
ATOM      3  C   UNL A   1      37.505  22.731  25.732  1.00  0.00     0.202 C 
BRANCH   3   4
ATOM      4  C   UNL A   1      36.937  23.655  24.600  1.00  0.00     0.261 C 
BRANCH   4   5
ATOM      5  O   UNL A   1      35.955  23.277  23.605  1.00  0.00    -0.459 OA
BRANCH   5   6
ATOM      6  C   UNL A   1      34.691  23.624  23.927  1.00  0.00     0.364 C 
ATOM      7  O   UNL A   1      34.510  24.687  24.494  1.00  0.00    -0.245 OA
BRANCH   6   8
ATOM      8  C   UNL A   1      33.559  22.629  23.567  1.00  0.00     0.295 C 
ATOM      9  N   UNL A   1      33.274  21.635  24.646  1.00  0.00    -0.319 N 
ATOM     10  C   UNL A   1      32.524  22.164  25.775  1.00  0.00     0.263 C 
ATOM     11  H   UNL A   1      32.615  21.035  24.152  1.00  0.00     0.349 HD
ATOM     12  C   UNL A   1      31.153  22.668  25.310  1.00  0.00     0.062 C 
ATOM     13  C   UNL A   1      32.233  23.275  23.088  1.00  0.00     0.078 C 
ATOM     14  C   UNL A   1      31.228  23.676  24.174  1.00  0.00     0.013 C 
BRANCH   9  15
ATOM     15  C   UNL A   1      34.263  20.575  24.948  1.00  0.00     0.302 C 
BRANCH  15  16
ATOM     16  C   UNL A   1      33.914  19.122  24.686  1.00  0.00     0.042 A 
ATOM     17  C   UNL A   1      33.388  16.360  24.895  1.00  0.00     0.055 A 
ATOM     18  C   UNL A   1      32.329  17.276  24.844  1.00  0.00     0.020 A 
ATOM     19  C   UNL A   1      34.696  16.802  24.692  1.00  0.00     0.059 A 
ATOM     20  C   UNL A   1      32.588  18.653  24.739  1.00  0.00     0.014 A 
ATOM     21  C   UNL A   1      34.945  18.172  24.566  1.00  0.00     0.133 A 
ATOM     22  F   UNL A   1      36.224  18.580  24.550  1.00  0.00    -0.206 F 
BRANCH  17  23
ATOM     23  C   UNL A   1      33.146  14.995  25.285  1.00  0.00     0.099 C 
ATOM     24  N   UNL A   1      32.975  13.910  25.642  1.00  0.00    -0.192 NA
ENDBRANCH  17  23
ENDBRANCH  15  16
ENDBRANCH   9  15
ENDBRANCH   6   8
ENDBRANCH   5   6
ENDBRANCH   4   5
ENDBRANCH   3   4
ENDBRANCH   2   3
ENDBRANCH   1   2
BRANCH   1  25
ATOM     25  C   UNL A   1      39.714  20.182  26.134  1.00  0.00     0.188 C 
BRANCH  25  26
ATOM     26  O   UNL A   1      40.731  21.052  26.586  1.00  0.00    -0.376 OA
BRANCH  26  27
ATOM     27  C   UNL A   1      42.072  20.648  26.372  1.00  0.00     0.202 C 
BRANCH  27  28
ATOM     28  C   UNL A   1      43.074  21.560  25.622  1.00  0.00     0.261 C 
BRANCH  28  29
ATOM     29  O   UNL A   1      42.581  22.768  25.000  1.00  0.00    -0.460 OA
BRANCH  29  30
ATOM     30  C   UNL A   1      43.327  23.891  25.157  1.00  0.00     0.338 C 
ATOM     31  O   UNL A   1      44.362  24.165  24.575  1.00  0.00    -0.246 OA
BRANCH  30  32
ATOM     32  C   UNL A   1      42.614  24.881  26.011  1.00  0.00     0.060 A 
ATOM     33  C   UNL A   1      43.053  26.215  26.011  1.00  0.00     0.016 A 
ATOM     34  C   UNL A   1      41.625  24.493  26.911  1.00  0.00     0.016 A 
ATOM     35  C   UNL A   1      42.515  27.161  26.884  1.00  0.00     0.010 A 
ATOM     36  C   UNL A   1      41.108  25.436  27.819  1.00  0.00     0.010 A 
ATOM     37  C   UNL A   1      41.566  26.771  27.828  1.00  0.00    -0.014 A 
BRANCH  37  38
ATOM     38  C   UNL A   1      41.223  27.695  28.944  1.00  0.00     0.031 A 
ATOM     39  C   UNL A   1      42.079  27.679  30.182  1.00  0.00     0.074 A 
ATOM     40  C   UNL A   1      40.219  28.588  28.853  1.00  0.00     0.049 A 
ATOM     41  N   UNL A   1      41.896  28.266  31.337  1.00  0.00    -0.248 NA
ATOM     42  C   UNL A   1      43.316  26.890  30.095  1.00  0.00     0.031 C 
ATOM     43  C   UNL A   1      39.398  28.823  27.668  1.00  0.00     0.029 A 
ATOM     44  N   UNL A   1      39.720  29.464  29.787  1.00  0.00    -0.354 N 
ATOM     45  C   UNL A   1      42.966  27.873  32.132  1.00  0.00     0.074 A 
ATOM     46  C   UNL A   1      43.784  26.990  31.328  1.00  0.00     0.031 C 
ATOM     47  C   UNL A   1      38.491  29.774  27.949  1.00  0.00     0.029 A 
ATOM     48  C   UNL A   1      38.621  30.163  29.352  1.00  0.00     0.049 A 
ATOM     49  H   UNL A   1      40.112  29.578  30.683  1.00  0.00     0.167 HD
ATOM     50  C   UNL A   1      43.238  28.212  33.417  1.00  0.00     0.037 A 
ATOM     51  C   UNL A   1      37.790  30.987  30.023  1.00  0.00     0.037 A 
ATOM     52  C   UNL A   1      42.424  29.101  34.205  1.00  0.00     0.049 A 
ATOM     53  C   UNL A   1      38.027  31.243  31.492  1.00  0.00     0.074 A 
ATOM     54  C   UNL A   1      42.604  29.506  35.516  1.00  0.00     0.029 A 
ATOM     55  N   UNL A   1      41.266  29.721  33.755  1.00  0.00    -0.354 N 
ATOM     56  N   UNL A   1      39.005  30.830  32.259  1.00  0.00    -0.248 NA
ATOM     57  C   UNL A   1      37.031  32.071  32.187  1.00  0.00     0.031 C 
ATOM     58  C   UNL A   1      41.515  30.302  35.884  1.00  0.00     0.029 A 
ATOM     59  C   UNL A   1      40.699  30.470  34.776  1.00  0.00     0.049 A 
ATOM     60  H   UNL A   1      40.901  29.641  32.844  1.00  0.00     0.167 HD
ATOM     61  C   UNL A   1      38.767  31.380  33.515  1.00  0.00     0.074 A 
ATOM     62  C   UNL A   1      37.553  32.161  33.402  1.00  0.00     0.031 C 
ATOM     63  C   UNL A   1      39.492  31.252  34.655  1.00  0.00     0.037 A 
BRANCH  50  64
ATOM     64  C   UNL A   1      44.419  27.542  34.067  1.00  0.00     0.064 A 
ATOM     65  C   UNL A   1      44.320  26.300  34.714  1.00  0.00     0.173 A 
ATOM     66  C   UNL A   1      45.670  28.180  34.074  1.00  0.00     0.173 A 
ATOM     67  F   UNL A   1      43.148  25.647  34.747  1.00  0.00    -0.203 F 
ATOM     68  C   UNL A   1      45.406  25.758  35.399  1.00  0.00     0.198 A 
ATOM     69  C   UNL A   1      46.766  27.613  34.719  1.00  0.00     0.198 A 
ATOM     70  F   UNL A   1      45.831  29.363  33.462  1.00  0.00    -0.203 F 
ATOM     71  F   UNL A   1      45.259  24.619  36.089  1.00  0.00    -0.200 F 
ATOM     72  C   UNL A   1      46.628  26.413  35.399  1.00  0.00     0.200 A 
ATOM     73  F   UNL A   1      47.950  28.239  34.699  1.00  0.00    -0.200 F 
ATOM     74  F   UNL A   1      47.668  25.898  36.068  1.00  0.00    -0.200 F 
ENDBRANCH  50  64
BRANCH  51  75
ATOM     75  C   UNL A   1      36.638  31.617  29.322  1.00  0.00     0.064 A 
ATOM     76  C   UNL A   1      36.626  32.994  29.056  1.00  0.00     0.173 A 
ATOM     77  C   UNL A   1      35.524  30.866  28.914  1.00  0.00     0.173 A 
ATOM     78  F   UNL A   1      37.652  33.761  29.454  1.00  0.00    -0.203 F 
ATOM     79  C   UNL A   1      35.544  33.596  28.416  1.00  0.00     0.198 A 
ATOM     80  C   UNL A   1      34.457  31.464  28.245  1.00  0.00     0.198 A 
ATOM     81  F   UNL A   1      35.479  29.547  29.151  1.00  0.00    -0.203 F 
ATOM     82  F   UNL A   1      35.542  34.920  28.212  1.00  0.00    -0.200 F 
ATOM     83  C   UNL A   1      34.465  32.829  28.003  1.00  0.00     0.200 A 
ATOM     84  F   UNL A   1      33.424  30.717  27.835  1.00  0.00    -0.200 F 
ATOM     85  F   UNL A   1      33.432  33.406  27.375  1.00  0.00    -0.200 F 
ENDBRANCH  51  75
BRANCH  63  86
ATOM     86  C   UNL A   1      39.031  32.020  35.865  1.00  0.00     0.064 A 
ATOM     87  C   UNL A   1      38.227  31.439  36.858  1.00  0.00     0.173 A 
ATOM     88  C   UNL A   1      39.438  33.351  36.054  1.00  0.00     0.173 A 
ATOM     89  F   UNL A   1      37.797  30.175  36.724  1.00  0.00    -0.203 F 
ATOM     90  C   UNL A   1      37.823  32.170  37.973  1.00  0.00     0.198 A 
ATOM     91  C   UNL A   1      39.066  34.065  37.190  1.00  0.00     0.198 A 
ATOM     92  F   UNL A   1      40.214  33.957  35.143  1.00  0.00    -0.203 F 
ATOM     93  F   UNL A   1      37.006  31.611  38.878  1.00  0.00    -0.200 F 
ATOM     94  C   UNL A   1      38.250  33.478  38.143  1.00  0.00     0.200 A 
ATOM     95  F   UNL A   1      39.499  35.322  37.360  1.00  0.00    -0.200 F 
ATOM     96  F   UNL A   1      37.870  34.175  39.222  1.00  0.00    -0.200 F 
ENDBRANCH  63  86
ENDBRANCH  37  38
ENDBRANCH  30  32
ENDBRANCH  29  30
ENDBRANCH  28  29
ENDBRANCH  27  28
ENDBRANCH  26  27
ENDBRANCH  25  26
ENDBRANCH   1  25
TORSDOF 20
ENDMDL
MODEL 2
REMARK VINA RESULT:     -11.1      3.158      7.839
REMARK SMILES N#Cc1ccc(C[N@H+]2CCCC[C@H]2C(=O)OCCOCCOCCOC(=O)c2ccc(-c3c4nc(c(-c5c(F)c(F)c(F)c(F)c5F)c5ccc([nH]5)c(-c5c(F)c(F)c(F)c(F)c5F)c5nc(c(-c6c(F)c(F)c(F)c(F)c6F)c6ccc3[nH]6)C=C5)C=C4)cc2)c(F)c1
REMARK SMILES IDX 20 1 19 2 18 3 17 4 16 5 14 6 15 7 13 8 8 9 9 10 10 12 12 13
REMARK SMILES IDX 11 14 7 15 6 16 3 17 4 18 93 19 5 20 91 21 92 22 2 23 1 24
REMARK SMILES IDX 21 25 22 26 23 27 24 28 25 29 26 30 27 31 28 32 29 33 90 34
REMARK SMILES IDX 30 35 89 36 31 37 32 38 33 39 83 40 34 41 88 42 82 43 84 44
REMARK SMILES IDX 35 45 87 46 81 47 80 48 36 50 68 51 48 52 67 53 49 54 52 55
REMARK SMILES IDX 66 56 85 57 50 58 51 59 65 61 86 62 53 63 37 64 38 65 46 66
REMARK SMILES IDX 39 67 40 68 44 69 47 70 41 71 42 72 45 73 43 74 69 75 70 76
REMARK SMILES IDX 78 77 71 78 72 79 76 80 79 81 73 82 74 83 77 84 75 85 54 86
REMARK SMILES IDX 55 87 63 88 56 89 57 90 61 91 64 92 58 93 59 94 62 95 60 96
REMARK H PARENT 8 11 84 49 52 60
REMARK Flexibility Score: inf
ROOT
ATOM      1  C   UNL A   1      30.908  27.336  25.521  1.00  0.00     0.188 C 
ENDROOT
BRANCH   1   2
ATOM      2  O   UNL A   1      30.590  26.006  25.205  1.00  0.00    -0.376 OA
BRANCH   2   3
ATOM      3  C   UNL A   1      30.148  25.106  26.201  1.00  0.00     0.202 C 
BRANCH   3   4
ATOM      4  C   UNL A   1      30.475  23.580  26.360  1.00  0.00     0.261 C 
BRANCH   4   5
ATOM      5  O   UNL A   1      31.679  22.916  25.906  1.00  0.00    -0.459 OA
BRANCH   5   6
ATOM      6  C   UNL A   1      32.701  22.977  26.785  1.00  0.00     0.364 C 
ATOM      7  O   UNL A   1      32.491  22.646  27.938  1.00  0.00    -0.245 OA
BRANCH   6   8
ATOM      8  C   UNL A   1      34.068  23.485  26.263  1.00  0.00     0.295 C 
ATOM      9  N   UNL A   1      34.706  22.565  25.273  1.00  0.00    -0.319 N 
ATOM     10  C   UNL A   1      34.120  22.606  23.941  1.00  0.00     0.263 C 
ATOM     11  H   UNL A   1      35.611  23.025  25.175  1.00  0.00     0.349 HD
ATOM     12  C   UNL A   1      34.261  24.012  23.345  1.00  0.00     0.062 C 
ATOM     13  C   UNL A   1      34.072  24.933  25.709  1.00  0.00     0.078 C 
ATOM     14  C   UNL A   1      33.695  25.109  24.233  1.00  0.00     0.013 C 
BRANCH   9  15
ATOM     15  C   UNL A   1      35.237  21.257  25.721  1.00  0.00     0.302 C 
BRANCH  15  16
ATOM     16  C   UNL A   1      34.621  19.974  25.195  1.00  0.00     0.042 A 
ATOM     17  C   UNL A   1      33.651  17.348  24.861  1.00  0.00     0.055 A 
ATOM     18  C   UNL A   1      32.764  18.395  25.148  1.00  0.00     0.020 A 
ATOM     19  C   UNL A   1      34.991  17.631  24.592  1.00  0.00     0.059 A 
ATOM     20  C   UNL A   1      33.245  19.705  25.315  1.00  0.00     0.014 A 
ATOM     21  C   UNL A   1      35.459  18.940  24.738  1.00  0.00     0.133 A 
ATOM     22  F   UNL A   1      36.781  19.150  24.647  1.00  0.00    -0.206 F 
BRANCH  17  23
ATOM     23  C   UNL A   1      33.216  15.980  24.971  1.00  0.00     0.099 C 
ATOM     24  N   UNL A   1      32.891  14.880  25.103  1.00  0.00    -0.192 NA
ENDBRANCH  17  23
ENDBRANCH  15  16
ENDBRANCH   9  15
ENDBRANCH   6   8
ENDBRANCH   5   6
ENDBRANCH   4   5
ENDBRANCH   3   4
ENDBRANCH   2   3
ENDBRANCH   1   2
BRANCH   1  25
ATOM     25  C   UNL A   1      31.342  28.111  24.283  1.00  0.00     0.188 C 
BRANCH  25  26
ATOM     26  O   UNL A   1      31.922  29.392  24.420  1.00  0.00    -0.376 OA
BRANCH  26  27
ATOM     27  C   UNL A   1      31.123  30.408  25.000  1.00  0.00     0.202 C 
BRANCH  27  28
ATOM     28  C   UNL A   1      31.403  30.930  26.430  1.00  0.00     0.261 C 
BRANCH  28  29
ATOM     29  O   UNL A   1      32.714  30.716  27.001  1.00  0.00    -0.460 OA
BRANCH  29  30
ATOM     30  C   UNL A   1      33.426  31.821  27.340  1.00  0.00     0.338 C 
ATOM     31  O   UNL A   1      33.002  32.960  27.441  1.00  0.00    -0.246 OA
BRANCH  30  32
ATOM     32  C   UNL A   1      34.798  31.447  27.785  1.00  0.00     0.060 A 
ATOM     33  C   UNL A   1      35.059  30.109  28.119  1.00  0.00     0.016 A 
ATOM     34  C   UNL A   1      35.780  32.407  28.015  1.00  0.00     0.016 A 
ATOM     35  C   UNL A   1      36.282  29.718  28.666  1.00  0.00     0.010 A 
ATOM     36  C   UNL A   1      36.999  32.022  28.602  1.00  0.00     0.010 A 
ATOM     37  C   UNL A   1      37.250  30.679  28.954  1.00  0.00    -0.014 A 
BRANCH  37  38
ATOM     38  C   UNL A   1      38.414  30.310  29.807  1.00  0.00     0.031 A 
ATOM     39  C   UNL A   1      39.471  29.407  29.230  1.00  0.00     0.074 A 
ATOM     40  C   UNL A   1      38.585  30.812  31.044  1.00  0.00     0.049 A 
ATOM     41  N   UNL A   1      40.485  28.820  29.814  1.00  0.00    -0.248 NA
ATOM     42  C   UNL A   1      39.363  29.132  27.790  1.00  0.00     0.031 C 
ATOM     43  C   UNL A   1      37.727  31.808  31.682  1.00  0.00     0.029 A 
ATOM     44  N   UNL A   1      39.545  30.542  31.989  1.00  0.00    -0.354 N 
ATOM     45  C   UNL A   1      41.103  28.066  28.825  1.00  0.00     0.074 A 
ATOM     46  C   UNL A   1      40.342  28.261  27.609  1.00  0.00     0.031 C 
ATOM     47  C   UNL A   1      38.195  32.059  32.916  1.00  0.00     0.029 A 
ATOM     48  C   UNL A   1      39.342  31.191  33.182  1.00  0.00     0.049 A 
ATOM     49  H   UNL A   1      40.308  29.939  31.826  1.00  0.00     0.167 HD
ATOM     50  C   UNL A   1      42.202  27.276  28.922  1.00  0.00     0.037 A 
ATOM     51  C   UNL A   1      39.978  31.064  34.364  1.00  0.00     0.037 A 
ATOM     52  C   UNL A   1      42.961  27.097  30.134  1.00  0.00     0.049 A 
ATOM     53  C   UNL A   1      41.111  30.075  34.493  1.00  0.00     0.074 A 
ATOM     54  C   UNL A   1      44.083  26.316  30.345  1.00  0.00     0.029 A 
ATOM     55  N   UNL A   1      42.667  27.705  31.347  1.00  0.00    -0.354 N 
ATOM     56  N   UNL A   1      41.664  29.321  33.575  1.00  0.00    -0.248 NA
ATOM     57  C   UNL A   1      41.699  29.915  35.831  1.00  0.00     0.031 C 
ATOM     58  C   UNL A   1      44.419  26.387  31.700  1.00  0.00     0.029 A 
ATOM     59  C   UNL A   1      43.562  27.283  32.319  1.00  0.00     0.049 A 
ATOM     60  H   UNL A   1      41.932  28.342  31.496  1.00  0.00     0.167 HD
ATOM     61  C   UNL A   1      42.688  28.627  34.212  1.00  0.00     0.074 A 
ATOM     62  C   UNL A   1      42.682  29.058  35.594  1.00  0.00     0.031 C 
ATOM     63  C   UNL A   1      43.556  27.721  33.695  1.00  0.00     0.037 A 
BRANCH  50  64
ATOM     64  C   UNL A   1      42.585  26.482  27.703  1.00  0.00     0.064 A 
ATOM     65  C   UNL A   1      42.033  25.224  27.416  1.00  0.00     0.173 A 
ATOM     66  C   UNL A   1      43.559  26.979  26.821  1.00  0.00     0.173 A 
ATOM     67  F   UNL A   1      41.105  24.694  28.228  1.00  0.00    -0.203 F 
ATOM     68  C   UNL A   1      42.489  24.468  26.338  1.00  0.00     0.198 A 
ATOM     69  C   UNL A   1      43.978  26.242  25.717  1.00  0.00     0.198 A 
ATOM     70  F   UNL A   1      44.116  28.182  27.033  1.00  0.00    -0.203 F 
ATOM     71  F   UNL A   1      42.013  23.229  26.143  1.00  0.00    -0.200 F 
ATOM     72  C   UNL A   1      43.458  24.977  25.489  1.00  0.00     0.200 A 
ATOM     73  F   UNL A   1      44.900  26.746  24.887  1.00  0.00    -0.200 F 
ATOM     74  F   UNL A   1      43.905  24.244  24.460  1.00  0.00    -0.200 F 
ENDBRANCH  50  64
BRANCH  51  75
ATOM     75  C   UNL A   1      39.548  31.877  35.534  1.00  0.00     0.064 A 
ATOM     76  C   UNL A   1      40.146  33.117  35.805  1.00  0.00     0.173 A 
ATOM     77  C   UNL A   1      38.545  31.434  36.410  1.00  0.00     0.173 A 
ATOM     78  F   UNL A   1      41.132  33.570  35.017  1.00  0.00    -0.203 F 
ATOM     79  C   UNL A   1      39.763  33.877  36.907  1.00  0.00     0.198 A 
ATOM     80  C   UNL A   1      38.139  32.211  37.494  1.00  0.00     0.198 A 
ATOM     81  F   UNL A   1      37.946  30.253  36.203  1.00  0.00    -0.203 F 
ATOM     82  F   UNL A   1      40.381  35.038  37.165  1.00  0.00    -0.200 F 
ATOM     83  C   UNL A   1      38.753  33.428  37.746  1.00  0.00     0.200 A 
ATOM     84  F   UNL A   1      37.153  31.780  38.292  1.00  0.00    -0.200 F 
ATOM     85  F   UNL A   1      38.375  34.167  38.798  1.00  0.00    -0.200 F 
ENDBRANCH  51  75
BRANCH  63  86
ATOM     86  C   UNL A   1      44.617  27.171  34.610  1.00  0.00     0.064 A 
ATOM     87  C   UNL A   1      45.852  27.811  34.792  1.00  0.00     0.173 A 
ATOM     88  C   UNL A   1      44.374  26.001  35.350  1.00  0.00     0.173 A 
ATOM     89  F   UNL A   1      46.145  28.924  34.102  1.00  0.00    -0.203 F 
ATOM     90  C   UNL A   1      46.813  27.285  35.653  1.00  0.00     0.198 A 
ATOM     91  C   UNL A   1      45.322  25.502  36.240  1.00  0.00     0.198 A 
ATOM     92  F   UNL A   1      43.209  25.350  35.223  1.00  0.00    -0.203 F 
ATOM     93  F   UNL A   1      48.008  27.883  35.765  1.00  0.00    -0.200 F 
ATOM     94  C   UNL A   1      46.544  26.137  36.383  1.00  0.00     0.200 A 
ATOM     95  F   UNL A   1      45.049  24.404  36.959  1.00  0.00    -0.200 F 
ATOM     96  F   UNL A   1      47.466  25.640  37.219  1.00  0.00    -0.200 F 
ENDBRANCH  63  86
ENDBRANCH  37  38
ENDBRANCH  30  32
ENDBRANCH  29  30
ENDBRANCH  28  29
ENDBRANCH  27  28
ENDBRANCH  26  27
ENDBRANCH  25  26
ENDBRANCH   1  25
TORSDOF 20
ENDMDL
MODEL 3
REMARK VINA RESULT:     -10.5      5.074     10.066
REMARK SMILES N#Cc1ccc(C[N@H+]2CCCC[C@H]2C(=O)OCCOCCOCCOC(=O)c2ccc(-c3c4nc(c(-c5c(F)c(F)c(F)c(F)c5F)c5ccc([nH]5)c(-c5c(F)c(F)c(F)c(F)c5F)c5nc(c(-c6c(F)c(F)c(F)c(F)c6F)c6ccc3[nH]6)C=C5)C=C4)cc2)c(F)c1
REMARK SMILES IDX 20 1 19 2 18 3 17 4 16 5 14 6 15 7 13 8 8 9 9 10 10 12 12 13
REMARK SMILES IDX 11 14 7 15 6 16 3 17 4 18 93 19 5 20 91 21 92 22 2 23 1 24
REMARK SMILES IDX 21 25 22 26 23 27 24 28 25 29 26 30 27 31 28 32 29 33 90 34
REMARK SMILES IDX 30 35 89 36 31 37 32 38 33 39 83 40 34 41 88 42 82 43 84 44
REMARK SMILES IDX 35 45 87 46 81 47 80 48 36 50 68 51 48 52 67 53 49 54 52 55
REMARK SMILES IDX 66 56 85 57 50 58 51 59 65 61 86 62 53 63 37 64 38 65 46 66
REMARK SMILES IDX 39 67 40 68 44 69 47 70 41 71 42 72 45 73 43 74 69 75 70 76
REMARK SMILES IDX 78 77 71 78 72 79 76 80 79 81 73 82 74 83 77 84 75 85 54 86
REMARK SMILES IDX 55 87 63 88 56 89 57 90 61 91 64 92 58 93 59 94 62 95 60 96
REMARK H PARENT 8 11 84 49 52 60
REMARK Flexibility Score: inf
ROOT
ATOM      1  C   UNL A   1      33.343  31.226  27.268  1.00  0.00     0.188 C 
ENDROOT
BRANCH   1   2
ATOM      2  O   UNL A   1      32.760  29.992  27.599  1.00  0.00    -0.376 OA
BRANCH   2   3
ATOM      3  C   UNL A   1      31.807  29.386  26.748  1.00  0.00     0.202 C 
BRANCH   3   4
ATOM      4  C   UNL A   1      31.799  27.930  26.164  1.00  0.00     0.261 C 
BRANCH   4   5
ATOM      5  O   UNL A   1      32.731  26.874  26.499  1.00  0.00    -0.459 OA
BRANCH   5   6
ATOM      6  C   UNL A   1      32.321  25.645  26.120  1.00  0.00     0.364 C 
ATOM      7  O   UNL A   1      31.406  25.126  26.734  1.00  0.00    -0.245 OA
BRANCH   6   8
ATOM      8  C   UNL A   1      33.064  24.973  24.938  1.00  0.00     0.295 C 
ATOM      9  N   UNL A   1      32.152  24.265  23.988  1.00  0.00    -0.319 N 
ATOM     10  C   UNL A   1      31.407  25.141  23.095  1.00  0.00     0.263 C 
ATOM     11  H   UNL A   1      32.847  23.815  23.393  1.00  0.00     0.349 HD
ATOM     12  C   UNL A   1      32.373  25.944  22.215  1.00  0.00     0.062 C 
ATOM     13  C   UNL A   1      34.027  25.896  24.148  1.00  0.00     0.078 C 
ATOM     14  C   UNL A   1      33.417  26.717  23.006  1.00  0.00     0.013 C 
BRANCH   9  15
ATOM     15  C   UNL A   1      31.471  23.021  24.413  1.00  0.00     0.302 C 
BRANCH  15  16
ATOM     16  C   UNL A   1      32.228  21.706  24.403  1.00  0.00     0.042 A 
ATOM     17  C   UNL A   1      33.050  19.026  24.709  1.00  0.00     0.055 A 
ATOM     18  C   UNL A   1      32.562  19.477  23.475  1.00  0.00     0.020 A 
ATOM     19  C   UNL A   1      33.269  19.940  25.741  1.00  0.00     0.059 A 
ATOM     20  C   UNL A   1      32.152  20.812  23.320  1.00  0.00     0.014 A 
ATOM     21  C   UNL A   1      32.880  21.272  25.572  1.00  0.00     0.133 A 
ATOM     22  F   UNL A   1      32.939  22.086  26.638  1.00  0.00    -0.206 F 
BRANCH  17  23
ATOM     23  C   UNL A   1      33.200  17.617  24.958  1.00  0.00     0.099 C 
ATOM     24  N   UNL A   1      33.279  16.477  25.130  1.00  0.00    -0.192 NA
ENDBRANCH  17  23
ENDBRANCH  15  16
ENDBRANCH   9  15
ENDBRANCH   6   8
ENDBRANCH   5   6
ENDBRANCH   4   5
ENDBRANCH   3   4
ENDBRANCH   2   3
ENDBRANCH   1   2
BRANCH   1  25
ATOM     25  C   UNL A   1      32.300  32.337  27.224  1.00  0.00     0.188 C 
BRANCH  25  26
ATOM     26  O   UNL A   1      32.553  33.568  27.870  1.00  0.00    -0.376 OA
BRANCH  26  27
ATOM     27  C   UNL A   1      33.848  33.764  28.409  1.00  0.00     0.202 C 
BRANCH  27  28
ATOM     28  C   UNL A   1      34.046  34.368  29.821  1.00  0.00     0.261 C 
BRANCH  28  29
ATOM     29  O   UNL A   1      35.158  33.907  30.621  1.00  0.00    -0.460 OA
BRANCH  29  30
ATOM     30  C   UNL A   1      35.023  32.700  31.228  1.00  0.00     0.338 C 
ATOM     31  O   UNL A   1      34.082  32.327  31.907  1.00  0.00    -0.246 OA
BRANCH  30  32
ATOM     32  C   UNL A   1      36.104  31.770  30.796  1.00  0.00     0.060 A 
ATOM     33  C   UNL A   1      37.095  31.410  31.722  1.00  0.00     0.016 A 
ATOM     34  C   UNL A   1      36.236  31.368  29.469  1.00  0.00     0.016 A 
ATOM     35  C   UNL A   1      38.204  30.651  31.346  1.00  0.00     0.010 A 
ATOM     36  C   UNL A   1      37.373  30.636  29.079  1.00  0.00     0.010 A 
ATOM     37  C   UNL A   1      38.377  30.293  30.010  1.00  0.00    -0.014 A 
BRANCH  37  38
ATOM     38  C   UNL A   1      39.691  29.756  29.562  1.00  0.00     0.031 A 
ATOM     39  C   UNL A   1      40.890  30.665  29.598  1.00  0.00     0.074 A 
ATOM     40  C   UNL A   1      39.854  28.472  29.192  1.00  0.00     0.049 A 
ATOM     41  N   UNL A   1      42.095  30.487  29.118  1.00  0.00    -0.248 NA
ATOM     42  C   UNL A   1      40.696  31.955  30.276  1.00  0.00     0.031 C 
ATOM     43  C   UNL A   1      38.824  27.437  29.244  1.00  0.00     0.029 A 
ATOM     44  N   UNL A   1      40.958  27.822  28.695  1.00  0.00    -0.354 N 
ATOM     45  C   UNL A   1      42.785  31.662  29.388  1.00  0.00     0.074 A 
ATOM     46  C   UNL A   1      41.860  32.547  30.063  1.00  0.00     0.031 C 
ATOM     47  C   UNL A   1      39.342  26.284  28.787  1.00  0.00     0.029 A 
ATOM     48  C   UNL A   1      40.716  26.516  28.345  1.00  0.00     0.049 A 
ATOM     49  H   UNL A   1      41.839  28.252  28.597  1.00  0.00     0.167 HD
ATOM     50  C   UNL A   1      44.071  31.978  29.094  1.00  0.00     0.037 A 
ATOM     51  C   UNL A   1      41.499  25.625  27.703  1.00  0.00     0.037 A 
ATOM     52  C   UNL A   1      44.989  31.086  28.432  1.00  0.00     0.049 A 
ATOM     53  C   UNL A   1      42.881  26.040  27.257  1.00  0.00     0.074 A 
ATOM     54  C   UNL A   1      46.309  31.307  28.081  1.00  0.00     0.029 A 
ATOM     55  N   UNL A   1      44.676  29.799  28.014  1.00  0.00    -0.354 N 
ATOM     56  N   UNL A   1      43.517  27.167  27.463  1.00  0.00    -0.248 NA
ATOM     57  C   UNL A   1      43.646  25.056  26.477  1.00  0.00     0.031 C 
ATOM     58  C   UNL A   1      46.769  30.188  27.379  1.00  0.00     0.029 A 
ATOM     59  C   UNL A   1      45.766  29.231  27.370  1.00  0.00     0.049 A 
ATOM     60  H   UNL A   1      43.810  29.355  28.154  1.00  0.00     0.167 HD
ATOM     61  C   UNL A   1      44.769  27.015  26.875  1.00  0.00     0.074 A 
ATOM     62  C   UNL A   1      44.802  25.682  26.310  1.00  0.00     0.031 C 
ATOM     63  C   UNL A   1      45.797  27.899  26.815  1.00  0.00     0.037 A 
BRANCH  50  64
ATOM     64  C   UNL A   1      44.522  33.378  29.411  1.00  0.00     0.064 A 
ATOM     65  C   UNL A   1      45.135  33.718  30.627  1.00  0.00     0.173 A 
ATOM     66  C   UNL A   1      44.300  34.412  28.485  1.00  0.00     0.173 A 
ATOM     67  F   UNL A   1      45.365  32.774  31.553  1.00  0.00    -0.203 F 
ATOM     68  C   UNL A   1      45.443  35.042  30.931  1.00  0.00     0.198 A 
ATOM     69  C   UNL A   1      44.652  35.727  28.773  1.00  0.00     0.198 A 
ATOM     70  F   UNL A   1      43.730  34.149  27.299  1.00  0.00    -0.203 F 
ATOM     71  F   UNL A   1      45.938  35.352  32.138  1.00  0.00    -0.200 F 
ATOM     72  C   UNL A   1      45.203  36.045  30.005  1.00  0.00     0.200 A 
ATOM     73  F   UNL A   1      44.439  36.690  27.867  1.00  0.00    -0.200 F 
ATOM     74  F   UNL A   1      45.488  37.320  30.303  1.00  0.00    -0.200 F 
ENDBRANCH  50  64
BRANCH  51  75
ATOM     75  C   UNL A   1      40.992  24.256  27.418  1.00  0.00     0.064 A 
ATOM     76  C   UNL A   1      41.553  23.137  28.050  1.00  0.00     0.173 A 
ATOM     77  C   UNL A   1      39.950  24.032  26.504  1.00  0.00     0.173 A 
ATOM     78  F   UNL A   1      42.572  23.294  28.907  1.00  0.00    -0.203 F 
ATOM     79  C   UNL A   1      41.097  21.849  27.776  1.00  0.00     0.198 A 
ATOM     80  C   UNL A   1      39.473  22.746  26.255  1.00  0.00     0.198 A 
ATOM     81  F   UNL A   1      39.383  25.064  25.864  1.00  0.00    -0.203 F 
ATOM     82  F   UNL A   1      41.680  20.796  28.364  1.00  0.00    -0.200 F 
ATOM     83  C   UNL A   1      40.051  21.655  26.886  1.00  0.00     0.200 A 
ATOM     84  F   UNL A   1      38.453  22.565  25.406  1.00  0.00    -0.200 F 
ATOM     85  F   UNL A   1      39.604  20.418  26.634  1.00  0.00    -0.200 F 
ENDBRANCH  51  75
BRANCH  63  86
ATOM     86  C   UNL A   1      47.075  27.439  26.166  1.00  0.00     0.064 A 
ATOM     87  C   UNL A   1      48.087  26.788  26.887  1.00  0.00     0.173 A 
ATOM     88  C   UNL A   1      47.270  27.619  24.786  1.00  0.00     0.173 A 
ATOM     89  F   UNL A   1      47.961  26.601  28.210  1.00  0.00    -0.203 F 
ATOM     90  C   UNL A   1      49.256  26.364  26.259  1.00  0.00     0.198 A 
ATOM     91  C   UNL A   1      48.422  27.157  24.156  1.00  0.00     0.198 A 
ATOM     92  F   UNL A   1      46.334  28.228  24.044  1.00  0.00    -0.203 F 
ATOM     93  F   UNL A   1      50.234  25.797  26.981  1.00  0.00    -0.200 F 
ATOM     94  C   UNL A   1      49.419  26.540  24.894  1.00  0.00     0.200 A 
ATOM     95  F   UNL A   1      48.566  27.310  22.832  1.00  0.00    -0.200 F 
ATOM     96  F   UNL A   1      50.540  26.121  24.290  1.00  0.00    -0.200 F 
ENDBRANCH  63  86
ENDBRANCH  37  38
ENDBRANCH  30  32
ENDBRANCH  29  30
ENDBRANCH  28  29
ENDBRANCH  27  28
ENDBRANCH  26  27
ENDBRANCH  25  26
ENDBRANCH   1  25
TORSDOF 20
ENDMDL
