MODEL 1
REMARK VINA RESULT:     -11.0      0.000      0.000
REMARK SMILES Cc1cc(=O)cc(C)n1C[C@H]1CCCC[C@@H]1C(=O)OCCOCCOCCOC(=O)c1ccc(-c2c3nc(c(-c4c(F)c(F)c(F)c(F)c4F)c4ccc([nH]4)c(-c4c(F)c(F)c(F)c(F)c4F)c4nc(c(-c5c(F)c(F)c(F)c(F)c5F)c5ccc2[nH]5)C=C4)C=C3)cc1
REMARK SMILES IDX 23 1 22 2 21 3 20 4 19 5 17 6 18 7 16 8 11 9 12 10 13 11
REMARK SMILES IDX 15 12 14 13 10 14 9 15 1 16 2 17 3 18 4 19 7 20 5 21 6 22
REMARK SMILES IDX 8 23 24 24 25 25 26 26 27 27 28 28 29 29 30 30 31 31 32 32
REMARK SMILES IDX 93 33 33 34 92 35 34 36 35 37 36 38 86 39 37 40 91 41 85 42
REMARK SMILES IDX 87 43 38 44 90 45 84 46 83 47 39 49 71 50 51 51 70 52 52 53
REMARK SMILES IDX 55 54 69 55 88 56 53 57 54 58 68 60 89 61 56 62 40 63 41 64
REMARK SMILES IDX 49 65 42 66 43 67 47 68 50 69 44 70 45 71 48 72 46 73 72 74
REMARK SMILES IDX 73 75 81 76 74 77 75 78 79 79 82 80 76 81 77 82 80 83 78 84
REMARK SMILES IDX 57 85 58 86 66 87 59 88 60 89 64 90 67 91 61 92 62 93 65 94
REMARK SMILES IDX 63 95
REMARK H PARENT 87 48 55 59
REMARK Flexibility Score: inf
ROOT
ATOM      1  C   UNL A   1      39.164  22.211  26.393  1.00  0.00     0.188 C 
ENDROOT
BRANCH   1   2
ATOM      2  O   UNL A   1      38.270  21.827  25.368  1.00  0.00    -0.376 OA
BRANCH   2   3
ATOM      3  C   UNL A   1      37.320  22.801  24.963  1.00  0.00     0.202 C 
BRANCH   3   4
ATOM      4  C   UNL A   1      36.565  22.564  23.640  1.00  0.00     0.261 C 
BRANCH   4   5
ATOM      5  O   UNL A   1      35.405  23.392  23.400  1.00  0.00    -0.463 OA
BRANCH   5   6
ATOM      6  C   UNL A   1      34.201  22.856  23.723  1.00  0.00     0.309 C 
ATOM      7  O   UNL A   1      33.972  21.658  23.633  1.00  0.00    -0.252 OA
BRANCH   6   8
ATOM      8  C   UNL A   1      33.197  23.934  24.228  1.00  0.00     0.104 C 
ATOM      9  C   UNL A   1      33.710  24.831  25.425  1.00  0.00     0.023 C 
ATOM     10  C   UNL A   1      34.089  23.870  26.554  1.00  0.00     0.006 C 
ATOM     11  C   UNL A   1      32.932  22.953  26.979  1.00  0.00     0.000 C 
ATOM     12  C   UNL A   1      31.918  23.188  24.622  1.00  0.00     0.016 C 
ATOM     13  C   UNL A   1      32.125  22.303  25.852  1.00  0.00     0.001 C 
BRANCH   9  14
ATOM     14  C   UNL A   1      32.659  25.928  25.860  1.00  0.00     0.126 C 
BRANCH  14  15
ATOM     15  N   UNL A   1      31.944  26.704  24.764  1.00  0.00    -0.349 N 
ATOM     16  C   UNL A   1      29.670  25.828  25.576  1.00  0.00     0.064 C 
ATOM     17  C   UNL A   1      30.520  26.616  24.609  1.00  0.00     0.018 A 
ATOM     18  C   UNL A   1      29.842  27.294  23.660  1.00  0.00     0.073 A 
ATOM     19  C   UNL A   1      30.551  28.178  22.729  1.00  0.00     0.182 A 
ATOM     20  C   UNL A   1      32.583  27.736  24.002  1.00  0.00     0.018 A 
ATOM     21  O   UNL A   1      29.970  28.751  21.817  1.00  0.00    -0.290 OA
ATOM     22  C   UNL A   1      31.972  28.403  23.003  1.00  0.00     0.073 A 
ATOM     23  C   UNL A   1      33.931  28.299  24.364  1.00  0.00     0.064 C 
ENDBRANCH  14  15
ENDBRANCH   9  14
ENDBRANCH   6   8
ENDBRANCH   5   6
ENDBRANCH   4   5
ENDBRANCH   3   4
ENDBRANCH   2   3
ENDBRANCH   1   2
BRANCH   1  24
ATOM     24  C   UNL A   1      40.369  21.257  26.568  1.00  0.00     0.188 C 
BRANCH  24  25
ATOM     25  O   UNL A   1      41.444  21.295  25.643  1.00  0.00    -0.376 OA
BRANCH  25  26
ATOM     26  C   UNL A   1      42.699  20.755  26.033  1.00  0.00     0.202 C 
BRANCH  26  27
ATOM     27  C   UNL A   1      43.995  21.515  25.692  1.00  0.00     0.261 C 
BRANCH  27  28
ATOM     28  O   UNL A   1      44.194  22.778  26.360  1.00  0.00    -0.460 OA
BRANCH  28  29
ATOM     29  C   UNL A   1      43.913  23.890  25.639  1.00  0.00     0.338 C 
ATOM     30  O   UNL A   1      44.072  24.051  24.435  1.00  0.00    -0.246 OA
BRANCH  29  31
ATOM     31  C   UNL A   1      43.185  24.870  26.476  1.00  0.00     0.060 A 
ATOM     32  C   UNL A   1      43.646  26.195  26.523  1.00  0.00     0.016 A 
ATOM     33  C   UNL A   1      42.097  24.482  27.257  1.00  0.00     0.016 A 
ATOM     34  C   UNL A   1      43.025  27.130  27.353  1.00  0.00     0.010 A 
ATOM     35  C   UNL A   1      41.505  25.413  28.125  1.00  0.00     0.010 A 
ATOM     36  C   UNL A   1      41.984  26.734  28.197  1.00  0.00    -0.014 A 
BRANCH  36  37
ATOM     37  C   UNL A   1      41.544  27.640  29.288  1.00  0.00     0.031 A 
ATOM     38  C   UNL A   1      42.315  27.634  30.581  1.00  0.00     0.074 A 
ATOM     39  C   UNL A   1      40.507  28.484  29.133  1.00  0.00     0.049 A 
ATOM     40  N   UNL A   1      42.071  28.262  31.703  1.00  0.00    -0.248 NA
ATOM     41  C   UNL A   1      43.524  26.794  30.611  1.00  0.00     0.031 C 
ATOM     42  C   UNL A   1      39.725  28.647  27.912  1.00  0.00     0.029 A 
ATOM     43  N   UNL A   1      39.932  29.359  30.023  1.00  0.00    -0.354 N 
ATOM     44  C   UNL A   1      43.101  27.906  32.564  1.00  0.00     0.074 A 
ATOM     45  C   UNL A   1      43.944  26.967  31.856  1.00  0.00     0.031 C 
ATOM     46  C   UNL A   1      38.759  29.557  28.134  1.00  0.00     0.029 A 
ATOM     47  C   UNL A   1      38.834  30.013  29.523  1.00  0.00     0.049 A 
ATOM     48  H   UNL A   1      40.276  29.504  30.935  1.00  0.00     0.167 HD
ATOM     49  C   UNL A   1      43.332  28.333  33.828  1.00  0.00     0.037 A 
ATOM     50  C   UNL A   1      37.976  30.862  30.125  1.00  0.00     0.037 A 
ATOM     51  C   UNL A   1      42.499  29.270  34.533  1.00  0.00     0.049 A 
ATOM     52  C   UNL A   1      38.184  31.232  31.574  1.00  0.00     0.074 A 
ATOM     53  C   UNL A   1      42.645  29.753  35.821  1.00  0.00     0.029 A 
ATOM     54  N   UNL A   1      41.366  29.871  34.006  1.00  0.00    -0.354 N 
ATOM     55  N   UNL A   1      39.148  30.881  32.388  1.00  0.00    -0.248 NA
ATOM     56  C   UNL A   1      37.181  32.117  32.187  1.00  0.00     0.031 C 
ATOM     57  C   UNL A   1      41.567  30.598  36.096  1.00  0.00     0.029 A 
ATOM     58  C   UNL A   1      40.784  30.693  34.958  1.00  0.00     0.049 A 
ATOM     59  H   UNL A   1      41.026  29.734  33.092  1.00  0.00     0.167 HD
ATOM     60  C   UNL A   1      38.888  31.522  33.594  1.00  0.00     0.074 A 
ATOM     61  C   UNL A   1      37.679  32.295  33.403  1.00  0.00     0.031 C 
ATOM     62  C   UNL A   1      39.587  31.471  34.755  1.00  0.00     0.037 A 
BRANCH  49  63
ATOM     63  C   UNL A   1      44.528  27.777  34.547  1.00  0.00     0.064 A 
ATOM     64  C   UNL A   1      44.481  26.541  35.208  1.00  0.00     0.173 A 
ATOM     65  C   UNL A   1      45.754  28.459  34.515  1.00  0.00     0.173 A 
ATOM     66  F   UNL A   1      43.330  25.856  35.280  1.00  0.00    -0.203 F 
ATOM     67  C   UNL A   1      45.614  26.015  35.824  1.00  0.00     0.198 A 
ATOM     68  C   UNL A   1      46.891  27.915  35.104  1.00  0.00     0.198 A 
ATOM     69  F   UNL A   1      45.855  29.644  33.893  1.00  0.00    -0.203 F 
ATOM     70  F   UNL A   1      45.538  24.850  36.481  1.00  0.00    -0.200 F 
ATOM     71  C   UNL A   1      46.820  26.697  35.762  1.00  0.00     0.200 A 
ATOM     72  F   UNL A   1      48.060  28.567  35.029  1.00  0.00    -0.200 F 
ATOM     73  F   UNL A   1      47.914  26.179  36.337  1.00  0.00    -0.200 F 
ENDBRANCH  49  63
BRANCH  50  74
ATOM     74  C   UNL A   1      36.829  31.423  29.360  1.00  0.00     0.064 A 
ATOM     75  C   UNL A   1      35.742  30.615  28.999  1.00  0.00     0.173 A 
ATOM     76  C   UNL A   1      36.799  32.769  28.966  1.00  0.00     0.173 A 
ATOM     77  F   UNL A   1      35.736  29.314  29.326  1.00  0.00    -0.203 F 
ATOM     78  C   UNL A   1      34.674  31.128  28.265  1.00  0.00     0.198 A 
ATOM     79  C   UNL A   1      35.716  33.289  28.259  1.00  0.00     0.198 A 
ATOM     80  F   UNL A   1      37.817  33.584  29.277  1.00  0.00    -0.203 F 
ATOM     81  F   UNL A   1      33.667  30.324  27.898  1.00  0.00    -0.200 F 
ATOM     82  C   UNL A   1      34.658  32.467  27.904  1.00  0.00     0.200 A 
ATOM     83  F   UNL A   1      35.699  34.586  27.922  1.00  0.00    -0.200 F 
ATOM     84  F   UNL A   1      33.624  32.963  27.209  1.00  0.00    -0.200 F 
ENDBRANCH  50  74
BRANCH  62  85
ATOM     85  C   UNL A   1      39.094  32.290  35.915  1.00  0.00     0.064 A 
ATOM     86  C   UNL A   1      38.280  31.735  36.912  1.00  0.00     0.173 A 
ATOM     87  C   UNL A   1      39.517  33.619  36.079  1.00  0.00     0.173 A 
ATOM     88  F   UNL A   1      37.837  30.473  36.799  1.00  0.00    -0.203 F 
ATOM     89  C   UNL A   1      37.897  32.482  38.024  1.00  0.00     0.198 A 
ATOM     90  C   UNL A   1      39.161  34.352  37.207  1.00  0.00     0.198 A 
ATOM     91  F   UNL A   1      40.307  34.196  35.161  1.00  0.00    -0.203 F 
ATOM     92  F   UNL A   1      37.092  31.941  38.948  1.00  0.00    -0.200 F 
ATOM     93  C   UNL A   1      38.349  33.785  38.176  1.00  0.00     0.200 A 
ATOM     94  F   UNL A   1      39.614  35.604  37.362  1.00  0.00    -0.200 F 
ATOM     95  F   UNL A   1      37.998  34.494  39.258  1.00  0.00    -0.200 F 
ENDBRANCH  62  85
ENDBRANCH  36  37
ENDBRANCH  29  31
ENDBRANCH  28  29
ENDBRANCH  27  28
ENDBRANCH  26  27
ENDBRANCH  25  26
ENDBRANCH  24  25
ENDBRANCH   1  24
TORSDOF 19
ENDMDL
MODEL 2
REMARK VINA RESULT:     -11.0      0.203      1.570
REMARK SMILES Cc1cc(=O)cc(C)n1C[C@H]1CCCC[C@@H]1C(=O)OCCOCCOCCOC(=O)c1ccc(-c2c3nc(c(-c4c(F)c(F)c(F)c(F)c4F)c4ccc([nH]4)c(-c4c(F)c(F)c(F)c(F)c4F)c4nc(c(-c5c(F)c(F)c(F)c(F)c5F)c5ccc2[nH]5)C=C4)C=C3)cc1
REMARK SMILES IDX 23 1 22 2 21 3 20 4 19 5 17 6 18 7 16 8 11 9 12 10 13 11
REMARK SMILES IDX 15 12 14 13 10 14 9 15 1 16 2 17 3 18 4 19 7 20 5 21 6 22
REMARK SMILES IDX 8 23 24 24 25 25 26 26 27 27 28 28 29 29 30 30 31 31 32 32
REMARK SMILES IDX 93 33 33 34 92 35 34 36 35 37 36 38 86 39 37 40 91 41 85 42
REMARK SMILES IDX 87 43 38 44 90 45 84 46 83 47 39 49 71 50 51 51 70 52 52 53
REMARK SMILES IDX 55 54 69 55 88 56 53 57 54 58 68 60 89 61 56 62 40 63 41 64
REMARK SMILES IDX 49 65 42 66 43 67 47 68 50 69 44 70 45 71 48 72 46 73 72 74
REMARK SMILES IDX 73 75 81 76 74 77 75 78 79 79 82 80 76 81 77 82 80 83 78 84
REMARK SMILES IDX 57 85 58 86 66 87 59 88 60 89 64 90 67 91 61 92 62 93 65 94
REMARK SMILES IDX 63 95
REMARK H PARENT 87 48 55 59
REMARK Flexibility Score: inf
ROOT
ATOM      1  C   UNL A   1      39.314  22.143  26.492  1.00  0.00     0.188 C 
ENDROOT
BRANCH   1   2
ATOM      2  O   UNL A   1      38.477  21.726  25.432  1.00  0.00    -0.376 OA
BRANCH   2   3
ATOM      3  C   UNL A   1      37.262  22.441  25.270  1.00  0.00     0.202 C 
BRANCH   3   4
ATOM      4  C   UNL A   1      36.556  22.362  23.902  1.00  0.00     0.261 C 
BRANCH   4   5
ATOM      5  O   UNL A   1      35.531  23.349  23.646  1.00  0.00    -0.463 OA
BRANCH   5   6
ATOM      6  C   UNL A   1      34.248  22.911  23.674  1.00  0.00     0.309 C 
ATOM      7  O   UNL A   1      33.936  21.773  23.352  1.00  0.00    -0.252 OA
BRANCH   6   8
ATOM      8  C   UNL A   1      33.265  24.009  24.179  1.00  0.00     0.104 C 
ATOM      9  C   UNL A   1      33.756  24.829  25.440  1.00  0.00     0.023 C 
ATOM     10  C   UNL A   1      34.036  23.804  26.540  1.00  0.00     0.006 C 
ATOM     11  C   UNL A   1      32.822  22.920  26.866  1.00  0.00     0.000 C 
ATOM     12  C   UNL A   1      31.939  23.304  24.477  1.00  0.00     0.016 C 
ATOM     13  C   UNL A   1      32.046  22.358  25.673  1.00  0.00     0.001 C 
BRANCH   9  14
ATOM     14  C   UNL A   1      32.731  25.951  25.874  1.00  0.00     0.126 C 
BRANCH  14  15
ATOM     15  N   UNL A   1      31.997  26.708  24.778  1.00  0.00    -0.349 N 
ATOM     16  C   UNL A   1      29.739  25.829  25.632  1.00  0.00     0.064 C 
ATOM     17  C   UNL A   1      30.571  26.609  24.643  1.00  0.00     0.018 A 
ATOM     18  C   UNL A   1      29.876  27.269  23.694  1.00  0.00     0.073 A 
ATOM     19  C   UNL A   1      30.566  28.145  22.741  1.00  0.00     0.182 A 
ATOM     20  C   UNL A   1      32.619  27.734  23.993  1.00  0.00     0.018 A 
ATOM     21  O   UNL A   1      29.970  28.702  21.830  1.00  0.00    -0.290 OA
ATOM     22  C   UNL A   1      31.990  28.383  22.993  1.00  0.00     0.073 A 
ATOM     23  C   UNL A   1      33.968  28.310  24.329  1.00  0.00     0.064 C 
ENDBRANCH  14  15
ENDBRANCH   9  14
ENDBRANCH   6   8
ENDBRANCH   5   6
ENDBRANCH   4   5
ENDBRANCH   3   4
ENDBRANCH   2   3
ENDBRANCH   1   2
BRANCH   1  24
ATOM     24  C   UNL A   1      40.618  21.320  26.626  1.00  0.00     0.188 C 
BRANCH  24  25
ATOM     25  O   UNL A   1      41.622  21.413  25.628  1.00  0.00    -0.376 OA
BRANCH  25  26
ATOM     26  C   UNL A   1      42.911  20.887  25.907  1.00  0.00     0.202 C 
BRANCH  26  27
ATOM     27  C   UNL A   1      44.164  21.704  25.539  1.00  0.00     0.261 C 
BRANCH  27  28
ATOM     28  O   UNL A   1      44.358  22.940  26.256  1.00  0.00    -0.460 OA
BRANCH  28  29
ATOM     29  C   UNL A   1      44.097  24.080  25.572  1.00  0.00     0.338 C 
ATOM     30  O   UNL A   1      44.295  24.290  24.382  1.00  0.00    -0.246 OA
BRANCH  29  31
ATOM     31  C   UNL A   1      43.338  25.023  26.424  1.00  0.00     0.060 A 
ATOM     32  C   UNL A   1      43.770  26.356  26.511  1.00  0.00     0.016 A 
ATOM     33  C   UNL A   1      42.248  24.593  27.180  1.00  0.00     0.016 A 
ATOM     34  C   UNL A   1      43.119  27.256  27.355  1.00  0.00     0.010 A 
ATOM     35  C   UNL A   1      41.625  25.488  28.062  1.00  0.00     0.010 A 
ATOM     36  C   UNL A   1      42.076  26.817  28.175  1.00  0.00    -0.014 A 
BRANCH  36  37
ATOM     37  C   UNL A   1      41.602  27.685  29.282  1.00  0.00     0.031 A 
ATOM     38  C   UNL A   1      42.348  27.651  30.590  1.00  0.00     0.074 A 
ATOM     39  C   UNL A   1      40.558  28.520  29.131  1.00  0.00     0.049 A 
ATOM     40  N   UNL A   1      42.073  28.244  31.724  1.00  0.00    -0.248 NA
ATOM     41  C   UNL A   1      43.567  26.826  30.620  1.00  0.00     0.031 C 
ATOM     42  C   UNL A   1      39.797  28.709  27.900  1.00  0.00     0.029 A 
ATOM     43  N   UNL A   1      39.954  29.362  30.034  1.00  0.00    -0.354 N 
ATOM     44  C   UNL A   1      43.092  27.876  32.595  1.00  0.00     0.074 A 
ATOM     45  C   UNL A   1      43.960  26.969  31.877  1.00  0.00     0.031 C 
ATOM     46  C   UNL A   1      38.816  29.599  28.128  1.00  0.00     0.029 A 
ATOM     47  C   UNL A   1      38.857  30.016  29.531  1.00  0.00     0.049 A 
ATOM     48  H   UNL A   1      40.278  29.485  30.956  1.00  0.00     0.167 HD
ATOM     49  C   UNL A   1      43.292  28.269  33.875  1.00  0.00     0.037 A 
ATOM     50  C   UNL A   1      37.976  30.837  30.139  1.00  0.00     0.037 A 
ATOM     51  C   UNL A   1      42.433  29.175  34.590  1.00  0.00     0.049 A 
ATOM     52  C   UNL A   1      38.151  31.167  31.602  1.00  0.00     0.074 A 
ATOM     53  C   UNL A   1      42.547  29.622  35.894  1.00  0.00     0.029 A 
ATOM     54  N   UNL A   1      41.302  29.776  34.058  1.00  0.00    -0.354 N 
ATOM     55  N   UNL A   1      39.104  30.805  32.425  1.00  0.00    -0.248 NA
ATOM     56  C   UNL A   1      37.124  32.021  32.221  1.00  0.00     0.031 C 
ATOM     57  C   UNL A   1      41.453  30.445  36.171  1.00  0.00     0.029 A 
ATOM     58  C   UNL A   1      40.691  30.563  35.021  1.00  0.00     0.049 A 
ATOM     59  H   UNL A   1      40.982  29.662  33.133  1.00  0.00     0.167 HD
ATOM     60  C   UNL A   1      38.812  31.407  33.643  1.00  0.00     0.074 A 
ATOM     61  C   UNL A   1      37.597  32.170  33.451  1.00  0.00     0.031 C 
ATOM     62  C   UNL A   1      39.488  31.332  34.816  1.00  0.00     0.037 A 
BRANCH  49  63
ATOM     63  C   UNL A   1      44.481  27.708  34.601  1.00  0.00     0.064 A 
ATOM     64  C   UNL A   1      45.720  28.365  34.605  1.00  0.00     0.173 A 
ATOM     65  C   UNL A   1      44.359  26.532  35.356  1.00  0.00     0.173 A 
ATOM     66  F   UNL A   1      45.893  29.484  33.887  1.00  0.00    -0.203 F 
ATOM     67  C   UNL A   1      46.797  27.858  35.328  1.00  0.00     0.198 A 
ATOM     68  C   UNL A   1      45.427  26.045  36.102  1.00  0.00     0.198 A 
ATOM     69  F   UNL A   1      43.194  25.865  35.389  1.00  0.00    -0.203 F 
ATOM     70  F   UNL A   1      47.982  28.481  35.289  1.00  0.00    -0.200 F 
ATOM     71  C   UNL A   1      46.646  26.705  36.084  1.00  0.00     0.200 A 
ATOM     72  F   UNL A   1      45.276  24.940  36.846  1.00  0.00    -0.200 F 
ATOM     73  F   UNL A   1      47.678  26.229  36.795  1.00  0.00    -0.200 F 
ENDBRANCH  49  63
BRANCH  50  74
ATOM     74  C   UNL A   1      36.837  31.405  29.368  1.00  0.00     0.064 A 
ATOM     75  C   UNL A   1      36.803  32.765  29.032  1.00  0.00     0.173 A 
ATOM     76  C   UNL A   1      35.758  30.606  28.960  1.00  0.00     0.173 A 
ATOM     77  F   UNL A   1      37.796  33.577  29.425  1.00  0.00    -0.203 F 
ATOM     78  C   UNL A   1      35.730  33.307  28.328  1.00  0.00     0.198 A 
ATOM     79  C   UNL A   1      34.701  31.143  28.229  1.00  0.00     0.198 A 
ATOM     80  F   UNL A   1      35.736  29.300  29.262  1.00  0.00    -0.203 F 
ATOM     81  F   UNL A   1      35.703  34.619  28.056  1.00  0.00    -0.200 F 
ATOM     82  C   UNL A   1      34.684  32.493  27.918  1.00  0.00     0.200 A 
ATOM     83  F   UNL A   1      33.698  30.351  27.825  1.00  0.00    -0.200 F 
ATOM     84  F   UNL A   1      33.658  33.013  27.230  1.00  0.00    -0.200 F 
ENDBRANCH  50  74
BRANCH  62  85
ATOM     85  C   UNL A   1      38.962  32.111  35.989  1.00  0.00     0.064 A 
ATOM     86  C   UNL A   1      38.168  31.507  36.974  1.00  0.00     0.173 A 
ATOM     87  C   UNL A   1      39.333  33.451  36.177  1.00  0.00     0.173 A 
ATOM     88  F   UNL A   1      37.775  30.231  36.839  1.00  0.00    -0.203 F 
ATOM     89  C   UNL A   1      37.755  32.220  38.098  1.00  0.00     0.198 A 
ATOM     90  C   UNL A   1      38.947  34.151  37.318  1.00  0.00     0.198 A 
ATOM     91  F   UNL A   1      40.102  34.075  35.272  1.00  0.00    -0.203 F 
ATOM     92  F   UNL A   1      36.969  31.631  39.010  1.00  0.00    -0.200 F 
ATOM     93  C   UNL A   1      38.155  33.536  38.275  1.00  0.00     0.200 A 
ATOM     94  F   UNL A   1      39.352  35.416  37.496  1.00  0.00    -0.200 F 
ATOM     95  F   UNL A   1      37.775  34.212  39.368  1.00  0.00    -0.200 F 
ENDBRANCH  62  85
ENDBRANCH  36  37
ENDBRANCH  29  31
ENDBRANCH  28  29
ENDBRANCH  27  28
ENDBRANCH  26  27
ENDBRANCH  25  26
ENDBRANCH  24  25
ENDBRANCH   1  24
TORSDOF 19
ENDMDL
MODEL 3
REMARK VINA RESULT:     -10.5      5.670     10.765
REMARK SMILES Cc1cc(=O)cc(C)n1C[C@H]1CCCC[C@@H]1C(=O)OCCOCCOCCOC(=O)c1ccc(-c2c3nc(c(-c4c(F)c(F)c(F)c(F)c4F)c4ccc([nH]4)c(-c4c(F)c(F)c(F)c(F)c4F)c4nc(c(-c5c(F)c(F)c(F)c(F)c5F)c5ccc2[nH]5)C=C4)C=C3)cc1
REMARK SMILES IDX 23 1 22 2 21 3 20 4 19 5 17 6 18 7 16 8 11 9 12 10 13 11
REMARK SMILES IDX 15 12 14 13 10 14 9 15 1 16 2 17 3 18 4 19 7 20 5 21 6 22
REMARK SMILES IDX 8 23 24 24 25 25 26 26 27 27 28 28 29 29 30 30 31 31 32 32
REMARK SMILES IDX 93 33 33 34 92 35 34 36 35 37 36 38 86 39 37 40 91 41 85 42
REMARK SMILES IDX 87 43 38 44 90 45 84 46 83 47 39 49 71 50 51 51 70 52 52 53
REMARK SMILES IDX 55 54 69 55 88 56 53 57 54 58 68 60 89 61 56 62 40 63 41 64
REMARK SMILES IDX 49 65 42 66 43 67 47 68 50 69 44 70 45 71 48 72 46 73 72 74
REMARK SMILES IDX 73 75 81 76 74 77 75 78 79 79 82 80 76 81 77 82 80 83 78 84
REMARK SMILES IDX 57 85 58 86 66 87 59 88 60 89 64 90 67 91 61 92 62 93 65 94
REMARK SMILES IDX 63 95
REMARK H PARENT 87 48 55 59
REMARK Flexibility Score: inf
ROOT
ATOM      1  C   UNL A   1      32.959  34.785  28.820  1.00  0.00     0.188 C 
ENDROOT
BRANCH   1   2
ATOM      2  O   UNL A   1      34.022  34.585  27.909  1.00  0.00    -0.376 OA
BRANCH   2   3
ATOM      3  C   UNL A   1      34.836  33.443  28.132  1.00  0.00     0.202 C 
BRANCH   3   4
ATOM      4  C   UNL A   1      34.150  32.156  28.631  1.00  0.00     0.261 C 
BRANCH   4   5
ATOM      5  O   UNL A   1      33.689  31.235  27.618  1.00  0.00    -0.463 OA
BRANCH   5   6
ATOM      6  C   UNL A   1      34.447  30.129  27.412  1.00  0.00     0.309 C 
ATOM      7  O   UNL A   1      35.668  30.172  27.370  1.00  0.00    -0.252 OA
BRANCH   6   8
ATOM      8  C   UNL A   1      33.580  28.843  27.266  1.00  0.00     0.104 C 
ATOM      9  C   UNL A   1      34.027  27.853  26.117  1.00  0.00     0.023 C 
ATOM     10  C   UNL A   1      34.019  28.662  24.819  1.00  0.00     0.006 C 
ATOM     11  C   UNL A   1      32.658  29.311  24.522  1.00  0.00     0.000 C 
ATOM     12  C   UNL A   1      32.139  29.311  27.045  1.00  0.00     0.016 C 
ATOM     13  C   UNL A   1      31.960  30.005  25.694  1.00  0.00     0.001 C 
BRANCH   9  14
ATOM     14  C   UNL A   1      33.132  26.552  26.052  1.00  0.00     0.126 C 
BRANCH  14  15
ATOM     15  N   UNL A   1      33.154  25.735  24.769  1.00  0.00    -0.349 N 
ATOM     16  C   UNL A   1      35.233  24.459  25.573  1.00  0.00     0.064 C 
ATOM     17  C   UNL A   1      34.186  24.767  24.530  1.00  0.00     0.018 A 
ATOM     18  C   UNL A   1      34.241  24.013  23.413  1.00  0.00     0.073 A 
ATOM     19  C   UNL A   1      33.215  24.148  22.374  1.00  0.00     0.182 A 
ATOM     20  C   UNL A   1      32.047  25.690  23.859  1.00  0.00     0.018 A 
ATOM     21  O   UNL A   1      33.278  23.526  21.323  1.00  0.00    -0.290 OA
ATOM     22  C   UNL A   1      32.070  25.002  22.700  1.00  0.00     0.073 A 
ATOM     23  C   UNL A   1      30.694  26.256  24.195  1.00  0.00     0.064 C 
ENDBRANCH  14  15
ENDBRANCH   9  14
ENDBRANCH   6   8
ENDBRANCH   5   6
ENDBRANCH   4   5
ENDBRANCH   3   4
ENDBRANCH   2   3
ENDBRANCH   1   2
BRANCH   1  24
ATOM     24  C   UNL A   1      33.389  35.436  30.157  1.00  0.00     0.188 C 
BRANCH  24  25
ATOM     25  O   UNL A   1      33.617  34.625  31.299  1.00  0.00    -0.376 OA
BRANCH  25  26
ATOM     26  C   UNL A   1      34.956  34.361  31.691  1.00  0.00     0.202 C 
BRANCH  26  27
ATOM     27  C   UNL A   1      35.277  34.085  33.172  1.00  0.00     0.261 C 
BRANCH  27  28
ATOM     28  O   UNL A   1      36.206  33.015  33.440  1.00  0.00    -0.460 OA
BRANCH  28  29
ATOM     29  C   UNL A   1      36.139  31.940  32.616  1.00  0.00     0.338 C 
ATOM     30  O   UNL A   1      35.139  31.298  32.320  1.00  0.00    -0.246 OA
BRANCH  29  31
ATOM     31  C   UNL A   1      37.439  31.735  31.939  1.00  0.00     0.060 A 
ATOM     32  C   UNL A   1      37.482  31.753  30.537  1.00  0.00     0.016 A 
ATOM     33  C   UNL A   1      38.597  31.468  32.669  1.00  0.00     0.016 A 
ATOM     34  C   UNL A   1      38.677  31.497  29.863  1.00  0.00     0.010 A 
ATOM     35  C   UNL A   1      39.786  31.166  31.989  1.00  0.00     0.010 A 
ATOM     36  C   UNL A   1      39.825  31.152  30.582  1.00  0.00    -0.014 A 
BRANCH  36  37
ATOM     37  C   UNL A   1      40.993  30.582  29.863  1.00  0.00     0.031 A 
ATOM     38  C   UNL A   1      42.175  31.475  29.593  1.00  0.00     0.074 A 
ATOM     39  C   UNL A   1      41.033  29.291  29.487  1.00  0.00     0.049 A 
ATOM     40  N   UNL A   1      43.263  31.236  28.908  1.00  0.00    -0.248 NA
ATOM     41  C   UNL A   1      42.112  32.827  30.171  1.00  0.00     0.031 C 
ATOM     42  C   UNL A   1      39.994  28.300  29.753  1.00  0.00     0.029 A 
ATOM     43  N   UNL A   1      41.992  28.596  28.790  1.00  0.00    -0.354 N 
ATOM     44  C   UNL A   1      44.019  32.399  28.985  1.00  0.00     0.074 A 
ATOM     45  C   UNL A   1      43.244  33.361  29.738  1.00  0.00     0.031 C 
ATOM     46  C   UNL A   1      40.364  27.127  29.210  1.00  0.00     0.029 A 
ATOM     47  C   UNL A   1      41.649  27.293  28.529  1.00  0.00     0.049 A 
ATOM     48  H   UNL A   1      42.845  28.996  28.504  1.00  0.00     0.167 HD
ATOM     49  C   UNL A   1      45.254  32.640  28.485  1.00  0.00     0.037 A 
ATOM     50  C   UNL A   1      42.289  26.351  27.804  1.00  0.00     0.037 A 
ATOM     51  C   UNL A   1      46.029  31.684  27.740  1.00  0.00     0.049 A 
ATOM     52  C   UNL A   1      43.610  26.681  27.153  1.00  0.00     0.074 A 
ATOM     53  C   UNL A   1      47.284  31.841  27.181  1.00  0.00     0.029 A 
ATOM     54  N   UNL A   1      45.622  30.390  27.454  1.00  0.00    -0.354 N 
ATOM     55  N   UNL A   1      44.312  27.785  27.215  1.00  0.00    -0.248 NA
ATOM     56  C   UNL A   1      44.228  25.629  26.329  1.00  0.00     0.031 C 
ATOM     57  C   UNL A   1      47.612  30.664  26.505  1.00  0.00     0.029 A 
ATOM     58  C   UNL A   1      46.590  29.750  26.697  1.00  0.00     0.049 A 
ATOM     59  H   UNL A   1      44.773  29.985  27.747  1.00  0.00     0.167 HD
ATOM     60  C   UNL A   1      45.462  27.555  26.469  1.00  0.00     0.074 A 
ATOM     61  C   UNL A   1      45.372  26.198  25.971  1.00  0.00     0.031 C 
ATOM     62  C   UNL A   1      46.498  28.393  26.217  1.00  0.00     0.037 A 
BRANCH  49  63
ATOM     63  C   UNL A   1      45.845  34.003  28.708  1.00  0.00     0.064 A 
ATOM     64  C   UNL A   1      46.654  34.283  29.819  1.00  0.00     0.173 A 
ATOM     65  C   UNL A   1      45.652  35.021  27.763  1.00  0.00     0.173 A 
ATOM     66  F   UNL A   1      46.857  33.348  30.759  1.00  0.00    -0.203 F 
ATOM     67  C   UNL A   1      47.238  35.536  29.982  1.00  0.00     0.198 A 
ATOM     68  C   UNL A   1      46.263  36.263  27.912  1.00  0.00     0.198 A 
ATOM     69  F   UNL A   1      44.890  34.806  26.679  1.00  0.00    -0.203 F 
ATOM     70  F   UNL A   1      47.977  35.794  31.069  1.00  0.00    -0.200 F 
ATOM     71  C   UNL A   1      47.051  36.521  29.023  1.00  0.00     0.200 A 
ATOM     72  F   UNL A   1      46.095  37.208  26.977  1.00  0.00    -0.200 F 
ATOM     73  F   UNL A   1      47.630  37.721  29.172  1.00  0.00    -0.200 F 
ENDBRANCH  49  63
BRANCH  50  74
ATOM     74  C   UNL A   1      41.685  25.001  27.647  1.00  0.00     0.064 A 
ATOM     75  C   UNL A   1      42.221  23.891  28.314  1.00  0.00     0.173 A 
ATOM     76  C   UNL A   1      40.570  24.788  26.822  1.00  0.00     0.173 A 
ATOM     77  F   UNL A   1      43.305  24.036  29.091  1.00  0.00    -0.203 F 
ATOM     78  C   UNL A   1      41.673  22.619  28.155  1.00  0.00     0.198 A 
ATOM     79  C   UNL A   1      40.004  23.522  26.688  1.00  0.00     0.198 A 
ATOM     80  F   UNL A   1      40.023  25.813  26.153  1.00  0.00    -0.203 F 
ATOM     81  F   UNL A   1      42.231  21.569  28.772  1.00  0.00    -0.200 F 
ATOM     82  C   UNL A   1      40.559  22.438  27.349  1.00  0.00     0.200 A 
ATOM     83  F   UNL A   1      38.920  23.353  25.917  1.00  0.00    -0.200 F 
ATOM     84  F   UNL A   1      40.025  21.217  27.206  1.00  0.00    -0.200 F 
ENDBRANCH  50  74
BRANCH  62  85
ATOM     85  C   UNL A   1      47.642  27.876  25.389  1.00  0.00     0.064 A 
ATOM     86  C   UNL A   1      48.790  27.335  25.982  1.00  0.00     0.173 A 
ATOM     87  C   UNL A   1      47.547  27.838  23.989  1.00  0.00     0.173 A 
ATOM     88  F   UNL A   1      48.938  27.355  27.316  1.00  0.00    -0.203 F 
ATOM     89  C   UNL A   1      49.808  26.785  25.205  1.00  0.00     0.198 A 
ATOM     90  C   UNL A   1      48.550  27.258  23.216  1.00  0.00     0.198 A 
ATOM     91  F   UNL A   1      46.464  28.332  23.370  1.00  0.00    -0.203 F 
ATOM     92  F   UNL A   1      50.911  26.303  25.792  1.00  0.00    -0.200 F 
ATOM     93  C   UNL A   1      49.680  26.736  23.824  1.00  0.00     0.200 A 
ATOM     94  F   UNL A   1      48.415  27.194  21.885  1.00  0.00    -0.200 F 
ATOM     95  F   UNL A   1      50.650  26.186  23.080  1.00  0.00    -0.200 F 
ENDBRANCH  62  85
ENDBRANCH  36  37
ENDBRANCH  29  31
ENDBRANCH  28  29
ENDBRANCH  27  28
ENDBRANCH  26  27
ENDBRANCH  25  26
ENDBRANCH  24  25
ENDBRANCH   1  24
TORSDOF 19
ENDMDL
