MODEL 1
REMARK VINA RESULT:     -13.6      0.000      0.000
REMARK SMILES Cc1cc(C(=O)OCCOCCOCCOC(=O)c2ccc(-c3c4nc(c(-c5c(F)c(F)c(F)c(F)c5F)c5ccc([nH]5)c(-c5c(F)c(F)c(F)c(F)c5F)c5nc(c(-c6c(F)c(F)c(F)c(F)c6F)c6ccc3[nH]6)C=C5)C=C4)cc2)ccc1NC(=O)N1C[C@@H](C)[C@H](C)C1
REMARK SMILES IDX 12 1 11 2 10 3 9 4 8 5 7 6 5 7 6 8 4 9 1 10 2 11 3 12 84 13
REMARK SMILES IDX 83 14 82 15 85 16 86 17 87 19 88 20 89 21 94 22 90 23 92 24
REMARK SMILES IDX 91 25 93 26 13 27 14 28 15 29 16 30 17 31 18 32 19 33 20 34
REMARK SMILES IDX 81 35 21 36 80 37 22 38 23 39 24 40 74 41 25 42 79 43 73 44
REMARK SMILES IDX 75 45 26 46 78 47 72 48 71 49 27 51 59 52 39 53 58 54 40 55
REMARK SMILES IDX 43 56 57 57 76 58 41 59 42 60 56 62 77 63 44 64 28 65 29 66
REMARK SMILES IDX 37 67 30 68 31 69 35 70 38 71 32 72 33 73 36 74 34 75 60 76
REMARK SMILES IDX 61 77 69 78 62 79 63 80 67 81 70 82 64 83 65 84 68 85 66 86
REMARK SMILES IDX 45 87 46 88 54 89 47 90 48 91 52 92 55 93 49 94 50 95 53 96
REMARK SMILES IDX 51 97
REMARK H PARENT 85 18 75 50 43 61
REMARK Flexibility Score: inf
ROOT
ATOM      1  C   UNL A   1      33.775  30.935  27.489  1.00  0.00     0.188 C 
ENDROOT
BRANCH   1   2
ATOM      2  C   UNL A   1      32.332  30.973  27.005  1.00  0.00     0.188 C 
BRANCH   2   3
ATOM      3  O   UNL A   1      31.576  29.777  26.770  1.00  0.00    -0.376 OA
BRANCH   3   4
ATOM      4  C   UNL A   1      31.812  28.459  27.272  1.00  0.00     0.202 C 
BRANCH   4   5
ATOM      5  C   UNL A   1      31.023  27.028  26.730  1.00  0.00     0.261 C 
BRANCH   5   6
ATOM      6  O   UNL A   1      31.530  25.461  26.868  1.00  0.00    -0.460 OA
BRANCH   6   7
ATOM      7  C   UNL A   1      31.237  24.122  26.633  1.00  0.00     0.338 C 
ATOM      8  O   UNL A   1      30.587  23.355  27.330  1.00  0.00    -0.246 OA
BRANCH   7   9
ATOM      9  C   UNL A   1      31.858  23.431  25.443  1.00  0.00     0.060 A 
ATOM     10  C   UNL A   1      35.261  22.970  23.608  1.00  0.00     0.046 C 
ATOM     11  C   UNL A   1      33.790  23.195  23.866  1.00  0.00    -0.027 A 
ATOM     12  C   UNL A   1      33.270  23.345  25.179  1.00  0.00     0.021 A 
ATOM     13  C   UNL A   1      32.860  23.336  22.838  1.00  0.00     0.045 A 
ATOM     14  C   UNL A   1      31.484  23.207  23.109  1.00  0.00     0.027 A 
ATOM     15  C   UNL A   1      30.979  23.243  24.400  1.00  0.00     0.018 A 
BRANCH  13  16
ATOM     16  N   UNL A   1      33.248  23.807  21.565  1.00  0.00    -0.308 N 
ATOM     17  C   UNL A   1      32.899  25.041  21.058  1.00  0.00     0.321 C 
ATOM     18  H   UNL A   1      33.802  23.218  21.004  1.00  0.00     0.171 HD
ATOM     19  O   UNL A   1      32.762  25.207  19.848  1.00  0.00    -0.248 OA
ATOM     20  N   UNL A   1      32.714  26.052  21.976  1.00  0.00    -0.324 N 
ATOM     21  C   UNL A   1      31.621  26.994  21.883  1.00  0.00     0.125 C 
ATOM     22  C   UNL A   1      33.697  26.462  22.975  1.00  0.00     0.125 C 
ATOM     23  C   UNL A   1      31.991  28.147  22.816  1.00  0.00     0.010 C 
ATOM     24  C   UNL A   1      32.979  27.516  23.817  1.00  0.00     0.010 C 
ATOM     25  C   UNL A   1      30.776  28.760  23.498  1.00  0.00     0.010 C 
ATOM     26  C   UNL A   1      33.922  28.542  24.436  1.00  0.00     0.010 C 
ENDBRANCH  13  16
ENDBRANCH   7   9
ENDBRANCH   6   7
ENDBRANCH   5   6
ENDBRANCH   4   5
ENDBRANCH   3   4
ENDBRANCH   2   3
ENDBRANCH   1   2
BRANCH   1  27
ATOM     27  O   UNL A   1      34.378  32.201  27.305  1.00  0.00    -0.376 OA
BRANCH  27  28
ATOM     28  C   UNL A   1      34.187  33.107  28.384  1.00  0.00     0.202 C 
BRANCH  28  29
ATOM     29  C   UNL A   1      35.504  33.600  29.024  1.00  0.00     0.261 C 
BRANCH  29  30
ATOM     30  O   UNL A   1      36.396  32.488  29.279  1.00  0.00    -0.460 OA
BRANCH  30  31
ATOM     31  C   UNL A   1      36.069  31.611  30.302  1.00  0.00     0.338 C 
ATOM     32  O   UNL A   1      35.680  31.926  31.380  1.00  0.00    -0.246 OA
BRANCH  31  33
ATOM     33  C   UNL A   1      36.561  30.221  29.930  1.00  0.00     0.060 A 
ATOM     34  C   UNL A   1      37.083  29.264  30.815  1.00  0.00     0.016 A 
ATOM     35  C   UNL A   1      36.930  30.061  28.644  1.00  0.00     0.016 A 
ATOM     36  C   UNL A   1      38.106  28.295  30.393  1.00  0.00     0.010 A 
ATOM     37  C   UNL A   1      38.135  29.379  28.474  1.00  0.00     0.010 A 
ATOM     38  C   UNL A   1      38.769  28.365  29.167  1.00  0.00    -0.014 A 
BRANCH  38  39
ATOM     39  C   UNL A   1      40.172  27.730  28.727  1.00  0.00     0.031 A 
ATOM     40  C   UNL A   1      40.659  26.298  28.190  1.00  0.00     0.074 A 
ATOM     41  C   UNL A   1      41.232  28.570  28.788  1.00  0.00     0.049 A 
ATOM     42  N   UNL A   1      41.599  25.550  28.747  1.00  0.00    -0.248 NA
ATOM     43  C   UNL A   1      40.267  25.639  26.930  1.00  0.00     0.031 C 
ATOM     44  C   UNL A   1      42.612  28.326  28.368  1.00  0.00     0.029 A 
ATOM     45  N   UNL A   1      41.279  29.830  29.396  1.00  0.00    -0.354 N 
ATOM     46  C   UNL A   1      41.826  24.412  27.940  1.00  0.00     0.074 A 
ATOM     47  C   UNL A   1      40.864  24.453  26.910  1.00  0.00     0.031 C 
ATOM     48  C   UNL A   1      43.405  29.193  29.018  1.00  0.00     0.029 A 
ATOM     49  C   UNL A   1      42.567  29.950  29.932  1.00  0.00     0.049 A 
ATOM     50  H   UNL A   1      40.554  30.495  29.439  1.00  0.00     0.167 HD
ATOM     51  C   UNL A   1      42.887  23.552  27.966  1.00  0.00     0.037 A 
ATOM     52  C   UNL A   1      42.736  30.081  31.275  1.00  0.00     0.037 A 
ATOM     53  C   UNL A   1      43.976  24.184  28.645  1.00  0.00     0.049 A 
ATOM     54  C   UNL A   1      43.557  28.963  31.866  1.00  0.00     0.074 A 
ATOM     55  C   UNL A   1      44.967  25.017  28.160  1.00  0.00     0.029 A 
ATOM     56  N   UNL A   1      43.893  24.376  30.004  1.00  0.00    -0.354 N 
ATOM     57  N   UNL A   1      43.803  27.832  31.263  1.00  0.00    -0.248 NA
ATOM     58  C   UNL A   1      44.153  29.029  33.196  1.00  0.00     0.031 C 
ATOM     59  C   UNL A   1      45.404  25.818  29.239  1.00  0.00     0.029 A 
ATOM     60  C   UNL A   1      44.746  25.391  30.379  1.00  0.00     0.049 A 
ATOM     61  H   UNL A   1      43.314  23.867  30.616  1.00  0.00     0.167 HD
ATOM     62  C   UNL A   1      44.520  27.020  32.101  1.00  0.00     0.074 A 
ATOM     63  C   UNL A   1      44.738  27.822  33.286  1.00  0.00     0.031 C 
ATOM     64  C   UNL A   1      44.864  25.743  31.773  1.00  0.00     0.037 A 
BRANCH  51  65
ATOM     65  C   UNL A   1      43.007  22.357  27.022  1.00  0.00     0.064 A 
ATOM     66  C   UNL A   1      42.265  21.170  27.186  1.00  0.00     0.173 A 
ATOM     67  C   UNL A   1      43.907  22.344  25.931  1.00  0.00     0.173 A 
ATOM     68  F   UNL A   1      41.291  21.085  28.101  1.00  0.00    -0.203 F 
ATOM     69  C   UNL A   1      42.516  20.017  26.425  1.00  0.00     0.198 A 
ATOM     70  C   UNL A   1      44.195  21.180  25.203  1.00  0.00     0.198 A 
ATOM     71  F   UNL A   1      44.555  23.464  25.571  1.00  0.00    -0.203 F 
ATOM     72  F   UNL A   1      41.805  18.902  26.645  1.00  0.00    -0.200 F 
ATOM     73  C   UNL A   1      43.514  20.009  25.468  1.00  0.00     0.200 A 
ATOM     74  F   UNL A   1      45.157  21.191  24.269  1.00  0.00    -0.200 F 
ATOM     75  F   UNL A   1      43.814  18.881  24.805  1.00  0.00    -0.200 F 
ENDBRANCH  51  65
BRANCH  52  76
ATOM     76  C   UNL A   1      41.640  30.840  31.956  1.00  0.00     0.064 A 
ATOM     77  C   UNL A   1      40.644  30.098  32.634  1.00  0.00     0.173 A 
ATOM     78  C   UNL A   1      41.702  32.211  32.234  1.00  0.00     0.173 A 
ATOM     79  F   UNL A   1      40.532  28.777  32.419  1.00  0.00    -0.203 F 
ATOM     80  C   UNL A   1      39.838  30.668  33.618  1.00  0.00     0.198 A 
ATOM     81  C   UNL A   1      40.871  32.788  33.207  1.00  0.00     0.198 A 
ATOM     82  F   UNL A   1      42.661  32.972  31.688  1.00  0.00    -0.203 F 
ATOM     83  F   UNL A   1      39.006  29.895  34.331  1.00  0.00    -0.200 F 
ATOM     84  C   UNL A   1      39.962  32.011  33.914  1.00  0.00     0.200 A 
ATOM     85  F   UNL A   1      41.050  34.070  33.563  1.00  0.00    -0.200 F 
ATOM     86  F   UNL A   1      39.271  32.540  34.935  1.00  0.00    -0.200 F 
ENDBRANCH  52  76
BRANCH  64  87
ATOM     87  C   UNL A   1      45.384  24.694  32.719  1.00  0.00     0.064 A 
ATOM     88  C   UNL A   1      46.670  24.735  33.273  1.00  0.00     0.173 A 
ATOM     89  C   UNL A   1      44.511  23.712  33.249  1.00  0.00     0.173 A 
ATOM     90  F   UNL A   1      47.543  25.693  32.935  1.00  0.00    -0.203 F 
ATOM     91  C   UNL A   1      47.075  23.823  34.248  1.00  0.00     0.198 A 
ATOM     92  C   UNL A   1      44.897  22.849  34.270  1.00  0.00     0.198 A 
ATOM     93  F   UNL A   1      43.246  23.589  32.817  1.00  0.00    -0.203 F 
ATOM     94  F   UNL A   1      48.330  23.873  34.716  1.00  0.00    -0.200 F 
ATOM     95  C   UNL A   1      46.187  22.892  34.757  1.00  0.00     0.200 A 
ATOM     96  F   UNL A   1      44.008  21.995  34.795  1.00  0.00    -0.200 F 
ATOM     97  F   UNL A   1      46.568  22.055  35.729  1.00  0.00    -0.200 F 
ENDBRANCH  64  87
ENDBRANCH  38  39
ENDBRANCH  31  33
ENDBRANCH  30  31
ENDBRANCH  29  30
ENDBRANCH  28  29
ENDBRANCH  27  28
ENDBRANCH   1  27
TORSDOF 18
ENDMDL
MODEL 2
REMARK VINA RESULT:     -13.3      0.789      2.048
REMARK SMILES Cc1cc(C(=O)OCCOCCOCCOC(=O)c2ccc(-c3c4nc(c(-c5c(F)c(F)c(F)c(F)c5F)c5ccc([nH]5)c(-c5c(F)c(F)c(F)c(F)c5F)c5nc(c(-c6c(F)c(F)c(F)c(F)c6F)c6ccc3[nH]6)C=C5)C=C4)cc2)ccc1NC(=O)N1C[C@@H](C)[C@H](C)C1
REMARK SMILES IDX 12 1 11 2 10 3 9 4 8 5 7 6 5 7 6 8 4 9 1 10 2 11 3 12 84 13
REMARK SMILES IDX 83 14 82 15 85 16 86 17 87 19 88 20 89 21 94 22 90 23 92 24
REMARK SMILES IDX 91 25 93 26 13 27 14 28 15 29 16 30 17 31 18 32 19 33 20 34
REMARK SMILES IDX 81 35 21 36 80 37 22 38 23 39 24 40 74 41 25 42 79 43 73 44
REMARK SMILES IDX 75 45 26 46 78 47 72 48 71 49 27 51 59 52 39 53 58 54 40 55
REMARK SMILES IDX 43 56 57 57 76 58 41 59 42 60 56 62 77 63 44 64 28 65 29 66
REMARK SMILES IDX 37 67 30 68 31 69 35 70 38 71 32 72 33 73 36 74 34 75 60 76
REMARK SMILES IDX 61 77 69 78 62 79 63 80 67 81 70 82 64 83 65 84 68 85 66 86
REMARK SMILES IDX 45 87 46 88 54 89 47 90 48 91 52 92 55 93 49 94 50 95 53 96
REMARK SMILES IDX 51 97
REMARK H PARENT 85 18 75 50 43 61
REMARK Flexibility Score: inf
ROOT
ATOM      1  C   UNL A   1      33.823  30.934  27.578  1.00  0.00     0.188 C 
ENDROOT
BRANCH   1   2
ATOM      2  C   UNL A   1      32.461  30.883  26.902  1.00  0.00     0.188 C 
BRANCH   2   3
ATOM      3  O   UNL A   1      31.551  29.793  27.104  1.00  0.00    -0.376 OA
BRANCH   3   4
ATOM      4  C   UNL A   1      31.846  28.434  27.434  1.00  0.00     0.202 C 
BRANCH   4   5
ATOM      5  C   UNL A   1      31.051  27.052  26.783  1.00  0.00     0.261 C 
BRANCH   5   6
ATOM      6  O   UNL A   1      31.500  25.464  26.887  1.00  0.00    -0.460 OA
BRANCH   6   7
ATOM      7  C   UNL A   1      31.170  24.145  26.599  1.00  0.00     0.338 C 
ATOM      8  O   UNL A   1      30.470  23.380  27.246  1.00  0.00    -0.246 OA
BRANCH   7   9
ATOM      9  C   UNL A   1      31.811  23.471  25.410  1.00  0.00     0.060 A 
ATOM     10  C   UNL A   1      35.236  23.064  23.603  1.00  0.00     0.046 C 
ATOM     11  C   UNL A   1      33.760  23.270  23.849  1.00  0.00    -0.027 A 
ATOM     12  C   UNL A   1      33.226  23.403  25.158  1.00  0.00     0.021 A 
ATOM     13  C   UNL A   1      32.839  23.407  22.813  1.00  0.00     0.045 A 
ATOM     14  C   UNL A   1      31.462  23.259  23.071  1.00  0.00     0.027 A 
ATOM     15  C   UNL A   1      30.944  23.280  24.357  1.00  0.00     0.018 A 
BRANCH  13  16
ATOM     16  N   UNL A   1      33.233  23.892  21.548  1.00  0.00    -0.308 N 
ATOM     17  C   UNL A   1      32.899  25.138  21.059  1.00  0.00     0.321 C 
ATOM     18  H   UNL A   1      33.780  23.305  20.978  1.00  0.00     0.171 HD
ATOM     19  O   UNL A   1      32.765  25.324  19.851  1.00  0.00    -0.248 OA
ATOM     20  N   UNL A   1      32.727  26.137  21.992  1.00  0.00    -0.324 N 
ATOM     21  C   UNL A   1      31.645  27.094  21.913  1.00  0.00     0.125 C 
ATOM     22  C   UNL A   1      33.714  26.521  22.998  1.00  0.00     0.125 C 
ATOM     23  C   UNL A   1      32.029  28.229  22.863  1.00  0.00     0.010 C 
ATOM     24  C   UNL A   1      33.009  27.571  23.855  1.00  0.00     0.010 C 
ATOM     25  C   UNL A   1      30.822  28.847  23.554  1.00  0.00     0.010 C 
ATOM     26  C   UNL A   1      33.964  28.575  24.490  1.00  0.00     0.010 C 
ENDBRANCH  13  16
ENDBRANCH   7   9
ENDBRANCH   6   7
ENDBRANCH   5   6
ENDBRANCH   4   5
ENDBRANCH   3   4
ENDBRANCH   2   3
ENDBRANCH   1   2
BRANCH   1  27
ATOM     27  O   UNL A   1      34.438  32.184  27.329  1.00  0.00    -0.376 OA
BRANCH  27  28
ATOM     28  C   UNL A   1      34.436  33.073  28.438  1.00  0.00     0.202 C 
BRANCH  28  29
ATOM     29  C   UNL A   1      35.848  33.477  28.916  1.00  0.00     0.261 C 
BRANCH  29  30
ATOM     30  O   UNL A   1      36.710  32.316  29.001  1.00  0.00    -0.460 OA
BRANCH  30  31
ATOM     31  C   UNL A   1      36.410  31.349  29.948  1.00  0.00     0.338 C 
ATOM     32  O   UNL A   1      35.969  31.560  31.032  1.00  0.00    -0.246 OA
BRANCH  31  33
ATOM     33  C   UNL A   1      37.002  30.024  29.496  1.00  0.00     0.060 A 
ATOM     34  C   UNL A   1      37.376  28.958  30.330  1.00  0.00     0.016 A 
ATOM     35  C   UNL A   1      37.609  30.038  28.294  1.00  0.00     0.016 A 
ATOM     36  C   UNL A   1      38.487  28.057  29.986  1.00  0.00     0.010 A 
ATOM     37  C   UNL A   1      38.844  29.389  28.267  1.00  0.00     0.010 A 
ATOM     38  C   UNL A   1      39.366  28.293  28.928  1.00  0.00    -0.014 A 
BRANCH  38  39
ATOM     39  C   UNL A   1      40.843  27.727  28.682  1.00  0.00     0.031 A 
ATOM     40  C   UNL A   1      41.462  26.358  28.117  1.00  0.00     0.074 A 
ATOM     41  C   UNL A   1      41.848  28.579  28.994  1.00  0.00     0.049 A 
ATOM     42  N   UNL A   1      42.321  25.582  28.761  1.00  0.00    -0.248 NA
ATOM     43  C   UNL A   1      41.311  25.807  26.757  1.00  0.00     0.031 C 
ATOM     44  C   UNL A   1      43.287  28.399  28.797  1.00  0.00     0.029 A 
ATOM     45  N   UNL A   1      41.749  29.780  29.706  1.00  0.00    -0.354 N 
ATOM     46  C   UNL A   1      42.719  24.525  27.912  1.00  0.00     0.074 A 
ATOM     47  C   UNL A   1      41.944  24.639  26.740  1.00  0.00     0.031 C 
ATOM     48  C   UNL A   1      43.929  29.220  29.644  1.00  0.00     0.029 A 
ATOM     49  C   UNL A   1      42.924  29.877  30.462  1.00  0.00     0.049 A 
ATOM     50  H   UNL A   1      41.005  30.424  29.681  1.00  0.00     0.167 HD
ATOM     51  C   UNL A   1      43.789  23.687  28.046  1.00  0.00     0.037 A 
ATOM     52  C   UNL A   1      42.859  29.891  31.820  1.00  0.00     0.037 A 
ATOM     53  C   UNL A   1      44.726  24.276  28.952  1.00  0.00     0.049 A 
ATOM     54  C   UNL A   1      43.607  28.740  32.446  1.00  0.00     0.074 A 
ATOM     55  C   UNL A   1      45.755  25.169  28.715  1.00  0.00     0.029 A 
ATOM     56  N   UNL A   1      44.409  24.345  30.288  1.00  0.00    -0.354 N 
ATOM     57  N   UNL A   1      43.989  27.672  31.800  1.00  0.00    -0.248 NA
ATOM     58  C   UNL A   1      43.967  28.699  33.860  1.00  0.00     0.031 C 
ATOM     59  C   UNL A   1      45.977  25.878  29.917  1.00  0.00     0.029 A 
ATOM     60  C   UNL A   1      45.151  25.339  30.887  1.00  0.00     0.049 A 
ATOM     61  H   UNL A   1      43.753  23.772  30.747  1.00  0.00     0.167 HD
ATOM     62  C   UNL A   1      44.583  26.803  32.677  1.00  0.00     0.074 A 
ATOM     63  C   UNL A   1      44.570  27.501  33.946  1.00  0.00     0.031 C 
ATOM     64  C   UNL A   1      45.020  25.567  32.306  1.00  0.00     0.037 A 
BRANCH  51  65
ATOM     65  C   UNL A   1      44.107  22.583  27.039  1.00  0.00     0.064 A 
ATOM     66  C   UNL A   1      45.258  22.594  26.224  1.00  0.00     0.173 A 
ATOM     67  C   UNL A   1      43.244  21.483  26.826  1.00  0.00     0.173 A 
ATOM     68  F   UNL A   1      46.221  23.507  26.401  1.00  0.00    -0.203 F 
ATOM     69  C   UNL A   1      45.446  21.674  25.180  1.00  0.00     0.198 A 
ATOM     70  C   UNL A   1      43.404  20.594  25.752  1.00  0.00     0.198 A 
ATOM     71  F   UNL A   1      42.200  21.271  27.642  1.00  0.00    -0.203 F 
ATOM     72  F   UNL A   1      46.542  21.750  24.411  1.00  0.00    -0.200 F 
ATOM     73  C   UNL A   1      44.496  20.706  24.914  1.00  0.00     0.200 A 
ATOM     74  F   UNL A   1      42.479  19.653  25.515  1.00  0.00    -0.200 F 
ATOM     75  F   UNL A   1      44.633  19.887  23.861  1.00  0.00    -0.200 F 
ENDBRANCH  51  65
BRANCH  52  76
ATOM     76  C   UNL A   1      41.639  30.565  32.366  1.00  0.00     0.064 A 
ATOM     77  C   UNL A   1      41.573  31.976  32.289  1.00  0.00     0.173 A 
ATOM     78  C   UNL A   1      40.445  29.893  32.654  1.00  0.00     0.173 A 
ATOM     79  F   UNL A   1      42.680  32.683  32.010  1.00  0.00    -0.203 F 
ATOM     80  C   UNL A   1      40.365  32.666  32.375  1.00  0.00     0.198 A 
ATOM     81  C   UNL A   1      39.233  30.593  32.768  1.00  0.00     0.198 A 
ATOM     82  F   UNL A   1      40.407  28.553  32.677  1.00  0.00    -0.203 F 
ATOM     83  F   UNL A   1      40.333  33.988  32.155  1.00  0.00    -0.200 F 
ATOM     84  C   UNL A   1      39.192  31.972  32.600  1.00  0.00     0.200 A 
ATOM     85  F   UNL A   1      38.081  29.917  32.894  1.00  0.00    -0.200 F 
ATOM     86  F   UNL A   1      38.016  32.615  32.572  1.00  0.00    -0.200 F 
ENDBRANCH  52  76
BRANCH  64  87
ATOM     87  C   UNL A   1      45.409  24.449  33.234  1.00  0.00     0.064 A 
ATOM     88  C   UNL A   1      44.566  23.368  33.525  1.00  0.00     0.173 A 
ATOM     89  C   UNL A   1      46.741  24.341  33.707  1.00  0.00     0.173 A 
ATOM     90  F   UNL A   1      43.322  23.304  33.033  1.00  0.00    -0.203 F 
ATOM     91  C   UNL A   1      45.005  22.282  34.283  1.00  0.00     0.198 A 
ATOM     92  C   UNL A   1      47.193  23.224  34.402  1.00  0.00     0.198 A 
ATOM     93  F   UNL A   1      47.650  25.300  33.471  1.00  0.00    -0.203 F 
ATOM     94  F   UNL A   1      44.150  21.293  34.573  1.00  0.00    -0.200 F 
ATOM     95  C   UNL A   1      46.320  22.202  34.707  1.00  0.00     0.200 A 
ATOM     96  F   UNL A   1      48.484  23.134  34.753  1.00  0.00    -0.200 F 
ATOM     97  F   UNL A   1      46.746  21.132  35.389  1.00  0.00    -0.200 F 
ENDBRANCH  64  87
ENDBRANCH  38  39
ENDBRANCH  31  33
ENDBRANCH  30  31
ENDBRANCH  29  30
ENDBRANCH  28  29
ENDBRANCH  27  28
ENDBRANCH   1  27
TORSDOF 18
ENDMDL
MODEL 3
REMARK VINA RESULT:     -13.2      3.914     10.017
REMARK SMILES Cc1cc(C(=O)OCCOCCOCCOC(=O)c2ccc(-c3c4nc(c(-c5c(F)c(F)c(F)c(F)c5F)c5ccc([nH]5)c(-c5c(F)c(F)c(F)c(F)c5F)c5nc(c(-c6c(F)c(F)c(F)c(F)c6F)c6ccc3[nH]6)C=C5)C=C4)cc2)ccc1NC(=O)N1C[C@@H](C)[C@H](C)C1
REMARK SMILES IDX 12 1 11 2 10 3 9 4 8 5 7 6 5 7 6 8 4 9 1 10 2 11 3 12 84 13
REMARK SMILES IDX 83 14 82 15 85 16 86 17 87 19 88 20 89 21 94 22 90 23 92 24
REMARK SMILES IDX 91 25 93 26 13 27 14 28 15 29 16 30 17 31 18 32 19 33 20 34
REMARK SMILES IDX 81 35 21 36 80 37 22 38 23 39 24 40 74 41 25 42 79 43 73 44
REMARK SMILES IDX 75 45 26 46 78 47 72 48 71 49 27 51 59 52 39 53 58 54 40 55
REMARK SMILES IDX 43 56 57 57 76 58 41 59 42 60 56 62 77 63 44 64 28 65 29 66
REMARK SMILES IDX 37 67 30 68 31 69 35 70 38 71 32 72 33 73 36 74 34 75 60 76
REMARK SMILES IDX 61 77 69 78 62 79 63 80 67 81 70 82 64 83 65 84 68 85 66 86
REMARK SMILES IDX 45 87 46 88 54 89 47 90 48 91 52 92 55 93 49 94 50 95 53 96
REMARK SMILES IDX 51 97
REMARK H PARENT 85 18 75 50 43 61
REMARK Flexibility Score: inf
ROOT
ATOM      1  C   UNL A   1      40.023  20.510  26.201  1.00  0.00     0.188 C 
ENDROOT
BRANCH   1   2
ATOM      2  C   UNL A   1      39.044  21.642  25.926  1.00  0.00     0.188 C 
BRANCH   2   3
ATOM      3  O   UNL A   1      37.904  21.472  25.073  1.00  0.00    -0.376 OA
BRANCH   3   4
ATOM      4  C   UNL A   1      37.316  20.257  24.599  1.00  0.00     0.202 C 
BRANCH   4   5
ATOM      5  C   UNL A   1      35.776  19.644  25.065  1.00  0.00     0.261 C 
BRANCH   5   6
ATOM      6  O   UNL A   1      34.281  20.113  24.539  1.00  0.00    -0.460 OA
BRANCH   6   7
ATOM      7  C   UNL A   1      32.988  20.479  24.895  1.00  0.00     0.338 C 
ATOM      8  O   UNL A   1      32.031  19.753  25.124  1.00  0.00    -0.246 OA
BRANCH   7   9
ATOM      9  C   UNL A   1      32.617  21.942  24.912  1.00  0.00     0.060 A 
ATOM     10  C   UNL A   1      30.131  24.445  26.561  1.00  0.00     0.046 C 
ATOM     11  C   UNL A   1      30.979  23.733  25.533  1.00  0.00    -0.027 A 
ATOM     12  C   UNL A   1      31.708  22.554  25.845  1.00  0.00     0.021 A 
ATOM     13  C   UNL A   1      31.049  24.142  24.204  1.00  0.00     0.045 A 
ATOM     14  C   UNL A   1      32.087  23.672  23.375  1.00  0.00     0.027 A 
ATOM     15  C   UNL A   1      32.876  22.586  23.723  1.00  0.00     0.018 A 
BRANCH  13  16
ATOM     16  N   UNL A   1      29.990  24.858  23.605  1.00  0.00    -0.308 N 
ATOM     17  C   UNL A   1      29.808  26.220  23.731  1.00  0.00     0.321 C 
ATOM     18  H   UNL A   1      29.341  24.354  23.063  1.00  0.00     0.171 HD
ATOM     19  O   UNL A   1      28.682  26.709  23.694  1.00  0.00    -0.248 OA
ATOM     20  N   UNL A   1      30.947  26.978  23.901  1.00  0.00    -0.324 N 
ATOM     21  C   UNL A   1      31.018  28.068  24.847  1.00  0.00     0.125 C 
ATOM     22  C   UNL A   1      32.101  26.962  23.006  1.00  0.00     0.125 C 
ATOM     23  C   UNL A   1      32.257  28.873  24.455  1.00  0.00     0.010 C 
ATOM     24  C   UNL A   1      33.132  27.863  23.686  1.00  0.00     0.010 C 
ATOM     25  C   UNL A   1      32.972  29.470  25.658  1.00  0.00     0.010 C 
ATOM     26  C   UNL A   1      34.086  28.538  22.706  1.00  0.00     0.010 C 
ENDBRANCH  13  16
ENDBRANCH   7   9
ENDBRANCH   6   7
ENDBRANCH   5   6
ENDBRANCH   4   5
ENDBRANCH   3   4
ENDBRANCH   2   3
ENDBRANCH   1   2
BRANCH   1  27
ATOM     27  O   UNL A   1      40.664  20.719  27.444  1.00  0.00    -0.376 OA
BRANCH  27  28
ATOM     28  C   UNL A   1      42.078  20.838  27.365  1.00  0.00     0.202 C 
BRANCH  28  29
ATOM     29  C   UNL A   1      42.614  22.214  27.821  1.00  0.00     0.261 C 
BRANCH  29  30
ATOM     30  O   UNL A   1      41.621  23.246  27.603  1.00  0.00    -0.460 OA
BRANCH  30  31
ATOM     31  C   UNL A   1      41.694  23.984  26.432  1.00  0.00     0.338 C 
ATOM     32  O   UNL A   1      42.524  23.862  25.591  1.00  0.00    -0.246 OA
BRANCH  31  33
ATOM     33  C   UNL A   1      40.729  25.154  26.533  1.00  0.00     0.060 A 
ATOM     34  C   UNL A   1      40.972  26.466  26.094  1.00  0.00     0.016 A 
ATOM     35  C   UNL A   1      39.778  25.045  27.481  1.00  0.00     0.016 A 
ATOM     36  C   UNL A   1      40.376  27.631  26.766  1.00  0.00     0.010 A 
ATOM     37  C   UNL A   1      39.595  26.197  28.246  1.00  0.00     0.010 A 
ATOM     38  C   UNL A   1      39.693  27.549  27.981  1.00  0.00    -0.014 A 
BRANCH  38  39
ATOM     39  C   UNL A   1      39.393  28.692  29.062  1.00  0.00     0.031 A 
ATOM     40  C   UNL A   1      38.308  29.865  29.213  1.00  0.00     0.074 A 
ATOM     41  C   UNL A   1      40.214  28.700  30.138  1.00  0.00     0.049 A 
ATOM     42  N   UNL A   1      38.587  31.151  29.364  1.00  0.00    -0.248 NA
ATOM     43  C   UNL A   1      36.848  29.715  29.356  1.00  0.00     0.031 C 
ATOM     44  C   UNL A   1      40.143  29.544  31.331  1.00  0.00     0.029 A 
ATOM     45  N   UNL A   1      41.409  27.987  30.296  1.00  0.00    -0.354 N 
ATOM     46  C   UNL A   1      37.384  31.866  29.566  1.00  0.00     0.074 A 
ATOM     47  C   UNL A   1      36.335  30.940  29.400  1.00  0.00     0.031 C 
ATOM     48  C   UNL A   1      41.361  29.571  31.896  1.00  0.00     0.029 A 
ATOM     49  C   UNL A   1      42.258  28.820  31.034  1.00  0.00     0.049 A 
ATOM     50  H   UNL A   1      41.611  27.086  29.956  1.00  0.00     0.167 HD
ATOM     51  C   UNL A   1      37.222  33.130  30.056  1.00  0.00     0.037 A 
ATOM     52  C   UNL A   1      43.423  29.262  30.486  1.00  0.00     0.037 A 
ATOM     53  C   UNL A   1      38.414  33.514  30.747  1.00  0.00     0.049 A 
ATOM     54  C   UNL A   1      43.485  30.766  30.397  1.00  0.00     0.074 A 
ATOM     55  C   UNL A   1      38.789  33.308  32.062  1.00  0.00     0.029 A 
ATOM     56  N   UNL A   1      39.554  33.770  30.021  1.00  0.00    -0.354 N 
ATOM     57  N   UNL A   1      42.450  31.554  30.506  1.00  0.00    -0.248 NA
ATOM     58  C   UNL A   1      44.724  31.499  30.159  1.00  0.00     0.031 C 
ATOM     59  C   UNL A   1      40.201  33.319  32.100  1.00  0.00     0.029 A 
ATOM     60  C   UNL A   1      40.658  33.630  30.832  1.00  0.00     0.049 A 
ATOM     61  H   UNL A   1      39.577  34.015  29.068  1.00  0.00     0.167 HD
ATOM     62  C   UNL A   1      42.848  32.850  30.313  1.00  0.00     0.074 A 
ATOM     63  C   UNL A   1      44.281  32.768  30.127  1.00  0.00     0.031 C 
ATOM     64  C   UNL A   1      41.972  33.894  30.297  1.00  0.00     0.037 A 
BRANCH  51  65
ATOM     65  C   UNL A   1      35.851  33.782  30.230  1.00  0.00     0.064 A 
ATOM     66  C   UNL A   1      35.108  34.309  29.154  1.00  0.00     0.173 A 
ATOM     67  C   UNL A   1      35.243  33.935  31.498  1.00  0.00     0.173 A 
ATOM     68  F   UNL A   1      35.503  34.128  27.887  1.00  0.00    -0.203 F 
ATOM     69  C   UNL A   1      33.940  35.063  29.348  1.00  0.00     0.198 A 
ATOM     70  C   UNL A   1      34.105  34.730  31.698  1.00  0.00     0.198 A 
ATOM     71  F   UNL A   1      35.769  33.339  32.579  1.00  0.00    -0.203 F 
ATOM     72  F   UNL A   1      33.290  35.573  28.292  1.00  0.00    -0.200 F 
ATOM     73  C   UNL A   1      33.467  35.314  30.622  1.00  0.00     0.200 A 
ATOM     74  F   UNL A   1      33.651  34.953  32.940  1.00  0.00    -0.200 F 
ATOM     75  F   UNL A   1      32.403  36.110  30.811  1.00  0.00    -0.200 F 
ENDBRANCH  51  65
BRANCH  52  76
ATOM     76  C   UNL A   1      44.067  28.285  29.554  1.00  0.00     0.064 A 
ATOM     77  C   UNL A   1      44.654  27.125  30.113  1.00  0.00     0.173 A 
ATOM     78  C   UNL A   1      43.858  28.280  28.169  1.00  0.00     0.173 A 
ATOM     79  F   UNL A   1      44.877  27.061  31.436  1.00  0.00    -0.203 F 
ATOM     80  C   UNL A   1      44.906  25.984  29.354  1.00  0.00     0.198 A 
ATOM     81  C   UNL A   1      44.137  27.138  27.402  1.00  0.00     0.198 A 
ATOM     82  F   UNL A   1      43.244  29.310  27.570  1.00  0.00    -0.203 F 
ATOM     83  F   UNL A   1      45.330  24.862  29.954  1.00  0.00    -0.200 F 
ATOM     84  C   UNL A   1      44.634  25.985  28.000  1.00  0.00     0.200 A 
ATOM     85  F   UNL A   1      43.790  27.103  26.106  1.00  0.00    -0.200 F 
ATOM     86  F   UNL A   1      44.767  24.858  27.287  1.00  0.00    -0.200 F 
ENDBRANCH  52  76
BRANCH  64  87
ATOM     87  C   UNL A   1      42.263  35.288  29.811  1.00  0.00     0.064 A 
ATOM     88  C   UNL A   1      43.119  36.169  30.485  1.00  0.00     0.173 A 
ATOM     89  C   UNL A   1      41.830  35.704  28.527  1.00  0.00     0.173 A 
ATOM     90  F   UNL A   1      43.684  35.834  31.652  1.00  0.00    -0.203 F 
ATOM     91  C   UNL A   1      43.473  37.404  29.941  1.00  0.00     0.198 A 
ATOM     92  C   UNL A   1      42.241  36.906  27.959  1.00  0.00     0.198 A 
ATOM     93  F   UNL A   1      41.028  34.937  27.773  1.00  0.00    -0.203 F 
ATOM     94  F   UNL A   1      44.259  38.232  30.642  1.00  0.00    -0.200 F 
ATOM     95  C   UNL A   1      43.049  37.765  28.674  1.00  0.00     0.200 A 
ATOM     96  F   UNL A   1      41.872  37.214  26.708  1.00  0.00    -0.200 F 
ATOM     97  F   UNL A   1      43.435  38.930  28.138  1.00  0.00    -0.200 F 
ENDBRANCH  64  87
ENDBRANCH  38  39
ENDBRANCH  31  33
ENDBRANCH  30  31
ENDBRANCH  29  30
ENDBRANCH  28  29
ENDBRANCH  27  28
ENDBRANCH   1  27
TORSDOF 18
ENDMDL
