MODEL 1
REMARK VINA RESULT:     -11.2      0.000      0.000
REMARK SMILES COC1CCN(c2nc(C(C)C)c(C(=O)OCCOCCOCCOC(=O)c3ccc(-c4c5nc(c(-c6c(F)c(F)c(F)c(F)c6F)c6ccc([nH]6)c(-c6c(F)c(F)c(F)c(F)c6F)c6nc(c(-c7c(F)c(F)c(F)c(F)c7F)c7ccc4[nH]7)C=C6)C=C5)cc3)s2)CC1
REMARK SMILES IDX 20 1 19 2 18 3 17 4 16 5 14 6 15 7 13 8 7 9 8 10 91 11 9 12
REMARK SMILES IDX 6 13 3 14 4 15 93 16 5 17 92 18 2 19 1 20 10 21 11 22 12 23
REMARK SMILES IDX 21 24 22 25 23 26 24 27 25 28 26 29 27 30 28 31 29 32 90 33
REMARK SMILES IDX 30 34 89 35 31 36 32 37 33 38 83 39 34 40 88 41 82 42 84 43
REMARK SMILES IDX 35 44 87 45 81 46 80 47 36 49 68 50 48 51 67 52 49 53 52 54
REMARK SMILES IDX 66 55 85 56 50 57 51 58 65 60 86 61 53 62 37 63 38 64 46 65
REMARK SMILES IDX 39 66 40 67 44 68 47 69 41 70 42 71 45 72 43 73 69 74 70 75
REMARK SMILES IDX 78 76 71 77 72 78 76 79 79 80 73 81 74 82 77 83 75 84 54 85
REMARK SMILES IDX 55 86 63 87 56 88 57 89 61 90 64 91 58 92 59 93 62 94 60 95
REMARK H PARENT 84 48 52 59
REMARK Flexibility Score: inf
ROOT
ATOM      1  C   UNL A   1      35.474  22.633  24.351  1.00  0.00     0.188 C 
ENDROOT
BRANCH   1   2
ATOM      2  O   UNL A   1      34.319  21.898  23.969  1.00  0.00    -0.376 OA
BRANCH   2   3
ATOM      3  C   UNL A   1      33.034  22.344  24.387  1.00  0.00     0.202 C 
BRANCH   3   4
ATOM      4  C   UNL A   1      32.974  23.723  25.034  1.00  0.00     0.261 C 
BRANCH   4   5
ATOM      5  O   UNL A   1      32.043  24.564  24.338  1.00  0.00    -0.459 OA
BRANCH   5   6
ATOM      6  C   UNL A   1      32.588  25.616  23.665  1.00  0.00     0.350 C 
ATOM      7  O   UNL A   1      33.484  25.517  22.846  1.00  0.00    -0.245 OA
BRANCH   6   8
ATOM      8  C   UNL A   1      31.877  26.830  23.984  1.00  0.00     0.137 A 
ATOM      9  C   UNL A   1      30.549  28.854  23.716  1.00  0.00     0.186 A 
ATOM     10  N   UNL A   1      31.060  28.795  24.920  1.00  0.00    -0.224 NA
ATOM     11  S   UNL A   1      30.871  27.480  22.744  1.00  0.00    -0.089 S 
ATOM     12  C   UNL A   1      31.803  27.631  25.113  1.00  0.00     0.071 A 
BRANCH   9  13
ATOM     13  N   UNL A   1      29.954  29.951  23.204  1.00  0.00    -0.348 N 
ATOM     14  C   UNL A   1      27.604  31.284  22.289  1.00  0.00     0.121 C 
ATOM     15  C   UNL A   1      27.982  31.268  23.780  1.00  0.00     0.053 C 
ATOM     16  C   UNL A   1      28.210  30.082  21.553  1.00  0.00     0.053 C 
ATOM     17  C   UNL A   1      29.480  31.055  24.014  1.00  0.00     0.121 C 
ATOM     18  C   UNL A   1      29.721  30.023  21.775  1.00  0.00     0.121 C 
BRANCH  14  19
ATOM     19  O   UNL A   1      28.071  32.510  21.712  1.00  0.00    -0.381 OA
ATOM     20  C   UNL A   1      27.770  32.620  20.324  1.00  0.00     0.195 C 
ENDBRANCH  14  19
ENDBRANCH   9  13
BRANCH  12  21
ATOM     21  C   UNL A   1      32.448  27.503  26.475  1.00  0.00     0.034 C 
ATOM     22  C   UNL A   1      33.890  28.008  26.498  1.00  0.00     0.014 C 
ATOM     23  C   UNL A   1      31.628  28.104  27.614  1.00  0.00     0.014 C 
ENDBRANCH  12  21
ENDBRANCH   6   8
ENDBRANCH   5   6
ENDBRANCH   4   5
ENDBRANCH   3   4
ENDBRANCH   2   3
ENDBRANCH   1   2
BRANCH   1  24
ATOM     24  C   UNL A   1      36.849  21.941  24.424  1.00  0.00     0.188 C 
BRANCH  24  25
ATOM     25  O   UNL A   1      37.097  20.940  25.398  1.00  0.00    -0.376 OA
BRANCH  25  26
ATOM     26  C   UNL A   1      37.709  19.721  24.994  1.00  0.00     0.202 C 
BRANCH  26  27
ATOM     27  C   UNL A   1      39.037  19.370  25.657  1.00  0.00     0.261 C 
BRANCH  27  28
ATOM     28  O   UNL A   1      39.861  20.535  25.816  1.00  0.00    -0.460 OA
BRANCH  28  29
ATOM     29  C   UNL A   1      40.694  20.506  26.881  1.00  0.00     0.338 C 
ATOM     30  O   UNL A   1      41.304  19.550  27.325  1.00  0.00    -0.246 OA
BRANCH  29  31
ATOM     31  C   UNL A   1      40.908  21.880  27.365  1.00  0.00     0.060 A 
ATOM     32  C   UNL A   1      40.136  22.901  26.796  1.00  0.00     0.016 A 
ATOM     33  C   UNL A   1      41.891  22.171  28.313  1.00  0.00     0.016 A 
ATOM     34  C   UNL A   1      40.384  24.227  27.132  1.00  0.00     0.010 A 
ATOM     35  C   UNL A   1      42.151  23.505  28.638  1.00  0.00     0.010 A 
ATOM     36  C   UNL A   1      41.424  24.536  28.018  1.00  0.00    -0.014 A 
BRANCH  36  37
ATOM     37  C   UNL A   1      41.877  25.939  28.144  1.00  0.00     0.031 A 
ATOM     38  C   UNL A   1      43.220  26.313  27.582  1.00  0.00     0.074 A 
ATOM     39  C   UNL A   1      41.100  26.868  28.726  1.00  0.00     0.049 A 
ATOM     40  N   UNL A   1      43.833  27.468  27.588  1.00  0.00    -0.248 NA
ATOM     41  C   UNL A   1      43.974  25.234  26.921  1.00  0.00     0.031 C 
ATOM     42  C   UNL A   1      39.768  26.631  29.274  1.00  0.00     0.029 A 
ATOM     43  N   UNL A   1      41.331  28.200  28.957  1.00  0.00    -0.354 N 
ATOM     44  C   UNL A   1      45.038  27.257  26.931  1.00  0.00     0.074 A 
ATOM     45  C   UNL A   1      45.086  25.859  26.565  1.00  0.00     0.031 C 
ATOM     46  C   UNL A   1      39.302  27.780  29.795  1.00  0.00     0.029 A 
ATOM     47  C   UNL A   1      40.314  28.824  29.633  1.00  0.00     0.049 A 
ATOM     48  H   UNL A   1      42.148  28.664  28.664  1.00  0.00     0.167 HD
ATOM     49  C   UNL A   1      46.013  28.153  26.649  1.00  0.00     0.037 A 
ATOM     50  C   UNL A   1      40.224  30.089  30.085  1.00  0.00     0.037 A 
ATOM     51  C   UNL A   1      45.971  29.540  27.026  1.00  0.00     0.049 A 
ATOM     52  C   UNL A   1      41.357  31.049  29.824  1.00  0.00     0.074 A 
ATOM     53  C   UNL A   1      46.906  30.531  26.783  1.00  0.00     0.029 A 
ATOM     54  N   UNL A   1      44.936  30.130  27.736  1.00  0.00    -0.354 N 
ATOM     55  N   UNL A   1      42.479  30.851  29.175  1.00  0.00    -0.248 NA
ATOM     56  C   UNL A   1      41.207  32.410  30.358  1.00  0.00     0.031 C 
ATOM     57  C   UNL A   1      46.455  31.712  27.384  1.00  0.00     0.029 A 
ATOM     58  C   UNL A   1      45.219  31.467  27.961  1.00  0.00     0.049 A 
ATOM     59  H   UNL A   1      44.121  29.667  28.036  1.00  0.00     0.167 HD
ATOM     60  C   UNL A   1      43.153  32.065  29.196  1.00  0.00     0.074 A 
ATOM     61  C   UNL A   1      42.310  32.998  29.915  1.00  0.00     0.031 C 
ATOM     62  C   UNL A   1      44.362  32.381  28.668  1.00  0.00     0.037 A 
BRANCH  49  63
ATOM     63  C   UNL A   1      47.219  27.649  25.917  1.00  0.00     0.064 A 
ATOM     64  C   UNL A   1      47.314  27.726  24.519  1.00  0.00     0.173 A 
ATOM     65  C   UNL A   1      48.301  27.101  26.620  1.00  0.00     0.173 A 
ATOM     66  F   UNL A   1      46.297  28.226  23.801  1.00  0.00    -0.203 F 
ATOM     67  C   UNL A   1      48.440  27.253  23.850  1.00  0.00     0.198 A 
ATOM     68  C   UNL A   1      49.436  26.650  25.951  1.00  0.00     0.198 A 
ATOM     69  F   UNL A   1      48.259  27.003  27.957  1.00  0.00    -0.203 F 
ATOM     70  F   UNL A   1      48.493  27.298  22.512  1.00  0.00    -0.200 F 
ATOM     71  C   UNL A   1      49.502  26.722  24.568  1.00  0.00     0.200 A 
ATOM     72  F   UNL A   1      50.465  26.145  26.645  1.00  0.00    -0.200 F 
ATOM     73  F   UNL A   1      50.587  26.271  23.924  1.00  0.00    -0.200 F 
ENDBRANCH  49  63
BRANCH  50  74
ATOM     74  C   UNL A   1      39.021  30.527  30.836  1.00  0.00     0.064 A 
ATOM     75  C   UNL A   1      38.985  30.478  32.236  1.00  0.00     0.173 A 
ATOM     76  C   UNL A   1      37.873  30.977  30.168  1.00  0.00     0.173 A 
ATOM     77  F   UNL A   1      40.050  30.030  32.917  1.00  0.00    -0.203 F 
ATOM     78  C   UNL A   1      37.840  30.845  32.940  1.00  0.00     0.198 A 
ATOM     79  C   UNL A   1      36.736  31.367  30.874  1.00  0.00     0.198 A 
ATOM     80  F   UNL A   1      37.855  31.037  28.828  1.00  0.00    -0.203 F 
ATOM     81  F   UNL A   1      37.816  30.744  34.275  1.00  0.00    -0.200 F 
ATOM     82  C   UNL A   1      36.718  31.293  32.258  1.00  0.00     0.200 A 
ATOM     83  F   UNL A   1      35.657  31.805  30.212  1.00  0.00    -0.200 F 
ATOM     84  F   UNL A   1      35.616  31.643  32.935  1.00  0.00    -0.200 F 
ENDBRANCH  50  74
BRANCH  62  85
ATOM     85  C   UNL A   1      44.827  33.801  28.813  1.00  0.00     0.064 A 
ATOM     86  C   UNL A   1      45.628  34.206  29.890  1.00  0.00     0.173 A 
ATOM     87  C   UNL A   1      44.504  34.755  27.837  1.00  0.00     0.173 A 
ATOM     88  F   UNL A   1      45.952  33.332  30.856  1.00  0.00    -0.203 F 
ATOM     89  C   UNL A   1      46.071  35.521  29.996  1.00  0.00     0.198 A 
ATOM     90  C   UNL A   1      44.970  36.063  27.932  1.00  0.00     0.198 A 
ATOM     91  F   UNL A   1      43.746  34.415  26.783  1.00  0.00    -0.203 F 
ATOM     92  F   UNL A   1      46.801  35.897  31.056  1.00  0.00    -0.200 F 
ATOM     93  C   UNL A   1      45.748  36.447  29.015  1.00  0.00     0.200 A 
ATOM     94  F   UNL A   1      44.668  36.953  26.976  1.00  0.00    -0.200 F 
ATOM     95  F   UNL A   1      46.181  37.711  29.115  1.00  0.00    -0.200 F 
ENDBRANCH  62  85
ENDBRANCH  36  37
ENDBRANCH  29  31
ENDBRANCH  28  29
ENDBRANCH  27  28
ENDBRANCH  26  27
ENDBRANCH  25  26
ENDBRANCH  24  25
ENDBRANCH   1  24
TORSDOF 20
ENDMDL
MODEL 2
REMARK VINA RESULT:     -11.1      5.202      8.339
REMARK SMILES COC1CCN(c2nc(C(C)C)c(C(=O)OCCOCCOCCOC(=O)c3ccc(-c4c5nc(c(-c6c(F)c(F)c(F)c(F)c6F)c6ccc([nH]6)c(-c6c(F)c(F)c(F)c(F)c6F)c6nc(c(-c7c(F)c(F)c(F)c(F)c7F)c7ccc4[nH]7)C=C6)C=C5)cc3)s2)CC1
REMARK SMILES IDX 20 1 19 2 18 3 17 4 16 5 14 6 15 7 13 8 7 9 8 10 91 11 9 12
REMARK SMILES IDX 6 13 3 14 4 15 93 16 5 17 92 18 2 19 1 20 10 21 11 22 12 23
REMARK SMILES IDX 21 24 22 25 23 26 24 27 25 28 26 29 27 30 28 31 29 32 90 33
REMARK SMILES IDX 30 34 89 35 31 36 32 37 33 38 83 39 34 40 88 41 82 42 84 43
REMARK SMILES IDX 35 44 87 45 81 46 80 47 36 49 68 50 48 51 67 52 49 53 52 54
REMARK SMILES IDX 66 55 85 56 50 57 51 58 65 60 86 61 53 62 37 63 38 64 46 65
REMARK SMILES IDX 39 66 40 67 44 68 47 69 41 70 42 71 45 72 43 73 69 74 70 75
REMARK SMILES IDX 78 76 71 77 72 78 76 79 79 80 73 81 74 82 77 83 75 84 54 85
REMARK SMILES IDX 55 86 63 87 56 88 57 89 61 90 64 91 58 92 59 93 62 94 60 95
REMARK H PARENT 84 48 52 59
REMARK Flexibility Score: inf
ROOT
ATOM      1  C   UNL A   1      40.331  22.169  27.273  1.00  0.00     0.188 C 
ENDROOT
BRANCH   1   2
ATOM      2  O   UNL A   1      39.497  23.129  26.639  1.00  0.00    -0.376 OA
BRANCH   2   3
ATOM      3  C   UNL A   1      38.287  22.707  26.019  1.00  0.00     0.202 C 
BRANCH   3   4
ATOM      4  C   UNL A   1      37.146  23.716  26.008  1.00  0.00     0.261 C 
BRANCH   4   5
ATOM      5  O   UNL A   1      36.386  23.602  24.795  1.00  0.00    -0.459 OA
BRANCH   5   6
ATOM      6  C   UNL A   1      35.042  23.786  24.923  1.00  0.00     0.350 C 
ATOM      7  O   UNL A   1      34.511  24.868  25.102  1.00  0.00    -0.245 OA
BRANCH   6   8
ATOM      8  C   UNL A   1      34.348  22.540  24.707  1.00  0.00     0.137 A 
ATOM      9  C   UNL A   1      33.801  20.168  24.794  1.00  0.00     0.186 A 
ATOM     10  N   UNL A   1      33.037  20.786  23.927  1.00  0.00    -0.224 NA
ATOM     11  S   UNL A   1      34.860  21.199  25.662  1.00  0.00    -0.089 S 
ATOM     12  C   UNL A   1      33.308  22.152  23.876  1.00  0.00     0.071 A 
BRANCH   9  13
ATOM     13  N   UNL A   1      33.882  18.826  24.903  1.00  0.00    -0.348 N 
ATOM     14  C   UNL A   1      33.124  16.227  24.006  1.00  0.00     0.121 C 
ATOM     15  C   UNL A   1      34.283  16.992  23.346  1.00  0.00     0.053 C 
ATOM     16  C   UNL A   1      32.133  17.193  24.669  1.00  0.00     0.053 C 
ATOM     17  C   UNL A   1      34.916  18.032  24.272  1.00  0.00     0.121 C 
ATOM     18  C   UNL A   1      32.856  18.118  25.645  1.00  0.00     0.121 C 
BRANCH  14  19
ATOM     19  O   UNL A   1      33.665  15.323  24.978  1.00  0.00    -0.381 OA
ATOM     20  C   UNL A   1      32.666  14.724  25.796  1.00  0.00     0.195 C 
ENDBRANCH  14  19
ENDBRANCH   9  13
BRANCH  12  21
ATOM     21  C   UNL A   1      32.482  22.930  22.876  1.00  0.00     0.034 C 
ATOM     22  C   UNL A   1      31.258  23.593  23.505  1.00  0.00     0.014 C 
ATOM     23  C   UNL A   1      33.286  23.922  22.039  1.00  0.00     0.014 C 
ENDBRANCH  12  21
ENDBRANCH   6   8
ENDBRANCH   5   6
ENDBRANCH   4   5
ENDBRANCH   3   4
ENDBRANCH   2   3
ENDBRANCH   1   2
BRANCH   1  24
ATOM     24  C   UNL A   1      41.081  21.114  26.438  1.00  0.00     0.188 C 
BRANCH  24  25
ATOM     25  O   UNL A   1      41.982  21.514  25.419  1.00  0.00    -0.376 OA
BRANCH  25  26
ATOM     26  C   UNL A   1      43.381  21.468  25.677  1.00  0.00     0.202 C 
BRANCH  26  27
ATOM     27  C   UNL A   1      44.255  22.433  24.883  1.00  0.00     0.261 C 
BRANCH  27  28
ATOM     28  O   UNL A   1      43.582  23.682  24.664  1.00  0.00    -0.460 OA
BRANCH  28  29
ATOM     29  C   UNL A   1      44.276  24.780  25.037  1.00  0.00     0.338 C 
ATOM     30  O   UNL A   1      45.357  25.158  24.619  1.00  0.00    -0.246 OA
BRANCH  29  31
ATOM     31  C   UNL A   1      43.448  25.590  25.945  1.00  0.00     0.060 A 
ATOM     32  C   UNL A   1      43.721  26.962  26.029  1.00  0.00     0.016 A 
ATOM     33  C   UNL A   1      42.466  25.006  26.748  1.00  0.00     0.016 A 
ATOM     34  C   UNL A   1      43.048  27.746  26.960  1.00  0.00     0.010 A 
ATOM     35  C   UNL A   1      41.803  25.792  27.694  1.00  0.00     0.010 A 
ATOM     36  C   UNL A   1      42.122  27.155  27.828  1.00  0.00    -0.014 A 
BRANCH  36  37
ATOM     37  C   UNL A   1      41.634  27.918  28.998  1.00  0.00     0.031 A 
ATOM     38  C   UNL A   1      42.384  27.799  30.295  1.00  0.00     0.074 A 
ATOM     39  C   UNL A   1      40.559  28.718  28.903  1.00  0.00     0.049 A 
ATOM     40  N   UNL A   1      42.138  28.355  31.453  1.00  0.00    -0.248 NA
ATOM     41  C   UNL A   1      43.576  26.935  30.282  1.00  0.00     0.031 C 
ATOM     42  C   UNL A   1      39.775  28.939  27.691  1.00  0.00     0.029 A 
ATOM     43  N   UNL A   1      39.940  29.489  29.854  1.00  0.00    -0.354 N 
ATOM     44  C   UNL A   1      43.144  27.914  32.303  1.00  0.00     0.074 A 
ATOM     45  C   UNL A   1      43.987  27.020  31.539  1.00  0.00     0.031 C 
ATOM     46  C   UNL A   1      38.765  29.781  27.975  1.00  0.00     0.029 A 
ATOM     47  C   UNL A   1      38.823  30.136  29.393  1.00  0.00     0.049 A 
ATOM     48  H   UNL A   1      40.267  29.570  30.779  1.00  0.00     0.167 HD
ATOM     49  C   UNL A   1      43.350  28.233  33.602  1.00  0.00     0.037 A 
ATOM     50  C   UNL A   1      37.940  30.912  30.050  1.00  0.00     0.037 A 
ATOM     51  C   UNL A   1      42.504  29.110  34.363  1.00  0.00     0.049 A 
ATOM     52  C   UNL A   1      38.150  31.192  31.516  1.00  0.00     0.074 A 
ATOM     53  C   UNL A   1      42.631  29.502  35.685  1.00  0.00     0.029 A 
ATOM     54  N   UNL A   1      41.363  29.726  33.870  1.00  0.00    -0.354 N 
ATOM     55  N   UNL A   1      39.120  30.797  32.305  1.00  0.00    -0.248 NA
ATOM     56  C   UNL A   1      37.143  32.030  32.181  1.00  0.00     0.031 C 
ATOM     57  C   UNL A   1      41.542  30.322  36.003  1.00  0.00     0.029 A 
ATOM     58  C   UNL A   1      40.763  30.478  34.867  1.00  0.00     0.049 A 
ATOM     59  H   UNL A   1      41.030  29.642  32.948  1.00  0.00     0.167 HD
ATOM     60  C   UNL A   1      38.857  31.360  33.548  1.00  0.00     0.074 A 
ATOM     61  C   UNL A   1      37.641  32.133  33.405  1.00  0.00     0.031 C 
ATOM     62  C   UNL A   1      39.560  31.249  34.702  1.00  0.00     0.037 A 
BRANCH  49  63
ATOM     63  C   UNL A   1      44.529  27.608  34.284  1.00  0.00     0.064 A 
ATOM     64  C   UNL A   1      45.780  28.242  34.316  1.00  0.00     0.173 A 
ATOM     65  C   UNL A   1      44.403  26.370  34.931  1.00  0.00     0.173 A 
ATOM     66  F   UNL A   1      45.955  29.419  33.695  1.00  0.00    -0.203 F 
ATOM     67  C   UNL A   1      46.867  27.650  34.952  1.00  0.00     0.198 A 
ATOM     68  C   UNL A   1      45.485  25.792  35.587  1.00  0.00     0.198 A 
ATOM     69  F   UNL A   1      43.228  25.723  34.928  1.00  0.00    -0.203 F 
ATOM     70  F   UNL A   1      48.064  28.254  34.935  1.00  0.00    -0.200 F 
ATOM     71  C   UNL A   1      46.717  26.429  35.593  1.00  0.00     0.200 A 
ATOM     72  F   UNL A   1      45.337  24.616  36.212  1.00  0.00    -0.200 F 
ATOM     73  F   UNL A   1      47.763  25.862  36.209  1.00  0.00    -0.200 F 
ENDBRANCH  49  63
BRANCH  50  74
ATOM     74  C   UNL A   1      36.769  31.478  29.333  1.00  0.00     0.064 A 
ATOM     75  C   UNL A   1      35.690  30.666  28.957  1.00  0.00     0.173 A 
ATOM     76  C   UNL A   1      36.718  32.836  28.986  1.00  0.00     0.173 A 
ATOM     77  F   UNL A   1      35.707  29.357  29.244  1.00  0.00    -0.203 F 
ATOM     78  C   UNL A   1      34.613  31.187  28.243  1.00  0.00     0.198 A 
ATOM     79  C   UNL A   1      35.629  33.361  28.294  1.00  0.00     0.198 A 
ATOM     80  F   UNL A   1      37.729  33.653  29.320  1.00  0.00    -0.203 F 
ATOM     81  F   UNL A   1      33.617  30.380  27.855  1.00  0.00    -0.200 F 
ATOM     82  C   UNL A   1      34.582  32.535  27.917  1.00  0.00     0.200 A 
ATOM     83  F   UNL A   1      35.599  34.664  27.986  1.00  0.00    -0.200 F 
ATOM     84  F   UNL A   1      33.546  33.035  27.228  1.00  0.00    -0.200 F 
ENDBRANCH  50  74
BRANCH  62  85
ATOM     85  C   UNL A   1      39.052  32.009  35.893  1.00  0.00     0.064 A 
ATOM     86  C   UNL A   1      38.213  31.412  36.844  1.00  0.00     0.173 A 
ATOM     87  C   UNL A   1      39.449  33.338  36.106  1.00  0.00     0.173 A 
ATOM     88  F   UNL A   1      37.795  30.148  36.677  1.00  0.00    -0.203 F 
ATOM     89  C   UNL A   1      37.772  32.126  37.955  1.00  0.00     0.198 A 
ATOM     90  C   UNL A   1      39.028  34.040  37.232  1.00  0.00     0.198 A 
ATOM     91  F   UNL A   1      40.257  33.952  35.229  1.00  0.00    -0.203 F 
ATOM     92  F   UNL A   1      36.936  31.549  38.830  1.00  0.00    -0.200 F 
ATOM     93  C   UNL A   1      38.184  33.435  38.152  1.00  0.00     0.200 A 
ATOM     94  F   UNL A   1      39.437  35.301  37.427  1.00  0.00    -0.200 F 
ATOM     95  F   UNL A   1      37.763  34.118  39.226  1.00  0.00    -0.200 F 
ENDBRANCH  62  85
ENDBRANCH  36  37
ENDBRANCH  29  31
ENDBRANCH  28  29
ENDBRANCH  27  28
ENDBRANCH  26  27
ENDBRANCH  25  26
ENDBRANCH  24  25
ENDBRANCH   1  24
TORSDOF 20
ENDMDL
MODEL 3
REMARK VINA RESULT:     -10.9      4.429      7.029
REMARK SMILES COC1CCN(c2nc(C(C)C)c(C(=O)OCCOCCOCCOC(=O)c3ccc(-c4c5nc(c(-c6c(F)c(F)c(F)c(F)c6F)c6ccc([nH]6)c(-c6c(F)c(F)c(F)c(F)c6F)c6nc(c(-c7c(F)c(F)c(F)c(F)c7F)c7ccc4[nH]7)C=C6)C=C5)cc3)s2)CC1
REMARK SMILES IDX 20 1 19 2 18 3 17 4 16 5 14 6 15 7 13 8 7 9 8 10 91 11 9 12
REMARK SMILES IDX 6 13 3 14 4 15 93 16 5 17 92 18 2 19 1 20 10 21 11 22 12 23
REMARK SMILES IDX 21 24 22 25 23 26 24 27 25 28 26 29 27 30 28 31 29 32 90 33
REMARK SMILES IDX 30 34 89 35 31 36 32 37 33 38 83 39 34 40 88 41 82 42 84 43
REMARK SMILES IDX 35 44 87 45 81 46 80 47 36 49 68 50 48 51 67 52 49 53 52 54
REMARK SMILES IDX 66 55 85 56 50 57 51 58 65 60 86 61 53 62 37 63 38 64 46 65
REMARK SMILES IDX 39 66 40 67 44 68 47 69 41 70 42 71 45 72 43 73 69 74 70 75
REMARK SMILES IDX 78 76 71 77 72 78 76 79 79 80 73 81 74 82 77 83 75 84 54 85
REMARK SMILES IDX 55 86 63 87 56 88 57 89 61 90 64 91 58 92 59 93 62 94 60 95
REMARK H PARENT 84 48 52 59
REMARK Flexibility Score: inf
ROOT
ATOM      1  C   UNL A   1      40.421  22.178  27.613  1.00  0.00     0.188 C 
ENDROOT
BRANCH   1   2
ATOM      2  O   UNL A   1      39.538  23.074  26.953  1.00  0.00    -0.376 OA
BRANCH   2   3
ATOM      3  C   UNL A   1      38.485  22.556  26.148  1.00  0.00     0.202 C 
BRANCH   3   4
ATOM      4  C   UNL A   1      37.236  23.421  26.030  1.00  0.00     0.261 C 
BRANCH   4   5
ATOM      5  O   UNL A   1      36.745  23.414  24.682  1.00  0.00    -0.459 OA
BRANCH   5   6
ATOM      6  C   UNL A   1      35.756  22.514  24.420  1.00  0.00     0.350 C 
ATOM      7  O   UNL A   1      35.942  21.325  24.230  1.00  0.00    -0.245 OA
BRANCH   6   8
ATOM      8  C   UNL A   1      34.466  23.154  24.512  1.00  0.00     0.137 A 
ATOM      9  C   UNL A   1      32.708  24.824  24.287  1.00  0.00     0.186 A 
ATOM     10  N   UNL A   1      32.320  23.849  25.071  1.00  0.00    -0.224 NA
ATOM     11  S   UNL A   1      34.256  24.594  23.588  1.00  0.00    -0.089 S 
ATOM     12  C   UNL A   1      33.296  22.862  25.195  1.00  0.00     0.071 A 
BRANCH   9  13
ATOM     13  N   UNL A   1      32.041  25.988  24.148  1.00  0.00    -0.348 N 
ATOM     14  C   UNL A   1      29.900  27.485  23.001  1.00  0.00     0.121 C 
ATOM     15  C   UNL A   1      29.700  26.660  24.283  1.00  0.00     0.053 C 
ATOM     16  C   UNL A   1      31.060  26.929  22.164  1.00  0.00     0.053 C 
ATOM     17  C   UNL A   1      31.001  26.428  25.054  1.00  0.00     0.121 C 
ATOM     18  C   UNL A   1      32.332  26.833  23.005  1.00  0.00     0.121 C 
BRANCH  14  19
ATOM     19  O   UNL A   1      30.157  28.846  23.368  1.00  0.00    -0.381 OA
ATOM     20  C   UNL A   1      30.095  29.741  22.262  1.00  0.00     0.195 C 
ENDBRANCH  14  19
ENDBRANCH   9  13
BRANCH  12  21
ATOM     21  C   UNL A   1      32.930  21.713  26.109  1.00  0.00     0.034 C 
ATOM     22  C   UNL A   1      32.529  20.453  25.346  1.00  0.00     0.014 C 
ATOM     23  C   UNL A   1      33.975  21.410  27.180  1.00  0.00     0.014 C 
ENDBRANCH  12  21
ENDBRANCH   6   8
ENDBRANCH   5   6
ENDBRANCH   4   5
ENDBRANCH   3   4
ENDBRANCH   2   3
ENDBRANCH   1   2
BRANCH   1  24
ATOM     24  C   UNL A   1      41.222  21.137  26.807  1.00  0.00     0.188 C 
BRANCH  24  25
ATOM     25  O   UNL A   1      41.983  21.535  25.678  1.00  0.00    -0.376 OA
BRANCH  25  26
ATOM     26  C   UNL A   1      43.402  21.439  25.733  1.00  0.00     0.202 C 
BRANCH  26  27
ATOM     27  C   UNL A   1      44.186  22.369  24.813  1.00  0.00     0.261 C 
BRANCH  27  28
ATOM     28  O   UNL A   1      43.512  23.626  24.650  1.00  0.00    -0.460 OA
BRANCH  28  29
ATOM     29  C   UNL A   1      44.225  24.712  25.025  1.00  0.00     0.338 C 
ATOM     30  O   UNL A   1      45.316  25.067  24.614  1.00  0.00    -0.246 OA
BRANCH  29  31
ATOM     31  C   UNL A   1      43.406  25.541  25.924  1.00  0.00     0.060 A 
ATOM     32  C   UNL A   1      43.722  26.903  26.024  1.00  0.00     0.016 A 
ATOM     33  C   UNL A   1      42.391  24.984  26.703  1.00  0.00     0.016 A 
ATOM     34  C   UNL A   1      43.057  27.702  26.949  1.00  0.00     0.010 A 
ATOM     35  C   UNL A   1      41.735  25.783  27.643  1.00  0.00     0.010 A 
ATOM     36  C   UNL A   1      42.096  27.134  27.794  1.00  0.00    -0.014 A 
BRANCH  36  37
ATOM     37  C   UNL A   1      41.610  27.903  28.961  1.00  0.00     0.031 A 
ATOM     38  C   UNL A   1      42.354  27.780  30.262  1.00  0.00     0.074 A 
ATOM     39  C   UNL A   1      40.543  28.714  28.861  1.00  0.00     0.049 A 
ATOM     40  N   UNL A   1      42.108  28.340  31.418  1.00  0.00    -0.248 NA
ATOM     41  C   UNL A   1      43.537  26.904  30.255  1.00  0.00     0.031 C 
ATOM     42  C   UNL A   1      39.766  28.941  27.646  1.00  0.00     0.029 A 
ATOM     43  N   UNL A   1      39.928  29.492  29.808  1.00  0.00    -0.354 N 
ATOM     44  C   UNL A   1      43.106  27.890  32.272  1.00  0.00     0.074 A 
ATOM     45  C   UNL A   1      43.944  26.987  31.513  1.00  0.00     0.031 C 
ATOM     46  C   UNL A   1      38.763  29.792  27.924  1.00  0.00     0.029 A 
ATOM     47  C   UNL A   1      38.819  30.149  29.342  1.00  0.00     0.049 A 
ATOM     48  H   UNL A   1      40.252  29.571  30.734  1.00  0.00     0.167 HD
ATOM     49  C   UNL A   1      43.310  28.210  33.572  1.00  0.00     0.037 A 
ATOM     50  C   UNL A   1      37.940  30.934  29.994  1.00  0.00     0.037 A 
ATOM     51  C   UNL A   1      42.470  29.096  34.328  1.00  0.00     0.049 A 
ATOM     52  C   UNL A   1      38.148  31.215  31.460  1.00  0.00     0.074 A 
ATOM     53  C   UNL A   1      42.595  29.489  35.650  1.00  0.00     0.029 A 
ATOM     54  N   UNL A   1      41.337  29.722  33.830  1.00  0.00    -0.354 N 
ATOM     55  N   UNL A   1      39.110  30.812  32.254  1.00  0.00    -0.248 NA
ATOM     56  C   UNL A   1      37.145  32.064  32.120  1.00  0.00     0.031 C 
ATOM     57  C   UNL A   1      41.513  30.319  35.962  1.00  0.00     0.029 A 
ATOM     58  C   UNL A   1      40.740  30.481  34.823  1.00  0.00     0.049 A 
ATOM     59  H   UNL A   1      41.006  29.639  32.906  1.00  0.00     0.167 HD
ATOM     60  C   UNL A   1      38.848  31.379  33.494  1.00  0.00     0.074 A 
ATOM     61  C   UNL A   1      37.639  32.164  33.346  1.00  0.00     0.031 C 
ATOM     62  C   UNL A   1      39.544  31.263  34.652  1.00  0.00     0.037 A 
BRANCH  49  63
ATOM     63  C   UNL A   1      44.480  27.574  34.259  1.00  0.00     0.064 A 
ATOM     64  C   UNL A   1      45.760  28.148  34.213  1.00  0.00     0.173 A 
ATOM     65  C   UNL A   1      44.318  26.389  34.991  1.00  0.00     0.173 A 
ATOM     66  F   UNL A   1      45.969  29.273  33.511  1.00  0.00    -0.203 F 
ATOM     67  C   UNL A   1      46.838  27.548  34.856  1.00  0.00     0.198 A 
ATOM     68  C   UNL A   1      45.393  25.803  35.653  1.00  0.00     0.198 A 
ATOM     69  F   UNL A   1      43.115  25.800  35.065  1.00  0.00    -0.203 F 
ATOM     70  F   UNL A   1      48.060  28.091  34.764  1.00  0.00    -0.200 F 
ATOM     71  C   UNL A   1      46.652  26.379  35.580  1.00  0.00     0.200 A 
ATOM     72  F   UNL A   1      45.211  24.679  36.359  1.00  0.00    -0.200 F 
ATOM     73  F   UNL A   1      47.690  25.804  36.203  1.00  0.00    -0.200 F 
ENDBRANCH  49  63
BRANCH  50  74
ATOM     74  C   UNL A   1      36.778  31.510  29.271  1.00  0.00     0.064 A 
ATOM     75  C   UNL A   1      36.728  32.875  28.955  1.00  0.00     0.173 A 
ATOM     76  C   UNL A   1      35.683  30.714  28.907  1.00  0.00     0.173 A 
ATOM     77  F   UNL A   1      37.740  33.681  29.307  1.00  0.00    -0.203 F 
ATOM     78  C   UNL A   1      35.617  33.425  28.318  1.00  0.00     0.198 A 
ATOM     79  C   UNL A   1      34.584  31.260  28.248  1.00  0.00     0.198 A 
ATOM     80  F   UNL A   1      35.681  29.403  29.193  1.00  0.00    -0.203 F 
ATOM     81  F   UNL A   1      35.574  34.740  28.070  1.00  0.00    -0.200 F 
ATOM     82  C   UNL A   1      34.548  32.616  27.961  1.00  0.00     0.200 A 
ATOM     83  F   UNL A   1      33.556  30.474  27.900  1.00  0.00    -0.200 F 
ATOM     84  F   UNL A   1      33.479  33.146  27.352  1.00  0.00    -0.200 F 
ENDBRANCH  50  74
BRANCH  62  85
ATOM     85  C   UNL A   1      39.039  32.030  35.840  1.00  0.00     0.064 A 
ATOM     86  C   UNL A   1      38.226  31.430  36.811  1.00  0.00     0.173 A 
ATOM     87  C   UNL A   1      39.413  33.369  36.029  1.00  0.00     0.173 A 
ATOM     88  F   UNL A   1      37.830  30.156  36.667  1.00  0.00    -0.203 F 
ATOM     89  C   UNL A   1      37.786  32.151  37.919  1.00  0.00     0.198 A 
ATOM     90  C   UNL A   1      38.994  34.078  37.150  1.00  0.00     0.198 A 
ATOM     91  F   UNL A   1      40.197  33.986  35.131  1.00  0.00    -0.203 F 
ATOM     92  F   UNL A   1      36.975  31.570  38.814  1.00  0.00    -0.200 F 
ATOM     93  C   UNL A   1      38.176  33.471  38.091  1.00  0.00     0.200 A 
ATOM     94  F   UNL A   1      39.382  35.350  37.322  1.00  0.00    -0.200 F 
ATOM     95  F   UNL A   1      37.758  34.160  39.161  1.00  0.00    -0.200 F 
ENDBRANCH  62  85
ENDBRANCH  36  37
ENDBRANCH  29  31
ENDBRANCH  28  29
ENDBRANCH  27  28
ENDBRANCH  26  27
ENDBRANCH  25  26
ENDBRANCH  24  25
ENDBRANCH   1  24
TORSDOF 20
ENDMDL
