MODEL 1
REMARK VINA RESULT:     -11.4      0.000      0.000
REMARK SMILES O=C1N[C@H](C(=O)N[C@H]2C=C[C@@H](C(=O)OCCOCCOCCOC(=O)c3ccc(-c4c5nc(c(-c6c(F)c(F)c(F)c(F)c6F)c6ccc([nH]6)c(-c6c(F)c(F)c(F)c(F)c6F)c6nc(c(-c7c(F)c(F)c(F)c(F)c7F)c7ccc4[nH]7)C=C6)C=C5)cc3)C2)CS1
REMARK SMILES IDX 18 1 17 2 16 3 15 4 14 5 12 6 13 7 11 8 8 9 9 10 89 11 10 12
REMARK SMILES IDX 7 13 5 14 6 15 4 17 1 18 2 19 3 20 91 21 90 23 19 24 20 25
REMARK SMILES IDX 21 26 22 27 23 28 24 29 25 30 26 31 27 32 88 33 28 34 87 35
REMARK SMILES IDX 29 36 30 37 31 38 81 39 32 40 86 41 80 42 82 43 33 44 85 45
REMARK SMILES IDX 79 46 78 47 34 49 66 50 46 51 65 52 47 53 50 54 64 55 83 56
REMARK SMILES IDX 48 57 49 58 63 60 84 61 51 62 35 63 36 64 44 65 37 66 38 67
REMARK SMILES IDX 42 68 45 69 39 70 40 71 43 72 41 73 67 74 68 75 76 76 69 77
REMARK SMILES IDX 70 78 74 79 77 80 71 81 72 82 75 83 73 84 52 85 53 86 61 87
REMARK SMILES IDX 54 88 55 89 59 90 62 91 56 92 57 93 60 94 58 95
REMARK H PARENT 7 16 3 22 82 48 50 59
REMARK Flexibility Score: inf
ROOT
ATOM      1  C   UNL A   1      43.172  19.001  25.480  1.00  0.00     0.188 C 
ENDROOT
BRANCH   1   2
ATOM      2  O   UNL A   1      42.639  19.986  26.353  1.00  0.00    -0.376 OA
BRANCH   2   3
ATOM      3  C   UNL A   1      41.254  19.947  26.676  1.00  0.00     0.202 C 
BRANCH   3   4
ATOM      4  C   UNL A   1      40.443  21.248  26.557  1.00  0.00     0.261 C 
BRANCH   4   5
ATOM      5  O   UNL A   1      39.160  21.112  25.905  1.00  0.00    -0.463 OA
BRANCH   5   6
ATOM      6  C   UNL A   1      38.419  22.244  25.774  1.00  0.00     0.312 C 
ATOM      7  O   UNL A   1      38.554  23.238  26.482  1.00  0.00    -0.252 OA
BRANCH   6   8
ATOM      8  C   UNL A   1      37.403  22.213  24.622  1.00  0.00     0.124 C 
ATOM      9  C   UNL A   1      35.027  21.831  24.061  1.00  0.00     0.106 C 
ATOM     10  C   UNL A   1      35.323  23.277  24.290  1.00  0.00    -0.006 C 
ATOM     11  C   UNL A   1      36.285  21.164  24.617  1.00  0.00     0.048 C 
ATOM     12  C   UNL A   1      36.612  23.488  24.584  1.00  0.00    -0.014 C 
BRANCH   9  13
ATOM     13  N   UNL A   1      33.840  21.455  24.801  1.00  0.00    -0.348 N 
ATOM     14  C   UNL A   1      33.230  20.249  24.978  1.00  0.00     0.243 C 
ATOM     15  O   UNL A   1      32.341  20.196  25.835  1.00  0.00    -0.273 OA
ATOM     16  H   UNL A   1      33.395  22.205  25.257  1.00  0.00     0.164 HD
BRANCH  14  17
ATOM     17  C   UNL A   1      33.700  18.954  24.300  1.00  0.00     0.182 C 
ATOM     18  O   UNL A   1      35.483  16.051  25.294  1.00  0.00    -0.262 OA
ATOM     19  C   UNL A   1      34.689  16.844  24.817  1.00  0.00     0.279 C 
ATOM     20  N   UNL A   1      34.707  18.192  24.999  1.00  0.00    -0.334 N 
ATOM     21  S   UNL A   1      33.324  16.408  23.825  1.00  0.00    -0.062 SA
ATOM     22  H   UNL A   1      35.375  18.626  25.579  1.00  0.00     0.165 HD
ATOM     23  C   UNL A   1      32.529  18.026  24.016  1.00  0.00     0.115 C 
ENDBRANCH  14  17
ENDBRANCH   9  13
ENDBRANCH   6   8
ENDBRANCH   5   6
ENDBRANCH   4   5
ENDBRANCH   3   4
ENDBRANCH   2   3
ENDBRANCH   1   2
BRANCH   1  24
ATOM     24  C   UNL A   1      44.640  19.097  25.035  1.00  0.00     0.188 C 
BRANCH  24  25
ATOM     25  O   UNL A   1      44.987  20.250  24.302  1.00  0.00    -0.376 OA
BRANCH  25  26
ATOM     26  C   UNL A   1      46.028  21.046  24.843  1.00  0.00     0.202 C 
BRANCH  26  27
ATOM     27  C   UNL A   1      45.789  22.565  24.840  1.00  0.00     0.261 C 
BRANCH  27  28
ATOM     28  O   UNL A   1      44.793  23.041  25.768  1.00  0.00    -0.460 OA
BRANCH  28  29
ATOM     29  C   UNL A   1      43.603  23.427  25.251  1.00  0.00     0.338 C 
ATOM     30  O   UNL A   1      43.028  22.930  24.302  1.00  0.00    -0.246 OA
BRANCH  29  31
ATOM     31  C   UNL A   1      43.026  24.462  26.144  1.00  0.00     0.060 A 
ATOM     32  C   UNL A   1      43.520  25.773  26.109  1.00  0.00     0.016 A 
ATOM     33  C   UNL A   1      42.013  24.127  27.040  1.00  0.00     0.016 A 
ATOM     34  C   UNL A   1      43.036  26.744  26.987  1.00  0.00     0.010 A 
ATOM     35  C   UNL A   1      41.530  25.099  27.925  1.00  0.00     0.010 A 
ATOM     36  C   UNL A   1      42.057  26.405  27.923  1.00  0.00    -0.014 A 
BRANCH  36  37
ATOM     37  C   UNL A   1      41.683  27.357  28.999  1.00  0.00     0.031 A 
ATOM     38  C   UNL A   1      42.456  27.327  30.289  1.00  0.00     0.074 A 
ATOM     39  C   UNL A   1      40.673  28.233  28.841  1.00  0.00     0.049 A 
ATOM     40  N   UNL A   1      42.216  27.938  31.420  1.00  0.00    -0.248 NA
ATOM     41  C   UNL A   1      43.661  26.481  30.306  1.00  0.00     0.031 C 
ATOM     42  C   UNL A   1      39.891  28.412  27.621  1.00  0.00     0.029 A 
ATOM     43  N   UNL A   1      40.119  29.124  29.730  1.00  0.00    -0.354 N 
ATOM     44  C   UNL A   1      43.219  27.530  32.289  1.00  0.00     0.074 A 
ATOM     45  C   UNL A   1      44.062  26.606  31.562  1.00  0.00     0.031 C 
ATOM     46  C   UNL A   1      38.941  29.338  27.843  1.00  0.00     0.029 A 
ATOM     47  C   UNL A   1      39.017  29.777  29.236  1.00  0.00     0.049 A 
ATOM     48  H   UNL A   1      40.478  29.278  30.634  1.00  0.00     0.167 HD
ATOM     49  C   UNL A   1      43.418  27.895  33.578  1.00  0.00     0.037 A 
ATOM     50  C   UNL A   1      38.146  30.602  29.851  1.00  0.00     0.037 A 
ATOM     51  C   UNL A   1      42.588  28.833  34.290  1.00  0.00     0.049 A 
ATOM     52  C   UNL A   1      38.344  30.930  31.311  1.00  0.00     0.074 A 
ATOM     53  C   UNL A   1      42.722  29.285  35.592  1.00  0.00     0.029 A 
ATOM     54  N   UNL A   1      41.471  29.459  33.761  1.00  0.00    -0.354 N 
ATOM     55  N   UNL A   1      39.294  30.545  32.128  1.00  0.00    -0.248 NA
ATOM     56  C   UNL A   1      37.345  31.811  31.935  1.00  0.00     0.031 C 
ATOM     57  C   UNL A   1      41.649  30.137  35.870  1.00  0.00     0.029 A 
ATOM     58  C   UNL A   1      40.888  30.272  34.720  1.00  0.00     0.049 A 
ATOM     59  H   UNL A   1      41.140  29.344  32.841  1.00  0.00     0.167 HD
ATOM     60  C   UNL A   1      39.029  31.163  33.345  1.00  0.00     0.074 A 
ATOM     61  C   UNL A   1      37.837  31.959  33.156  1.00  0.00     0.031 C 
ATOM     62  C   UNL A   1      39.712  31.078  34.513  1.00  0.00     0.037 A 
BRANCH  49  63
ATOM     63  C   UNL A   1      44.557  27.259  34.321  1.00  0.00     0.064 A 
ATOM     64  C   UNL A   1      45.824  27.855  34.389  1.00  0.00     0.173 A 
ATOM     65  C   UNL A   1      44.354  26.064  35.029  1.00  0.00     0.173 A 
ATOM     66  F   UNL A   1      46.074  28.990  33.721  1.00  0.00    -0.203 F 
ATOM     67  C   UNL A   1      46.852  27.267  35.124  1.00  0.00     0.198 A 
ATOM     68  C   UNL A   1      45.373  25.498  35.788  1.00  0.00     0.198 A 
ATOM     69  F   UNL A   1      43.158  25.455  35.000  1.00  0.00    -0.203 F 
ATOM     70  F   UNL A   1      48.066  27.833  35.144  1.00  0.00    -0.200 F 
ATOM     71  C   UNL A   1      46.623  26.096  35.831  1.00  0.00     0.200 A 
ATOM     72  F   UNL A   1      45.144  24.375  36.484  1.00  0.00    -0.200 F 
ATOM     73  F   UNL A   1      47.607  25.544  36.553  1.00  0.00    -0.200 F 
ENDBRANCH  49  63
BRANCH  50  74
ATOM     74  C   UNL A   1      36.977  31.153  29.111  1.00  0.00     0.064 A 
ATOM     75  C   UNL A   1      36.909  32.513  28.774  1.00  0.00     0.173 A 
ATOM     76  C   UNL A   1      35.880  30.346  28.774  1.00  0.00     0.173 A 
ATOM     77  F   UNL A   1      37.918  33.334  29.100  1.00  0.00    -0.203 F 
ATOM     78  C   UNL A   1      35.777  33.049  28.162  1.00  0.00     0.198 A 
ATOM     79  C   UNL A   1      34.764  30.876  28.129  1.00  0.00     0.198 A 
ATOM     80  F   UNL A   1      35.888  29.039  29.076  1.00  0.00    -0.203 F 
ATOM     81  F   UNL A   1      35.712  34.365  27.917  1.00  0.00    -0.200 F 
ATOM     82  C   UNL A   1      34.707  32.229  27.836  1.00  0.00     0.200 A 
ATOM     83  F   UNL A   1      33.737  30.077  27.806  1.00  0.00    -0.200 F 
ATOM     84  F   UNL A   1      33.617  32.746  27.253  1.00  0.00    -0.200 F 
ENDBRANCH  50  74
BRANCH  62  85
ATOM     85  C   UNL A   1      39.228  31.915  35.664  1.00  0.00     0.064 A 
ATOM     86  C   UNL A   1      39.586  33.264  35.804  1.00  0.00     0.173 A 
ATOM     87  C   UNL A   1      38.354  31.367  36.618  1.00  0.00     0.173 A 
ATOM     88  F   UNL A   1      40.427  33.834  34.928  1.00  0.00    -0.203 F 
ATOM     89  C   UNL A   1      39.113  34.024  36.872  1.00  0.00     0.198 A 
ATOM     90  C   UNL A   1      37.854  32.139  37.662  1.00  0.00     0.198 A 
ATOM     91  F   UNL A   1      37.971  30.085  36.526  1.00  0.00    -0.203 F 
ATOM     92  F   UNL A   1      39.513  35.295  37.015  1.00  0.00    -0.200 F 
ATOM     93  C   UNL A   1      38.241  33.464  37.794  1.00  0.00     0.200 A 
ATOM     94  F   UNL A   1      36.997  31.602  38.541  1.00  0.00    -0.200 F 
ATOM     95  F   UNL A   1      37.779  34.199  38.814  1.00  0.00    -0.200 F 
ENDBRANCH  62  85
ENDBRANCH  36  37
ENDBRANCH  29  31
ENDBRANCH  28  29
ENDBRANCH  27  28
ENDBRANCH  26  27
ENDBRANCH  25  26
ENDBRANCH  24  25
ENDBRANCH   1  24
TORSDOF 19
ENDMDL
MODEL 2
REMARK VINA RESULT:     -11.2      1.886      2.875
REMARK SMILES O=C1N[C@H](C(=O)N[C@H]2C=C[C@@H](C(=O)OCCOCCOCCOC(=O)c3ccc(-c4c5nc(c(-c6c(F)c(F)c(F)c(F)c6F)c6ccc([nH]6)c(-c6c(F)c(F)c(F)c(F)c6F)c6nc(c(-c7c(F)c(F)c(F)c(F)c7F)c7ccc4[nH]7)C=C6)C=C5)cc3)C2)CS1
REMARK SMILES IDX 18 1 17 2 16 3 15 4 14 5 12 6 13 7 11 8 8 9 9 10 89 11 10 12
REMARK SMILES IDX 7 13 5 14 6 15 4 17 1 18 2 19 3 20 91 21 90 23 19 24 20 25
REMARK SMILES IDX 21 26 22 27 23 28 24 29 25 30 26 31 27 32 88 33 28 34 87 35
REMARK SMILES IDX 29 36 30 37 31 38 81 39 32 40 86 41 80 42 82 43 33 44 85 45
REMARK SMILES IDX 79 46 78 47 34 49 66 50 46 51 65 52 47 53 50 54 64 55 83 56
REMARK SMILES IDX 48 57 49 58 63 60 84 61 51 62 35 63 36 64 44 65 37 66 38 67
REMARK SMILES IDX 42 68 45 69 39 70 40 71 43 72 41 73 67 74 68 75 76 76 69 77
REMARK SMILES IDX 70 78 74 79 77 80 71 81 72 82 75 83 73 84 52 85 53 86 61 87
REMARK SMILES IDX 54 88 55 89 59 90 62 91 56 92 57 93 60 94 58 95
REMARK H PARENT 7 16 3 22 82 48 50 59
REMARK Flexibility Score: inf
ROOT
ATOM      1  C   UNL A   1      43.074  18.868  25.373  1.00  0.00     0.188 C 
ENDROOT
BRANCH   1   2
ATOM      2  O   UNL A   1      42.512  19.693  26.385  1.00  0.00    -0.376 OA
BRANCH   2   3
ATOM      3  C   UNL A   1      41.097  19.827  26.458  1.00  0.00     0.202 C 
BRANCH   3   4
ATOM      4  C   UNL A   1      40.473  21.170  26.046  1.00  0.00     0.261 C 
BRANCH   4   5
ATOM      5  O   UNL A   1      39.046  21.136  25.815  1.00  0.00    -0.463 OA
BRANCH   5   6
ATOM      6  C   UNL A   1      38.371  22.302  25.992  1.00  0.00     0.312 C 
ATOM      7  O   UNL A   1      38.881  23.332  26.425  1.00  0.00    -0.252 OA
BRANCH   6   8
ATOM      8  C   UNL A   1      36.897  22.259  25.562  1.00  0.00     0.124 C 
ATOM      9  C   UNL A   1      35.023  23.624  24.709  1.00  0.00     0.106 C 
ATOM     10  C   UNL A   1      35.776  22.956  23.606  1.00  0.00    -0.006 C 
ATOM     11  C   UNL A   1      35.969  23.434  25.893  1.00  0.00     0.048 C 
ATOM     12  C   UNL A   1      36.787  22.207  24.067  1.00  0.00    -0.014 C 
BRANCH   9  13
ATOM     13  N   UNL A   1      34.828  25.022  24.387  1.00  0.00    -0.348 N 
ATOM     14  C   UNL A   1      33.703  25.792  24.344  1.00  0.00     0.243 C 
ATOM     15  O   UNL A   1      33.867  27.011  24.236  1.00  0.00    -0.273 OA
ATOM     16  H   UNL A   1      35.656  25.502  24.157  1.00  0.00     0.164 HD
BRANCH  14  17
ATOM     17  C   UNL A   1      32.291  25.241  24.589  1.00  0.00     0.182 C 
ATOM     18  O   UNL A   1      30.616  23.586  27.245  1.00  0.00    -0.262 OA
ATOM     19  C   UNL A   1      30.934  24.318  26.323  1.00  0.00     0.279 C 
ATOM     20  N   UNL A   1      32.140  24.324  25.694  1.00  0.00    -0.334 N 
ATOM     21  S   UNL A   1      29.913  25.553  25.639  1.00  0.00    -0.062 SA
ATOM     22  H   UNL A   1      32.874  23.732  25.978  1.00  0.00     0.165 HD
ATOM     23  C   UNL A   1      31.287  26.368  24.782  1.00  0.00     0.115 C 
ENDBRANCH  14  17
ENDBRANCH   9  13
ENDBRANCH   6   8
ENDBRANCH   5   6
ENDBRANCH   4   5
ENDBRANCH   3   4
ENDBRANCH   2   3
ENDBRANCH   1   2
BRANCH   1  24
ATOM     24  C   UNL A   1      44.576  18.966  25.064  1.00  0.00     0.188 C 
BRANCH  24  25
ATOM     25  O   UNL A   1      44.987  20.120  24.364  1.00  0.00    -0.376 OA
BRANCH  25  26
ATOM     26  C   UNL A   1      46.018  20.883  24.967  1.00  0.00     0.202 C 
BRANCH  26  27
ATOM     27  C   UNL A   1      45.818  22.408  24.970  1.00  0.00     0.261 C 
BRANCH  27  28
ATOM     28  O   UNL A   1      44.787  22.899  25.851  1.00  0.00    -0.460 OA
BRANCH  28  29
ATOM     29  C   UNL A   1      43.649  23.355  25.276  1.00  0.00     0.338 C 
ATOM     30  O   UNL A   1      43.115  22.916  24.276  1.00  0.00    -0.246 OA
BRANCH  29  31
ATOM     31  C   UNL A   1      43.062  24.383  26.168  1.00  0.00     0.060 A 
ATOM     32  C   UNL A   1      43.465  25.721  26.058  1.00  0.00     0.016 A 
ATOM     33  C   UNL A   1      42.129  24.019  27.137  1.00  0.00     0.016 A 
ATOM     34  C   UNL A   1      42.973  26.692  26.932  1.00  0.00     0.010 A 
ATOM     35  C   UNL A   1      41.638  24.990  28.018  1.00  0.00     0.010 A 
ATOM     36  C   UNL A   1      42.077  26.326  27.940  1.00  0.00    -0.014 A 
BRANCH  36  37
ATOM     37  C   UNL A   1      41.708  27.293  29.005  1.00  0.00     0.031 A 
ATOM     38  C   UNL A   1      42.494  27.287  30.287  1.00  0.00     0.074 A 
ATOM     39  C   UNL A   1      40.691  28.159  28.844  1.00  0.00     0.049 A 
ATOM     40  N   UNL A   1      42.261  27.914  31.411  1.00  0.00    -0.248 NA
ATOM     41  C   UNL A   1      43.705  26.450  30.304  1.00  0.00     0.031 C 
ATOM     42  C   UNL A   1      39.895  28.314  27.628  1.00  0.00     0.029 A 
ATOM     43  N   UNL A   1      40.140  29.060  29.724  1.00  0.00    -0.354 N 
ATOM     44  C   UNL A   1      43.276  27.525  32.276  1.00  0.00     0.074 A 
ATOM     45  C   UNL A   1      44.117  26.596  31.554  1.00  0.00     0.031 C 
ATOM     46  C   UNL A   1      38.941  29.238  27.847  1.00  0.00     0.029 A 
ATOM     47  C   UNL A   1      39.029  29.699  29.231  1.00  0.00     0.049 A 
ATOM     48  H   UNL A   1      40.507  29.230  30.621  1.00  0.00     0.167 HD
ATOM     49  C   UNL A   1      43.485  27.912  33.557  1.00  0.00     0.037 A 
ATOM     50  C   UNL A   1      38.158  30.528  29.843  1.00  0.00     0.037 A 
ATOM     51  C   UNL A   1      42.657  28.855  34.263  1.00  0.00     0.049 A 
ATOM     52  C   UNL A   1      38.370  30.879  31.295  1.00  0.00     0.074 A 
ATOM     53  C   UNL A   1      42.801  29.328  35.556  1.00  0.00     0.029 A 
ATOM     54  N   UNL A   1      41.530  29.466  33.735  1.00  0.00    -0.354 N 
ATOM     55  N   UNL A   1      39.330  30.513  32.109  1.00  0.00    -0.248 NA
ATOM     56  C   UNL A   1      37.370  31.763  31.916  1.00  0.00     0.031 C 
ATOM     57  C   UNL A   1      41.726  30.178  35.832  1.00  0.00     0.029 A 
ATOM     58  C   UNL A   1      40.952  30.290  34.688  1.00  0.00     0.049 A 
ATOM     59  H   UNL A   1      41.191  29.335  32.821  1.00  0.00     0.167 HD
ATOM     60  C   UNL A   1      39.073  31.148  33.318  1.00  0.00     0.074 A 
ATOM     61  C   UNL A   1      37.874  31.934  33.130  1.00  0.00     0.031 C 
ATOM     62  C   UNL A   1      39.769  31.085  34.480  1.00  0.00     0.037 A 
BRANCH  49  63
ATOM     63  C   UNL A   1      44.636  27.295  34.298  1.00  0.00     0.064 A 
ATOM     64  C   UNL A   1      44.491  26.116  35.044  1.00  0.00     0.173 A 
ATOM     65  C   UNL A   1      45.917  27.860  34.204  1.00  0.00     0.173 A 
ATOM     66  F   UNL A   1      43.287  25.543  35.176  1.00  0.00    -0.203 F 
ATOM     67  C   UNL A   1      45.585  25.538  35.685  1.00  0.00     0.198 A 
ATOM     68  C   UNL A   1      47.012  27.261  34.818  1.00  0.00     0.198 A 
ATOM     69  F   UNL A   1      46.110  28.985  33.498  1.00  0.00    -0.203 F 
ATOM     70  F   UNL A   1      45.419  24.433  36.424  1.00  0.00    -0.200 F 
ATOM     71  C   UNL A   1      46.846  26.104  35.562  1.00  0.00     0.200 A 
ATOM     72  F   UNL A   1      48.232  27.802  34.683  1.00  0.00    -0.200 F 
ATOM     73  F   UNL A   1      47.900  25.534  36.163  1.00  0.00    -0.200 F 
ENDBRANCH  49  63
BRANCH  50  74
ATOM     74  C   UNL A   1      36.979  31.059  29.106  1.00  0.00     0.064 A 
ATOM     75  C   UNL A   1      36.905  32.410  28.735  1.00  0.00     0.173 A 
ATOM     76  C   UNL A   1      35.876  30.245  28.807  1.00  0.00     0.173 A 
ATOM     77  F   UNL A   1      37.919  33.239  29.024  1.00  0.00    -0.203 F 
ATOM     78  C   UNL A   1      35.765  32.931  28.127  1.00  0.00     0.198 A 
ATOM     79  C   UNL A   1      34.751  30.758  28.165  1.00  0.00     0.198 A 
ATOM     80  F   UNL A   1      35.889  28.946  29.144  1.00  0.00    -0.203 F 
ATOM     81  F   UNL A   1      35.696  34.240  27.848  1.00  0.00    -0.200 F 
ATOM     82  C   UNL A   1      34.690  32.103  27.838  1.00  0.00     0.200 A 
ATOM     83  F   UNL A   1      33.719  29.952  27.879  1.00  0.00    -0.200 F 
ATOM     84  F   UNL A   1      33.591  32.606  27.258  1.00  0.00    -0.200 F 
ENDBRANCH  50  74
BRANCH  62  85
ATOM     85  C   UNL A   1      39.290  31.937  35.624  1.00  0.00     0.064 A 
ATOM     86  C   UNL A   1      38.411  31.444  36.600  1.00  0.00     0.173 A 
ATOM     87  C   UNL A   1      39.757  33.253  35.767  1.00  0.00     0.173 A 
ATOM     88  F   UNL A   1      37.926  30.197  36.503  1.00  0.00    -0.203 F 
ATOM     89  C   UNL A   1      37.993  32.247  37.658  1.00  0.00     0.198 A 
ATOM     90  C   UNL A   1      39.366  34.041  36.847  1.00  0.00     0.198 A 
ATOM     91  F   UNL A   1      40.607  33.772  34.869  1.00  0.00    -0.203 F 
ATOM     92  F   UNL A   1      37.110  31.772  38.547  1.00  0.00    -0.200 F 
ATOM     93  C   UNL A   1      38.477  33.540  37.786  1.00  0.00     0.200 A 
ATOM     94  F   UNL A   1      39.849  35.283  36.978  1.00  0.00    -0.200 F 
ATOM     95  F   UNL A   1      38.081  34.308  38.810  1.00  0.00    -0.200 F 
ENDBRANCH  62  85
ENDBRANCH  36  37
ENDBRANCH  29  31
ENDBRANCH  28  29
ENDBRANCH  27  28
ENDBRANCH  26  27
ENDBRANCH  25  26
ENDBRANCH  24  25
ENDBRANCH   1  24
TORSDOF 19
ENDMDL
MODEL 3
REMARK VINA RESULT:     -11.1      1.215      2.624
REMARK SMILES O=C1N[C@H](C(=O)N[C@H]2C=C[C@@H](C(=O)OCCOCCOCCOC(=O)c3ccc(-c4c5nc(c(-c6c(F)c(F)c(F)c(F)c6F)c6ccc([nH]6)c(-c6c(F)c(F)c(F)c(F)c6F)c6nc(c(-c7c(F)c(F)c(F)c(F)c7F)c7ccc4[nH]7)C=C6)C=C5)cc3)C2)CS1
REMARK SMILES IDX 18 1 17 2 16 3 15 4 14 5 12 6 13 7 11 8 8 9 9 10 89 11 10 12
REMARK SMILES IDX 7 13 5 14 6 15 4 17 1 18 2 19 3 20 91 21 90 23 19 24 20 25
REMARK SMILES IDX 21 26 22 27 23 28 24 29 25 30 26 31 27 32 88 33 28 34 87 35
REMARK SMILES IDX 29 36 30 37 31 38 81 39 32 40 86 41 80 42 82 43 33 44 85 45
REMARK SMILES IDX 79 46 78 47 34 49 66 50 46 51 65 52 47 53 50 54 64 55 83 56
REMARK SMILES IDX 48 57 49 58 63 60 84 61 51 62 35 63 36 64 44 65 37 66 38 67
REMARK SMILES IDX 42 68 45 69 39 70 40 71 43 72 41 73 67 74 68 75 76 76 69 77
REMARK SMILES IDX 70 78 74 79 77 80 71 81 72 82 75 83 73 84 52 85 53 86 61 87
REMARK SMILES IDX 54 88 55 89 59 90 62 91 56 92 57 93 60 94 58 95
REMARK H PARENT 7 16 3 22 82 48 50 59
REMARK Flexibility Score: inf
ROOT
ATOM      1  C   UNL A   1      39.179  21.715  26.128  1.00  0.00     0.188 C 
ENDROOT
BRANCH   1   2
ATOM      2  O   UNL A   1      38.337  21.932  25.005  1.00  0.00    -0.376 OA
BRANCH   2   3
ATOM      3  C   UNL A   1      36.958  22.209  25.220  1.00  0.00     0.202 C 
BRANCH   3   4
ATOM      4  C   UNL A   1      36.563  23.628  25.662  1.00  0.00     0.261 C 
BRANCH   4   5
ATOM      5  O   UNL A   1      35.176  23.787  26.038  1.00  0.00    -0.463 OA
BRANCH   5   6
ATOM      6  C   UNL A   1      34.254  23.614  25.055  1.00  0.00     0.312 C 
ATOM      7  O   UNL A   1      34.272  24.211  23.983  1.00  0.00    -0.252 OA
BRANCH   6   8
ATOM      8  C   UNL A   1      33.180  22.559  25.365  1.00  0.00     0.124 C 
ATOM      9  C   UNL A   1      32.137  20.470  24.556  1.00  0.00     0.106 C 
ATOM     10  C   UNL A   1      33.243  20.205  25.524  1.00  0.00    -0.006 C 
ATOM     11  C   UNL A   1      32.359  21.946  24.224  1.00  0.00     0.048 C 
ATOM     12  C   UNL A   1      33.803  21.336  25.972  1.00  0.00    -0.014 C 
BRANCH   9  13
ATOM     13  N   UNL A   1      32.296  19.621  23.393  1.00  0.00    -0.348 N 
ATOM     14  C   UNL A   1      32.749  18.342  23.263  1.00  0.00     0.243 C 
ATOM     15  O   UNL A   1      32.579  17.801  22.166  1.00  0.00    -0.273 OA
ATOM     16  H   UNL A   1      32.029  20.044  22.545  1.00  0.00     0.164 HD
BRANCH  14  17
ATOM     17  C   UNL A   1      33.291  17.513  24.436  1.00  0.00     0.182 C 
ATOM     18  O   UNL A   1      33.058  14.136  25.502  1.00  0.00    -0.262 OA
ATOM     19  C   UNL A   1      33.433  15.256  25.203  1.00  0.00     0.279 C 
ATOM     20  N   UNL A   1      32.656  16.238  24.670  1.00  0.00    -0.334 N 
ATOM     21  S   UNL A   1      35.071  15.829  25.358  1.00  0.00    -0.062 SA
ATOM     22  H   UNL A   1      31.707  16.085  24.455  1.00  0.00     0.165 HD
ATOM     23  C   UNL A   1      34.785  17.267  24.291  1.00  0.00     0.115 C 
ENDBRANCH  14  17
ENDBRANCH   9  13
ENDBRANCH   6   8
ENDBRANCH   5   6
ENDBRANCH   4   5
ENDBRANCH   3   4
ENDBRANCH   2   3
ENDBRANCH   1   2
BRANCH   1  24
ATOM     24  C   UNL A   1      40.146  20.520  26.130  1.00  0.00     0.188 C 
BRANCH  24  25
ATOM     25  O   UNL A   1      40.902  20.340  27.306  1.00  0.00    -0.376 OA
BRANCH  25  26
ATOM     26  C   UNL A   1      42.282  20.066  27.127  1.00  0.00     0.202 C 
BRANCH  26  27
ATOM     27  C   UNL A   1      42.962  20.766  25.939  1.00  0.00     0.261 C 
BRANCH  27  28
ATOM     28  O   UNL A   1      43.552  22.051  26.227  1.00  0.00    -0.460 OA
BRANCH  28  29
ATOM     29  C   UNL A   1      43.212  23.081  25.417  1.00  0.00     0.338 C 
ATOM     30  O   UNL A   1      43.185  23.070  24.200  1.00  0.00    -0.246 OA
BRANCH  29  31
ATOM     31  C   UNL A   1      42.714  24.190  26.265  1.00  0.00     0.060 A 
ATOM     32  C   UNL A   1      43.312  25.456  26.189  1.00  0.00     0.016 A 
ATOM     33  C   UNL A   1      41.669  23.971  27.160  1.00  0.00     0.016 A 
ATOM     34  C   UNL A   1      42.900  26.494  27.027  1.00  0.00     0.010 A 
ATOM     35  C   UNL A   1      41.258  25.010  28.005  1.00  0.00     0.010 A 
ATOM     36  C   UNL A   1      41.889  26.268  27.964  1.00  0.00    -0.014 A 
BRANCH  36  37
ATOM     37  C   UNL A   1      41.584  27.286  29.001  1.00  0.00     0.031 A 
ATOM     38  C   UNL A   1      42.404  27.297  30.261  1.00  0.00     0.074 A 
ATOM     39  C   UNL A   1      40.595  28.183  28.834  1.00  0.00     0.049 A 
ATOM     40  N   UNL A   1      42.225  27.973  31.367  1.00  0.00    -0.248 NA
ATOM     41  C   UNL A   1      43.584  26.417  30.279  1.00  0.00     0.031 C 
ATOM     42  C   UNL A   1      39.772  28.323  27.635  1.00  0.00     0.029 A 
ATOM     43  N   UNL A   1      40.101  29.135  29.694  1.00  0.00    -0.354 N 
ATOM     44  C   UNL A   1      43.247  27.579  32.219  1.00  0.00     0.074 A 
ATOM     45  C   UNL A   1      44.035  26.594  31.511  1.00  0.00     0.031 C 
ATOM     46  C   UNL A   1      38.859  29.289  27.843  1.00  0.00     0.029 A 
ATOM     47  C   UNL A   1      39.000  29.796  29.206  1.00  0.00     0.049 A 
ATOM     48  H   UNL A   1      40.498  29.324  30.574  1.00  0.00     0.167 HD
ATOM     49  C   UNL A   1      43.505  28.004  33.479  1.00  0.00     0.037 A 
ATOM     50  C   UNL A   1      38.177  30.678  29.809  1.00  0.00     0.037 A 
ATOM     51  C   UNL A   1      42.731  29.002  34.171  1.00  0.00     0.049 A 
ATOM     52  C   UNL A   1      38.441  31.074  31.241  1.00  0.00     0.074 A 
ATOM     53  C   UNL A   1      42.927  29.516  35.441  1.00  0.00     0.029 A 
ATOM     54  N   UNL A   1      41.613  29.635  33.650  1.00  0.00    -0.354 N 
ATOM     55  N   UNL A   1      39.409  30.703  32.043  1.00  0.00    -0.248 NA
ATOM     56  C   UNL A   1      37.491  32.017  31.854  1.00  0.00     0.031 C 
ATOM     57  C   UNL A   1      41.891  30.415  35.713  1.00  0.00     0.029 A 
ATOM     58  C   UNL A   1      41.091  30.514  34.586  1.00  0.00     0.049 A 
ATOM     59  H   UNL A   1      41.245  29.483  32.750  1.00  0.00     0.167 HD
ATOM     60  C   UNL A   1      39.208  31.390  33.234  1.00  0.00     0.074 A 
ATOM     61  C   UNL A   1      38.034  32.213  33.047  1.00  0.00     0.031 C 
ATOM     62  C   UNL A   1      39.932  31.344  34.379  1.00  0.00     0.037 A 
BRANCH  49  63
ATOM     63  C   UNL A   1      44.652  27.372  34.213  1.00  0.00     0.064 A 
ATOM     64  C   UNL A   1      44.504  26.181  34.938  1.00  0.00     0.173 A 
ATOM     65  C   UNL A   1      45.935  27.936  34.132  1.00  0.00     0.173 A 
ATOM     66  F   UNL A   1      43.298  25.608  35.057  1.00  0.00    -0.203 F 
ATOM     67  C   UNL A   1      45.595  25.589  35.572  1.00  0.00     0.198 A 
ATOM     68  C   UNL A   1      47.028  27.325  34.740  1.00  0.00     0.198 A 
ATOM     69  F   UNL A   1      46.132  29.073  33.447  1.00  0.00    -0.203 F 
ATOM     70  F   UNL A   1      45.424  24.473  36.292  1.00  0.00    -0.200 F 
ATOM     71  C   UNL A   1      46.857  26.155  35.463  1.00  0.00     0.200 A 
ATOM     72  F   UNL A   1      48.248  27.866  34.618  1.00  0.00    -0.200 F 
ATOM     73  F   UNL A   1      47.908  25.574  36.057  1.00  0.00    -0.200 F 
ENDBRANCH  49  63
BRANCH  50  74
ATOM     74  C   UNL A   1      36.998  31.226  29.083  1.00  0.00     0.064 A 
ATOM     75  C   UNL A   1      36.957  32.569  28.677  1.00  0.00     0.173 A 
ATOM     76  C   UNL A   1      35.865  30.438  28.830  1.00  0.00     0.173 A 
ATOM     77  F   UNL A   1      38.002  33.373  28.922  1.00  0.00    -0.203 F 
ATOM     78  C   UNL A   1      35.820  33.107  28.080  1.00  0.00     0.198 A 
ATOM     79  C   UNL A   1      34.742  30.968  28.199  1.00  0.00     0.198 A 
ATOM     80  F   UNL A   1      35.847  29.149  29.201  1.00  0.00    -0.203 F 
ATOM     81  F   UNL A   1      35.784  34.410  27.767  1.00  0.00    -0.200 F 
ATOM     82  C   UNL A   1      34.714  32.306  27.836  1.00  0.00     0.200 A 
ATOM     83  F   UNL A   1      33.681  30.187  27.957  1.00  0.00    -0.200 F 
ATOM     84  F   UNL A   1      33.619  32.826  27.268  1.00  0.00    -0.200 F 
ENDBRANCH  50  74
BRANCH  62  85
ATOM     85  C   UNL A   1      39.516  32.254  35.502  1.00  0.00     0.064 A 
ATOM     86  C   UNL A   1      38.634  31.835  36.509  1.00  0.00     0.173 A 
ATOM     87  C   UNL A   1      40.046  33.551  35.593  1.00  0.00     0.173 A 
ATOM     88  F   UNL A   1      38.090  30.610  36.463  1.00  0.00    -0.203 F 
ATOM     89  C   UNL A   1      38.274  32.691  37.548  1.00  0.00     0.198 A 
ATOM     90  C   UNL A   1      39.713  34.391  36.652  1.00  0.00     0.198 A 
ATOM     91  F   UNL A   1      40.902  34.000  34.663  1.00  0.00    -0.203 F 
ATOM     92  F   UNL A   1      37.387  32.287  38.468  1.00  0.00    -0.200 F 
ATOM     93  C   UNL A   1      38.820  33.963  37.623  1.00  0.00     0.200 A 
ATOM     94  F   UNL A   1      40.256  35.613  36.734  1.00  0.00    -0.200 F 
ATOM     95  F   UNL A   1      38.480  34.782  38.628  1.00  0.00    -0.200 F 
ENDBRANCH  62  85
ENDBRANCH  36  37
ENDBRANCH  29  31
ENDBRANCH  28  29
ENDBRANCH  27  28
ENDBRANCH  26  27
ENDBRANCH  25  26
ENDBRANCH  24  25
ENDBRANCH   1  24
TORSDOF 19
ENDMDL
