MODEL 1
REMARK VINA RESULT:     -10.7      0.000      0.000
REMARK SMILES CC(C)(C)C1CN(c2cccc(Cl)c2C(=O)OCCOCCOCCOC(=O)c2ccc(-c3c4nc(c(-c5c(F)c(F)c(F)c(F)c5F)c5ccc([nH]5)c(-c5c(F)c(F)c(F)c(F)c5F)c5nc(c(-c6c(F)c(F)c(F)c(F)c6F)c6ccc3[nH]6)C=C5)C=C4)cc2)C1
REMARK SMILES IDX 21 1 20 2 19 3 18 4 17 5 15 6 16 7 14 8 8 9 9 10 10 11 12 12
REMARK SMILES IDX 11 13 13 14 7 15 5 16 6 17 92 18 2 19 1 20 3 21 4 22 22 23
REMARK SMILES IDX 23 24 24 25 25 26 26 27 27 28 28 29 29 30 30 31 91 32 31 33
REMARK SMILES IDX 90 34 32 35 33 36 34 37 84 38 35 39 89 40 83 41 85 42 36 43
REMARK SMILES IDX 88 44 82 45 81 46 37 48 69 49 49 50 68 51 50 52 53 53 67 54
REMARK SMILES IDX 86 55 51 56 52 57 66 59 87 60 54 61 38 62 39 63 47 64 40 65
REMARK SMILES IDX 41 66 45 67 48 68 42 69 43 70 46 71 44 72 70 73 71 74 79 75
REMARK SMILES IDX 72 76 73 77 77 78 80 79 74 80 75 81 78 82 76 83 55 84 56 85
REMARK SMILES IDX 64 86 57 87 58 88 62 89 65 90 59 91 60 92 63 93 61 94
REMARK H PARENT 85 47 53 58
REMARK Flexibility Score: inf
ROOT
ATOM      1  C   UNL A   1      34.784  31.307  27.663  1.00  0.00     0.188 C 
ENDROOT
BRANCH   1   2
ATOM      2  O   UNL A   1      33.394  31.122  27.433  1.00  0.00    -0.376 OA
BRANCH   2   3
ATOM      3  C   UNL A   1      33.074  30.094  26.500  1.00  0.00     0.202 C 
BRANCH   3   4
ATOM      4  C   UNL A   1      33.801  28.786  26.818  1.00  0.00     0.261 C 
BRANCH   4   5
ATOM      5  O   UNL A   1      33.794  27.880  25.702  1.00  0.00    -0.460 OA
BRANCH   5   6
ATOM      6  C   UNL A   1      32.888  26.871  25.712  1.00  0.00     0.341 C 
ATOM      7  O   UNL A   1      32.046  26.678  26.556  1.00  0.00    -0.246 OA
BRANCH   6   8
ATOM      8  C   UNL A   1      33.033  26.120  24.434  1.00  0.00     0.102 A 
ATOM      9  C   UNL A   1      32.222  26.469  23.330  1.00  0.00     0.053 A 
ATOM     10  C   UNL A   1      32.321  25.708  22.151  1.00  0.00     0.027 A 
ATOM     11  C   UNL A   1      33.229  24.655  22.044  1.00  0.00     0.004 A 
ATOM     12  C   UNL A   1      33.925  25.038  24.330  1.00  0.00     0.057 A 
ATOM     13  C   UNL A   1      34.032  24.325  23.130  1.00  0.00     0.021 A 
ATOM     14  Cl  UNL A   1      34.902  24.481  25.646  1.00  0.00    -0.083 Cl
BRANCH   9  15
ATOM     15  N   UNL A   1      31.347  27.562  23.347  1.00  0.00    -0.370 N 
ATOM     16  C   UNL A   1      30.169  29.197  23.767  1.00  0.00     0.033 C 
ATOM     17  C   UNL A   1      30.039  27.685  23.881  1.00  0.00     0.122 C 
ATOM     18  C   UNL A   1      31.550  28.951  23.126  1.00  0.00     0.122 C 
BRANCH  16  19
ATOM     19  C   UNL A   1      29.049  29.956  23.032  1.00  0.00    -0.032 C 
ATOM     20  C   UNL A   1      29.587  30.271  21.627  1.00  0.00     0.011 C 
ATOM     21  C   UNL A   1      28.673  31.217  23.843  1.00  0.00     0.011 C 
ATOM     22  C   UNL A   1      27.756  29.151  22.870  1.00  0.00     0.011 C 
ENDBRANCH  16  19
ENDBRANCH   9  15
ENDBRANCH   6   8
ENDBRANCH   5   6
ENDBRANCH   4   5
ENDBRANCH   3   4
ENDBRANCH   2   3
ENDBRANCH   1   2
BRANCH   1  23
ATOM     23  C   UNL A   1      35.166  32.665  28.272  1.00  0.00     0.188 C 
BRANCH  23  24
ATOM     24  O   UNL A   1      34.227  33.406  29.037  1.00  0.00    -0.376 OA
BRANCH  24  25
ATOM     25  C   UNL A   1      33.585  34.515  28.437  1.00  0.00     0.202 C 
BRANCH  25  26
ATOM     26  C   UNL A   1      33.076  35.614  29.378  1.00  0.00     0.261 C 
BRANCH  26  27
ATOM     27  O   UNL A   1      32.354  35.167  30.545  1.00  0.00    -0.460 OA
BRANCH  27  28
ATOM     28  C   UNL A   1      32.709  35.756  31.714  1.00  0.00     0.338 C 
ATOM     29  O   UNL A   1      32.155  36.694  32.262  1.00  0.00    -0.246 OA
BRANCH  28  30
ATOM     30  C   UNL A   1      33.862  35.064  32.339  1.00  0.00     0.060 A 
ATOM     31  C   UNL A   1      35.134  35.646  32.245  1.00  0.00     0.016 A 
ATOM     32  C   UNL A   1      33.726  33.787  32.888  1.00  0.00     0.016 A 
ATOM     33  C   UNL A   1      36.271  34.946  32.678  1.00  0.00     0.010 A 
ATOM     34  C   UNL A   1      34.867  33.080  33.298  1.00  0.00     0.010 A 
ATOM     35  C   UNL A   1      36.153  33.641  33.178  1.00  0.00    -0.014 A 
BRANCH  35  36
ATOM     36  C   UNL A   1      37.354  32.851  33.587  1.00  0.00     0.031 A 
ATOM     37  C   UNL A   1      38.040  33.104  34.883  1.00  0.00     0.074 A 
ATOM     38  C   UNL A   1      37.945  32.002  32.731  1.00  0.00     0.049 A 
ATOM     39  N   UNL A   1      39.133  32.553  35.345  1.00  0.00    -0.248 NA
ATOM     40  C   UNL A   1      37.465  34.148  35.736  1.00  0.00     0.031 C 
ATOM     41  C   UNL A   1      37.478  31.822  31.378  1.00  0.00     0.029 A 
ATOM     42  N   UNL A   1      39.058  31.195  32.809  1.00  0.00    -0.354 N 
ATOM     43  C   UNL A   1      39.403  33.204  36.533  1.00  0.00     0.074 A 
ATOM     44  C   UNL A   1      38.359  34.197  36.714  1.00  0.00     0.031 C 
ATOM     45  C   UNL A   1      38.299  30.984  30.735  1.00  0.00     0.029 A 
ATOM     46  C   UNL A   1      39.307  30.492  31.653  1.00  0.00     0.049 A 
ATOM     47  H   UNL A   1      39.620  31.129  33.614  1.00  0.00     0.167 HD
ATOM     48  C   UNL A   1      40.438  32.999  37.380  1.00  0.00     0.037 A 
ATOM     49  C   UNL A   1      40.220  29.547  31.351  1.00  0.00     0.037 A 
ATOM     50  C   UNL A   1      41.501  32.046  37.178  1.00  0.00     0.049 A 
ATOM     51  C   UNL A   1      41.282  29.243  32.362  1.00  0.00     0.074 A 
ATOM     52  C   UNL A   1      42.561  31.748  38.019  1.00  0.00     0.029 A 
ATOM     53  N   UNL A   1      41.661  31.253  36.048  1.00  0.00    -0.354 N 
ATOM     54  N   UNL A   1      41.458  29.782  33.541  1.00  0.00    -0.248 NA
ATOM     55  C   UNL A   1      42.296  28.246  31.992  1.00  0.00     0.031 C 
ATOM     56  C   UNL A   1      43.382  30.809  37.383  1.00  0.00     0.029 A 
ATOM     57  C   UNL A   1      42.813  30.485  36.163  1.00  0.00     0.049 A 
ATOM     58  H   UNL A   1      41.048  31.239  35.278  1.00  0.00     0.167 HD
ATOM     59  C   UNL A   1      42.623  29.227  34.037  1.00  0.00     0.074 A 
ATOM     60  C   UNL A   1      43.071  28.248  33.067  1.00  0.00     0.031 C 
ATOM     61  C   UNL A   1      43.281  29.542  35.178  1.00  0.00     0.037 A 
BRANCH  48  62
ATOM     62  C   UNL A   1      40.473  33.867  38.600  1.00  0.00     0.064 A 
ATOM     63  C   UNL A   1      41.233  35.045  38.634  1.00  0.00     0.173 A 
ATOM     64  C   UNL A   1      39.760  33.505  39.751  1.00  0.00     0.173 A 
ATOM     65  F   UNL A   1      41.949  35.418  37.562  1.00  0.00    -0.203 F 
ATOM     66  C   UNL A   1      41.309  35.811  39.793  1.00  0.00     0.198 A 
ATOM     67  C   UNL A   1      39.814  34.290  40.898  1.00  0.00     0.198 A 
ATOM     68  F   UNL A   1      39.023  32.385  39.767  1.00  0.00    -0.203 F 
ATOM     69  F   UNL A   1      42.093  36.898  39.824  1.00  0.00    -0.200 F 
ATOM     70  C   UNL A   1      40.597  35.435  40.921  1.00  0.00     0.200 A 
ATOM     71  F   UNL A   1      39.122  33.930  41.988  1.00  0.00    -0.200 F 
ATOM     72  F   UNL A   1      40.676  36.171  42.040  1.00  0.00    -0.200 F 
ENDBRANCH  48  62
BRANCH  49  73
ATOM     73  C   UNL A   1      40.138  28.770  30.080  1.00  0.00     0.064 A 
ATOM     74  C   UNL A   1      40.753  29.264  28.917  1.00  0.00     0.173 A 
ATOM     75  C   UNL A   1      39.477  27.538  29.981  1.00  0.00     0.173 A 
ATOM     76  F   UNL A   1      41.381  30.450  28.946  1.00  0.00    -0.203 F 
ATOM     77  C   UNL A   1      40.701  28.566  27.711  1.00  0.00     0.198 A 
ATOM     78  C   UNL A   1      39.455  26.822  28.783  1.00  0.00     0.198 A 
ATOM     79  F   UNL A   1      38.879  27.009  31.059  1.00  0.00    -0.203 F 
ATOM     80  F   UNL A   1      41.266  29.086  26.612  1.00  0.00    -0.200 F 
ATOM     81  C   UNL A   1      40.061  27.338  27.648  1.00  0.00     0.200 A 
ATOM     82  F   UNL A   1      38.861  25.622  28.733  1.00  0.00    -0.200 F 
ATOM     83  F   UNL A   1      40.030  26.655  26.496  1.00  0.00    -0.200 F 
ENDBRANCH  49  73
BRANCH  61  84
ATOM     84  C   UNL A   1      44.593  28.852  35.401  1.00  0.00     0.064 A 
ATOM     85  C   UNL A   1      44.652  27.588  36.011  1.00  0.00     0.173 A 
ATOM     86  C   UNL A   1      45.798  29.449  35.006  1.00  0.00     0.173 A 
ATOM     87  F   UNL A   1      43.528  26.989  36.431  1.00  0.00    -0.203 F 
ATOM     88  C   UNL A   1      45.872  26.958  36.236  1.00  0.00     0.198 A 
ATOM     89  C   UNL A   1      47.015  28.804  35.209  1.00  0.00     0.198 A 
ATOM     90  F   UNL A   1      45.796  30.659  34.428  1.00  0.00    -0.203 F 
ATOM     91  F   UNL A   1      45.907  25.775  36.867  1.00  0.00    -0.200 F 
ATOM     92  C   UNL A   1      47.051  27.562  35.829  1.00  0.00     0.200 A 
ATOM     93  F   UNL A   1      48.154  29.386  34.812  1.00  0.00    -0.200 F 
ATOM     94  F   UNL A   1      48.226  26.954  36.045  1.00  0.00    -0.200 F 
ENDBRANCH  61  84
ENDBRANCH  35  36
ENDBRANCH  28  30
ENDBRANCH  27  28
ENDBRANCH  26  27
ENDBRANCH  25  26
ENDBRANCH  24  25
ENDBRANCH  23  24
ENDBRANCH   1  23
TORSDOF 19
ENDMDL
MODEL 2
REMARK VINA RESULT:     -10.5      0.712      7.289
REMARK SMILES CC(C)(C)C1CN(c2cccc(Cl)c2C(=O)OCCOCCOCCOC(=O)c2ccc(-c3c4nc(c(-c5c(F)c(F)c(F)c(F)c5F)c5ccc([nH]5)c(-c5c(F)c(F)c(F)c(F)c5F)c5nc(c(-c6c(F)c(F)c(F)c(F)c6F)c6ccc3[nH]6)C=C5)C=C4)cc2)C1
REMARK SMILES IDX 21 1 20 2 19 3 18 4 17 5 15 6 16 7 14 8 8 9 9 10 10 11 12 12
REMARK SMILES IDX 11 13 13 14 7 15 5 16 6 17 92 18 2 19 1 20 3 21 4 22 22 23
REMARK SMILES IDX 23 24 24 25 25 26 26 27 27 28 28 29 29 30 30 31 91 32 31 33
REMARK SMILES IDX 90 34 32 35 33 36 34 37 84 38 35 39 89 40 83 41 85 42 36 43
REMARK SMILES IDX 88 44 82 45 81 46 37 48 69 49 49 50 68 51 50 52 53 53 67 54
REMARK SMILES IDX 86 55 51 56 52 57 66 59 87 60 54 61 38 62 39 63 47 64 40 65
REMARK SMILES IDX 41 66 45 67 48 68 42 69 43 70 46 71 44 72 70 73 71 74 79 75
REMARK SMILES IDX 72 76 73 77 77 78 80 79 74 80 75 81 78 82 76 83 55 84 56 85
REMARK SMILES IDX 64 86 57 87 58 88 62 89 65 90 59 91 60 92 63 93 61 94
REMARK H PARENT 85 47 53 58
REMARK Flexibility Score: inf
ROOT
ATOM      1  C   UNL A   1      34.613  31.428  27.946  1.00  0.00     0.188 C 
ENDROOT
BRANCH   1   2
ATOM      2  O   UNL A   1      33.202  31.284  27.876  1.00  0.00    -0.376 OA
BRANCH   2   3
ATOM      3  C   UNL A   1      32.724  30.636  26.701  1.00  0.00     0.202 C 
BRANCH   3   4
ATOM      4  C   UNL A   1      33.311  29.232  26.544  1.00  0.00     0.261 C 
BRANCH   4   5
ATOM      5  O   UNL A   1      32.993  28.654  25.266  1.00  0.00    -0.460 OA
BRANCH   5   6
ATOM      6  C   UNL A   1      32.122  27.614  25.240  1.00  0.00     0.341 C 
ATOM      7  O   UNL A   1      31.241  27.404  26.039  1.00  0.00    -0.246 OA
BRANCH   6   8
ATOM      8  C   UNL A   1      32.363  26.852  23.983  1.00  0.00     0.102 A 
ATOM      9  C   UNL A   1      31.595  27.150  22.835  1.00  0.00     0.053 A 
ATOM     10  C   UNL A   1      31.786  26.378  21.675  1.00  0.00     0.027 A 
ATOM     11  C   UNL A   1      32.743  25.364  21.630  1.00  0.00     0.004 A 
ATOM     12  C   UNL A   1      33.305  25.809  23.942  1.00  0.00     0.057 A 
ATOM     13  C   UNL A   1      33.504  25.085  22.761  1.00  0.00     0.021 A 
ATOM     14  Cl  UNL A   1      34.238  25.314  25.314  1.00  0.00    -0.083 Cl
BRANCH   9  15
ATOM     15  N   UNL A   1      30.674  28.205  22.791  1.00  0.00    -0.370 N 
ATOM     16  C   UNL A   1      29.250  29.621  22.345  1.00  0.00     0.033 C 
ATOM     17  C   UNL A   1      30.752  29.467  22.151  1.00  0.00     0.122 C 
ATOM     18  C   UNL A   1      29.288  28.273  23.092  1.00  0.00     0.122 C 
BRANCH  16  19
ATOM     19  C   UNL A   1      28.746  30.914  23.013  1.00  0.00    -0.032 C 
ATOM     20  C   UNL A   1      28.814  32.013  21.939  1.00  0.00     0.011 C 
ATOM     21  C   UNL A   1      29.613  31.215  24.256  1.00  0.00     0.011 C 
ATOM     22  C   UNL A   1      27.299  30.834  23.510  1.00  0.00     0.011 C 
ENDBRANCH  16  19
ENDBRANCH   9  15
ENDBRANCH   6   8
ENDBRANCH   5   6
ENDBRANCH   4   5
ENDBRANCH   3   4
ENDBRANCH   2   3
ENDBRANCH   1   2
BRANCH   1  23
ATOM     23  C   UNL A   1      35.112  32.875  28.090  1.00  0.00     0.188 C 
BRANCH  23  24
ATOM     24  O   UNL A   1      34.513  33.757  29.027  1.00  0.00    -0.376 OA
BRANCH  24  25
ATOM     25  C   UNL A   1      33.634  34.759  28.551  1.00  0.00     0.202 C 
BRANCH  25  26
ATOM     26  C   UNL A   1      33.044  35.716  29.595  1.00  0.00     0.261 C 
BRANCH  26  27
ATOM     27  O   UNL A   1      32.281  35.105  30.657  1.00  0.00    -0.460 OA
BRANCH  27  28
ATOM     28  C   UNL A   1      32.518  35.590  31.902  1.00  0.00     0.338 C 
ATOM     29  O   UNL A   1      31.821  36.365  32.533  1.00  0.00    -0.246 OA
BRANCH  28  30
ATOM     30  C   UNL A   1      33.744  34.995  32.487  1.00  0.00     0.060 A 
ATOM     31  C   UNL A   1      34.928  35.747  32.489  1.00  0.00     0.016 A 
ATOM     32  C   UNL A   1      33.772  33.661  32.901  1.00  0.00     0.016 A 
ATOM     33  C   UNL A   1      36.142  35.162  32.883  1.00  0.00     0.010 A 
ATOM     34  C   UNL A   1      34.992  33.073  33.271  1.00  0.00     0.010 A 
ATOM     35  C   UNL A   1      36.192  33.808  33.246  1.00  0.00    -0.014 A 
BRANCH  35  36
ATOM     36  C   UNL A   1      37.482  33.146  33.608  1.00  0.00     0.031 A 
ATOM     37  C   UNL A   1      38.111  32.138  32.712  1.00  0.00     0.074 A 
ATOM     38  C   UNL A   1      38.030  33.320  34.823  1.00  0.00     0.049 A 
ATOM     39  N   UNL A   1      39.188  31.426  32.920  1.00  0.00    -0.248 NA
ATOM     40  C   UNL A   1      37.412  31.850  31.457  1.00  0.00     0.031 C 
ATOM     41  C   UNL A   1      37.403  34.124  35.842  1.00  0.00     0.029 A 
ATOM     42  N   UNL A   1      39.154  32.819  35.438  1.00  0.00    -0.354 N 
ATOM     43  C   UNL A   1      39.285  30.574  31.837  1.00  0.00     0.074 A 
ATOM     44  C   UNL A   1      38.149  30.857  30.978  1.00  0.00     0.031 C 
ATOM     45  C   UNL A   1      38.124  34.053  36.967  1.00  0.00     0.029 A 
ATOM     46  C   UNL A   1      39.318  33.267  36.728  1.00  0.00     0.049 A 
ATOM     47  H   UNL A   1      39.780  32.200  34.997  1.00  0.00     0.167 HD
ATOM     48  C   UNL A   1      40.226  29.632  31.598  1.00  0.00     0.037 A 
ATOM     49  C   UNL A   1      40.311  33.095  37.624  1.00  0.00     0.037 A 
ATOM     50  C   UNL A   1      41.328  29.317  32.473  1.00  0.00     0.049 A 
ATOM     51  C   UNL A   1      41.415  32.144  37.279  1.00  0.00     0.074 A 
ATOM     52  C   UNL A   1      42.352  28.406  32.273  1.00  0.00     0.029 A 
ATOM     53  N   UNL A   1      41.541  29.879  33.726  1.00  0.00    -0.354 N 
ATOM     54  N   UNL A   1      41.561  31.430  36.193  1.00  0.00    -0.248 NA
ATOM     55  C   UNL A   1      42.460  31.932  38.290  1.00  0.00     0.031 C 
ATOM     56  C   UNL A   1      43.158  28.386  33.417  1.00  0.00     0.029 A 
ATOM     57  C   UNL A   1      42.667  29.317  34.316  1.00  0.00     0.049 A 
ATOM     58  H   UNL A   1      40.976  30.574  34.135  1.00  0.00     0.167 HD
ATOM     59  C   UNL A   1      42.684  30.652  36.403  1.00  0.00     0.074 A 
ATOM     60  C   UNL A   1      43.232  31.038  37.689  1.00  0.00     0.031 C 
ATOM     61  C   UNL A   1      43.185  29.672  35.614  1.00  0.00     0.037 A 
BRANCH  48  62
ATOM     62  C   UNL A   1      40.068  28.850  30.330  1.00  0.00     0.064 A 
ATOM     63  C   UNL A   1      39.421  27.606  30.318  1.00  0.00     0.173 A 
ATOM     64  C   UNL A   1      40.589  29.337  29.124  1.00  0.00     0.173 A 
ATOM     65  F   UNL A   1      38.928  27.090  31.454  1.00  0.00    -0.203 F 
ATOM     66  C   UNL A   1      39.335  26.858  29.148  1.00  0.00     0.198 A 
ATOM     67  C   UNL A   1      40.474  28.601  27.950  1.00  0.00     0.198 A 
ATOM     68  F   UNL A   1      41.220  30.520  29.087  1.00  0.00    -0.203 F 
ATOM     69  F   UNL A   1      38.770  25.643  29.173  1.00  0.00    -0.200 F 
ATOM     70  C   UNL A   1      39.857  27.358  27.966  1.00  0.00     0.200 A 
ATOM     71  F   UNL A   1      40.974  29.085  26.805  1.00  0.00    -0.200 F 
ATOM     72  F   UNL A   1      39.779  26.634  26.840  1.00  0.00    -0.200 F 
ENDBRANCH  48  62
BRANCH  49  73
ATOM     73  C   UNL A   1      40.355  33.881  38.892  1.00  0.00     0.064 A 
ATOM     74  C   UNL A   1      41.004  35.127  38.921  1.00  0.00     0.173 A 
ATOM     75  C   UNL A   1      39.757  33.440  40.081  1.00  0.00     0.173 A 
ATOM     76  F   UNL A   1      41.613  35.588  37.819  1.00  0.00    -0.203 F 
ATOM     77  C   UNL A   1      41.062  35.891  40.086  1.00  0.00     0.198 A 
ATOM     78  C   UNL A   1      39.785  34.221  41.237  1.00  0.00     0.198 A 
ATOM     79  F   UNL A   1      39.114  32.264  40.113  1.00  0.00    -0.203 F 
ATOM     80  F   UNL A   1      41.724  37.057  40.088  1.00  0.00    -0.200 F 
ATOM     81  C   UNL A   1      40.443  35.443  41.241  1.00  0.00     0.200 A 
ATOM     82  F   UNL A   1      39.160  33.798  42.344  1.00  0.00    -0.200 F 
ATOM     83  F   UNL A   1      40.478  36.186  42.355  1.00  0.00    -0.200 F 
ENDBRANCH  49  73
BRANCH  61  84
ATOM     84  C   UNL A   1      44.356  28.912  36.159  1.00  0.00     0.064 A 
ATOM     85  C   UNL A   1      45.669  29.381  35.983  1.00  0.00     0.173 A 
ATOM     86  C   UNL A   1      44.175  27.712  36.859  1.00  0.00     0.173 A 
ATOM     87  F   UNL A   1      45.895  30.511  35.295  1.00  0.00    -0.203 F 
ATOM     88  C   UNL A   1      46.756  28.665  36.471  1.00  0.00     0.198 A 
ATOM     89  C   UNL A   1      45.264  27.011  37.369  1.00  0.00     0.198 A 
ATOM     90  F   UNL A   1      42.942  27.217  37.045  1.00  0.00    -0.203 F 
ATOM     91  F   UNL A   1      48.003  29.105  36.246  1.00  0.00    -0.200 F 
ATOM     92  C   UNL A   1      46.554  27.484  37.169  1.00  0.00     0.200 A 
ATOM     93  F   UNL A   1      45.068  25.873  38.046  1.00  0.00    -0.200 F 
ATOM     94  F   UNL A   1      47.602  26.795  37.640  1.00  0.00    -0.200 F 
ENDBRANCH  61  84
ENDBRANCH  35  36
ENDBRANCH  28  30
ENDBRANCH  27  28
ENDBRANCH  26  27
ENDBRANCH  25  26
ENDBRANCH  24  25
ENDBRANCH  23  24
ENDBRANCH   1  23
TORSDOF 19
ENDMDL
MODEL 3
REMARK VINA RESULT:     -10.5      0.682      7.203
REMARK SMILES CC(C)(C)C1CN(c2cccc(Cl)c2C(=O)OCCOCCOCCOC(=O)c2ccc(-c3c4nc(c(-c5c(F)c(F)c(F)c(F)c5F)c5ccc([nH]5)c(-c5c(F)c(F)c(F)c(F)c5F)c5nc(c(-c6c(F)c(F)c(F)c(F)c6F)c6ccc3[nH]6)C=C5)C=C4)cc2)C1
REMARK SMILES IDX 21 1 20 2 19 3 18 4 17 5 15 6 16 7 14 8 8 9 9 10 10 11 12 12
REMARK SMILES IDX 11 13 13 14 7 15 5 16 6 17 92 18 2 19 1 20 3 21 4 22 22 23
REMARK SMILES IDX 23 24 24 25 25 26 26 27 27 28 28 29 29 30 30 31 91 32 31 33
REMARK SMILES IDX 90 34 32 35 33 36 34 37 84 38 35 39 89 40 83 41 85 42 36 43
REMARK SMILES IDX 88 44 82 45 81 46 37 48 69 49 49 50 68 51 50 52 53 53 67 54
REMARK SMILES IDX 86 55 51 56 52 57 66 59 87 60 54 61 38 62 39 63 47 64 40 65
REMARK SMILES IDX 41 66 45 67 48 68 42 69 43 70 46 71 44 72 70 73 71 74 79 75
REMARK SMILES IDX 72 76 73 77 77 78 80 79 74 80 75 81 78 82 76 83 55 84 56 85
REMARK SMILES IDX 64 86 57 87 58 88 62 89 65 90 59 91 60 92 63 93 61 94
REMARK H PARENT 85 47 53 58
REMARK Flexibility Score: inf
ROOT
ATOM      1  C   UNL A   1      35.313  31.612  28.232  1.00  0.00     0.188 C 
ENDROOT
BRANCH   1   2
ATOM      2  O   UNL A   1      34.131  31.080  27.652  1.00  0.00    -0.376 OA
BRANCH   2   3
ATOM      3  C   UNL A   1      34.276  29.782  27.082  1.00  0.00     0.202 C 
BRANCH   3   4
ATOM      4  C   UNL A   1      33.250  29.525  25.977  1.00  0.00     0.261 C 
BRANCH   4   5
ATOM      5  O   UNL A   1      33.537  28.321  25.244  1.00  0.00    -0.460 OA
BRANCH   5   6
ATOM      6  C   UNL A   1      32.628  27.315  25.300  1.00  0.00     0.341 C 
ATOM      7  O   UNL A   1      31.813  27.140  26.174  1.00  0.00    -0.246 OA
BRANCH   6   8
ATOM      8  C   UNL A   1      32.731  26.541  24.032  1.00  0.00     0.102 A 
ATOM      9  C   UNL A   1      31.824  26.811  22.981  1.00  0.00     0.053 A 
ATOM     10  C   UNL A   1      31.889  26.028  21.815  1.00  0.00     0.027 A 
ATOM     11  C   UNL A   1      32.852  25.030  21.666  1.00  0.00     0.004 A 
ATOM     12  C   UNL A   1      33.680  25.514  23.888  1.00  0.00     0.057 A 
ATOM     13  C   UNL A   1      33.749  24.778  22.699  1.00  0.00     0.021 A 
ATOM     14  Cl  UNL A   1      34.780  25.053  25.142  1.00  0.00    -0.083 Cl
BRANCH   9  15
ATOM     15  N   UNL A   1      30.885  27.849  23.037  1.00  0.00    -0.370 N 
ATOM     16  C   UNL A   1      29.657  29.435  23.495  1.00  0.00     0.033 C 
ATOM     17  C   UNL A   1      29.644  27.929  23.718  1.00  0.00     0.122 C 
ATOM     18  C   UNL A   1      30.966  29.228  22.708  1.00  0.00     0.122 C 
BRANCH  16  19
ATOM     19  C   UNL A   1      28.409  30.073  22.857  1.00  0.00    -0.032 C 
ATOM     20  C   UNL A   1      28.169  31.397  23.601  1.00  0.00     0.011 C 
ATOM     21  C   UNL A   1      27.225  29.085  22.960  1.00  0.00     0.011 C 
ATOM     22  C   UNL A   1      28.568  30.394  21.368  1.00  0.00     0.011 C 
ENDBRANCH  16  19
ENDBRANCH   9  15
ENDBRANCH   6   8
ENDBRANCH   5   6
ENDBRANCH   4   5
ENDBRANCH   3   4
ENDBRANCH   2   3
ENDBRANCH   1   2
BRANCH   1  23
ATOM     23  C   UNL A   1      35.422  33.144  28.195  1.00  0.00     0.188 C 
BRANCH  23  24
ATOM     24  O   UNL A   1      34.651  33.947  29.075  1.00  0.00    -0.376 OA
BRANCH  24  25
ATOM     25  C   UNL A   1      34.059  35.130  28.575  1.00  0.00     0.202 C 
BRANCH  25  26
ATOM     26  C   UNL A   1      33.016  35.815  29.467  1.00  0.00     0.261 C 
BRANCH  26  27
ATOM     27  O   UNL A   1      32.458  35.009  30.526  1.00  0.00    -0.460 OA
BRANCH  27  28
ATOM     28  C   UNL A   1      32.646  35.482  31.783  1.00  0.00     0.338 C 
ATOM     29  O   UNL A   1      31.907  36.226  32.406  1.00  0.00    -0.246 OA
BRANCH  28  30
ATOM     30  C   UNL A   1      33.873  34.917  32.394  1.00  0.00     0.060 A 
ATOM     31  C   UNL A   1      35.048  35.683  32.388  1.00  0.00     0.016 A 
ATOM     32  C   UNL A   1      33.914  33.594  32.842  1.00  0.00     0.016 A 
ATOM     33  C   UNL A   1      36.266  35.123  32.806  1.00  0.00     0.010 A 
ATOM     34  C   UNL A   1      35.137  33.030  33.237  1.00  0.00     0.010 A 
ATOM     35  C   UNL A   1      36.329  33.780  33.203  1.00  0.00    -0.014 A 
BRANCH  35  36
ATOM     36  C   UNL A   1      37.623  33.143  33.593  1.00  0.00     0.031 A 
ATOM     37  C   UNL A   1      38.295  32.153  32.708  1.00  0.00     0.074 A 
ATOM     38  C   UNL A   1      38.138  33.321  34.821  1.00  0.00     0.049 A 
ATOM     39  N   UNL A   1      39.381  31.462  32.938  1.00  0.00    -0.248 NA
ATOM     40  C   UNL A   1      37.631  31.858  31.434  1.00  0.00     0.031 C 
ATOM     41  C   UNL A   1      37.470  34.106  35.830  1.00  0.00     0.029 A 
ATOM     42  N   UNL A   1      39.258  32.840  35.461  1.00  0.00    -0.354 N 
ATOM     43  C   UNL A   1      39.522  30.618  31.853  1.00  0.00     0.074 A 
ATOM     44  C   UNL A   1      38.400  30.883  30.968  1.00  0.00     0.031 C 
ATOM     45  C   UNL A   1      38.165  34.044  36.971  1.00  0.00     0.029 A 
ATOM     46  C   UNL A   1      39.381  33.285  36.757  1.00  0.00     0.049 A 
ATOM     47  H   UNL A   1      39.906  32.236  35.032  1.00  0.00     0.167 HD
ATOM     48  C   UNL A   1      40.488  29.697  31.631  1.00  0.00     0.037 A 
ATOM     49  C   UNL A   1      40.356  33.128  37.675  1.00  0.00     0.037 A 
ATOM     50  C   UNL A   1      41.575  29.401  32.531  1.00  0.00     0.049 A 
ATOM     51  C   UNL A   1      41.488  32.202  37.353  1.00  0.00     0.074 A 
ATOM     52  C   UNL A   1      42.622  28.512  32.351  1.00  0.00     0.029 A 
ATOM     53  N   UNL A   1      41.746  29.960  33.792  1.00  0.00    -0.354 N 
ATOM     54  N   UNL A   1      41.674  31.497  36.266  1.00  0.00    -0.248 NA
ATOM     55  C   UNL A   1      42.512  32.006  38.387  1.00  0.00     0.031 C 
ATOM     56  C   UNL A   1      43.401  28.503  33.515  1.00  0.00     0.029 A 
ATOM     57  C   UNL A   1      42.868  29.418  34.406  1.00  0.00     0.049 A 
ATOM     58  H   UNL A   1      41.157  30.641  34.191  1.00  0.00     0.167 HD
ATOM     59  C   UNL A   1      42.808  30.741  36.500  1.00  0.00     0.074 A 
ATOM     60  C   UNL A   1      43.316  31.132  37.800  1.00  0.00     0.031 C 
ATOM     61  C   UNL A   1      43.348  29.776  35.718  1.00  0.00     0.037 A 
BRANCH  48  62
ATOM     62  C   UNL A   1      40.376  28.920  30.357  1.00  0.00     0.064 A 
ATOM     63  C   UNL A   1      40.956  29.385  29.167  1.00  0.00     0.173 A 
ATOM     64  C   UNL A   1      39.664  27.713  30.319  1.00  0.00     0.173 A 
ATOM     65  F   UNL A   1      41.626  30.547  29.152  1.00  0.00    -0.203 F 
ATOM     66  C   UNL A   1      40.793  28.688  27.974  1.00  0.00     0.198 A 
ATOM     67  C   UNL A   1      39.530  27.003  29.130  1.00  0.00     0.198 A 
ATOM     68  F   UNL A   1      39.090  27.231  31.430  1.00  0.00    -0.203 F 
ATOM     69  F   UNL A   1      41.299  29.184  26.837  1.00  0.00    -0.200 F 
ATOM     70  C   UNL A   1      40.084  27.497  27.958  1.00  0.00     0.200 A 
ATOM     71  F   UNL A   1      38.850  25.849  29.115  1.00  0.00    -0.200 F 
ATOM     72  F   UNL A   1      39.923  26.829  26.807  1.00  0.00    -0.200 F 
ENDBRANCH  48  62
BRANCH  49  73
ATOM     73  C   UNL A   1      40.352  33.907  38.948  1.00  0.00     0.064 A 
ATOM     74  C   UNL A   1      39.697  33.394  40.080  1.00  0.00     0.173 A 
ATOM     75  C   UNL A   1      40.994  35.146  39.085  1.00  0.00     0.173 A 
ATOM     76  F   UNL A   1      39.046  32.224  40.002  1.00  0.00    -0.203 F 
ATOM     77  C   UNL A   1      39.674  34.091  41.288  1.00  0.00     0.198 A 
ATOM     78  C   UNL A   1      41.002  35.826  40.303  1.00  0.00     0.198 A 
ATOM     79  F   UNL A   1      41.646  35.682  38.043  1.00  0.00    -0.203 F 
ATOM     80  F   UNL A   1      39.005  33.590  42.336  1.00  0.00    -0.200 F 
ATOM     81  C   UNL A   1      40.337  35.302  41.402  1.00  0.00     0.200 A 
ATOM     82  F   UNL A   1      41.668  36.983  40.418  1.00  0.00    -0.200 F 
ATOM     83  F   UNL A   1      40.336  35.962  42.568  1.00  0.00    -0.200 F 
ENDBRANCH  49  73
BRANCH  61  84
ATOM     84  C   UNL A   1      44.521  29.038  36.287  1.00  0.00     0.064 A 
ATOM     85  C   UNL A   1      44.351  27.822  36.970  1.00  0.00     0.173 A 
ATOM     86  C   UNL A   1      45.823  29.540  36.153  1.00  0.00     0.173 A 
ATOM     87  F   UNL A   1      43.121  27.316  37.148  1.00  0.00    -0.203 F 
ATOM     88  C   UNL A   1      45.439  27.149  37.515  1.00  0.00     0.198 A 
ATOM     89  C   UNL A   1      46.912  28.850  36.678  1.00  0.00     0.198 A 
ATOM     90  F   UNL A   1      46.037  30.702  35.518  1.00  0.00    -0.203 F 
ATOM     91  F   UNL A   1      45.245  26.017  38.208  1.00  0.00    -0.200 F 
ATOM     92  C   UNL A   1      46.719  27.658  37.363  1.00  0.00     0.200 A 
ATOM     93  F   UNL A   1      48.149  29.341  36.527  1.00  0.00    -0.200 F 
ATOM     94  F   UNL A   1      47.766  27.009  37.888  1.00  0.00    -0.200 F 
ENDBRANCH  61  84
ENDBRANCH  35  36
ENDBRANCH  28  30
ENDBRANCH  27  28
ENDBRANCH  26  27
ENDBRANCH  25  26
ENDBRANCH  24  25
ENDBRANCH  23  24
ENDBRANCH   1  23
TORSDOF 19
ENDMDL
