MODEL 1
REMARK VINA RESULT:     -13.0      0.000      0.000
REMARK SMILES Cc1ccc(C(=O)C[C@@H](C(=O)OCCOCCOCCOC(=O)c2ccc(-c3c4nc(c(-c5c(F)c(F)c(F)c(F)c5F)c5ccc([nH]5)c(-c5c(F)c(F)c(F)c(F)c5F)c5nc(c(-c6c(F)c(F)c(F)c(F)c6F)c6ccc3[nH]6)C=C5)C=C4)cc2)[NH+]2CC[NH+](Cc3ccccc3)CC2)cc1
REMARK SMILES IDX 16 1 15 2 14 3 13 4 12 5 10 6 11 7 9 8 8 9 6 10 7 11 5 12
REMARK SMILES IDX 1 13 2 14 3 15 101 16 4 17 100 18 87 19 88 20 99 21 89 23
REMARK SMILES IDX 98 24 90 25 91 27 92 28 93 29 97 30 94 31 96 32 95 33 17 34
REMARK SMILES IDX 18 35 19 36 20 37 21 38 22 39 23 40 24 41 25 42 86 43 26 44
REMARK SMILES IDX 85 45 27 46 28 47 29 48 79 49 30 50 84 51 78 52 80 53 31 54
REMARK SMILES IDX 83 55 77 56 76 57 32 59 64 60 44 61 63 62 45 63 48 64 62 65
REMARK SMILES IDX 81 66 46 67 47 68 61 70 82 71 49 72 33 73 34 74 42 75 35 76
REMARK SMILES IDX 36 77 40 78 43 79 37 80 38 81 41 82 39 83 65 84 66 85 74 86
REMARK SMILES IDX 67 87 68 88 72 89 75 90 69 91 70 92 73 93 71 94 50 95 51 96
REMARK SMILES IDX 59 97 52 98 53 99 57 100 60 101 54 102 55 103 58 104 56 105
REMARK H PARENT 87 22 90 26 80 58 48 69
REMARK Flexibility Score: inf
ROOT
ATOM      1  C   UNL A   1      34.968  33.363  28.007  1.00  0.00     0.188 C 
ENDROOT
BRANCH   1   2
ATOM      2  O   UNL A   1      34.326  32.224  28.574  1.00  0.00    -0.376 OA
BRANCH   2   3
ATOM      3  C   UNL A   1      33.883  31.237  27.633  1.00  0.00     0.202 C 
BRANCH   3   4
ATOM      4  C   UNL A   1      34.539  29.856  27.728  1.00  0.00     0.261 C 
BRANCH   4   5
ATOM      5  O   UNL A   1      33.785  28.589  27.567  1.00  0.00    -0.459 OA
BRANCH   5   6
ATOM      6  C   UNL A   1      32.634  28.144  26.994  1.00  0.00     0.365 C 
ATOM      7  O   UNL A   1      31.775  27.696  27.756  1.00  0.00    -0.245 OA
BRANCH   6   8
ATOM      8  C   UNL A   1      32.407  28.207  25.148  1.00  0.00     0.303 C 
BRANCH   8   9
ATOM      9  C   UNL A   1      31.434  29.370  24.799  1.00  0.00     0.158 C 
BRANCH   9  10
ATOM     10  C   UNL A   1      30.174  28.987  23.959  1.00  0.00     0.169 C 
ATOM     11  O   UNL A   1      29.833  27.807  23.869  1.00  0.00    -0.294 OA
BRANCH  10  12
ATOM     12  C   UNL A   1      29.327  29.975  23.215  1.00  0.00     0.018 A 
ATOM     13  C   UNL A   1      27.703  33.001  20.585  1.00  0.00     0.044 C 
ATOM     14  C   UNL A   1      28.137  31.923  21.544  1.00  0.00    -0.051 A 
ATOM     15  C   UNL A   1      28.175  30.578  21.159  1.00  0.00     0.004 A 
ATOM     16  C   UNL A   1      28.563  32.254  22.835  1.00  0.00     0.004 A 
ATOM     17  C   UNL A   1      28.773  29.610  21.985  1.00  0.00     0.012 A 
ATOM     18  C   UNL A   1      29.101  31.270  23.691  1.00  0.00     0.012 A 
ENDBRANCH  10  12
ENDBRANCH   9  10
ENDBRANCH   8   9
BRANCH   8  19
ATOM     19  N   UNL A   1      32.447  26.826  24.140  1.00  0.00    -0.314 N 
ATOM     20  C   UNL A   1      32.398  25.492  24.809  1.00  0.00     0.325 C 
ATOM     21  C   UNL A   1      33.102  26.576  22.805  1.00  0.00     0.325 C 
ATOM     22  H   UNL A   1      31.639  27.360  23.818  1.00  0.00     0.349 HD
ATOM     23  C   UNL A   1      31.939  24.267  23.902  1.00  0.00     0.324 C 
ATOM     24  C   UNL A   1      32.832  25.286  21.925  1.00  0.00     0.324 C 
ATOM     25  N   UNL A   1      32.643  24.065  22.650  1.00  0.00    -0.322 N 
ATOM     26  H   UNL A   1      31.949  23.483  22.180  1.00  0.00     0.348 HD
BRANCH  25  27
ATOM     27  C   UNL A   1      33.584  22.980  22.419  1.00  0.00     0.299 C 
BRANCH  27  28
ATOM     28  C   UNL A   1      34.636  22.697  23.476  1.00  0.00     0.006 A 
ATOM     29  C   UNL A   1      34.392  21.733  24.464  1.00  0.00     0.009 A 
ATOM     30  C   UNL A   1      35.879  23.330  23.505  1.00  0.00     0.009 A 
ATOM     31  C   UNL A   1      35.362  21.441  25.432  1.00  0.00     0.001 A 
ATOM     32  C   UNL A   1      36.865  23.023  24.434  1.00  0.00     0.001 A 
ATOM     33  C   UNL A   1      36.601  22.081  25.411  1.00  0.00     0.000 A 
ENDBRANCH  27  28
ENDBRANCH  25  27
ENDBRANCH   8  19
ENDBRANCH   6   8
ENDBRANCH   5   6
ENDBRANCH   4   5
ENDBRANCH   3   4
ENDBRANCH   2   3
ENDBRANCH   1   2
BRANCH   1  34
ATOM     34  C   UNL A   1      34.454  34.750  28.358  1.00  0.00     0.188 C 
BRANCH  34  35
ATOM     35  O   UNL A   1      33.080  34.617  28.696  1.00  0.00    -0.376 OA
BRANCH  35  36
ATOM     36  C   UNL A   1      32.618  35.434  29.757  1.00  0.00     0.202 C 
BRANCH  36  37
ATOM     37  C   UNL A   1      33.731  36.291  30.375  1.00  0.00     0.261 C 
BRANCH  37  38
ATOM     38  O   UNL A   1      33.471  36.466  31.783  1.00  0.00    -0.460 OA
BRANCH  38  39
ATOM     39  C   UNL A   1      33.232  35.318  32.482  1.00  0.00     0.338 C 
ATOM     40  O   UNL A   1      32.148  34.932  32.878  1.00  0.00    -0.246 OA
BRANCH  39  41
ATOM     41  C   UNL A   1      34.537  34.797  32.956  1.00  0.00     0.060 A 
ATOM     42  C   UNL A   1      35.762  35.310  32.555  1.00  0.00     0.016 A 
ATOM     43  C   UNL A   1      34.597  33.656  33.680  1.00  0.00     0.016 A 
ATOM     44  C   UNL A   1      36.942  34.476  32.539  1.00  0.00     0.010 A 
ATOM     45  C   UNL A   1      35.816  32.951  33.698  1.00  0.00     0.010 A 
ATOM     46  C   UNL A   1      36.968  33.110  32.883  1.00  0.00    -0.014 A 
BRANCH  46  47
ATOM     47  C   UNL A   1      38.321  32.039  32.473  1.00  0.00     0.031 A 
ATOM     48  C   UNL A   1      38.615  30.444  31.720  1.00  0.00     0.074 A 
ATOM     49  C   UNL A   1      39.522  32.602  32.717  1.00  0.00     0.049 A 
ATOM     50  N   UNL A   1      39.413  29.476  32.178  1.00  0.00    -0.248 NA
ATOM     51  C   UNL A   1      38.091  29.838  30.399  1.00  0.00     0.031 C 
ATOM     52  C   UNL A   1      40.829  32.141  32.281  1.00  0.00     0.029 A 
ATOM     53  N   UNL A   1      39.820  33.721  33.500  1.00  0.00    -0.354 N 
ATOM     54  C   UNL A   1      39.387  28.450  31.183  1.00  0.00     0.074 A 
ATOM     55  C   UNL A   1      38.126  28.531  30.616  1.00  0.00     0.031 C 
ATOM     56  C   UNL A   1      41.763  32.750  33.028  1.00  0.00     0.029 A 
ATOM     57  C   UNL A   1      41.060  33.452  34.084  1.00  0.00     0.049 A 
ATOM     58  H   UNL A   1      39.272  34.531  33.615  1.00  0.00     0.167 HD
ATOM     59  C   UNL A   1      40.453  27.995  30.433  1.00  0.00     0.037 A 
ATOM     60  C   UNL A   1      41.151  33.222  35.427  1.00  0.00     0.037 A 
ATOM     61  C   UNL A   1      41.651  28.400  31.106  1.00  0.00     0.049 A 
ATOM     62  C   UNL A   1      41.741  31.862  35.710  1.00  0.00     0.074 A 
ATOM     63  C   UNL A   1      42.661  29.293  30.829  1.00  0.00     0.029 A 
ATOM     64  N   UNL A   1      41.730  28.090  32.446  1.00  0.00    -0.354 N 
ATOM     65  N   UNL A   1      41.828  30.929  34.800  1.00  0.00    -0.248 NA
ATOM     66  C   UNL A   1      42.331  31.437  36.974  1.00  0.00     0.031 C 
ATOM     67  C   UNL A   1      43.251  29.641  32.081  1.00  0.00     0.029 A 
ATOM     68  C   UNL A   1      42.625  28.912  33.080  1.00  0.00     0.049 A 
ATOM     69  H   UNL A   1      41.214  27.378  32.888  1.00  0.00     0.167 HD
ATOM     70  C   UNL A   1      42.494  29.848  35.289  1.00  0.00     0.074 A 
ATOM     71  C   UNL A   1      42.770  30.201  36.666  1.00  0.00     0.031 C 
ATOM     72  C   UNL A   1      42.760  28.756  34.518  1.00  0.00     0.037 A 
BRANCH  59  73
ATOM     73  C   UNL A   1      40.424  27.394  28.966  1.00  0.00     0.064 A 
ATOM     74  C   UNL A   1      39.722  26.186  28.735  1.00  0.00     0.173 A 
ATOM     75  C   UNL A   1      41.086  27.856  27.783  1.00  0.00     0.173 A 
ATOM     76  F   UNL A   1      39.039  25.593  29.723  1.00  0.00    -0.203 F 
ATOM     77  C   UNL A   1      39.695  25.520  27.488  1.00  0.00     0.198 A 
ATOM     78  C   UNL A   1      41.012  27.221  26.529  1.00  0.00     0.198 A 
ATOM     79  F   UNL A   1      41.911  28.904  27.744  1.00  0.00    -0.203 F 
ATOM     80  F   UNL A   1      39.056  24.347  27.373  1.00  0.00    -0.200 F 
ATOM     81  C   UNL A   1      40.328  26.044  26.382  1.00  0.00     0.200 A 
ATOM     82  F   UNL A   1      41.653  27.757  25.478  1.00  0.00    -0.200 F 
ATOM     83  F   UNL A   1      40.306  25.413  25.199  1.00  0.00    -0.200 F 
ENDBRANCH  59  73
BRANCH  60  84
ATOM     84  C   UNL A   1      40.217  34.066  36.240  1.00  0.00     0.064 A 
ATOM     85  C   UNL A   1      39.186  33.380  36.933  1.00  0.00     0.173 A 
ATOM     86  C   UNL A   1      40.477  35.379  36.659  1.00  0.00     0.173 A 
ATOM     87  F   UNL A   1      38.885  32.114  36.595  1.00  0.00    -0.203 F 
ATOM     88  C   UNL A   1      38.554  33.914  38.056  1.00  0.00     0.198 A 
ATOM     89  C   UNL A   1      39.808  35.932  37.769  1.00  0.00     0.198 A 
ATOM     90  F   UNL A   1      41.467  36.088  36.099  1.00  0.00    -0.203 F 
ATOM     91  F   UNL A   1      37.726  33.149  38.783  1.00  0.00    -0.200 F 
ATOM     92  C   UNL A   1      38.872  35.188  38.480  1.00  0.00     0.200 A 
ATOM     93  F   UNL A   1      40.168  37.136  38.239  1.00  0.00    -0.200 F 
ATOM     94  F   UNL A   1      38.355  35.659  39.625  1.00  0.00    -0.200 F 
ENDBRANCH  60  84
BRANCH  72  95
ATOM     95  C   UNL A   1      43.093  27.377  35.029  1.00  0.00     0.064 A 
ATOM     96  C   UNL A   1      42.246  26.658  35.884  1.00  0.00     0.173 A 
ATOM     97  C   UNL A   1      44.147  26.638  34.432  1.00  0.00     0.173 A 
ATOM     98  F   UNL A   1      41.160  27.223  36.429  1.00  0.00    -0.203 F 
ATOM     99  C   UNL A   1      42.453  25.303  36.144  1.00  0.00     0.198 A 
ATOM    100  C   UNL A   1      44.297  25.270  34.631  1.00  0.00     0.198 A 
ATOM    101  F   UNL A   1      45.013  27.213  33.585  1.00  0.00    -0.203 F 
ATOM    102  F   UNL A   1      41.636  24.662  36.991  1.00  0.00    -0.200 F 
ATOM    103  C   UNL A   1      43.459  24.604  35.499  1.00  0.00     0.200 A 
ATOM    104  F   UNL A   1      45.229  24.595  33.942  1.00  0.00    -0.200 F 
ATOM    105  F   UNL A   1      43.604  23.288  35.697  1.00  0.00    -0.200 F 
ENDBRANCH  72  95
ENDBRANCH  46  47
ENDBRANCH  39  41
ENDBRANCH  38  39
ENDBRANCH  37  38
ENDBRANCH  36  37
ENDBRANCH  35  36
ENDBRANCH  34  35
ENDBRANCH   1  34
TORSDOF 23
ENDMDL
MODEL 2
REMARK VINA RESULT:     -12.6      1.313      4.725
REMARK SMILES Cc1ccc(C(=O)C[C@@H](C(=O)OCCOCCOCCOC(=O)c2ccc(-c3c4nc(c(-c5c(F)c(F)c(F)c(F)c5F)c5ccc([nH]5)c(-c5c(F)c(F)c(F)c(F)c5F)c5nc(c(-c6c(F)c(F)c(F)c(F)c6F)c6ccc3[nH]6)C=C5)C=C4)cc2)[NH+]2CC[NH+](Cc3ccccc3)CC2)cc1
REMARK SMILES IDX 16 1 15 2 14 3 13 4 12 5 10 6 11 7 9 8 8 9 6 10 7 11 5 12
REMARK SMILES IDX 1 13 2 14 3 15 101 16 4 17 100 18 87 19 88 20 99 21 89 23
REMARK SMILES IDX 98 24 90 25 91 27 92 28 93 29 97 30 94 31 96 32 95 33 17 34
REMARK SMILES IDX 18 35 19 36 20 37 21 38 22 39 23 40 24 41 25 42 86 43 26 44
REMARK SMILES IDX 85 45 27 46 28 47 29 48 79 49 30 50 84 51 78 52 80 53 31 54
REMARK SMILES IDX 83 55 77 56 76 57 32 59 64 60 44 61 63 62 45 63 48 64 62 65
REMARK SMILES IDX 81 66 46 67 47 68 61 70 82 71 49 72 33 73 34 74 42 75 35 76
REMARK SMILES IDX 36 77 40 78 43 79 37 80 38 81 41 82 39 83 65 84 66 85 74 86
REMARK SMILES IDX 67 87 68 88 72 89 75 90 69 91 70 92 73 93 71 94 50 95 51 96
REMARK SMILES IDX 59 97 52 98 53 99 57 100 60 101 54 102 55 103 58 104 56 105
REMARK H PARENT 87 22 90 26 80 58 48 69
REMARK Flexibility Score: inf
ROOT
ATOM      1  C   UNL A   1      34.862  32.604  27.665  1.00  0.00     0.188 C 
ENDROOT
BRANCH   1   2
ATOM      2  O   UNL A   1      34.101  31.619  28.359  1.00  0.00    -0.376 OA
BRANCH   2   3
ATOM      3  C   UNL A   1      33.668  30.506  27.566  1.00  0.00     0.202 C 
BRANCH   3   4
ATOM      4  C   UNL A   1      34.620  29.309  27.488  1.00  0.00     0.261 C 
BRANCH   4   5
ATOM      5  O   UNL A   1      34.267  28.037  26.811  1.00  0.00    -0.459 OA
BRANCH   5   6
ATOM      6  C   UNL A   1      33.834  27.606  25.595  1.00  0.00     0.365 C 
ATOM      7  O   UNL A   1      34.402  28.078  24.608  1.00  0.00    -0.245 OA
BRANCH   6   8
ATOM      8  C   UNL A   1      32.442  26.378  25.464  1.00  0.00     0.303 C 
BRANCH   8   9
ATOM      9  C   UNL A   1      33.037  24.941  25.446  1.00  0.00     0.158 C 
BRANCH   9  10
ATOM     10  C   UNL A   1      33.078  24.230  24.056  1.00  0.00     0.169 C 
ATOM     11  O   UNL A   1      33.059  24.900  23.023  1.00  0.00    -0.294 OA
BRANCH  10  12
ATOM     12  C   UNL A   1      33.125  22.742  23.874  1.00  0.00     0.018 A 
ATOM     13  C   UNL A   1      32.472  18.466  23.908  1.00  0.00     0.044 C 
ATOM     14  C   UNL A   1      32.798  19.933  23.800  1.00  0.00    -0.051 A 
ATOM     15  C   UNL A   1      32.167  20.751  22.855  1.00  0.00     0.004 A 
ATOM     16  C   UNL A   1      33.710  20.522  24.682  1.00  0.00     0.004 A 
ATOM     17  C   UNL A   1      32.322  22.148  22.896  1.00  0.00     0.012 A 
ATOM     18  C   UNL A   1      33.919  21.917  24.678  1.00  0.00     0.012 A 
ENDBRANCH  10  12
ENDBRANCH   9  10
ENDBRANCH   8   9
BRANCH   8  19
ATOM     19  N   UNL A   1      30.983  26.685  24.625  1.00  0.00    -0.314 N 
ATOM     20  C   UNL A   1      30.921  27.926  23.797  1.00  0.00     0.325 C 
ATOM     21  C   UNL A   1      29.548  26.354  24.951  1.00  0.00     0.325 C 
ATOM     22  H   UNL A   1      31.283  25.766  24.298  1.00  0.00     0.349 HD
ATOM     23  C   UNL A   1      29.807  27.958  22.660  1.00  0.00     0.324 C 
ATOM     24  C   UNL A   1      28.353  26.532  23.925  1.00  0.00     0.324 C 
ATOM     25  N   UNL A   1      28.442  27.668  23.057  1.00  0.00    -0.322 N 
ATOM     26  H   UNL A   1      28.066  27.435  22.138  1.00  0.00     0.348 HD
BRANCH  25  27
ATOM     27  C   UNL A   1      27.395  28.674  23.137  1.00  0.00     0.299 C 
BRANCH  27  28
ATOM     28  C   UNL A   1      27.707  30.083  22.666  1.00  0.00     0.006 A 
ATOM     29  C   UNL A   1      27.855  31.115  23.602  1.00  0.00     0.009 A 
ATOM     30  C   UNL A   1      27.896  30.416  21.324  1.00  0.00     0.009 A 
ATOM     31  C   UNL A   1      28.168  32.416  23.187  1.00  0.00     0.001 A 
ATOM     32  C   UNL A   1      28.245  31.693  20.901  1.00  0.00     0.001 A 
ATOM     33  C   UNL A   1      28.370  32.701  21.837  1.00  0.00     0.000 A 
ENDBRANCH  27  28
ENDBRANCH  25  27
ENDBRANCH   8  19
ENDBRANCH   6   8
ENDBRANCH   5   6
ENDBRANCH   4   5
ENDBRANCH   3   4
ENDBRANCH   2   3
ENDBRANCH   1   2
BRANCH   1  34
ATOM     34  C   UNL A   1      34.666  34.071  28.014  1.00  0.00     0.188 C 
BRANCH  34  35
ATOM     35  O   UNL A   1      33.285  34.255  28.294  1.00  0.00    -0.376 OA
BRANCH  35  36
ATOM     36  C   UNL A   1      32.981  35.059  29.420  1.00  0.00     0.202 C 
BRANCH  36  37
ATOM     37  C   UNL A   1      34.233  35.634  30.096  1.00  0.00     0.261 C 
BRANCH  37  38
ATOM     38  O   UNL A   1      33.930  35.950  31.470  1.00  0.00    -0.460 OA
BRANCH  38  39
ATOM     39  C   UNL A   1      33.619  34.882  32.262  1.00  0.00     0.338 C 
ATOM     40  O   UNL A   1      32.511  34.591  32.671  1.00  0.00    -0.246 OA
BRANCH  39  41
ATOM     41  C   UNL A   1      34.888  34.336  32.803  1.00  0.00     0.060 A 
ATOM     42  C   UNL A   1      36.130  34.912  32.582  1.00  0.00     0.016 A 
ATOM     43  C   UNL A   1      34.912  33.123  33.400  1.00  0.00     0.016 A 
ATOM     44  C   UNL A   1      37.330  34.108  32.590  1.00  0.00     0.010 A 
ATOM     45  C   UNL A   1      36.144  32.442  33.460  1.00  0.00     0.010 A 
ATOM     46  C   UNL A   1      37.363  32.712  32.784  1.00  0.00    -0.014 A 
BRANCH  46  47
ATOM     47  C   UNL A   1      38.779  31.719  32.394  1.00  0.00     0.031 A 
ATOM     48  C   UNL A   1      39.179  30.180  31.577  1.00  0.00     0.074 A 
ATOM     49  C   UNL A   1      39.941  32.315  32.733  1.00  0.00     0.049 A 
ATOM     50  N   UNL A   1      39.992  29.220  32.028  1.00  0.00    -0.248 NA
ATOM     51  C   UNL A   1      38.752  29.626  30.200  1.00  0.00     0.031 C 
ATOM     52  C   UNL A   1      41.288  31.929  32.346  1.00  0.00     0.029 A 
ATOM     53  N   UNL A   1      40.150  33.401  33.588  1.00  0.00    -0.354 N 
ATOM     54  C   UNL A   1      40.062  28.250  30.981  1.00  0.00     0.074 A 
ATOM     55  C   UNL A   1      38.830  28.312  30.350  1.00  0.00     0.031 C 
ATOM     56  C   UNL A   1      42.155  32.533  33.174  1.00  0.00     0.029 A 
ATOM     57  C   UNL A   1      41.367  33.150  34.225  1.00  0.00     0.049 A 
ATOM     58  H   UNL A   1      39.563  34.181  33.714  1.00  0.00     0.167 HD
ATOM     59  C   UNL A   1      41.184  27.877  30.268  1.00  0.00     0.037 A 
ATOM     60  C   UNL A   1      41.397  32.851  35.556  1.00  0.00     0.037 A 
ATOM     61  C   UNL A   1      42.327  28.293  31.026  1.00  0.00     0.049 A 
ATOM     62  C   UNL A   1      42.028  31.501  35.801  1.00  0.00     0.074 A 
ATOM     63  C   UNL A   1      43.312  29.238  30.851  1.00  0.00     0.029 A 
ATOM     64  N   UNL A   1      42.348  27.914  32.350  1.00  0.00    -0.354 N 
ATOM     65  N   UNL A   1      42.202  30.623  34.850  1.00  0.00    -0.248 NA
ATOM     66  C   UNL A   1      42.568  31.032  37.072  1.00  0.00     0.031 C 
ATOM     67  C   UNL A   1      43.819  29.541  32.150  1.00  0.00     0.029 A 
ATOM     68  C   UNL A   1      43.173  28.735  33.075  1.00  0.00     0.049 A 
ATOM     69  H   UNL A   1      41.840  27.159  32.725  1.00  0.00     0.167 HD
ATOM     70  C   UNL A   1      42.886  29.544  35.318  1.00  0.00     0.074 A 
ATOM     71  C   UNL A   1      43.073  29.832  36.725  1.00  0.00     0.031 C 
ATOM     72  C   UNL A   1      43.238  28.507  34.507  1.00  0.00     0.037 A 
BRANCH  59  73
ATOM     73  C   UNL A   1      41.258  27.356  28.773  1.00  0.00     0.064 A 
ATOM     74  C   UNL A   1      41.358  28.301  27.722  1.00  0.00     0.173 A 
ATOM     75  C   UNL A   1      41.163  26.017  28.273  1.00  0.00     0.173 A 
ATOM     76  F   UNL A   1      41.453  29.610  27.988  1.00  0.00    -0.203 F 
ATOM     77  C   UNL A   1      41.352  27.954  26.352  1.00  0.00     0.198 A 
ATOM     78  C   UNL A   1      41.214  25.670  26.909  1.00  0.00     0.198 A 
ATOM     79  F   UNL A   1      40.945  24.943  29.034  1.00  0.00    -0.203 F 
ATOM     80  F   UNL A   1      41.388  28.918  25.421  1.00  0.00    -0.200 F 
ATOM     81  C   UNL A   1      41.294  26.639  25.945  1.00  0.00     0.200 A 
ATOM     82  F   UNL A   1      41.143  24.378  26.553  1.00  0.00    -0.200 F 
ATOM     83  F   UNL A   1      41.286  26.308  24.646  1.00  0.00    -0.200 F 
ENDBRANCH  59  73
BRANCH  60  84
ATOM     84  C   UNL A   1      40.387  33.613  36.360  1.00  0.00     0.064 A 
ATOM     85  C   UNL A   1      39.339  32.852  36.943  1.00  0.00     0.173 A 
ATOM     86  C   UNL A   1      40.576  34.904  36.874  1.00  0.00     0.173 A 
ATOM     87  F   UNL A   1      39.104  31.602  36.509  1.00  0.00    -0.203 F 
ATOM     88  C   UNL A   1      38.622  33.294  38.054  1.00  0.00     0.198 A 
ATOM     89  C   UNL A   1      39.822  35.365  37.972  1.00  0.00     0.198 A 
ATOM     90  F   UNL A   1      41.572  35.676  36.422  1.00  0.00    -0.203 F 
ATOM     91  F   UNL A   1      37.779  32.460  38.680  1.00  0.00    -0.200 F 
ATOM     92  C   UNL A   1      38.870  34.549  38.575  1.00  0.00     0.200 A 
ATOM     93  F   UNL A   1      40.111  36.547  38.537  1.00  0.00    -0.200 F 
ATOM     94  F   UNL A   1      38.268  34.929  39.712  1.00  0.00    -0.200 F 
ENDBRANCH  60  84
BRANCH  72  95
ATOM     95  C   UNL A   1      43.601  27.117  34.964  1.00  0.00     0.064 A 
ATOM     96  C   UNL A   1      42.642  26.151  35.298  1.00  0.00     0.173 A 
ATOM     97  C   UNL A   1      44.928  26.642  34.797  1.00  0.00     0.173 A 
ATOM     98  F   UNL A   1      41.341  26.460  35.386  1.00  0.00    -0.203 F 
ATOM     99  C   UNL A   1      42.987  24.811  35.478  1.00  0.00     0.198 A 
ATOM    100  C   UNL A   1      45.251  25.293  34.896  1.00  0.00     0.198 A 
ATOM    101  F   UNL A   1      45.931  27.469  34.463  1.00  0.00    -0.203 F 
ATOM    102  F   UNL A   1      42.043  23.927  35.826  1.00  0.00    -0.200 F 
ATOM    103  C   UNL A   1      44.282  24.378  35.252  1.00  0.00     0.200 A 
ATOM    104  F   UNL A   1      46.493  24.882  34.602  1.00  0.00    -0.200 F 
ATOM    105  F   UNL A   1      44.590  23.079  35.353  1.00  0.00    -0.200 F 
ENDBRANCH  72  95
ENDBRANCH  46  47
ENDBRANCH  39  41
ENDBRANCH  38  39
ENDBRANCH  37  38
ENDBRANCH  36  37
ENDBRANCH  35  36
ENDBRANCH  34  35
ENDBRANCH   1  34
TORSDOF 23
ENDMDL
MODEL 3
REMARK VINA RESULT:     -12.4      4.419      7.996
REMARK SMILES Cc1ccc(C(=O)C[C@@H](C(=O)OCCOCCOCCOC(=O)c2ccc(-c3c4nc(c(-c5c(F)c(F)c(F)c(F)c5F)c5ccc([nH]5)c(-c5c(F)c(F)c(F)c(F)c5F)c5nc(c(-c6c(F)c(F)c(F)c(F)c6F)c6ccc3[nH]6)C=C5)C=C4)cc2)[NH+]2CC[NH+](Cc3ccccc3)CC2)cc1
REMARK SMILES IDX 16 1 15 2 14 3 13 4 12 5 10 6 11 7 9 8 8 9 6 10 7 11 5 12
REMARK SMILES IDX 1 13 2 14 3 15 101 16 4 17 100 18 87 19 88 20 99 21 89 23
REMARK SMILES IDX 98 24 90 25 91 27 92 28 93 29 97 30 94 31 96 32 95 33 17 34
REMARK SMILES IDX 18 35 19 36 20 37 21 38 22 39 23 40 24 41 25 42 86 43 26 44
REMARK SMILES IDX 85 45 27 46 28 47 29 48 79 49 30 50 84 51 78 52 80 53 31 54
REMARK SMILES IDX 83 55 77 56 76 57 32 59 64 60 44 61 63 62 45 63 48 64 62 65
REMARK SMILES IDX 81 66 46 67 47 68 61 70 82 71 49 72 33 73 34 74 42 75 35 76
REMARK SMILES IDX 36 77 40 78 43 79 37 80 38 81 41 82 39 83 65 84 66 85 74 86
REMARK SMILES IDX 67 87 68 88 72 89 75 90 69 91 70 92 73 93 71 94 50 95 51 96
REMARK SMILES IDX 59 97 52 98 53 99 57 100 60 101 54 102 55 103 58 104 56 105
REMARK H PARENT 87 22 90 26 80 58 48 69
REMARK Flexibility Score: inf
ROOT
ATOM      1  C   UNL A   1      33.490  34.146  28.182  1.00  0.00     0.188 C 
ENDROOT
BRANCH   1   2
ATOM      2  O   UNL A   1      32.227  33.640  27.756  1.00  0.00    -0.376 OA
BRANCH   2   3
ATOM      3  C   UNL A   1      32.282  32.621  26.749  1.00  0.00     0.202 C 
BRANCH   3   4
ATOM      4  C   UNL A   1      32.497  31.185  27.238  1.00  0.00     0.261 C 
BRANCH   4   5
ATOM      5  O   UNL A   1      33.066  30.115  26.383  1.00  0.00    -0.459 OA
BRANCH   5   6
ATOM      6  C   UNL A   1      33.709  28.924  26.518  1.00  0.00     0.365 C 
ATOM      7  O   UNL A   1      34.798  28.947  27.096  1.00  0.00    -0.245 OA
BRANCH   6   8
ATOM      8  C   UNL A   1      32.962  27.360  25.839  1.00  0.00     0.303 C 
BRANCH   8   9
ATOM      9  C   UNL A   1      34.095  26.322  25.603  1.00  0.00     0.158 C 
BRANCH   9  10
ATOM     10  C   UNL A   1      33.689  24.818  25.726  1.00  0.00     0.169 C 
ATOM     11  O   UNL A   1      32.577  24.516  26.160  1.00  0.00    -0.294 OA
BRANCH  10  12
ATOM     12  C   UNL A   1      34.584  23.673  25.359  1.00  0.00     0.018 A 
ATOM     13  C   UNL A   1      37.781  20.793  24.914  1.00  0.00     0.044 C 
ATOM     14  C   UNL A   1      36.588  21.709  24.993  1.00  0.00    -0.051 A 
ATOM     15  C   UNL A   1      35.634  21.576  26.009  1.00  0.00     0.004 A 
ATOM     16  C   UNL A   1      36.434  22.752  24.073  1.00  0.00     0.004 A 
ATOM     17  C   UNL A   1      34.643  22.556  26.197  1.00  0.00     0.012 A 
ATOM     18  C   UNL A   1      35.397  23.697  24.221  1.00  0.00     0.012 A 
ENDBRANCH  10  12
ENDBRANCH   9  10
ENDBRANCH   8   9
BRANCH   8  19
ATOM     19  N   UNL A   1      31.583  27.332  24.829  1.00  0.00    -0.314 N 
ATOM     20  C   UNL A   1      31.426  28.453  23.856  1.00  0.00     0.325 C 
ATOM     21  C   UNL A   1      30.188  26.799  25.048  1.00  0.00     0.325 C 
ATOM     22  H   UNL A   1      32.058  26.447  24.646  1.00  0.00     0.349 HD
ATOM     23  C   UNL A   1      30.462  28.182  22.619  1.00  0.00     0.324 C 
ATOM     24  C   UNL A   1      29.109  26.669  23.895  1.00  0.00     0.324 C 
ATOM     25  N   UNL A   1      29.121  27.709  22.910  1.00  0.00    -0.322 N 
ATOM     26  H   UNL A   1      28.896  27.324  21.992  1.00  0.00     0.348 HD
BRANCH  25  27
ATOM     27  C   UNL A   1      27.928  28.528  22.764  1.00  0.00     0.299 C 
BRANCH  27  28
ATOM     28  C   UNL A   1      28.097  30.015  22.509  1.00  0.00     0.006 A 
ATOM     29  C   UNL A   1      28.419  30.872  23.570  1.00  0.00     0.009 A 
ATOM     30  C   UNL A   1      27.982  30.590  21.243  1.00  0.00     0.009 A 
ATOM     31  C   UNL A   1      28.603  32.244  23.348  1.00  0.00     0.001 A 
ATOM     32  C   UNL A   1      28.201  31.941  21.003  1.00  0.00     0.001 A 
ATOM     33  C   UNL A   1      28.501  32.775  22.063  1.00  0.00     0.000 A 
ENDBRANCH  27  28
ENDBRANCH  25  27
ENDBRANCH   8  19
ENDBRANCH   6   8
ENDBRANCH   5   6
ENDBRANCH   4   5
ENDBRANCH   3   4
ENDBRANCH   2   3
ENDBRANCH   1   2
BRANCH   1  34
ATOM     34  C   UNL A   1      33.666  34.564  29.633  1.00  0.00     0.188 C 
BRANCH  34  35
ATOM     35  O   UNL A   1      34.029  33.401  30.365  1.00  0.00    -0.376 OA
BRANCH  35  36
ATOM     36  C   UNL A   1      34.865  32.477  29.689  1.00  0.00     0.202 C 
BRANCH  36  37
ATOM     37  C   UNL A   1      36.338  32.599  30.098  1.00  0.00     0.261 C 
BRANCH  37  38
ATOM     38  O   UNL A   1      36.643  31.593  31.086  1.00  0.00    -0.460 OA
BRANCH  38  39
ATOM     39  C   UNL A   1      36.861  30.337  30.597  1.00  0.00     0.338 C 
ATOM     40  O   UNL A   1      36.276  29.325  30.934  1.00  0.00    -0.246 OA
BRANCH  39  41
ATOM     41  C   UNL A   1      38.136  30.362  29.839  1.00  0.00     0.060 A 
ATOM     42  C   UNL A   1      38.252  29.966  28.515  1.00  0.00     0.016 A 
ATOM     43  C   UNL A   1      39.305  30.608  30.473  1.00  0.00     0.016 A 
ATOM     44  C   UNL A   1      39.502  29.449  28.005  1.00  0.00     0.010 A 
ATOM     45  C   UNL A   1      40.493  30.163  29.862  1.00  0.00     0.010 A 
ATOM     46  C   UNL A   1      40.672  29.273  28.771  1.00  0.00    -0.014 A 
BRANCH  46  47
ATOM     47  C   UNL A   1      42.037  28.281  28.226  1.00  0.00     0.031 A 
ATOM     48  C   UNL A   1      42.590  26.581  28.276  1.00  0.00     0.074 A 
ATOM     49  C   UNL A   1      42.912  28.971  27.467  1.00  0.00     0.049 A 
ATOM     50  N   UNL A   1      43.811  26.144  28.595  1.00  0.00    -0.248 NA
ATOM     51  C   UNL A   1      41.852  25.268  27.934  1.00  0.00     0.031 C 
ATOM     52  C   UNL A   1      43.993  28.447  26.650  1.00  0.00     0.029 A 
ATOM     53  N   UNL A   1      43.046  30.356  27.327  1.00  0.00    -0.354 N 
ATOM     54  C   UNL A   1      43.781  24.729  28.393  1.00  0.00     0.074 A 
ATOM     55  C   UNL A   1      42.475  24.355  28.666  1.00  0.00     0.031 C 
ATOM     56  C   UNL A   1      44.835  29.453  26.366  1.00  0.00     0.029 A 
ATOM     57  C   UNL A   1      44.413  30.588  27.164  1.00  0.00     0.049 A 
ATOM     58  H   UNL A   1      42.326  31.028  27.339  1.00  0.00     0.167 HD
ATOM     59  C   UNL A   1      44.531  24.003  27.491  1.00  0.00     0.037 A 
ATOM     60  C   UNL A   1      45.126  31.211  28.147  1.00  0.00     0.037 A 
ATOM     61  C   UNL A   1      45.640  24.823  27.102  1.00  0.00     0.049 A 
ATOM     62  C   UNL A   1      46.256  30.340  28.641  1.00  0.00     0.074 A 
ATOM     63  C   UNL A   1      46.017  25.451  25.936  1.00  0.00     0.029 A 
ATOM     64  N   UNL A   1      46.372  25.380  28.127  1.00  0.00    -0.354 N 
ATOM     65  N   UNL A   1      46.316  29.059  28.393  1.00  0.00    -0.248 NA
ATOM     66  C   UNL A   1      47.424  30.801  29.382  1.00  0.00     0.031 C 
ATOM     67  C   UNL A   1      46.881  26.523  26.313  1.00  0.00     0.029 A 
ATOM     68  C   UNL A   1      47.053  26.486  27.688  1.00  0.00     0.049 A 
ATOM     69  H   UNL A   1      46.402  25.033  29.047  1.00  0.00     0.167 HD
ATOM     70  C   UNL A   1      47.485  28.540  28.857  1.00  0.00     0.074 A 
ATOM     71  C   UNL A   1      48.139  29.664  29.494  1.00  0.00     0.031 C 
ATOM     72  C   UNL A   1      47.813  27.229  28.679  1.00  0.00     0.037 A 
BRANCH  59  73
ATOM     73  C   UNL A   1      44.141  22.646  26.769  1.00  0.00     0.064 A 
ATOM     74  C   UNL A   1      45.140  21.934  26.062  1.00  0.00     0.173 A 
ATOM     75  C   UNL A   1      42.858  22.020  26.645  1.00  0.00     0.173 A 
ATOM     76  F   UNL A   1      46.409  22.364  26.055  1.00  0.00    -0.203 F 
ATOM     77  C   UNL A   1      44.889  20.758  25.319  1.00  0.00     0.198 A 
ATOM     78  C   UNL A   1      42.622  20.819  25.950  1.00  0.00     0.198 A 
ATOM     79  F   UNL A   1      41.720  22.538  27.113  1.00  0.00    -0.203 F 
ATOM     80  F   UNL A   1      45.883  20.182  24.627  1.00  0.00    -0.200 F 
ATOM     81  C   UNL A   1      43.634  20.193  25.273  1.00  0.00     0.200 A 
ATOM     82  F   UNL A   1      41.381  20.307  25.920  1.00  0.00    -0.200 F 
ATOM     83  F   UNL A   1      43.393  19.079  24.567  1.00  0.00    -0.200 F 
ENDBRANCH  59  73
BRANCH  60  84
ATOM     84  C   UNL A   1      44.359  32.296  28.842  1.00  0.00     0.064 A 
ATOM     85  C   UNL A   1      44.125  33.482  28.097  1.00  0.00     0.173 A 
ATOM     86  C   UNL A   1      43.567  32.116  29.985  1.00  0.00     0.173 A 
ATOM     87  F   UNL A   1      44.840  33.720  26.983  1.00  0.00    -0.203 F 
ATOM     88  C   UNL A   1      43.080  34.356  28.390  1.00  0.00     0.198 A 
ATOM     89  C   UNL A   1      42.536  33.023  30.303  1.00  0.00     0.198 A 
ATOM     90  F   UNL A   1      43.681  31.003  30.722  1.00  0.00    -0.203 F 
ATOM     91  F   UNL A   1      42.786  35.355  27.544  1.00  0.00    -0.200 F 
ATOM     92  C   UNL A   1      42.278  34.121  29.490  1.00  0.00     0.200 A 
ATOM     93  F   UNL A   1      41.701  32.761  31.319  1.00  0.00    -0.200 F 
ATOM     94  F   UNL A   1      41.202  34.892  29.707  1.00  0.00    -0.200 F 
ENDBRANCH  60  84
BRANCH  72  95
ATOM     95  C   UNL A   1      48.830  26.458  29.482  1.00  0.00     0.064 A 
ATOM     96  C   UNL A   1      50.198  26.451  29.171  1.00  0.00     0.173 A 
ATOM     97  C   UNL A   1      48.480  25.942  30.756  1.00  0.00     0.173 A 
ATOM     98  F   UNL A   1      50.659  27.002  28.040  1.00  0.00    -0.203 F 
ATOM     99  C   UNL A   1      51.144  25.941  30.059  1.00  0.00     0.198 A 
ATOM    100  C   UNL A   1      49.436  25.511  31.670  1.00  0.00     0.198 A 
ATOM    101  F   UNL A   1      47.205  25.909  31.172  1.00  0.00    -0.203 F 
ATOM    102  F   UNL A   1      52.438  25.926  29.709  1.00  0.00    -0.200 F 
ATOM    103  C   UNL A   1      50.768  25.496  31.315  1.00  0.00     0.200 A 
ATOM    104  F   UNL A   1      49.062  25.154  32.907  1.00  0.00    -0.200 F 
ATOM    105  F   UNL A   1      51.692  25.077  32.190  1.00  0.00    -0.200 F 
ENDBRANCH  72  95
ENDBRANCH  46  47
ENDBRANCH  39  41
ENDBRANCH  38  39
ENDBRANCH  37  38
ENDBRANCH  36  37
ENDBRANCH  35  36
ENDBRANCH  34  35
ENDBRANCH   1  34
TORSDOF 23
ENDMDL
