MODEL 1
REMARK VINA RESULT:     -11.5      0.000      0.000
REMARK SMILES O=C(Cn1nc(C(=O)OCCOCCOCCOC(=O)c2ccc(-c3c4nc(c(-c5c(F)c(F)c(F)c(F)c5F)c5ccc([nH]5)c(-c5c(F)c(F)c(F)c(F)c5F)c5nc(c(-c6c(F)c(F)c(F)c(F)c6F)c6ccc3[nH]6)C=C5)C=C4)cc2)c2ccccc2c1=O)NCc1ccc(F)cc1
REMARK SMILES IDX 13 1 12 2 11 3 10 4 9 5 7 6 8 7 6 8 4 9 5 10 90 11 89 12
REMARK SMILES IDX 91 13 84 14 88 15 85 16 87 17 86 18 3 19 2 20 1 21 92 22
REMARK SMILES IDX 93 24 94 25 95 26 100 27 96 28 99 29 97 30 98 31 14 32 15 33
REMARK SMILES IDX 16 34 17 35 18 36 19 37 20 38 21 39 22 40 83 41 23 42 82 43
REMARK SMILES IDX 24 44 25 45 26 46 76 47 27 48 81 49 75 50 77 51 28 52 80 53
REMARK SMILES IDX 74 54 73 55 29 57 61 58 41 59 60 60 42 61 45 62 59 63 78 64
REMARK SMILES IDX 43 65 44 66 58 68 79 69 46 70 30 71 31 72 39 73 32 74 33 75
REMARK SMILES IDX 37 76 40 77 34 78 35 79 38 80 36 81 62 82 63 83 71 84 64 85
REMARK SMILES IDX 65 86 69 87 72 88 66 89 67 90 70 91 68 92 47 93 48 94 56 95
REMARK SMILES IDX 49 96 50 97 54 98 57 99 51 100 52 101 55 102 53 103
REMARK H PARENT 92 23 77 56 45 67
REMARK Flexibility Score: inf
ROOT
ATOM      1  C   UNL A   1      40.954  21.514  26.041  1.00  0.00     0.188 C 
ENDROOT
BRANCH   1   2
ATOM      2  O   UNL A   1      39.590  21.227  26.224  1.00  0.00    -0.376 OA
BRANCH   2   3
ATOM      3  C   UNL A   1      38.616  22.258  26.191  1.00  0.00     0.202 C 
BRANCH   3   4
ATOM      4  C   UNL A   1      37.318  22.232  25.359  1.00  0.00     0.261 C 
BRANCH   4   5
ATOM      5  O   UNL A   1      36.185  21.582  25.939  1.00  0.00    -0.458 OA
BRANCH   5   6
ATOM      6  C   UNL A   1      35.024  22.274  25.951  1.00  0.00     0.359 C 
ATOM      7  O   UNL A   1      34.691  23.162  26.712  1.00  0.00    -0.244 OA
BRANCH   6   8
ATOM      8  C   UNL A   1      34.201  21.908  24.718  1.00  0.00     0.176 A 
ATOM      9  N   UNL A   1      33.284  22.549  22.681  1.00  0.00    -0.219 N 
ATOM     10  N   UNL A   1      34.104  22.801  23.774  1.00  0.00    -0.161 NA
ATOM     11  C   UNL A   1      32.473  21.418  22.596  1.00  0.00     0.275 A 
ATOM     12  C   UNL A   1      32.731  20.344  23.562  1.00  0.00     0.051 A 
ATOM     13  O   UNL A   1      31.580  21.250  21.773  1.00  0.00    -0.267 OA
ATOM     14  C   UNL A   1      33.538  20.591  24.664  1.00  0.00     0.022 A 
ATOM     15  C   UNL A   1      32.121  19.093  23.385  1.00  0.00     0.014 A 
ATOM     16  C   UNL A   1      33.678  19.597  25.641  1.00  0.00     0.011 A 
ATOM     17  C   UNL A   1      32.283  18.100  24.343  1.00  0.00     0.001 A 
ATOM     18  C   UNL A   1      33.045  18.361  25.480  1.00  0.00     0.001 A 
BRANCH   9  19
ATOM     19  C   UNL A   1      32.967  23.730  21.864  1.00  0.00     0.248 C 
BRANCH  19  20
ATOM     20  C   UNL A   1      33.181  25.116  22.485  1.00  0.00     0.242 C 
ATOM     21  O   UNL A   1      34.009  25.898  22.016  1.00  0.00    -0.273 OA
ATOM     22  N   UNL A   1      32.298  25.486  23.474  1.00  0.00    -0.350 N 
ATOM     23  H   UNL A   1      31.480  24.957  23.615  1.00  0.00     0.163 HD
BRANCH  22  24
ATOM     24  C   UNL A   1      32.551  26.638  24.311  1.00  0.00     0.151 C 
BRANCH  24  25
ATOM     25  C   UNL A   1      31.549  27.745  24.110  1.00  0.00    -0.029 A 
ATOM     26  C   UNL A   1      31.721  28.967  24.783  1.00  0.00     0.008 A 
ATOM     27  C   UNL A   1      30.489  27.616  23.199  1.00  0.00     0.008 A 
ATOM     28  C   UNL A   1      30.831  30.023  24.573  1.00  0.00     0.039 A 
ATOM     29  C   UNL A   1      29.595  28.668  22.996  1.00  0.00     0.039 A 
ATOM     30  C   UNL A   1      29.773  29.860  23.686  1.00  0.00     0.123 A 
ATOM     31  F   UNL A   1      28.918  30.872  23.489  1.00  0.00    -0.207 F 
ENDBRANCH  24  25
ENDBRANCH  22  24
ENDBRANCH  19  20
ENDBRANCH   9  19
ENDBRANCH   6   8
ENDBRANCH   5   6
ENDBRANCH   4   5
ENDBRANCH   3   4
ENDBRANCH   2   3
ENDBRANCH   1   2
BRANCH   1  32
ATOM     32  C   UNL A   1      41.987  20.384  26.239  1.00  0.00     0.188 C 
BRANCH  32  33
ATOM     33  O   UNL A   1      43.004  20.175  25.282  1.00  0.00    -0.376 OA
BRANCH  33  34
ATOM     34  C   UNL A   1      44.178  20.971  25.310  1.00  0.00     0.202 C 
BRANCH  34  35
ATOM     35  C   UNL A   1      44.284  22.310  24.563  1.00  0.00     0.261 C 
BRANCH  35  36
ATOM     36  O   UNL A   1      43.651  23.434  25.188  1.00  0.00    -0.460 OA
BRANCH  36  37
ATOM     37  C   UNL A   1      44.421  24.542  25.337  1.00  0.00     0.338 C 
ATOM     38  O   UNL A   1      45.334  24.916  24.620  1.00  0.00    -0.246 OA
BRANCH  37  39
ATOM     39  C   UNL A   1      43.859  25.355  26.431  1.00  0.00     0.060 A 
ATOM     40  C   UNL A   1      42.966  24.789  27.340  1.00  0.00     0.016 A 
ATOM     41  C   UNL A   1      44.214  26.708  26.529  1.00  0.00     0.016 A 
ATOM     42  C   UNL A   1      42.414  25.586  28.345  1.00  0.00     0.010 A 
ATOM     43  C   UNL A   1      43.642  27.508  27.521  1.00  0.00     0.010 A 
ATOM     44  C   UNL A   1      42.740  26.951  28.440  1.00  0.00    -0.014 A 
BRANCH  44  45
ATOM     45  C   UNL A   1      42.201  27.765  29.555  1.00  0.00     0.031 A 
ATOM     46  C   UNL A   1      40.944  28.567  29.400  1.00  0.00     0.074 A 
ATOM     47  C   UNL A   1      42.859  27.767  30.729  1.00  0.00     0.049 A 
ATOM     48  N   UNL A   1      40.325  29.312  30.283  1.00  0.00    -0.248 NA
ATOM     49  C   UNL A   1      40.301  28.539  28.080  1.00  0.00     0.031 C 
ATOM     50  C   UNL A   1      44.096  27.034  30.994  1.00  0.00     0.029 A 
ATOM     51  N   UNL A   1      42.577  28.395  31.915  1.00  0.00    -0.354 N 
ATOM     52  C   UNL A   1      39.215  29.832  29.633  1.00  0.00     0.074 A 
ATOM     53  C   UNL A   1      39.271  29.358  28.265  1.00  0.00     0.031 C 
ATOM     54  C   UNL A   1      44.456  27.235  32.271  1.00  0.00     0.029 A 
ATOM     55  C   UNL A   1      43.491  28.131  32.904  1.00  0.00     0.049 A 
ATOM     56  H   UNL A   1      41.795  28.979  32.045  1.00  0.00     0.167 HD
ATOM     57  C   UNL A   1      38.230  30.613  30.143  1.00  0.00     0.037 A 
ATOM     58  C   UNL A   1      43.545  28.561  34.179  1.00  0.00     0.037 A 
ATOM     59  C   UNL A   1      38.168  31.062  31.513  1.00  0.00     0.049 A 
ATOM     60  C   UNL A   1      42.456  29.456  34.705  1.00  0.00     0.074 A 
ATOM     61  C   UNL A   1      37.180  31.811  32.129  1.00  0.00     0.029 A 
ATOM     62  N   UNL A   1      39.131  30.809  32.480  1.00  0.00    -0.354 N 
ATOM     63  N   UNL A   1      41.381  29.897  34.099  1.00  0.00    -0.248 NA
ATOM     64  C   UNL A   1      42.587  29.907  36.099  1.00  0.00     0.031 C 
ATOM     65  C   UNL A   1      37.569  32.057  33.449  1.00  0.00     0.029 A 
ATOM     66  C   UNL A   1      38.774  31.414  33.676  1.00  0.00     0.049 A 
ATOM     67  H   UNL A   1      39.947  30.277  32.337  1.00  0.00     0.167 HD
ATOM     68  C   UNL A   1      40.700  30.661  35.038  1.00  0.00     0.074 A 
ATOM     69  C   UNL A   1      41.468  30.599  36.264  1.00  0.00     0.031 C 
ATOM     70  C   UNL A   1      39.547  31.358  34.892  1.00  0.00     0.037 A 
BRANCH  57  71
ATOM     71  C   UNL A   1      37.111  31.028  29.229  1.00  0.00     0.064 A 
ATOM     72  C   UNL A   1      36.077  30.145  28.888  1.00  0.00     0.173 A 
ATOM     73  C   UNL A   1      37.011  32.355  28.780  1.00  0.00     0.173 A 
ATOM     74  F   UNL A   1      36.125  28.864  29.287  1.00  0.00    -0.203 F 
ATOM     75  C   UNL A   1      34.993  30.568  28.124  1.00  0.00     0.198 A 
ATOM     76  C   UNL A   1      35.911  32.783  28.041  1.00  0.00     0.198 A 
ATOM     77  F   UNL A   1      37.968  33.246  29.084  1.00  0.00    -0.203 F 
ATOM     78  F   UNL A   1      34.032  29.696  27.788  1.00  0.00    -0.200 F 
ATOM     79  C   UNL A   1      34.904  31.889  27.711  1.00  0.00     0.200 A 
ATOM     80  F   UNL A   1      35.819  34.065  27.660  1.00  0.00    -0.200 F 
ATOM     81  F   UNL A   1      33.848  32.300  26.997  1.00  0.00    -0.200 F 
ENDBRANCH  57  71
BRANCH  58  82
ATOM     82  C   UNL A   1      44.663  28.122  35.055  1.00  0.00     0.064 A 
ATOM     83  C   UNL A   1      44.613  26.892  35.723  1.00  0.00     0.173 A 
ATOM     84  C   UNL A   1      45.806  28.916  35.230  1.00  0.00     0.173 A 
ATOM     85  F   UNL A   1      43.531  26.109  35.604  1.00  0.00    -0.203 F 
ATOM     86  C   UNL A   1      45.659  26.477  36.545  1.00  0.00     0.198 A 
ATOM     87  C   UNL A   1      46.865  28.487  36.026  1.00  0.00     0.198 A 
ATOM     88  F   UNL A   1      45.903  30.102  34.610  1.00  0.00    -0.203 F 
ATOM     89  F   UNL A   1      45.566  25.316  37.207  1.00  0.00    -0.200 F 
ATOM     90  C   UNL A   1      46.787  27.271  36.689  1.00  0.00     0.200 A 
ATOM     91  F   UNL A   1      47.960  29.248  36.150  1.00  0.00    -0.200 F 
ATOM     92  F   UNL A   1      47.797  26.866  37.471  1.00  0.00    -0.200 F 
ENDBRANCH  58  82
BRANCH  70  93
ATOM     93  C   UNL A   1      39.038  32.116  36.087  1.00  0.00     0.064 A 
ATOM     94  C   UNL A   1      38.176  31.517  37.020  1.00  0.00     0.173 A 
ATOM     95  C   UNL A   1      39.451  33.434  36.333  1.00  0.00     0.173 A 
ATOM     96  F   UNL A   1      37.740  30.263  36.827  1.00  0.00    -0.203 F 
ATOM     97  C   UNL A   1      37.727  32.219  38.136  1.00  0.00     0.198 A 
ATOM     98  C   UNL A   1      39.027  34.122  37.468  1.00  0.00     0.198 A 
ATOM     99  F   UNL A   1      40.281  34.054  35.479  1.00  0.00    -0.203 F 
ATOM    100  F   UNL A   1      36.865  31.642  38.984  1.00  0.00    -0.200 F 
ATOM    101  C   UNL A   1      38.160  33.517  38.365  1.00  0.00     0.200 A 
ATOM    102  F   UNL A   1      39.461  35.369  37.696  1.00  0.00    -0.200 F 
ATOM    103  F   UNL A   1      37.736  34.186  39.445  1.00  0.00    -0.200 F 
ENDBRANCH  70  93
ENDBRANCH  44  45
ENDBRANCH  37  39
ENDBRANCH  36  37
ENDBRANCH  35  36
ENDBRANCH  34  35
ENDBRANCH  33  34
ENDBRANCH  32  33
ENDBRANCH   1  32
TORSDOF 21
ENDMDL
MODEL 2
REMARK VINA RESULT:     -11.5      4.822      9.076
REMARK SMILES O=C(Cn1nc(C(=O)OCCOCCOCCOC(=O)c2ccc(-c3c4nc(c(-c5c(F)c(F)c(F)c(F)c5F)c5ccc([nH]5)c(-c5c(F)c(F)c(F)c(F)c5F)c5nc(c(-c6c(F)c(F)c(F)c(F)c6F)c6ccc3[nH]6)C=C5)C=C4)cc2)c2ccccc2c1=O)NCc1ccc(F)cc1
REMARK SMILES IDX 13 1 12 2 11 3 10 4 9 5 7 6 8 7 6 8 4 9 5 10 90 11 89 12
REMARK SMILES IDX 91 13 84 14 88 15 85 16 87 17 86 18 3 19 2 20 1 21 92 22
REMARK SMILES IDX 93 24 94 25 95 26 100 27 96 28 99 29 97 30 98 31 14 32 15 33
REMARK SMILES IDX 16 34 17 35 18 36 19 37 20 38 21 39 22 40 83 41 23 42 82 43
REMARK SMILES IDX 24 44 25 45 26 46 76 47 27 48 81 49 75 50 77 51 28 52 80 53
REMARK SMILES IDX 74 54 73 55 29 57 61 58 41 59 60 60 42 61 45 62 59 63 78 64
REMARK SMILES IDX 43 65 44 66 58 68 79 69 46 70 30 71 31 72 39 73 32 74 33 75
REMARK SMILES IDX 37 76 40 77 34 78 35 79 38 80 36 81 62 82 63 83 71 84 64 85
REMARK SMILES IDX 65 86 69 87 72 88 66 89 67 90 70 91 68 92 47 93 48 94 56 95
REMARK SMILES IDX 49 96 50 97 54 98 57 99 51 100 52 101 55 102 53 103
REMARK H PARENT 92 23 77 56 45 67
REMARK Flexibility Score: inf
ROOT
ATOM      1  C   UNL A   1      39.350  21.272  26.130  1.00  0.00     0.188 C 
ENDROOT
BRANCH   1   2
ATOM      2  O   UNL A   1      38.302  21.822  25.370  1.00  0.00    -0.376 OA
BRANCH   2   3
ATOM      3  C   UNL A   1      37.756  23.091  25.690  1.00  0.00     0.202 C 
BRANCH   3   4
ATOM      4  C   UNL A   1      36.307  23.348  26.153  1.00  0.00     0.261 C 
BRANCH   4   5
ATOM      5  O   UNL A   1      35.494  22.202  26.417  1.00  0.00    -0.458 OA
BRANCH   5   6
ATOM      6  C   UNL A   1      34.156  22.378  26.358  1.00  0.00     0.359 C 
ATOM      7  O   UNL A   1      33.438  22.933  27.167  1.00  0.00    -0.244 OA
BRANCH   6   8
ATOM      8  C   UNL A   1      33.642  21.923  24.994  1.00  0.00     0.176 A 
ATOM      9  N   UNL A   1      33.059  22.464  22.810  1.00  0.00    -0.219 N 
ATOM     10  N   UNL A   1      33.611  22.808  24.038  1.00  0.00    -0.161 NA
ATOM     11  C   UNL A   1      32.437  21.236  22.585  1.00  0.00     0.275 A 
ATOM     12  C   UNL A   1      32.645  20.193  23.596  1.00  0.00     0.051 A 
ATOM     13  O   UNL A   1      31.750  20.963  21.606  1.00  0.00    -0.267 OA
ATOM     14  C   UNL A   1      33.184  20.530  24.829  1.00  0.00     0.022 A 
ATOM     15  C   UNL A   1      32.252  18.875  23.319  1.00  0.00     0.014 A 
ATOM     16  C   UNL A   1      33.263  19.550  25.827  1.00  0.00     0.011 A 
ATOM     17  C   UNL A   1      32.357  17.899  24.303  1.00  0.00     0.001 A 
ATOM     18  C   UNL A   1      32.843  18.243  25.562  1.00  0.00     0.001 A 
BRANCH   9  19
ATOM     19  C   UNL A   1      32.751  23.603  21.933  1.00  0.00     0.248 C 
BRANCH  19  20
ATOM     20  C   UNL A   1      33.060  25.015  22.447  1.00  0.00     0.242 C 
ATOM     21  O   UNL A   1      33.971  25.682  21.955  1.00  0.00    -0.273 OA
ATOM     22  N   UNL A   1      32.174  25.540  23.361  1.00  0.00    -0.350 N 
ATOM     23  H   UNL A   1      31.308  25.095  23.506  1.00  0.00     0.163 HD
BRANCH  22  24
ATOM     24  C   UNL A   1      32.492  26.735  24.111  1.00  0.00     0.151 C 
BRANCH  24  25
ATOM     25  C   UNL A   1      31.533  27.868  23.853  1.00  0.00    -0.029 A 
ATOM     26  C   UNL A   1      30.553  27.732  22.853  1.00  0.00     0.008 A 
ATOM     27  C   UNL A   1      31.537  29.027  24.644  1.00  0.00     0.008 A 
ATOM     28  C   UNL A   1      29.623  28.749  22.630  1.00  0.00     0.039 A 
ATOM     29  C   UNL A   1      30.613  30.046  24.416  1.00  0.00     0.039 A 
ATOM     30  C   UNL A   1      29.667  29.899  23.410  1.00  0.00     0.123 A 
ATOM     31  F   UNL A   1      28.777  30.876  23.193  1.00  0.00    -0.207 F 
ENDBRANCH  24  25
ENDBRANCH  22  24
ENDBRANCH  19  20
ENDBRANCH   9  19
ENDBRANCH   6   8
ENDBRANCH   5   6
ENDBRANCH   4   5
ENDBRANCH   3   4
ENDBRANCH   2   3
ENDBRANCH   1   2
BRANCH   1  32
ATOM     32  C   UNL A   1      40.723  21.976  26.128  1.00  0.00     0.188 C 
BRANCH  32  33
ATOM     33  O   UNL A   1      41.890  21.259  25.786  1.00  0.00    -0.376 OA
BRANCH  33  34
ATOM     34  C   UNL A   1      41.959  19.862  26.025  1.00  0.00     0.202 C 
BRANCH  34  35
ATOM     35  C   UNL A   1      43.113  18.992  25.501  1.00  0.00     0.261 C 
BRANCH  35  36
ATOM     36  O   UNL A   1      43.622  19.333  24.204  1.00  0.00    -0.460 OA
BRANCH  36  37
ATOM     37  C   UNL A   1      44.940  19.647  24.149  1.00  0.00     0.338 C 
ATOM     38  O   UNL A   1      45.839  19.004  23.634  1.00  0.00    -0.246 OA
BRANCH  37  39
ATOM     39  C   UNL A   1      45.113  21.019  24.665  1.00  0.00     0.060 A 
ATOM     40  C   UNL A   1      45.539  21.227  25.976  1.00  0.00     0.016 A 
ATOM     41  C   UNL A   1      44.819  22.105  23.829  1.00  0.00     0.016 A 
ATOM     42  C   UNL A   1      45.658  22.533  26.457  1.00  0.00     0.010 A 
ATOM     43  C   UNL A   1      44.917  23.409  24.321  1.00  0.00     0.010 A 
ATOM     44  C   UNL A   1      45.341  23.632  25.639  1.00  0.00    -0.014 A 
BRANCH  44  45
ATOM     45  C   UNL A   1      45.541  25.012  26.143  1.00  0.00     0.031 A 
ATOM     46  C   UNL A   1      46.880  25.682  26.075  1.00  0.00     0.074 A 
ATOM     47  C   UNL A   1      44.486  25.668  26.660  1.00  0.00     0.049 A 
ATOM     48  N   UNL A   1      47.218  26.892  26.448  1.00  0.00    -0.248 NA
ATOM     49  C   UNL A   1      47.989  24.890  25.527  1.00  0.00     0.031 C 
ATOM     50  C   UNL A   1      43.138  25.116  26.786  1.00  0.00     0.029 A 
ATOM     51  N   UNL A   1      44.379  26.939  27.164  1.00  0.00    -0.354 N 
ATOM     52  C   UNL A   1      48.573  27.013  26.171  1.00  0.00     0.074 A 
ATOM     53  C   UNL A   1      49.007  25.736  25.643  1.00  0.00     0.031 C 
ATOM     54  C   UNL A   1      42.332  26.050  27.312  1.00  0.00     0.029 A 
ATOM     55  C   UNL A   1      43.112  27.256  27.584  1.00  0.00     0.049 A 
ATOM     56  H   UNL A   1      45.138  27.564  27.220  1.00  0.00     0.167 HD
ATOM     57  C   UNL A   1      49.369  28.101  26.321  1.00  0.00     0.037 A 
ATOM     58  C   UNL A   1      42.629  28.391  28.125  1.00  0.00     0.037 A 
ATOM     59  C   UNL A   1      48.924  29.377  26.826  1.00  0.00     0.049 A 
ATOM     60  C   UNL A   1      43.547  29.568  28.313  1.00  0.00     0.074 A 
ATOM     61  C   UNL A   1      49.650  30.549  26.962  1.00  0.00     0.029 A 
ATOM     62  N   UNL A   1      47.641  29.653  27.279  1.00  0.00    -0.354 N 
ATOM     63  N   UNL A   1      44.812  29.692  27.996  1.00  0.00    -0.248 NA
ATOM     64  C   UNL A   1      42.964  30.769  28.930  1.00  0.00     0.031 C 
ATOM     65  C   UNL A   1      48.824  31.515  27.547  1.00  0.00     0.029 A 
ATOM     66  C   UNL A   1      47.566  30.965  27.724  1.00  0.00     0.049 A 
ATOM     67  H   UNL A   1      46.895  29.011  27.284  1.00  0.00     0.167 HD
ATOM     68  C   UNL A   1      45.172  30.984  28.357  1.00  0.00     0.074 A 
ATOM     69  C   UNL A   1      43.983  31.615  28.889  1.00  0.00     0.031 C 
ATOM     70  C   UNL A   1      46.383  31.587  28.263  1.00  0.00     0.037 A 
BRANCH  57  71
ATOM     71  C   UNL A   1      50.813  27.982  25.921  1.00  0.00     0.064 A 
ATOM     72  C   UNL A   1      51.813  27.697  26.861  1.00  0.00     0.173 A 
ATOM     73  C   UNL A   1      51.186  28.043  24.568  1.00  0.00     0.173 A 
ATOM     74  F   UNL A   1      51.511  27.632  28.167  1.00  0.00    -0.203 F 
ATOM     75  C   UNL A   1      53.132  27.489  26.466  1.00  0.00     0.198 A 
ATOM     76  C   UNL A   1      52.500  27.805  24.174  1.00  0.00     0.198 A 
ATOM     77  F   UNL A   1      50.268  28.305  23.624  1.00  0.00    -0.203 F 
ATOM     78  F   UNL A   1      54.074  27.246  27.389  1.00  0.00    -0.200 F 
ATOM     79  C   UNL A   1      53.473  27.531  25.123  1.00  0.00     0.200 A 
ATOM     80  F   UNL A   1      52.822  27.827  22.873  1.00  0.00    -0.200 F 
ATOM     81  F   UNL A   1      54.738  27.305  24.743  1.00  0.00    -0.200 F 
ENDBRANCH  57  71
BRANCH  58  82
ATOM     82  C   UNL A   1      41.194  28.473  28.502  1.00  0.00     0.064 A 
ATOM     83  C   UNL A   1      40.240  28.955  27.597  1.00  0.00     0.173 A 
ATOM     84  C   UNL A   1      40.748  28.060  29.766  1.00  0.00     0.173 A 
ATOM     85  F   UNL A   1      40.622  29.382  26.384  1.00  0.00    -0.203 F 
ATOM     86  C   UNL A   1      38.893  29.034  27.946  1.00  0.00     0.198 A 
ATOM     87  C   UNL A   1      39.398  28.109  30.103  1.00  0.00     0.198 A 
ATOM     88  F   UNL A   1      41.623  27.588  30.667  1.00  0.00    -0.203 F 
ATOM     89  F   UNL A   1      38.007  29.539  27.078  1.00  0.00    -0.200 F 
ATOM     90  C   UNL A   1      38.472  28.603  29.196  1.00  0.00     0.200 A 
ATOM     91  F   UNL A   1      38.993  27.676  31.305  1.00  0.00    -0.200 F 
ATOM     92  F   UNL A   1      37.176  28.668  29.527  1.00  0.00    -0.200 F 
ENDBRANCH  58  82
BRANCH  70  93
ATOM     93  C   UNL A   1      46.490  33.007  28.748  1.00  0.00     0.064 A 
ATOM     94  C   UNL A   1      46.173  34.090  27.913  1.00  0.00     0.173 A 
ATOM     95  C   UNL A   1      46.864  33.290  30.070  1.00  0.00     0.173 A 
ATOM     96  F   UNL A   1      45.821  33.877  26.636  1.00  0.00    -0.203 F 
ATOM     97  C   UNL A   1      46.253  35.401  28.376  1.00  0.00     0.198 A 
ATOM     98  C   UNL A   1      46.910  34.601  30.541  1.00  0.00     0.198 A 
ATOM     99  F   UNL A   1      47.169  32.293  30.915  1.00  0.00    -0.203 F 
ATOM    100  F   UNL A   1      45.994  36.419  27.545  1.00  0.00    -0.200 F 
ATOM    101  C   UNL A   1      46.612  35.655  29.691  1.00  0.00     0.200 A 
ATOM    102  F   UNL A   1      47.240  34.842  31.816  1.00  0.00    -0.200 F 
ATOM    103  F   UNL A   1      46.677  36.917  30.139  1.00  0.00    -0.200 F 
ENDBRANCH  70  93
ENDBRANCH  44  45
ENDBRANCH  37  39
ENDBRANCH  36  37
ENDBRANCH  35  36
ENDBRANCH  34  35
ENDBRANCH  33  34
ENDBRANCH  32  33
ENDBRANCH   1  32
TORSDOF 21
ENDMDL
MODEL 3
REMARK VINA RESULT:     -11.5      2.930      7.938
REMARK SMILES O=C(Cn1nc(C(=O)OCCOCCOCCOC(=O)c2ccc(-c3c4nc(c(-c5c(F)c(F)c(F)c(F)c5F)c5ccc([nH]5)c(-c5c(F)c(F)c(F)c(F)c5F)c5nc(c(-c6c(F)c(F)c(F)c(F)c6F)c6ccc3[nH]6)C=C5)C=C4)cc2)c2ccccc2c1=O)NCc1ccc(F)cc1
REMARK SMILES IDX 13 1 12 2 11 3 10 4 9 5 7 6 8 7 6 8 4 9 5 10 90 11 89 12
REMARK SMILES IDX 91 13 84 14 88 15 85 16 87 17 86 18 3 19 2 20 1 21 92 22
REMARK SMILES IDX 93 24 94 25 95 26 100 27 96 28 99 29 97 30 98 31 14 32 15 33
REMARK SMILES IDX 16 34 17 35 18 36 19 37 20 38 21 39 22 40 83 41 23 42 82 43
REMARK SMILES IDX 24 44 25 45 26 46 76 47 27 48 81 49 75 50 77 51 28 52 80 53
REMARK SMILES IDX 74 54 73 55 29 57 61 58 41 59 60 60 42 61 45 62 59 63 78 64
REMARK SMILES IDX 43 65 44 66 58 68 79 69 46 70 30 71 31 72 39 73 32 74 33 75
REMARK SMILES IDX 37 76 40 77 34 78 35 79 38 80 36 81 62 82 63 83 71 84 64 85
REMARK SMILES IDX 65 86 69 87 72 88 66 89 67 90 70 91 68 92 47 93 48 94 56 95
REMARK SMILES IDX 49 96 50 97 54 98 57 99 51 100 52 101 55 102 53 103
REMARK H PARENT 92 23 77 56 45 67
REMARK Flexibility Score: inf
ROOT
ATOM      1  C   UNL A   1      33.651  29.009  27.049  1.00  0.00     0.188 C 
ENDROOT
BRANCH   1   2
ATOM      2  O   UNL A   1      34.398  28.703  25.897  1.00  0.00    -0.376 OA
BRANCH   2   3
ATOM      3  C   UNL A   1      34.030  27.626  25.052  1.00  0.00     0.202 C 
BRANCH   3   4
ATOM      4  C   UNL A   1      33.952  26.145  25.477  1.00  0.00     0.261 C 
BRANCH   4   5
ATOM      5  O   UNL A   1      34.528  25.182  24.591  1.00  0.00    -0.458 OA
BRANCH   5   6
ATOM      6  C   UNL A   1      35.241  24.183  25.157  1.00  0.00     0.359 C 
ATOM      7  O   UNL A   1      36.286  24.266  25.774  1.00  0.00    -0.244 OA
BRANCH   6   8
ATOM      8  C   UNL A   1      34.447  22.881  25.075  1.00  0.00     0.176 A 
ATOM      9  N   UNL A   1      32.390  21.803  25.137  1.00  0.00    -0.219 N 
ATOM     10  N   UNL A   1      33.148  22.967  25.109  1.00  0.00    -0.161 NA
ATOM     11  C   UNL A   1      32.964  20.536  25.237  1.00  0.00     0.275 A 
ATOM     12  C   UNL A   1      34.410  20.444  25.009  1.00  0.00     0.051 A 
ATOM     13  O   UNL A   1      32.352  19.502  25.482  1.00  0.00    -0.267 OA
ATOM     14  C   UNL A   1      35.177  21.602  24.992  1.00  0.00     0.022 A 
ATOM     15  C   UNL A   1      35.008  19.185  24.859  1.00  0.00     0.014 A 
ATOM     16  C   UNL A   1      36.570  21.493  24.897  1.00  0.00     0.011 A 
ATOM     17  C   UNL A   1      36.389  19.081  24.738  1.00  0.00     0.001 A 
ATOM     18  C   UNL A   1      37.169  20.234  24.777  1.00  0.00     0.001 A 
BRANCH   9  19
ATOM     19  C   UNL A   1      30.984  21.994  25.525  1.00  0.00     0.248 C 
BRANCH  19  20
ATOM     20  C   UNL A   1      30.574  23.351  26.111  1.00  0.00     0.242 C 
ATOM     21  O   UNL A   1      30.304  23.468  27.307  1.00  0.00    -0.273 OA
ATOM     22  N   UNL A   1      30.680  24.436  25.271  1.00  0.00    -0.350 N 
ATOM     23  H   UNL A   1      31.173  24.346  24.424  1.00  0.00     0.163 HD
BRANCH  22  24
ATOM     24  C   UNL A   1      30.081  25.708  25.612  1.00  0.00     0.151 C 
BRANCH  24  25
ATOM     25  C   UNL A   1      30.394  26.793  24.615  1.00  0.00    -0.029 A 
ATOM     26  C   UNL A   1      30.441  26.484  23.244  1.00  0.00     0.008 A 
ATOM     27  C   UNL A   1      30.558  28.129  25.014  1.00  0.00     0.008 A 
ATOM     28  C   UNL A   1      30.682  27.484  22.300  1.00  0.00     0.039 A 
ATOM     29  C   UNL A   1      30.807  29.126  24.071  1.00  0.00     0.039 A 
ATOM     30  C   UNL A   1      30.868  28.795  22.724  1.00  0.00     0.123 A 
ATOM     31  F   UNL A   1      31.102  29.753  21.818  1.00  0.00    -0.207 F 
ENDBRANCH  24  25
ENDBRANCH  22  24
ENDBRANCH  19  20
ENDBRANCH   9  19
ENDBRANCH   6   8
ENDBRANCH   5   6
ENDBRANCH   4   5
ENDBRANCH   3   4
ENDBRANCH   2   3
ENDBRANCH   1   2
BRANCH   1  32
ATOM     32  C   UNL A   1      33.245  30.475  27.307  1.00  0.00     0.188 C 
BRANCH  32  33
ATOM     33  O   UNL A   1      32.135  31.034  26.637  1.00  0.00    -0.376 OA
BRANCH  33  34
ATOM     34  C   UNL A   1      31.727  32.361  26.926  1.00  0.00     0.202 C 
BRANCH  34  35
ATOM     35  C   UNL A   1      32.721  33.455  27.350  1.00  0.00     0.261 C 
BRANCH  35  36
ATOM     36  O   UNL A   1      32.255  34.384  28.337  1.00  0.00    -0.460 OA
BRANCH  36  37
ATOM     37  C   UNL A   1      33.160  35.299  28.765  1.00  0.00     0.338 C 
ATOM     38  O   UNL A   1      33.050  36.514  28.763  1.00  0.00    -0.246 OA
BRANCH  37  39
ATOM     39  C   UNL A   1      34.269  34.584  29.424  1.00  0.00     0.060 A 
ATOM     40  C   UNL A   1      35.560  34.658  28.901  1.00  0.00     0.016 A 
ATOM     41  C   UNL A   1      34.003  33.811  30.562  1.00  0.00     0.016 A 
ATOM     42  C   UNL A   1      36.589  33.941  29.517  1.00  0.00     0.010 A 
ATOM     43  C   UNL A   1      35.030  33.077  31.161  1.00  0.00     0.010 A 
ATOM     44  C   UNL A   1      36.332  33.140  30.644  1.00  0.00    -0.014 A 
BRANCH  44  45
ATOM     45  C   UNL A   1      37.449  32.443  31.327  1.00  0.00     0.031 A 
ATOM     46  C   UNL A   1      38.183  31.313  30.669  1.00  0.00     0.074 A 
ATOM     47  C   UNL A   1      37.806  32.850  32.558  1.00  0.00     0.049 A 
ATOM     48  N   UNL A   1      39.196  30.614  31.118  1.00  0.00    -0.248 NA
ATOM     49  C   UNL A   1      37.713  30.906  29.338  1.00  0.00     0.031 C 
ATOM     50  C   UNL A   1      37.160  33.932  33.301  1.00  0.00     0.029 A 
ATOM     51  N   UNL A   1      38.801  32.413  33.395  1.00  0.00    -0.354 N 
ATOM     52  C   UNL A   1      39.496  29.693  30.124  1.00  0.00     0.074 A 
ATOM     53  C   UNL A   1      38.524  29.889  29.067  1.00  0.00     0.031 C 
ATOM     54  C   UNL A   1      37.789  34.089  34.476  1.00  0.00     0.029 A 
ATOM     55  C   UNL A   1      38.864  33.104  34.578  1.00  0.00     0.049 A 
ATOM     56  H   UNL A   1      39.411  31.674  33.168  1.00  0.00     0.167 HD
ATOM     57  C   UNL A   1      40.505  28.788  30.091  1.00  0.00     0.037 A 
ATOM     58  C   UNL A   1      39.695  32.964  35.629  1.00  0.00     0.037 A 
ATOM     59  C   UNL A   1      41.483  28.615  31.138  1.00  0.00     0.049 A 
ATOM     60  C   UNL A   1      40.782  31.925  35.577  1.00  0.00     0.074 A 
ATOM     61  C   UNL A   1      42.571  27.759  31.165  1.00  0.00     0.029 A 
ATOM     62  N   UNL A   1      41.495  29.306  32.341  1.00  0.00    -0.354 N 
ATOM     63  N   UNL A   1      41.092  31.097  34.610  1.00  0.00    -0.248 NA
ATOM     64  C   UNL A   1      41.641  31.807  36.765  1.00  0.00     0.031 C 
ATOM     65  C   UNL A   1      43.207  27.891  32.403  1.00  0.00     0.029 A 
ATOM     66  C   UNL A   1      42.551  28.871  33.128  1.00  0.00     0.049 A 
ATOM     67  H   UNL A   1      40.848  30.002  32.598  1.00  0.00     0.167 HD
ATOM     68  C   UNL A   1      42.188  30.374  35.063  1.00  0.00     0.074 A 
ATOM     69  C   UNL A   1      42.508  30.882  36.380  1.00  0.00     0.031 C 
ATOM     70  C   UNL A   1      42.860  29.373  34.444  1.00  0.00     0.037 A 
BRANCH  57  71
ATOM     71  C   UNL A   1      40.631  27.912  28.876  1.00  0.00     0.064 A 
ATOM     72  C   UNL A   1      39.908  26.716  28.757  1.00  0.00     0.173 A 
ATOM     73  C   UNL A   1      41.395  28.326  27.773  1.00  0.00     0.173 A 
ATOM     74  F   UNL A   1      39.167  26.271  29.784  1.00  0.00    -0.203 F 
ATOM     75  C   UNL A   1      39.953  25.963  27.587  1.00  0.00     0.198 A 
ATOM     76  C   UNL A   1      41.414  27.586  26.593  1.00  0.00     0.198 A 
ATOM     77  F   UNL A   1      42.099  29.467  27.828  1.00  0.00    -0.203 F 
ATOM     78  F   UNL A   1      39.276  24.808  27.510  1.00  0.00    -0.200 F 
ATOM     79  C   UNL A   1      40.695  26.403  26.502  1.00  0.00     0.200 A 
ATOM     80  F   UNL A   1      42.117  28.025  25.540  1.00  0.00    -0.200 F 
ATOM     81  F   UNL A   1      40.718  25.690  25.368  1.00  0.00    -0.200 F 
ENDBRANCH  57  71
BRANCH  58  82
ATOM     82  C   UNL A   1      39.543  33.853  36.809  1.00  0.00     0.064 A 
ATOM     83  C   UNL A   1      38.778  33.458  37.914  1.00  0.00     0.173 A 
ATOM     84  C   UNL A   1      40.170  35.107  36.862  1.00  0.00     0.173 A 
ATOM     85  F   UNL A   1      38.142  32.277  37.900  1.00  0.00    -0.203 F 
ATOM     86  C   UNL A   1      38.632  34.290  39.022  1.00  0.00     0.198 A 
ATOM     87  C   UNL A   1      40.050  35.924  37.983  1.00  0.00     0.198 A 
ATOM     88  F   UNL A   1      40.915  35.530  35.830  1.00  0.00    -0.203 F 
ATOM     89  F   UNL A   1      37.859  33.906  40.047  1.00  0.00    -0.200 F 
ATOM     90  C   UNL A   1      39.276  35.519  39.059  1.00  0.00     0.200 A 
ATOM     91  F   UNL A   1      40.687  37.102  38.022  1.00  0.00    -0.200 F 
ATOM     92  F   UNL A   1      39.145  36.313  40.130  1.00  0.00    -0.200 F 
ENDBRANCH  58  82
BRANCH  70  93
ATOM     93  C   UNL A   1      44.015  28.753  35.182  1.00  0.00     0.064 A 
ATOM     94  C   UNL A   1      43.837  27.632  36.009  1.00  0.00     0.173 A 
ATOM     95  C   UNL A   1      45.318  29.249  35.027  1.00  0.00     0.173 A 
ATOM     96  F   UNL A   1      42.611  27.125  36.203  1.00  0.00    -0.203 F 
ATOM     97  C   UNL A   1      44.915  27.051  36.672  1.00  0.00     0.198 A 
ATOM     98  C   UNL A   1      46.400  28.643  35.664  1.00  0.00     0.198 A 
ATOM     99  F   UNL A   1      45.549  30.312  34.241  1.00  0.00    -0.203 F 
ATOM    100  F   UNL A   1      44.711  26.013  37.495  1.00  0.00    -0.200 F 
ATOM    101  C   UNL A   1      46.197  27.550  36.492  1.00  0.00     0.200 A 
ATOM    102  F   UNL A   1      47.639  29.117  35.475  1.00  0.00    -0.200 F 
ATOM    103  F   UNL A   1      47.234  26.982  37.121  1.00  0.00    -0.200 F 
ENDBRANCH  70  93
ENDBRANCH  44  45
ENDBRANCH  37  39
ENDBRANCH  36  37
ENDBRANCH  35  36
ENDBRANCH  34  35
ENDBRANCH  33  34
ENDBRANCH  32  33
ENDBRANCH   1  32
TORSDOF 21
ENDMDL
