MODEL 1
REMARK VINA RESULT:     -10.9      0.000      0.000
REMARK SMILES O=C(OCCOCCOCCOC(=O)c1ccc2c(c1)=N[C@H](C(F)(F)F)N=2)c1ccc(-c2c3nc(c(-c4c(F)c(F)c(F)c(F)c4F)c4ccc([nH]4)c(-c4c(F)c(F)c(F)c(F)c4F)c4nc(c(-c5c(F)c(F)c(F)c(F)c5F)c5ccc2[nH]5)C=C4)C=C3)cc1
REMARK SMILES IDX 7 1 6 2 5 3 4 4 3 5 2 6 1 7 28 8 29 9 90 10 30 11 89 12
REMARK SMILES IDX 31 13 32 14 33 15 83 16 34 17 88 18 82 19 84 20 35 21 87 22
REMARK SMILES IDX 81 23 80 24 36 26 68 27 48 28 67 29 49 30 52 31 66 32 85 33
REMARK SMILES IDX 50 34 51 35 65 37 86 38 53 39 37 40 38 41 46 42 39 43 40 44
REMARK SMILES IDX 44 45 47 46 41 47 42 48 45 49 43 50 69 51 70 52 78 53 71 54
REMARK SMILES IDX 72 55 76 56 79 57 73 58 74 59 77 60 75 61 54 62 55 63 63 64
REMARK SMILES IDX 56 65 57 66 61 67 64 68 58 69 59 70 62 71 60 72 8 73 9 74
REMARK SMILES IDX 10 75 11 76 12 77 13 78 14 79 15 80 16 81 20 82 17 83 19 84
REMARK SMILES IDX 18 85 21 86 27 87 22 88 23 89 24 90 25 91 26 92
REMARK H PARENT 84 25 52 36
REMARK Flexibility Score: inf
ROOT
ATOM      1  C   UNL A   1      38.352  23.525  26.200  1.00  0.00     0.188 C 
ENDROOT
BRANCH   1   2
ATOM      2  O   UNL A   1      38.998  22.275  26.317  1.00  0.00    -0.376 OA
BRANCH   2   3
ATOM      3  C   UNL A   1      38.745  21.239  25.386  1.00  0.00     0.202 C 
BRANCH   3   4
ATOM      4  C   UNL A   1      39.209  19.799  25.643  1.00  0.00     0.261 C 
BRANCH   4   5
ATOM      5  O   UNL A   1      40.317  19.620  26.527  1.00  0.00    -0.460 OA
BRANCH   5   6
ATOM      6  C   UNL A   1      41.586  19.710  26.056  1.00  0.00     0.338 C 
ATOM      7  O   UNL A   1      42.225  18.742  25.673  1.00  0.00    -0.246 OA
BRANCH   6   8
ATOM      8  C   UNL A   1      42.264  20.976  26.415  1.00  0.00     0.060 A 
ATOM      9  C   UNL A   1      42.871  21.715  25.388  1.00  0.00     0.016 A 
ATOM     10  C   UNL A   1      42.307  21.433  27.731  1.00  0.00     0.016 A 
ATOM     11  C   UNL A   1      43.542  22.905  25.686  1.00  0.00     0.010 A 
ATOM     12  C   UNL A   1      43.016  22.592  28.036  1.00  0.00     0.010 A 
ATOM     13  C   UNL A   1      43.608  23.352  27.013  1.00  0.00    -0.014 A 
BRANCH  13  14
ATOM     14  C   UNL A   1      44.007  24.741  27.326  1.00  0.00     0.031 A 
ATOM     15  C   UNL A   1      45.432  25.170  27.457  1.00  0.00     0.074 A 
ATOM     16  C   UNL A   1      43.004  25.597  27.599  1.00  0.00     0.049 A 
ATOM     17  N   UNL A   1      45.900  26.374  27.673  1.00  0.00    -0.248 NA
ATOM     18  C   UNL A   1      46.468  24.132  27.348  1.00  0.00     0.031 C 
ATOM     19  C   UNL A   1      41.580  25.254  27.558  1.00  0.00     0.029 A 
ATOM     20  N   UNL A   1      43.023  26.902  28.010  1.00  0.00    -0.354 N 
ATOM     21  C   UNL A   1      47.280  26.255  27.664  1.00  0.00     0.074 A 
ATOM     22  C   UNL A   1      47.579  24.848  27.499  1.00  0.00     0.031 C 
ATOM     23  C   UNL A   1      40.864  26.302  27.985  1.00  0.00     0.029 A 
ATOM     24  C   UNL A   1      41.776  27.396  28.300  1.00  0.00     0.049 A 
ATOM     25  H   UNL A   1      43.847  27.434  28.089  1.00  0.00     0.167 HD
ATOM     26  C   UNL A   1      48.198  27.247  27.759  1.00  0.00     0.037 A 
ATOM     27  C   UNL A   1      41.404  28.601  28.763  1.00  0.00     0.037 A 
ATOM     28  C   UNL A   1      47.872  28.631  27.989  1.00  0.00     0.049 A 
ATOM     29  C   UNL A   1      42.447  29.662  28.934  1.00  0.00     0.074 A 
ATOM     30  C   UNL A   1      48.724  29.721  28.023  1.00  0.00     0.029 A 
ATOM     31  N   UNL A   1      46.599  29.107  28.261  1.00  0.00    -0.354 N 
ATOM     32  N   UNL A   1      43.740  29.580  28.735  1.00  0.00    -0.248 NA
ATOM     33  C   UNL A   1      41.985  30.989  29.357  1.00  0.00     0.031 C 
ATOM     34  C   UNL A   1      47.977  30.846  28.381  1.00  0.00     0.029 A 
ATOM     35  C   UNL A   1      46.651  30.466  28.519  1.00  0.00     0.049 A 
ATOM     36  H   UNL A   1      45.780  28.560  28.271  1.00  0.00     0.167 HD
ATOM     37  C   UNL A   1      44.241  30.851  28.965  1.00  0.00     0.074 A 
ATOM     38  C   UNL A   1      43.113  31.686  29.326  1.00  0.00     0.031 C 
ATOM     39  C   UNL A   1      45.520  31.285  28.872  1.00  0.00     0.037 A 
BRANCH  26  40
ATOM     40  C   UNL A   1      49.647  26.918  27.559  1.00  0.00     0.064 A 
ATOM     41  C   UNL A   1      50.467  26.654  28.664  1.00  0.00     0.173 A 
ATOM     42  C   UNL A   1      50.173  26.685  26.281  1.00  0.00     0.173 A 
ATOM     43  F   UNL A   1      50.006  26.853  29.907  1.00  0.00    -0.203 F 
ATOM     44  C   UNL A   1      51.767  26.183  28.498  1.00  0.00     0.198 A 
ATOM     45  C   UNL A   1      51.466  26.191  26.119  1.00  0.00     0.198 A 
ATOM     46  F   UNL A   1      49.420  26.899  25.192  1.00  0.00    -0.203 F 
ATOM     47  F   UNL A   1      52.540  25.964  29.571  1.00  0.00    -0.200 F 
ATOM     48  C   UNL A   1      52.262  25.940  27.226  1.00  0.00     0.200 A 
ATOM     49  F   UNL A   1      51.938  25.942  24.889  1.00  0.00    -0.200 F 
ATOM     50  F   UNL A   1      53.505  25.465  27.070  1.00  0.00    -0.200 F 
ENDBRANCH  26  40
BRANCH  27  51
ATOM     51  C   UNL A   1      39.965  28.863  29.003  1.00  0.00     0.064 A 
ATOM     52  C   UNL A   1      39.128  29.261  27.955  1.00  0.00     0.173 A 
ATOM     53  C   UNL A   1      39.384  28.634  30.260  1.00  0.00     0.173 A 
ATOM     54  F   UNL A   1      39.644  29.491  26.739  1.00  0.00    -0.203 F 
ATOM     55  C   UNL A   1      37.761  29.430  28.154  1.00  0.00     0.198 A 
ATOM     56  C   UNL A   1      38.013  28.782  30.453  1.00  0.00     0.198 A 
ATOM     57  F   UNL A   1      40.144  28.229  31.289  1.00  0.00    -0.203 F 
ATOM     58  F   UNL A   1      36.984  29.828  27.138  1.00  0.00    -0.200 F 
ATOM     59  C   UNL A   1      37.203  29.182  29.400  1.00  0.00     0.200 A 
ATOM     60  F   UNL A   1      37.474  28.521  31.651  1.00  0.00    -0.200 F 
ATOM     61  F   UNL A   1      35.885  29.326  29.585  1.00  0.00    -0.200 F 
ENDBRANCH  27  51
BRANCH  39  62
ATOM     62  C   UNL A   1      45.785  32.733  29.151  1.00  0.00     0.064 A 
ATOM     63  C   UNL A   1      45.680  33.698  28.141  1.00  0.00     0.173 A 
ATOM     64  C   UNL A   1      46.044  33.167  30.460  1.00  0.00     0.173 A 
ATOM     65  F   UNL A   1      45.445  33.326  26.874  1.00  0.00    -0.203 F 
ATOM     66  C   UNL A   1      45.825  35.051  28.431  1.00  0.00     0.198 A 
ATOM     67  C   UNL A   1      46.162  34.523  30.750  1.00  0.00     0.198 A 
ATOM     68  F   UNL A   1      46.144  32.279  31.460  1.00  0.00    -0.203 F 
ATOM     69  F   UNL A   1      45.740  35.957  27.448  1.00  0.00    -0.200 F 
ATOM     70  C   UNL A   1      46.054  35.462  29.737  1.00  0.00     0.200 A 
ATOM     71  F   UNL A   1      46.365  34.920  32.014  1.00  0.00    -0.200 F 
ATOM     72  F   UNL A   1      46.166  36.768  30.018  1.00  0.00    -0.200 F 
ENDBRANCH  39  62
ENDBRANCH  13  14
ENDBRANCH   6   8
ENDBRANCH   5   6
ENDBRANCH   4   5
ENDBRANCH   3   4
ENDBRANCH   2   3
ENDBRANCH   1   2
BRANCH   1  73
ATOM     73  C   UNL A   1      37.009  23.663  25.473  1.00  0.00     0.188 C 
BRANCH  73  74
ATOM     74  O   UNL A   1      35.836  23.072  25.990  1.00  0.00    -0.376 OA
BRANCH  74  75
ATOM     75  C   UNL A   1      34.695  23.861  26.280  1.00  0.00     0.202 C 
BRANCH  75  76
ATOM     76  C   UNL A   1      34.120  24.822  25.240  1.00  0.00     0.261 C 
BRANCH  76  77
ATOM     77  O   UNL A   1      33.233  24.222  24.285  1.00  0.00    -0.460 OA
BRANCH  77  78
ATOM     78  C   UNL A   1      32.165  23.580  24.823  1.00  0.00     0.338 C 
ATOM     79  O   UNL A   1      31.382  24.016  25.648  1.00  0.00    -0.246 OA
BRANCH  78  80
ATOM     80  C   UNL A   1      32.075  22.203  24.287  1.00  0.00     0.062 A 
ATOM     81  C   UNL A   1      31.907  22.007  22.859  1.00  0.00     0.018 A 
ATOM     82  C   UNL A   1      32.289  21.197  25.151  1.00  0.00     0.046 A 
ATOM     83  C   UNL A   1      32.022  20.807  22.275  1.00  0.00     0.031 A 
ATOM     84  C   UNL A   1      32.358  19.843  24.599  1.00  0.00     0.087 A 
ATOM     85  C   UNL A   1      32.271  19.652  23.138  1.00  0.00     0.086 A 
ATOM     86  N   UNL A   1      32.498  18.727  25.230  1.00  0.00    -0.247 NA
ATOM     87  N   UNL A   1      32.410  18.422  22.797  1.00  0.00    -0.247 NA
ATOM     88  C   UNL A   1      32.655  17.727  24.106  1.00  0.00     0.326 C 
BRANCH  88  89
ATOM     89  C   UNL A   1      34.055  17.029  24.145  1.00  0.00     0.431 C 
ATOM     90  F   UNL A   1      34.207  16.250  25.242  1.00  0.00    -0.167 F 
ATOM     91  F   UNL A   1      34.246  16.230  23.066  1.00  0.00    -0.167 F 
ATOM     92  F   UNL A   1      35.056  17.941  24.160  1.00  0.00    -0.167 F 
ENDBRANCH  88  89
ENDBRANCH  78  80
ENDBRANCH  77  78
ENDBRANCH  76  77
ENDBRANCH  75  76
ENDBRANCH  74  75
ENDBRANCH  73  74
ENDBRANCH   1  73
TORSDOF 18
ENDMDL
MODEL 2
REMARK VINA RESULT:     -10.9      5.342      9.868
REMARK SMILES O=C(OCCOCCOCCOC(=O)c1ccc2c(c1)=N[C@H](C(F)(F)F)N=2)c1ccc(-c2c3nc(c(-c4c(F)c(F)c(F)c(F)c4F)c4ccc([nH]4)c(-c4c(F)c(F)c(F)c(F)c4F)c4nc(c(-c5c(F)c(F)c(F)c(F)c5F)c5ccc2[nH]5)C=C4)C=C3)cc1
REMARK SMILES IDX 7 1 6 2 5 3 4 4 3 5 2 6 1 7 28 8 29 9 90 10 30 11 89 12
REMARK SMILES IDX 31 13 32 14 33 15 83 16 34 17 88 18 82 19 84 20 35 21 87 22
REMARK SMILES IDX 81 23 80 24 36 26 68 27 48 28 67 29 49 30 52 31 66 32 85 33
REMARK SMILES IDX 50 34 51 35 65 37 86 38 53 39 37 40 38 41 46 42 39 43 40 44
REMARK SMILES IDX 44 45 47 46 41 47 42 48 45 49 43 50 69 51 70 52 78 53 71 54
REMARK SMILES IDX 72 55 76 56 79 57 73 58 74 59 77 60 75 61 54 62 55 63 63 64
REMARK SMILES IDX 56 65 57 66 61 67 64 68 58 69 59 70 62 71 60 72 8 73 9 74
REMARK SMILES IDX 10 75 11 76 12 77 13 78 14 79 15 80 16 81 20 82 17 83 19 84
REMARK SMILES IDX 18 85 21 86 27 87 22 88 23 89 24 90 25 91 26 92
REMARK H PARENT 84 25 52 36
REMARK Flexibility Score: inf
ROOT
ATOM      1  C   UNL A   1      40.444  21.611  26.590  1.00  0.00     0.188 C 
ENDROOT
BRANCH   1   2
ATOM      2  O   UNL A   1      41.232  20.650  25.917  1.00  0.00    -0.376 OA
BRANCH   2   3
ATOM      3  C   UNL A   1      42.644  20.671  26.020  1.00  0.00     0.202 C 
BRANCH   3   4
ATOM      4  C   UNL A   1      43.487  21.707  25.265  1.00  0.00     0.261 C 
BRANCH   4   5
ATOM      5  O   UNL A   1      43.975  22.821  26.015  1.00  0.00    -0.460 OA
BRANCH   5   6
ATOM      6  C   UNL A   1      43.904  24.073  25.498  1.00  0.00     0.338 C 
ATOM      7  O   UNL A   1      44.604  24.452  24.572  1.00  0.00    -0.246 OA
BRANCH   6   8
ATOM      8  C   UNL A   1      43.226  25.044  26.386  1.00  0.00     0.060 A 
ATOM      9  C   UNL A   1      42.061  24.632  27.049  1.00  0.00     0.016 A 
ATOM     10  C   UNL A   1      43.720  26.335  26.568  1.00  0.00     0.016 A 
ATOM     11  C   UNL A   1      41.376  25.524  27.879  1.00  0.00     0.010 A 
ATOM     12  C   UNL A   1      43.012  27.240  27.356  1.00  0.00     0.010 A 
ATOM     13  C   UNL A   1      41.856  26.830  28.043  1.00  0.00    -0.014 A 
BRANCH  13  14
ATOM     14  C   UNL A   1      41.367  27.685  29.145  1.00  0.00     0.031 A 
ATOM     15  C   UNL A   1      40.235  28.648  28.989  1.00  0.00     0.074 A 
ATOM     16  C   UNL A   1      42.072  27.635  30.291  1.00  0.00     0.049 A 
ATOM     17  N   UNL A   1      39.685  29.408  29.903  1.00  0.00    -0.248 NA
ATOM     18  C   UNL A   1      39.647  28.797  27.649  1.00  0.00     0.031 C 
ATOM     19  C   UNL A   1      43.234  26.770  30.518  1.00  0.00     0.029 A 
ATOM     20  N   UNL A   1      41.956  28.350  31.452  1.00  0.00    -0.354 N 
ATOM     21  C   UNL A   1      38.650  30.078  29.272  1.00  0.00     0.074 A 
ATOM     22  C   UNL A   1      38.693  29.696  27.876  1.00  0.00     0.031 C 
ATOM     23  C   UNL A   1      43.758  27.045  31.718  1.00  0.00     0.029 A 
ATOM     24  C   UNL A   1      42.954  28.082  32.354  1.00  0.00     0.049 A 
ATOM     25  H   UNL A   1      41.228  28.990  31.623  1.00  0.00     0.167 HD
ATOM     26  C   UNL A   1      37.740  30.910  29.830  1.00  0.00     0.037 A 
ATOM     27  C   UNL A   1      43.193  28.610  33.567  1.00  0.00     0.037 A 
ATOM     28  C   UNL A   1      37.761  31.325  31.209  1.00  0.00     0.049 A 
ATOM     29  C   UNL A   1      42.212  29.589  34.135  1.00  0.00     0.074 A 
ATOM     30  C   UNL A   1      36.839  32.102  31.889  1.00  0.00     0.029 A 
ATOM     31  N   UNL A   1      38.774  31.025  32.108  1.00  0.00    -0.354 N 
ATOM     32  N   UNL A   1      41.124  30.070  33.586  1.00  0.00    -0.248 NA
ATOM     33  C   UNL A   1      42.466  30.072  35.498  1.00  0.00     0.031 C 
ATOM     34  C   UNL A   1      37.327  32.329  33.178  1.00  0.00     0.029 A 
ATOM     35  C   UNL A   1      38.527  31.648  33.318  1.00  0.00     0.049 A 
ATOM     36  H   UNL A   1      39.552  30.455  31.913  1.00  0.00     0.167 HD
ATOM     37  C   UNL A   1      40.538  30.878  34.548  1.00  0.00     0.074 A 
ATOM     38  C   UNL A   1      41.397  30.827  35.715  1.00  0.00     0.031 C 
ATOM     39  C   UNL A   1      39.387  31.586  34.472  1.00  0.00     0.037 A 
BRANCH  26  40
ATOM     40  C   UNL A   1      36.596  31.402  28.995  1.00  0.00     0.064 A 
ATOM     41  C   UNL A   1      35.518  30.554  28.708  1.00  0.00     0.173 A 
ATOM     42  C   UNL A   1      36.481  32.753  28.636  1.00  0.00     0.173 A 
ATOM     43  F   UNL A   1      35.576  29.256  29.039  1.00  0.00    -0.203 F 
ATOM     44  C   UNL A   1      34.371  31.035  28.082  1.00  0.00     0.198 A 
ATOM     45  C   UNL A   1      35.323  33.236  28.030  1.00  0.00     0.198 A 
ATOM     46  F   UNL A   1      37.475  33.610  28.910  1.00  0.00    -0.203 F 
ATOM     47  F   UNL A   1      33.365  30.197  27.795  1.00  0.00    -0.200 F 
ATOM     48  C   UNL A   1      34.269  32.378  27.754  1.00  0.00     0.200 A 
ATOM     49  F   UNL A   1      35.219  34.538  27.728  1.00  0.00    -0.200 F 
ATOM     50  F   UNL A   1      33.155  32.843  27.172  1.00  0.00    -0.200 F 
ENDBRANCH  26  40
BRANCH  27  51
ATOM     51  C   UNL A   1      44.371  28.138  34.332  1.00  0.00     0.064 A 
ATOM     52  C   UNL A   1      44.288  26.992  35.132  1.00  0.00     0.173 A 
ATOM     53  C   UNL A   1      45.619  28.768  34.209  1.00  0.00     0.173 A 
ATOM     54  F   UNL A   1      43.114  26.361  35.277  1.00  0.00    -0.203 F 
ATOM     55  C   UNL A   1      45.410  26.496  35.790  1.00  0.00     0.198 A 
ATOM     56  C   UNL A   1      46.745  28.258  34.850  1.00  0.00     0.198 A 
ATOM     57  F   UNL A   1      45.750  29.856  33.436  1.00  0.00    -0.203 F 
ATOM     58  F   UNL A   1      45.302  25.407  36.563  1.00  0.00    -0.200 F 
ATOM     59  C   UNL A   1      46.639  27.123  35.642  1.00  0.00     0.200 A 
ATOM     60  F   UNL A   1      47.934  28.852  34.688  1.00  0.00    -0.200 F 
ATOM     61  F   UNL A   1      47.721  26.633  36.260  1.00  0.00    -0.200 F 
ENDBRANCH  27  51
BRANCH  39  62
ATOM     62  C   UNL A   1      38.966  32.362  35.682  1.00  0.00     0.064 A 
ATOM     63  C   UNL A   1      38.301  31.740  36.747  1.00  0.00     0.173 A 
ATOM     64  C   UNL A   1      39.324  33.711  35.819  1.00  0.00     0.173 A 
ATOM     65  F   UNL A   1      37.930  30.455  36.654  1.00  0.00    -0.203 F 
ATOM     66  C   UNL A   1      38.007  32.445  37.910  1.00  0.00     0.198 A 
ATOM     67  C   UNL A   1      39.051  34.405  36.994  1.00  0.00     0.198 A 
ATOM     68  F   UNL A   1      39.970  34.344  34.828  1.00  0.00    -0.203 F 
ATOM     69  F   UNL A   1      37.354  31.839  38.911  1.00  0.00    -0.200 F 
ATOM     70  C   UNL A   1      38.393  33.772  38.037  1.00  0.00     0.200 A 
ATOM     71  F   UNL A   1      39.440  35.681  37.122  1.00  0.00    -0.200 F 
ATOM     72  F   UNL A   1      38.132  34.440  39.169  1.00  0.00    -0.200 F 
ENDBRANCH  39  62
ENDBRANCH  13  14
ENDBRANCH   6   8
ENDBRANCH   5   6
ENDBRANCH   4   5
ENDBRANCH   3   4
ENDBRANCH   2   3
ENDBRANCH   1   2
BRANCH   1  73
ATOM     73  C   UNL A   1      39.024  21.948  26.118  1.00  0.00     0.188 C 
BRANCH  73  74
ATOM     74  O   UNL A   1      38.679  23.259  25.726  1.00  0.00    -0.376 OA
BRANCH  74  75
ATOM     75  C   UNL A   1      37.326  23.615  25.501  1.00  0.00     0.202 C 
BRANCH  75  76
ATOM     76  C   UNL A   1      36.188  22.793  26.105  1.00  0.00     0.261 C 
BRANCH  76  77
ATOM     77  O   UNL A   1      34.873  23.329  25.891  1.00  0.00    -0.460 OA
BRANCH  77  78
ATOM     78  C   UNL A   1      34.437  23.272  24.607  1.00  0.00     0.338 C 
ATOM     79  O   UNL A   1      34.328  22.280  23.909  1.00  0.00    -0.246 OA
BRANCH  78  80
ATOM     80  C   UNL A   1      34.121  24.632  24.116  1.00  0.00     0.062 A 
ATOM     81  C   UNL A   1      33.664  24.804  22.749  1.00  0.00     0.018 A 
ATOM     82  C   UNL A   1      34.149  25.628  25.017  1.00  0.00     0.046 A 
ATOM     83  C   UNL A   1      33.166  25.961  22.293  1.00  0.00     0.031 A 
ATOM     84  C   UNL A   1      33.685  26.945  24.575  1.00  0.00     0.087 A 
ATOM     85  C   UNL A   1      33.143  27.100  23.211  1.00  0.00     0.086 A 
ATOM     86  N   UNL A   1      33.670  28.052  25.236  1.00  0.00    -0.247 NA
ATOM     87  N   UNL A   1      32.717  28.291  22.988  1.00  0.00    -0.247 NA
ATOM     88  C   UNL A   1      32.939  28.988  24.300  1.00  0.00     0.326 C 
BRANCH  88  89
ATOM     89  C   UNL A   1      31.600  29.501  24.924  1.00  0.00     0.431 C 
ATOM     90  F   UNL A   1      31.761  30.667  25.594  1.00  0.00    -0.167 F 
ATOM     91  F   UNL A   1      30.656  29.719  23.975  1.00  0.00    -0.167 F 
ATOM     92  F   UNL A   1      31.095  28.602  25.802  1.00  0.00    -0.167 F 
ENDBRANCH  88  89
ENDBRANCH  78  80
ENDBRANCH  77  78
ENDBRANCH  76  77
ENDBRANCH  75  76
ENDBRANCH  74  75
ENDBRANCH  73  74
ENDBRANCH   1  73
TORSDOF 18
ENDMDL
MODEL 3
REMARK VINA RESULT:     -10.9      0.826      7.215
REMARK SMILES O=C(OCCOCCOCCOC(=O)c1ccc2c(c1)=N[C@H](C(F)(F)F)N=2)c1ccc(-c2c3nc(c(-c4c(F)c(F)c(F)c(F)c4F)c4ccc([nH]4)c(-c4c(F)c(F)c(F)c(F)c4F)c4nc(c(-c5c(F)c(F)c(F)c(F)c5F)c5ccc2[nH]5)C=C4)C=C3)cc1
REMARK SMILES IDX 7 1 6 2 5 3 4 4 3 5 2 6 1 7 28 8 29 9 90 10 30 11 89 12
REMARK SMILES IDX 31 13 32 14 33 15 83 16 34 17 88 18 82 19 84 20 35 21 87 22
REMARK SMILES IDX 81 23 80 24 36 26 68 27 48 28 67 29 49 30 52 31 66 32 85 33
REMARK SMILES IDX 50 34 51 35 65 37 86 38 53 39 37 40 38 41 46 42 39 43 40 44
REMARK SMILES IDX 44 45 47 46 41 47 42 48 45 49 43 50 69 51 70 52 78 53 71 54
REMARK SMILES IDX 72 55 76 56 79 57 73 58 74 59 77 60 75 61 54 62 55 63 63 64
REMARK SMILES IDX 56 65 57 66 61 67 64 68 58 69 59 70 62 71 60 72 8 73 9 74
REMARK SMILES IDX 10 75 11 76 12 77 13 78 14 79 15 80 16 81 20 82 17 83 19 84
REMARK SMILES IDX 18 85 21 86 27 87 22 88 23 89 24 90 25 91 26 92
REMARK H PARENT 84 25 52 36
REMARK Flexibility Score: inf
ROOT
ATOM      1  C   UNL A   1      36.851  21.257  24.897  1.00  0.00     0.188 C 
ENDROOT
BRANCH   1   2
ATOM      2  O   UNL A   1      37.810  21.849  25.749  1.00  0.00    -0.376 OA
BRANCH   2   3
ATOM      3  C   UNL A   1      39.106  21.295  25.877  1.00  0.00     0.202 C 
BRANCH   3   4
ATOM      4  C   UNL A   1      39.425  19.879  25.379  1.00  0.00     0.261 C 
BRANCH   4   5
ATOM      5  O   UNL A   1      40.333  19.103  26.163  1.00  0.00    -0.460 OA
BRANCH   5   6
ATOM      6  C   UNL A   1      41.669  19.194  25.947  1.00  0.00     0.338 C 
ATOM      7  O   UNL A   1      42.387  18.218  25.795  1.00  0.00    -0.246 OA
BRANCH   6   8
ATOM      8  C   UNL A   1      42.241  20.510  26.310  1.00  0.00     0.060 A 
ATOM      9  C   UNL A   1      42.832  21.276  25.294  1.00  0.00     0.016 A 
ATOM     10  C   UNL A   1      42.200  20.988  27.618  1.00  0.00     0.016 A 
ATOM     11  C   UNL A   1      43.404  22.515  25.596  1.00  0.00     0.010 A 
ATOM     12  C   UNL A   1      42.812  22.199  27.930  1.00  0.00     0.010 A 
ATOM     13  C   UNL A   1      43.387  22.986  26.916  1.00  0.00    -0.014 A 
BRANCH  13  14
ATOM     14  C   UNL A   1      43.674  24.403  27.220  1.00  0.00     0.031 A 
ATOM     15  C   UNL A   1      42.609  25.399  27.549  1.00  0.00     0.074 A 
ATOM     16  C   UNL A   1      44.956  24.791  27.078  1.00  0.00     0.049 A 
ATOM     17  N   UNL A   1      42.751  26.656  27.888  1.00  0.00    -0.248 NA
ATOM     18  C   UNL A   1      41.211  24.947  27.483  1.00  0.00     0.031 C 
ATOM     19  C   UNL A   1      46.059  23.903  26.698  1.00  0.00     0.029 A 
ATOM     20  N   UNL A   1      45.540  26.024  27.184  1.00  0.00    -0.354 N 
ATOM     21  C   UNL A   1      41.474  27.132  28.136  1.00  0.00     0.074 A 
ATOM     22  C   UNL A   1      40.558  26.052  27.834  1.00  0.00     0.031 C 
ATOM     23  C   UNL A   1      47.173  24.629  26.545  1.00  0.00     0.029 A 
ATOM     24  C   UNL A   1      46.869  26.024  26.845  1.00  0.00     0.049 A 
ATOM     25  H   UNL A   1      45.056  26.830  27.475  1.00  0.00     0.167 HD
ATOM     26  C   UNL A   1      41.121  28.354  28.599  1.00  0.00     0.037 A 
ATOM     27  C   UNL A   1      47.752  27.035  26.787  1.00  0.00     0.037 A 
ATOM     28  C   UNL A   1      42.048  29.432  28.828  1.00  0.00     0.049 A 
ATOM     29  C   UNL A   1      47.318  28.398  27.232  1.00  0.00     0.074 A 
ATOM     30  C   UNL A   1      41.800  30.681  29.369  1.00  0.00     0.029 A 
ATOM     31  N   UNL A   1      43.393  29.400  28.493  1.00  0.00    -0.354 N 
ATOM     32  N   UNL A   1      46.138  28.787  27.648  1.00  0.00    -0.248 NA
ATOM     33  C   UNL A   1      48.339  29.453  27.237  1.00  0.00     0.031 C 
ATOM     34  C   UNL A   1      42.980  31.428  29.300  1.00  0.00     0.029 A 
ATOM     35  C   UNL A   1      43.975  30.626  28.765  1.00  0.00     0.049 A 
ATOM     36  H   UNL A   1      43.864  28.621  28.117  1.00  0.00     0.167 HD
ATOM     37  C   UNL A   1      46.281  30.119  28.006  1.00  0.00     0.074 A 
ATOM     38  C   UNL A   1      47.663  30.473  27.751  1.00  0.00     0.031 C 
ATOM     39  C   UNL A   1      45.352  30.963  28.511  1.00  0.00     0.037 A 
BRANCH  26  40
ATOM     40  C   UNL A   1      39.687  28.609  28.957  1.00  0.00     0.064 A 
ATOM     41  C   UNL A   1      39.242  28.405  30.270  1.00  0.00     0.173 A 
ATOM     42  C   UNL A   1      38.808  29.224  28.055  1.00  0.00     0.173 A 
ATOM     43  F   UNL A   1      40.050  27.829  31.172  1.00  0.00    -0.203 F 
ATOM     44  C   UNL A   1      37.965  28.795  30.666  1.00  0.00     0.198 A 
ATOM     45  C   UNL A   1      37.539  29.634  28.460  1.00  0.00     0.198 A 
ATOM     46  F   UNL A   1      39.194  29.463  26.793  1.00  0.00    -0.203 F 
ATOM     47  F   UNL A   1      37.555  28.564  31.921  1.00  0.00    -0.200 F 
ATOM     48  C   UNL A   1      37.118  29.420  29.764  1.00  0.00     0.200 A 
ATOM     49  F   UNL A   1      36.726  30.252  27.591  1.00  0.00    -0.200 F 
ATOM     50  F   UNL A   1      35.898  29.814  30.152  1.00  0.00    -0.200 F 
ENDBRANCH  26  40
BRANCH  27  51
ATOM     51  C   UNL A   1      49.144  26.747  26.369  1.00  0.00     0.064 A 
ATOM     52  C   UNL A   1      49.533  26.897  25.033  1.00  0.00     0.173 A 
ATOM     53  C   UNL A   1      50.129  26.404  27.308  1.00  0.00     0.173 A 
ATOM     54  F   UNL A   1      48.621  27.222  24.105  1.00  0.00    -0.203 F 
ATOM     55  C   UNL A   1      50.856  26.706  24.646  1.00  0.00     0.198 A 
ATOM     56  C   UNL A   1      51.457  26.236  26.923  1.00  0.00     0.198 A 
ATOM     57  F   UNL A   1      49.807  26.272  28.603  1.00  0.00    -0.203 F 
ATOM     58  F   UNL A   1      51.200  26.839  23.358  1.00  0.00    -0.200 F 
ATOM     59  C   UNL A   1      51.819  26.385  25.592  1.00  0.00     0.200 A 
ATOM     60  F   UNL A   1      52.388  25.947  27.842  1.00  0.00    -0.200 F 
ATOM     61  F   UNL A   1      53.095  26.221  25.222  1.00  0.00    -0.200 F 
ENDBRANCH  27  51
BRANCH  39  62
ATOM     62  C   UNL A   1      45.786  32.358  28.839  1.00  0.00     0.064 A 
ATOM     63  C   UNL A   1      45.623  33.404  27.920  1.00  0.00     0.173 A 
ATOM     64  C   UNL A   1      46.271  32.668  30.118  1.00  0.00     0.173 A 
ATOM     65  F   UNL A   1      45.173  33.151  26.682  1.00  0.00    -0.203 F 
ATOM     66  C   UNL A   1      45.932  34.714  28.271  1.00  0.00     0.198 A 
ATOM     67  C   UNL A   1      46.554  33.984  30.473  1.00  0.00     0.198 A 
ATOM     68  F   UNL A   1      46.434  31.701  31.033  1.00  0.00    -0.203 F 
ATOM     69  F   UNL A   1      45.788  35.698  27.373  1.00  0.00    -0.200 F 
ATOM     70  C   UNL A   1      46.385  35.004  29.550  1.00  0.00     0.200 A 
ATOM     71  F   UNL A   1      46.974  34.264  31.715  1.00  0.00    -0.200 F 
ATOM     72  F   UNL A   1      46.656  36.271  29.895  1.00  0.00    -0.200 F 
ENDBRANCH  39  62
ENDBRANCH  13  14
ENDBRANCH   6   8
ENDBRANCH   5   6
ENDBRANCH   4   5
ENDBRANCH   3   4
ENDBRANCH   2   3
ENDBRANCH   1   2
BRANCH   1  73
ATOM     73  C   UNL A   1      35.876  22.111  24.078  1.00  0.00     0.188 C 
BRANCH  73  74
ATOM     74  O   UNL A   1      35.984  23.519  24.054  1.00  0.00    -0.376 OA
BRANCH  74  75
ATOM     75  C   UNL A   1      34.839  24.335  24.227  1.00  0.00     0.202 C 
BRANCH  75  76
ATOM     76  C   UNL A   1      34.240  24.563  25.615  1.00  0.00     0.261 C 
BRANCH  76  77
ATOM     77  O   UNL A   1      33.306  23.561  26.044  1.00  0.00    -0.460 OA
BRANCH  77  78
ATOM     78  C   UNL A   1      32.177  23.477  25.297  1.00  0.00     0.338 C 
ATOM     79  O   UNL A   1      31.299  24.314  25.189  1.00  0.00    -0.246 OA
BRANCH  78  80
ATOM     80  C   UNL A   1      32.115  22.165  24.613  1.00  0.00     0.062 A 
ATOM     81  C   UNL A   1      32.002  22.123  23.167  1.00  0.00     0.018 A 
ATOM     82  C   UNL A   1      32.301  21.072  25.372  1.00  0.00     0.046 A 
ATOM     83  C   UNL A   1      32.146  20.993  22.462  1.00  0.00     0.031 A 
ATOM     84  C   UNL A   1      32.399  19.785  24.681  1.00  0.00     0.087 A 
ATOM     85  C   UNL A   1      32.369  19.753  23.205  1.00  0.00     0.086 A 
ATOM     86  N   UNL A   1      32.522  18.609  25.193  1.00  0.00    -0.247 NA
ATOM     87  N   UNL A   1      32.528  18.566  22.740  1.00  0.00    -0.247 NA
ATOM     88  C   UNL A   1      32.727  17.735  23.975  1.00  0.00     0.326 C 
BRANCH  88  89
ATOM     89  C   UNL A   1      34.128  17.039  23.993  1.00  0.00     0.431 C 
ATOM     90  F   UNL A   1      34.427  16.460  22.806  1.00  0.00    -0.167 F 
ATOM     91  F   UNL A   1      35.123  17.922  24.261  1.00  0.00    -0.167 F 
ATOM     92  F   UNL A   1      34.180  16.069  24.936  1.00  0.00    -0.167 F 
ENDBRANCH  88  89
ENDBRANCH  78  80
ENDBRANCH  77  78
ENDBRANCH  76  77
ENDBRANCH  75  76
ENDBRANCH  74  75
ENDBRANCH  73  74
ENDBRANCH   1  73
TORSDOF 18
ENDMDL
