MODEL 1
REMARK VINA RESULT:     -13.1      0.000      0.000
REMARK SMILES Cc1c(NC(=O)c2ccccc2NC(=O)[C@@H]2CCCO2)cccc1C(=O)OCCOCCOCCOC(=O)c1ccc(-c2c3nc(c(-c4c(F)c(F)c(F)c(F)c4F)c4ccc([nH]4)c(-c4c(F)c(F)c(F)c(F)c4F)c4nc(c(-c5c(F)c(F)c(F)c(F)c5F)c5ccc2[nH]5)C=C4)C=C3)cc1
REMARK SMILES IDX 31 1 30 2 29 3 28 4 27 5 25 6 26 7 24 8 1 9 2 10 3 11 21 12
REMARK SMILES IDX 23 13 22 14 4 15 5 16 6 18 7 19 8 20 12 21 9 22 11 23 10 24
REMARK SMILES IDX 13 25 14 26 15 28 16 29 17 30 20 31 18 32 19 33 32 34 33 35
REMARK SMILES IDX 34 36 35 37 36 38 37 39 38 40 39 41 40 42 101 43 41 44
REMARK SMILES IDX 100 45 42 46 43 47 44 48 94 49 45 50 99 51 93 52 95 53 46 54
REMARK SMILES IDX 98 55 92 56 91 57 47 59 79 60 59 61 78 62 60 63 63 64 77 65
REMARK SMILES IDX 96 66 61 67 62 68 76 70 97 71 64 72 48 73 49 74 57 75 50 76
REMARK SMILES IDX 51 77 55 78 58 79 52 80 53 81 56 82 54 83 80 84 81 85 89 86
REMARK SMILES IDX 82 87 83 88 87 89 90 90 84 91 85 92 88 93 86 94 65 95 66 96
REMARK SMILES IDX 74 97 67 98 68 99 72 100 75 101 69 102 70 103 73 104 71 105
REMARK H PARENT 4 17 13 27 95 58 63 69
REMARK Flexibility Score: inf
ROOT
ATOM      1  C   UNL A   1      39.487  21.507  26.432  1.00  0.00     0.188 C 
ENDROOT
BRANCH   1   2
ATOM      2  O   UNL A   1      38.533  22.174  25.567  1.00  0.00    -0.376 OA
BRANCH   2   3
ATOM      3  C   UNL A   1      37.861  23.416  25.860  1.00  0.00     0.202 C 
BRANCH   3   4
ATOM      4  C   UNL A   1      36.175  23.655  25.828  1.00  0.00     0.261 C 
BRANCH   4   5
ATOM      5  O   UNL A   1      34.935  23.096  26.822  1.00  0.00    -0.460 OA
BRANCH   5   6
ATOM      6  C   UNL A   1      33.853  22.172  26.708  1.00  0.00     0.338 C 
ATOM      7  O   UNL A   1      33.709  21.109  27.318  1.00  0.00    -0.246 OA
BRANCH   6   8
ATOM      8  C   UNL A   1      32.734  22.099  25.764  1.00  0.00     0.065 A 
ATOM      9  C   UNL A   1      31.656  24.098  26.811  1.00  0.00     0.047 C 
ATOM     10  C   UNL A   1      31.894  23.194  25.643  1.00  0.00    -0.013 A 
ATOM     11  C   UNL A   1      31.284  23.399  24.387  1.00  0.00     0.045 A 
ATOM     12  C   UNL A   1      31.601  22.633  23.250  1.00  0.00     0.026 A 
ATOM     13  C   UNL A   1      32.953  21.248  24.620  1.00  0.00     0.016 A 
ATOM     14  C   UNL A   1      32.430  21.536  23.367  1.00  0.00     0.003 A 
BRANCH  11  15
ATOM     15  N   UNL A   1      30.240  24.323  24.340  1.00  0.00    -0.322 N 
ATOM     16  C   UNL A   1      30.293  25.649  23.993  1.00  0.00     0.257 C 
ATOM     17  H   UNL A   1      29.351  23.978  24.588  1.00  0.00     0.170 HD
ATOM     18  O   UNL A   1      29.242  26.300  24.009  1.00  0.00    -0.269 OA
BRANCH  16  19
ATOM     19  C   UNL A   1      31.556  26.331  23.582  1.00  0.00     0.063 A 
ATOM     20  C   UNL A   1      31.952  25.999  22.273  1.00  0.00     0.016 A 
ATOM     21  C   UNL A   1      32.326  27.240  24.364  1.00  0.00     0.054 A 
ATOM     22  C   UNL A   1      33.067  26.591  21.699  1.00  0.00     0.001 A 
ATOM     23  C   UNL A   1      33.395  27.875  23.724  1.00  0.00     0.027 A 
ATOM     24  C   UNL A   1      33.770  27.547  22.415  1.00  0.00     0.002 A 
BRANCH  21  25
ATOM     25  N   UNL A   1      31.985  27.469  25.722  1.00  0.00    -0.323 N 
ATOM     26  C   UNL A   1      32.159  28.459  26.651  1.00  0.00     0.253 C 
ATOM     27  H   UNL A   1      31.486  26.708  26.098  1.00  0.00     0.170 HD
ATOM     28  O   UNL A   1      31.568  28.307  27.729  1.00  0.00    -0.272 OA
BRANCH  26  29
ATOM     29  C   UNL A   1      33.073  29.664  26.429  1.00  0.00     0.207 C 
ATOM     30  C   UNL A   1      34.402  29.399  27.124  1.00  0.00     0.044 C 
ATOM     31  O   UNL A   1      32.572  30.891  26.999  1.00  0.00    -0.368 OA
ATOM     32  C   UNL A   1      34.885  30.782  27.458  1.00  0.00     0.032 C 
ATOM     33  C   UNL A   1      33.593  31.480  27.815  1.00  0.00     0.161 C 
ENDBRANCH  26  29
ENDBRANCH  21  25
ENDBRANCH  16  19
ENDBRANCH  11  15
ENDBRANCH   6   8
ENDBRANCH   5   6
ENDBRANCH   4   5
ENDBRANCH   3   4
ENDBRANCH   2   3
ENDBRANCH   1   2
BRANCH   1  34
ATOM     34  C   UNL A   1      40.146  20.153  26.123  1.00  0.00     0.188 C 
BRANCH  34  35
ATOM     35  O   UNL A   1      41.343  19.988  26.859  1.00  0.00    -0.376 OA
BRANCH  35  36
ATOM     36  C   UNL A   1      42.507  19.684  26.101  1.00  0.00     0.202 C 
BRANCH  36  37
ATOM     37  C   UNL A   1      43.411  20.906  25.808  1.00  0.00     0.261 C 
BRANCH  37  38
ATOM     38  O   UNL A   1      42.887  22.118  26.407  1.00  0.00    -0.460 OA
BRANCH  38  39
ATOM     39  C   UNL A   1      42.733  23.226  25.602  1.00  0.00     0.338 C 
ATOM     40  O   UNL A   1      43.450  23.494  24.656  1.00  0.00    -0.246 OA
BRANCH  39  41
ATOM     41  C   UNL A   1      41.755  24.183  26.231  1.00  0.00     0.060 A 
ATOM     42  C   UNL A   1      41.255  25.384  25.700  1.00  0.00     0.016 A 
ATOM     43  C   UNL A   1      41.645  24.065  27.567  1.00  0.00     0.016 A 
ATOM     44  C   UNL A   1      40.839  26.497  26.559  1.00  0.00     0.010 A 
ATOM     45  C   UNL A   1      41.580  25.259  28.271  1.00  0.00     0.010 A 
ATOM     46  C   UNL A   1      41.077  26.515  27.935  1.00  0.00    -0.014 A 
BRANCH  46  47
ATOM     47  C   UNL A   1      40.921  27.744  29.016  1.00  0.00     0.031 A 
ATOM     48  C   UNL A   1      39.846  29.064  29.170  1.00  0.00     0.074 A 
ATOM     49  C   UNL A   1      41.922  27.775  29.922  1.00  0.00     0.049 A 
ATOM     50  N   UNL A   1      40.161  30.214  29.746  1.00  0.00    -0.248 NA
ATOM     51  C   UNL A   1      38.443  29.283  28.632  1.00  0.00     0.031 C 
ATOM     52  C   UNL A   1      42.071  28.639  31.088  1.00  0.00     0.029 A 
ATOM     53  N   UNL A   1      43.159  27.115  29.828  1.00  0.00    -0.354 N 
ATOM     54  C   UNL A   1      39.038  31.054  29.721  1.00  0.00     0.074 A 
ATOM     55  C   UNL A   1      38.164  30.562  28.753  1.00  0.00     0.031 C 
ATOM     56  C   UNL A   1      43.381  28.739  31.367  1.00  0.00     0.029 A 
ATOM     57  C   UNL A   1      44.099  28.030  30.323  1.00  0.00     0.049 A 
ATOM     58  H   UNL A   1      43.327  26.207  29.488  1.00  0.00     0.167 HD
ATOM     59  C   UNL A   1      38.786  32.063  30.592  1.00  0.00     0.037 A 
ATOM     60  C   UNL A   1      45.061  28.541  29.507  1.00  0.00     0.037 A 
ATOM     61  C   UNL A   1      40.043  32.496  31.129  1.00  0.00     0.049 A 
ATOM     62  C   UNL A   1      45.024  30.051  29.445  1.00  0.00     0.074 A 
ATOM     63  C   UNL A   1      40.739  32.193  32.278  1.00  0.00     0.029 A 
ATOM     64  N   UNL A   1      40.962  32.989  30.211  1.00  0.00    -0.354 N 
ATOM     65  N   UNL A   1      44.017  30.787  29.839  1.00  0.00    -0.248 NA
ATOM     66  C   UNL A   1      46.132  30.851  28.934  1.00  0.00     0.031 C 
ATOM     67  C   UNL A   1      42.124  32.326  31.961  1.00  0.00     0.029 A 
ATOM     68  C   UNL A   1      42.251  32.792  30.659  1.00  0.00     0.049 A 
ATOM     69  H   UNL A   1      40.725  33.422  29.359  1.00  0.00     0.167 HD
ATOM     70  C   UNL A   1      44.287  32.105  29.585  1.00  0.00     0.074 A 
ATOM     71  C   UNL A   1      45.639  32.094  29.059  1.00  0.00     0.031 C 
ATOM     72  C   UNL A   1      43.373  33.103  29.781  1.00  0.00     0.037 A 
BRANCH  59  73
ATOM     73  C   UNL A   1      37.381  32.576  30.944  1.00  0.00     0.064 A 
ATOM     74  C   UNL A   1      36.665  33.367  30.026  1.00  0.00     0.173 A 
ATOM     75  C   UNL A   1      36.727  32.441  32.205  1.00  0.00     0.173 A 
ATOM     76  F   UNL A   1      37.179  33.646  28.820  1.00  0.00    -0.203 F 
ATOM     77  C   UNL A   1      35.411  33.933  30.327  1.00  0.00     0.198 A 
ATOM     78  C   UNL A   1      35.445  32.936  32.474  1.00  0.00     0.198 A 
ATOM     79  F   UNL A   1      37.319  31.900  33.277  1.00  0.00    -0.203 F 
ATOM     80  F   UNL A   1      34.811  34.734  29.436  1.00  0.00    -0.200 F 
ATOM     81  C   UNL A   1      34.790  33.697  31.539  1.00  0.00     0.200 A 
ATOM     82  F   UNL A   1      34.878  32.700  33.668  1.00  0.00    -0.200 F 
ATOM     83  F   UNL A   1      33.593  34.230  31.821  1.00  0.00    -0.200 F 
ENDBRANCH  59  73
BRANCH  60  84
ATOM     84  C   UNL A   1      45.528  27.592  28.442  1.00  0.00     0.064 A 
ATOM     85  C   UNL A   1      46.429  26.567  28.819  1.00  0.00     0.173 A 
ATOM     86  C   UNL A   1      44.928  27.463  27.185  1.00  0.00     0.173 A 
ATOM     87  F   UNL A   1      47.060  26.632  30.004  1.00  0.00    -0.203 F 
ATOM     88  C   UNL A   1      46.615  25.419  28.050  1.00  0.00     0.198 A 
ATOM     89  C   UNL A   1      45.142  26.319  26.395  1.00  0.00     0.198 A 
ATOM     90  F   UNL A   1      44.031  28.365  26.762  1.00  0.00    -0.203 F 
ATOM     91  F   UNL A   1      47.372  24.416  28.517  1.00  0.00    -0.200 F 
ATOM     92  C   UNL A   1      45.958  25.289  26.843  1.00  0.00     0.200 A 
ATOM     93  F   UNL A   1      44.455  26.157  25.255  1.00  0.00    -0.200 F 
ATOM     94  F   UNL A   1      46.055  24.148  26.144  1.00  0.00    -0.200 F 
ENDBRANCH  60  84
BRANCH  72  95
ATOM     95  C   UNL A   1      43.472  34.479  29.152  1.00  0.00     0.064 A 
ATOM     96  C   UNL A   1      43.644  35.664  29.892  1.00  0.00     0.173 A 
ATOM     97  C   UNL A   1      43.569  34.627  27.747  1.00  0.00     0.173 A 
ATOM     98  F   UNL A   1      43.722  35.652  31.229  1.00  0.00    -0.203 F 
ATOM     99  C   UNL A   1      43.807  36.907  29.277  1.00  0.00     0.198 A 
ATOM    100  C   UNL A   1      43.816  35.859  27.140  1.00  0.00     0.198 A 
ATOM    101  F   UNL A   1      43.465  33.574  26.923  1.00  0.00    -0.203 F 
ATOM    102  F   UNL A   1      43.898  38.012  30.031  1.00  0.00    -0.200 F 
ATOM    103  C   UNL A   1      43.909  37.004  27.903  1.00  0.00     0.200 A 
ATOM    104  F   UNL A   1      43.988  35.925  25.812  1.00  0.00    -0.200 F 
ATOM    105  F   UNL A   1      44.120  38.191  27.322  1.00  0.00    -0.200 F 
ENDBRANCH  72  95
ENDBRANCH  46  47
ENDBRANCH  39  41
ENDBRANCH  38  39
ENDBRANCH  37  38
ENDBRANCH  36  37
ENDBRANCH  35  36
ENDBRANCH  34  35
ENDBRANCH   1  34
TORSDOF 21
ENDMDL
MODEL 2
REMARK VINA RESULT:     -13.1      1.647      4.453
REMARK SMILES Cc1c(NC(=O)c2ccccc2NC(=O)[C@@H]2CCCO2)cccc1C(=O)OCCOCCOCCOC(=O)c1ccc(-c2c3nc(c(-c4c(F)c(F)c(F)c(F)c4F)c4ccc([nH]4)c(-c4c(F)c(F)c(F)c(F)c4F)c4nc(c(-c5c(F)c(F)c(F)c(F)c5F)c5ccc2[nH]5)C=C4)C=C3)cc1
REMARK SMILES IDX 31 1 30 2 29 3 28 4 27 5 25 6 26 7 24 8 1 9 2 10 3 11 21 12
REMARK SMILES IDX 23 13 22 14 4 15 5 16 6 18 7 19 8 20 12 21 9 22 11 23 10 24
REMARK SMILES IDX 13 25 14 26 15 28 16 29 17 30 20 31 18 32 19 33 32 34 33 35
REMARK SMILES IDX 34 36 35 37 36 38 37 39 38 40 39 41 40 42 101 43 41 44
REMARK SMILES IDX 100 45 42 46 43 47 44 48 94 49 45 50 99 51 93 52 95 53 46 54
REMARK SMILES IDX 98 55 92 56 91 57 47 59 79 60 59 61 78 62 60 63 63 64 77 65
REMARK SMILES IDX 96 66 61 67 62 68 76 70 97 71 64 72 48 73 49 74 57 75 50 76
REMARK SMILES IDX 51 77 55 78 58 79 52 80 53 81 56 82 54 83 80 84 81 85 89 86
REMARK SMILES IDX 82 87 83 88 87 89 90 90 84 91 85 92 88 93 86 94 65 95 66 96
REMARK SMILES IDX 74 97 67 98 68 99 72 100 75 101 69 102 70 103 73 104 71 105
REMARK H PARENT 4 17 13 27 95 58 63 69
REMARK Flexibility Score: inf
ROOT
ATOM      1  C   UNL A   1      38.053  22.798  25.899  1.00  0.00     0.188 C 
ENDROOT
BRANCH   1   2
ATOM      2  O   UNL A   1      36.775  23.132  25.302  1.00  0.00    -0.376 OA
BRANCH   2   3
ATOM      3  C   UNL A   1      36.500  23.196  23.887  1.00  0.00     0.202 C 
BRANCH   3   4
ATOM      4  C   UNL A   1      35.005  23.624  23.193  1.00  0.00     0.261 C 
BRANCH   4   5
ATOM      5  O   UNL A   1      34.484  25.019  22.404  1.00  0.00    -0.460 OA
BRANCH   5   6
ATOM      6  C   UNL A   1      33.287  25.796  22.357  1.00  0.00     0.338 C 
ATOM      7  O   UNL A   1      32.990  26.662  21.530  1.00  0.00    -0.246 OA
BRANCH   6   8
ATOM      8  C   UNL A   1      32.184  25.938  23.311  1.00  0.00     0.065 A 
ATOM      9  C   UNL A   1      31.529  23.546  22.986  1.00  0.00     0.047 C 
ATOM     10  C   UNL A   1      31.586  24.793  23.811  1.00  0.00    -0.013 A 
ATOM     11  C   UNL A   1      31.040  24.869  25.110  1.00  0.00     0.045 A 
ATOM     12  C   UNL A   1      31.201  25.993  25.941  1.00  0.00     0.026 A 
ATOM     13  C   UNL A   1      32.232  27.124  24.130  1.00  0.00     0.016 A 
ATOM     14  C   UNL A   1      31.787  27.139  25.445  1.00  0.00     0.003 A 
BRANCH  11  15
ATOM     15  N   UNL A   1      30.206  23.822  25.503  1.00  0.00    -0.322 N 
ATOM     16  C   UNL A   1      30.553  22.640  26.108  1.00  0.00     0.257 C 
ATOM     17  H   UNL A   1      29.246  23.947  25.322  1.00  0.00     0.170 HD
ATOM     18  O   UNL A   1      29.654  21.838  26.384  1.00  0.00    -0.269 OA
BRANCH  16  19
ATOM     19  C   UNL A   1      31.961  22.292  26.460  1.00  0.00     0.063 A 
ATOM     20  C   UNL A   1      32.411  22.951  27.620  1.00  0.00     0.016 A 
ATOM     21  C   UNL A   1      32.817  21.392  25.761  1.00  0.00     0.054 A 
ATOM     22  C   UNL A   1      33.673  22.696  28.135  1.00  0.00     0.001 A 
ATOM     23  C   UNL A   1      34.049  21.102  26.354  1.00  0.00     0.027 A 
ATOM     24  C   UNL A   1      34.479  21.753  27.517  1.00  0.00     0.002 A 
BRANCH  21  25
ATOM     25  N   UNL A   1      32.396  20.831  24.528  1.00  0.00    -0.323 N 
ATOM     26  C   UNL A   1      32.528  19.641  23.865  1.00  0.00     0.253 C 
ATOM     27  H   UNL A   1      31.863  21.473  24.007  1.00  0.00     0.170 HD
ATOM     28  O   UNL A   1      31.869  19.519  22.823  1.00  0.00    -0.272 OA
BRANCH  26  29
ATOM     29  C   UNL A   1      33.474  18.529  24.321  1.00  0.00     0.207 C 
ATOM     30  C   UNL A   1      33.596  17.507  23.199  1.00  0.00     0.044 C 
ATOM     31  O   UNL A   1      33.002  17.794  25.468  1.00  0.00    -0.368 OA
ATOM     32  C   UNL A   1      33.894  16.234  23.938  1.00  0.00     0.032 C 
ATOM     33  C   UNL A   1      33.040  16.391  25.175  1.00  0.00     0.161 C 
ENDBRANCH  26  29
ENDBRANCH  21  25
ENDBRANCH  16  19
ENDBRANCH  11  15
ENDBRANCH   6   8
ENDBRANCH   5   6
ENDBRANCH   4   5
ENDBRANCH   3   4
ENDBRANCH   2   3
ENDBRANCH   1   2
BRANCH   1  34
ATOM     34  C   UNL A   1      38.746  21.432  25.769  1.00  0.00     0.188 C 
BRANCH  34  35
ATOM     35  O   UNL A   1      39.683  21.233  26.812  1.00  0.00    -0.376 OA
BRANCH  35  36
ATOM     36  C   UNL A   1      40.770  20.364  26.519  1.00  0.00     0.202 C 
BRANCH  36  37
ATOM     37  C   UNL A   1      42.113  21.091  26.267  1.00  0.00     0.261 C 
BRANCH  37  38
ATOM     38  O   UNL A   1      42.107  22.435  26.812  1.00  0.00    -0.460 OA
BRANCH  38  39
ATOM     39  C   UNL A   1      42.193  23.493  25.932  1.00  0.00     0.338 C 
ATOM     40  O   UNL A   1      43.025  23.587  25.049  1.00  0.00    -0.246 OA
BRANCH  39  41
ATOM     41  C   UNL A   1      41.316  24.622  26.404  1.00  0.00     0.060 A 
ATOM     42  C   UNL A   1      41.192  25.910  25.854  1.00  0.00     0.016 A 
ATOM     43  C   UNL A   1      40.901  24.507  27.678  1.00  0.00     0.016 A 
ATOM     44  C   UNL A   1      40.833  27.070  26.676  1.00  0.00     0.010 A 
ATOM     45  C   UNL A   1      40.927  25.676  28.425  1.00  0.00     0.010 A 
ATOM     46  C   UNL A   1      40.769  27.015  28.070  1.00  0.00    -0.014 A 
BRANCH  46  47
ATOM     47  C   UNL A   1      40.634  28.231  29.168  1.00  0.00     0.031 A 
ATOM     48  C   UNL A   1      39.601  29.583  29.326  1.00  0.00     0.074 A 
ATOM     49  C   UNL A   1      41.620  28.215  30.091  1.00  0.00     0.049 A 
ATOM     50  N   UNL A   1      39.943  30.713  29.925  1.00  0.00    -0.248 NA
ATOM     51  C   UNL A   1      38.216  29.857  28.768  1.00  0.00     0.031 C 
ATOM     52  C   UNL A   1      41.778  29.054  31.273  1.00  0.00     0.029 A 
ATOM     53  N   UNL A   1      42.836  27.516  30.007  1.00  0.00    -0.354 N 
ATOM     54  C   UNL A   1      38.849  31.590  29.895  1.00  0.00     0.074 A 
ATOM     55  C   UNL A   1      37.976  31.142  28.905  1.00  0.00     0.031 C 
ATOM     56  C   UNL A   1      43.085  29.108  31.576  1.00  0.00     0.029 A 
ATOM     57  C   UNL A   1      43.797  28.392  30.533  1.00  0.00     0.049 A 
ATOM     58  H   UNL A   1      42.981  26.608  29.655  1.00  0.00     0.167 HD
ATOM     59  C   UNL A   1      38.615  32.592  30.778  1.00  0.00     0.037 A 
ATOM     60  C   UNL A   1      44.789  28.883  29.742  1.00  0.00     0.037 A 
ATOM     61  C   UNL A   1      39.875  32.975  31.344  1.00  0.00     0.049 A 
ATOM     62  C   UNL A   1      44.803  30.395  29.704  1.00  0.00     0.074 A 
ATOM     63  C   UNL A   1      40.542  32.631  32.499  1.00  0.00     0.029 A 
ATOM     64  N   UNL A   1      40.826  33.453  30.449  1.00  0.00    -0.354 N 
ATOM     65  N   UNL A   1      43.814  31.157  30.092  1.00  0.00    -0.248 NA
ATOM     66  C   UNL A   1      45.944  31.166  29.224  1.00  0.00     0.031 C 
ATOM     67  C   UNL A   1      41.936  32.723  32.207  1.00  0.00     0.029 A 
ATOM     68  C   UNL A   1      42.099  33.206  30.915  1.00  0.00     0.049 A 
ATOM     69  H   UNL A   1      40.618  33.906  29.600  1.00  0.00     0.167 HD
ATOM     70  C   UNL A   1      44.130  32.470  29.865  1.00  0.00     0.074 A 
ATOM     71  C   UNL A   1      45.491  32.423  29.361  1.00  0.00     0.031 C 
ATOM     72  C   UNL A   1      43.247  33.494  30.062  1.00  0.00     0.037 A 
BRANCH  59  73
ATOM     73  C   UNL A   1      37.221  33.146  31.115  1.00  0.00     0.064 A 
ATOM     74  C   UNL A   1      36.632  32.869  32.363  1.00  0.00     0.173 A 
ATOM     75  C   UNL A   1      36.354  33.842  30.221  1.00  0.00     0.173 A 
ATOM     76  F   UNL A   1      37.293  32.160  33.287  1.00  0.00    -0.203 F 
ATOM     77  C   UNL A   1      35.325  33.279  32.692  1.00  0.00     0.198 A 
ATOM     78  C   UNL A   1      35.087  34.319  30.579  1.00  0.00     0.198 A 
ATOM     79  F   UNL A   1      36.641  34.030  28.927  1.00  0.00    -0.203 F 
ATOM     80  F   UNL A   1      34.794  32.926  33.871  1.00  0.00    -0.200 F 
ATOM     81  C   UNL A   1      34.564  34.025  31.813  1.00  0.00     0.200 A 
ATOM     82  F   UNL A   1      34.368  35.028  29.694  1.00  0.00    -0.200 F 
ATOM     83  F   UNL A   1      33.323  34.421  32.131  1.00  0.00    -0.200 F 
ENDBRANCH  59  73
BRANCH  60  84
ATOM     84  C   UNL A   1      45.244  27.937  28.670  1.00  0.00     0.064 A 
ATOM     85  C   UNL A   1      46.120  26.888  29.041  1.00  0.00     0.173 A 
ATOM     86  C   UNL A   1      44.650  27.835  27.406  1.00  0.00     0.173 A 
ATOM     87  F   UNL A   1      46.744  26.926  30.231  1.00  0.00    -0.203 F 
ATOM     88  C   UNL A   1      46.287  25.745  28.260  1.00  0.00     0.198 A 
ATOM     89  C   UNL A   1      44.845  26.696  26.605  1.00  0.00     0.198 A 
ATOM     90  F   UNL A   1      43.775  28.760  26.988  1.00  0.00    -0.203 F 
ATOM     91  F   UNL A   1      47.019  24.721  28.721  1.00  0.00    -0.200 F 
ATOM     92  C   UNL A   1      45.636  25.643  27.047  1.00  0.00     0.200 A 
ATOM     93  F   UNL A   1      44.163  26.561  25.458  1.00  0.00    -0.200 F 
ATOM     94  F   UNL A   1      45.714  24.508  26.336  1.00  0.00    -0.200 F 
ENDBRANCH  60  84
BRANCH  72  95
ATOM     95  C   UNL A   1      43.401  34.875  29.457  1.00  0.00     0.064 A 
ATOM     96  C   UNL A   1      43.248  35.148  28.085  1.00  0.00     0.173 A 
ATOM     97  C   UNL A   1      43.545  36.015  30.285  1.00  0.00     0.173 A 
ATOM     98  F   UNL A   1      42.959  34.181  27.205  1.00  0.00    -0.203 F 
ATOM     99  C   UNL A   1      43.323  36.444  27.572  1.00  0.00     0.198 A 
ATOM    100  C   UNL A   1      43.534  37.315  29.777  1.00  0.00     0.198 A 
ATOM    101  F   UNL A   1      43.660  35.903  31.617  1.00  0.00    -0.203 F 
ATOM    102  F   UNL A   1      43.237  36.639  26.247  1.00  0.00    -0.200 F 
ATOM    103  C   UNL A   1      43.451  37.529  28.417  1.00  0.00     0.200 A 
ATOM    104  F   UNL A   1      43.582  38.359  30.616  1.00  0.00    -0.200 F 
ATOM    105  F   UNL A   1      43.466  38.774  27.924  1.00  0.00    -0.200 F 
ENDBRANCH  72  95
ENDBRANCH  46  47
ENDBRANCH  39  41
ENDBRANCH  38  39
ENDBRANCH  37  38
ENDBRANCH  36  37
ENDBRANCH  35  36
ENDBRANCH  34  35
ENDBRANCH   1  34
TORSDOF 21
ENDMDL
MODEL 3
REMARK VINA RESULT:     -12.9      2.548      3.696
REMARK SMILES Cc1c(NC(=O)c2ccccc2NC(=O)[C@@H]2CCCO2)cccc1C(=O)OCCOCCOCCOC(=O)c1ccc(-c2c3nc(c(-c4c(F)c(F)c(F)c(F)c4F)c4ccc([nH]4)c(-c4c(F)c(F)c(F)c(F)c4F)c4nc(c(-c5c(F)c(F)c(F)c(F)c5F)c5ccc2[nH]5)C=C4)C=C3)cc1
REMARK SMILES IDX 31 1 30 2 29 3 28 4 27 5 25 6 26 7 24 8 1 9 2 10 3 11 21 12
REMARK SMILES IDX 23 13 22 14 4 15 5 16 6 18 7 19 8 20 12 21 9 22 11 23 10 24
REMARK SMILES IDX 13 25 14 26 15 28 16 29 17 30 20 31 18 32 19 33 32 34 33 35
REMARK SMILES IDX 34 36 35 37 36 38 37 39 38 40 39 41 40 42 101 43 41 44
REMARK SMILES IDX 100 45 42 46 43 47 44 48 94 49 45 50 99 51 93 52 95 53 46 54
REMARK SMILES IDX 98 55 92 56 91 57 47 59 79 60 59 61 78 62 60 63 63 64 77 65
REMARK SMILES IDX 96 66 61 67 62 68 76 70 97 71 64 72 48 73 49 74 57 75 50 76
REMARK SMILES IDX 51 77 55 78 58 79 52 80 53 81 56 82 54 83 80 84 81 85 89 86
REMARK SMILES IDX 82 87 83 88 87 89 90 90 84 91 85 92 88 93 86 94 65 95 66 96
REMARK SMILES IDX 74 97 67 98 68 99 72 100 75 101 69 102 70 103 73 104 71 105
REMARK H PARENT 4 17 13 27 95 58 63 69
REMARK Flexibility Score: inf
ROOT
ATOM      1  C   UNL A   1      40.411  20.289  26.053  1.00  0.00     0.188 C 
ENDROOT
BRANCH   1   2
ATOM      2  O   UNL A   1      39.190  19.734  25.500  1.00  0.00    -0.376 OA
BRANCH   2   3
ATOM      3  C   UNL A   1      38.075  20.497  24.995  1.00  0.00     0.202 C 
BRANCH   3   4
ATOM      4  C   UNL A   1      36.433  20.159  25.296  1.00  0.00     0.261 C 
BRANCH   4   5
ATOM      5  O   UNL A   1      35.016  20.683  24.550  1.00  0.00    -0.460 OA
BRANCH   5   6
ATOM      6  C   UNL A   1      34.416  21.940  24.235  1.00  0.00     0.338 C 
ATOM      7  O   UNL A   1      34.990  22.982  23.907  1.00  0.00    -0.246 OA
BRANCH   6   8
ATOM      8  C   UNL A   1      33.037  22.416  24.367  1.00  0.00     0.065 A 
ATOM      9  C   UNL A   1      33.590  23.578  26.512  1.00  0.00     0.047 C 
ATOM     10  C   UNL A   1      32.767  23.430  25.270  1.00  0.00    -0.013 A 
ATOM     11  C   UNL A   1      31.693  24.294  24.965  1.00  0.00     0.045 A 
ATOM     12  C   UNL A   1      30.997  24.244  23.743  1.00  0.00     0.026 A 
ATOM     13  C   UNL A   1      32.233  22.302  23.175  1.00  0.00     0.016 A 
ATOM     14  C   UNL A   1      31.255  23.231  22.843  1.00  0.00     0.003 A 
BRANCH  11  15
ATOM     15  N   UNL A   1      31.249  25.130  25.990  1.00  0.00    -0.322 N 
ATOM     16  C   UNL A   1      31.364  26.494  26.083  1.00  0.00     0.257 C 
ATOM     17  H   UNL A   1      30.796  24.683  26.742  1.00  0.00     0.170 HD
ATOM     18  O   UNL A   1      30.893  27.053  27.080  1.00  0.00    -0.269 OA
BRANCH  16  19
ATOM     19  C   UNL A   1      32.014  27.328  25.030  1.00  0.00     0.063 A 
ATOM     20  C   UNL A   1      33.396  27.489  25.239  1.00  0.00     0.016 A 
ATOM     21  C   UNL A   1      31.378  27.921  23.900  1.00  0.00     0.054 A 
ATOM     22  C   UNL A   1      34.176  28.178  24.323  1.00  0.00     0.001 A 
ATOM     23  C   UNL A   1      32.209  28.539  22.960  1.00  0.00     0.027 A 
ATOM     24  C   UNL A   1      33.586  28.678  23.173  1.00  0.00     0.002 A 
BRANCH  21  25
ATOM     25  N   UNL A   1      29.967  27.856  23.769  1.00  0.00    -0.323 N 
ATOM     26  C   UNL A   1      28.974  28.608  23.203  1.00  0.00     0.253 C 
ATOM     27  H   UNL A   1      29.604  27.051  24.202  1.00  0.00     0.170 HD
ATOM     28  O   UNL A   1      27.840  28.106  23.206  1.00  0.00    -0.272 OA
BRANCH  26  29
ATOM     29  C   UNL A   1      29.200  30.014  22.647  1.00  0.00     0.207 C 
ATOM     30  C   UNL A   1      28.172  30.951  23.267  1.00  0.00     0.044 C 
ATOM     31  O   UNL A   1      29.011  30.117  21.222  1.00  0.00    -0.368 OA
ATOM     32  C   UNL A   1      28.004  32.008  22.213  1.00  0.00     0.032 C 
ATOM     33  C   UNL A   1      28.105  31.193  20.944  1.00  0.00     0.161 C 
ENDBRANCH  26  29
ENDBRANCH  21  25
ENDBRANCH  16  19
ENDBRANCH  11  15
ENDBRANCH   6   8
ENDBRANCH   5   6
ENDBRANCH   4   5
ENDBRANCH   3   4
ENDBRANCH   2   3
ENDBRANCH   1   2
BRANCH   1  34
ATOM     34  C   UNL A   1      41.717  19.502  26.247  1.00  0.00     0.188 C 
BRANCH  34  35
ATOM     35  O   UNL A   1      42.524  19.558  25.086  1.00  0.00    -0.376 OA
BRANCH  35  36
ATOM     36  C   UNL A   1      43.776  18.888  25.162  1.00  0.00     0.202 C 
BRANCH  36  37
ATOM     37  C   UNL A   1      44.836  19.410  24.163  1.00  0.00     0.261 C 
BRANCH  37  38
ATOM     38  O   UNL A   1      44.735  20.844  23.972  1.00  0.00    -0.460 OA
BRANCH  38  39
ATOM     39  C   UNL A   1      45.429  21.665  24.835  1.00  0.00     0.338 C 
ATOM     40  O   UNL A   1      46.458  21.352  25.403  1.00  0.00    -0.246 OA
BRANCH  39  41
ATOM     41  C   UNL A   1      44.588  22.863  25.189  1.00  0.00     0.060 A 
ATOM     42  C   UNL A   1      44.721  24.182  24.725  1.00  0.00     0.016 A 
ATOM     43  C   UNL A   1      43.890  22.732  26.332  1.00  0.00     0.016 A 
ATOM     44  C   UNL A   1      44.308  25.333  25.535  1.00  0.00     0.010 A 
ATOM     45  C   UNL A   1      43.868  23.850  27.153  1.00  0.00     0.010 A 
ATOM     46  C   UNL A   1      43.930  25.215  26.873  1.00  0.00    -0.014 A 
BRANCH  46  47
ATOM     47  C   UNL A   1      43.678  26.381  28.005  1.00  0.00     0.031 A 
ATOM     48  C   UNL A   1      42.352  27.381  28.409  1.00  0.00     0.074 A 
ATOM     49  C   UNL A   1      44.795  26.686  28.700  1.00  0.00     0.049 A 
ATOM     50  N   UNL A   1      42.468  28.584  28.951  1.00  0.00    -0.248 NA
ATOM     51  C   UNL A   1      40.863  27.221  28.160  1.00  0.00     0.031 C 
ATOM     52  C   UNL A   1      44.943  27.579  29.844  1.00  0.00     0.029 A 
ATOM     53  N   UNL A   1      46.117  26.365  28.346  1.00  0.00    -0.354 N 
ATOM     54  C   UNL A   1      41.185  29.105  29.172  1.00  0.00     0.074 A 
ATOM     55  C   UNL A   1      40.294  28.387  28.376  1.00  0.00     0.031 C 
ATOM     56  C   UNL A   1      46.212  28.020  29.868  1.00  0.00     0.029 A 
ATOM     57  C   UNL A   1      46.869  27.501  28.681  1.00  0.00     0.049 A 
ATOM     58  H   UNL A   1      46.443  25.526  27.950  1.00  0.00     0.167 HD
ATOM     59  C   UNL A   1      40.858  30.029  30.109  1.00  0.00     0.037 A 
ATOM     60  C   UNL A   1      47.488  28.228  27.712  1.00  0.00     0.037 A 
ATOM     61  C   UNL A   1      42.041  30.781  30.407  1.00  0.00     0.049 A 
ATOM     62  C   UNL A   1      47.054  29.677  27.709  1.00  0.00     0.074 A 
ATOM     63  C   UNL A   1      43.003  30.689  31.388  1.00  0.00     0.029 A 
ATOM     64  N   UNL A   1      42.604  31.479  29.345  1.00  0.00    -0.354 N 
ATOM     65  N   UNL A   1      45.989  30.134  28.314  1.00  0.00    -0.248 NA
ATOM     66  C   UNL A   1      47.797  30.727  27.020  1.00  0.00     0.031 C 
ATOM     67  C   UNL A   1      44.218  31.170  30.814  1.00  0.00     0.029 A 
ATOM     68  C   UNL A   1      43.963  31.629  29.528  1.00  0.00     0.049 A 
ATOM     69  H   UNL A   1      42.102  31.820  28.570  1.00  0.00     0.167 HD
ATOM     70  C   UNL A   1      45.856  31.473  28.058  1.00  0.00     0.074 A 
ATOM     71  C   UNL A   1      47.036  31.802  27.280  1.00  0.00     0.031 C 
ATOM     72  C   UNL A   1      44.774  32.204  28.460  1.00  0.00     0.037 A 
BRANCH  59  73
ATOM     73  C   UNL A   1      39.465  30.168  30.743  1.00  0.00     0.064 A 
ATOM     74  C   UNL A   1      38.640  31.258  30.409  1.00  0.00     0.173 A 
ATOM     75  C   UNL A   1      38.926  29.346  31.777  1.00  0.00     0.173 A 
ATOM     76  F   UNL A   1      39.039  32.163  29.504  1.00  0.00    -0.203 F 
ATOM     77  C   UNL A   1      37.391  31.481  31.021  1.00  0.00     0.198 A 
ATOM     78  C   UNL A   1      37.650  29.523  32.326  1.00  0.00     0.198 A 
ATOM     79  F   UNL A   1      39.628  28.379  32.379  1.00  0.00    -0.203 F 
ATOM     80  F   UNL A   1      36.683  32.575  30.710  1.00  0.00    -0.200 F 
ATOM     81  C   UNL A   1      36.885  30.601  31.959  1.00  0.00     0.200 A 
ATOM     82  F   UNL A   1      37.195  28.657  33.246  1.00  0.00    -0.200 F 
ATOM     83  F   UNL A   1      35.692  30.810  32.535  1.00  0.00    -0.200 F 
ENDBRANCH  59  73
BRANCH  60  84
ATOM     84  C   UNL A   1      47.966  27.414  26.546  1.00  0.00     0.064 A 
ATOM     85  C   UNL A   1      47.304  27.584  25.305  1.00  0.00     0.173 A 
ATOM     86  C   UNL A   1      49.184  26.724  26.513  1.00  0.00     0.173 A 
ATOM     87  F   UNL A   1      46.121  28.219  25.259  1.00  0.00    -0.203 F 
ATOM     88  C   UNL A   1      47.885  27.210  24.094  1.00  0.00     0.198 A 
ATOM     89  C   UNL A   1      49.752  26.318  25.293  1.00  0.00     0.198 A 
ATOM     90  F   UNL A   1      49.899  26.552  27.633  1.00  0.00    -0.203 F 
ATOM     91  F   UNL A   1      47.279  27.518  22.938  1.00  0.00    -0.200 F 
ATOM     92  C   UNL A   1      49.118  26.590  24.088  1.00  0.00     0.200 A 
ATOM     93  F   UNL A   1      50.979  25.777  25.275  1.00  0.00    -0.200 F 
ATOM     94  F   UNL A   1      49.726  26.315  22.923  1.00  0.00    -0.200 F 
ENDBRANCH  60  84
BRANCH  72  95
ATOM     95  C   UNL A   1      44.391  33.547  27.871  1.00  0.00     0.064 A 
ATOM     96  C   UNL A   1      43.876  33.711  26.571  1.00  0.00     0.173 A 
ATOM     97  C   UNL A   1      44.374  34.712  28.676  1.00  0.00     0.173 A 
ATOM     98  F   UNL A   1      43.696  32.667  25.751  1.00  0.00    -0.203 F 
ATOM     99  C   UNL A   1      43.463  34.953  26.086  1.00  0.00     0.198 A 
ATOM    100  C   UNL A   1      43.882  35.934  28.214  1.00  0.00     0.198 A 
ATOM    101  F   UNL A   1      44.799  34.691  29.948  1.00  0.00    -0.203 F 
ATOM    102  F   UNL A   1      43.043  35.062  24.817  1.00  0.00    -0.200 F 
ATOM    103  C   UNL A   1      43.451  36.061  26.910  1.00  0.00     0.200 A 
ATOM    104  F   UNL A   1      43.806  36.980  29.049  1.00  0.00    -0.200 F 
ATOM    105  F   UNL A   1      43.002  37.238  26.456  1.00  0.00    -0.200 F 
ENDBRANCH  72  95
ENDBRANCH  46  47
ENDBRANCH  39  41
ENDBRANCH  38  39
ENDBRANCH  37  38
ENDBRANCH  36  37
ENDBRANCH  35  36
ENDBRANCH  34  35
ENDBRANCH   1  34
TORSDOF 21
ENDMDL
