MODEL 1
REMARK VINA RESULT:     -11.3      0.000      0.000
REMARK SMILES Cc1cccc(-n2nc(Br)c(C(=O)OCCOCCOCCOC(=O)c3ccc(-c4c5nc(c(-c6c(F)c(F)c(F)c(F)c6F)c6ccc([nH]6)c(-c6c(F)c(F)c(F)c(F)c6F)c6nc(c(-c7c(F)c(F)c(F)c(F)c7F)c7ccc4[nH]7)C=C6)C=C5)cc3)n2)c1
REMARK SMILES IDX 19 1 18 2 17 3 16 4 15 5 14 6 12 7 13 8 11 9 7 10 8 11 89 12
REMARK SMILES IDX 9 13 10 14 6 15 1 16 2 17 3 18 90 19 4 20 5 21 20 22 21 23
REMARK SMILES IDX 22 24 23 25 24 26 25 27 26 28 27 29 88 30 28 31 87 32 29 33
REMARK SMILES IDX 30 34 31 35 81 36 32 37 86 38 80 39 82 40 33 41 85 42 79 43
REMARK SMILES IDX 78 44 34 46 66 47 46 48 65 49 47 50 50 51 64 52 83 53 48 54
REMARK SMILES IDX 49 55 63 57 84 58 51 59 35 60 36 61 44 62 37 63 38 64 42 65
REMARK SMILES IDX 45 66 39 67 40 68 43 69 41 70 67 71 68 72 76 73 69 74 70 75
REMARK SMILES IDX 74 76 77 77 71 78 72 79 75 80 73 81 52 82 53 83 61 84 54 85
REMARK SMILES IDX 55 86 59 87 62 88 56 89 57 90 60 91 58 92
REMARK H PARENT 82 45 50 56
REMARK Flexibility Score: inf
ROOT
ATOM      1  C   UNL A   1      34.642  32.401  29.376  1.00  0.00     0.188 C 
ENDROOT
BRANCH   1   2
ATOM      2  C   UNL A   1      34.657  31.744  28.003  1.00  0.00     0.188 C 
BRANCH   2   3
ATOM      3  O   UNL A   1      33.438  31.117  27.615  1.00  0.00    -0.376 OA
BRANCH   3   4
ATOM      4  C   UNL A   1      33.544  29.985  26.750  1.00  0.00     0.202 C 
BRANCH   4   5
ATOM      5  C   UNL A   1      32.411  29.916  25.669  1.00  0.00     0.261 C 
BRANCH   5   6
ATOM      6  O   UNL A   1      31.519  28.745  25.747  1.00  0.00    -0.458 OA
BRANCH   6   7
ATOM      7  C   UNL A   1      31.767  27.446  26.192  1.00  0.00     0.361 C 
ATOM      8  O   UNL A   1      31.247  27.065  27.246  1.00  0.00    -0.244 OA
BRANCH   7   9
ATOM      9  C   UNL A   1      32.697  26.459  25.290  1.00  0.00     0.205 A 
ATOM     10  N   UNL A   1      34.232  25.011  25.147  1.00  0.00    -0.150 N 
ATOM     11  N   UNL A   1      34.254  25.487  23.921  1.00  0.00    -0.140 NA
ATOM     12  N   UNL A   1      33.438  25.611  26.040  1.00  0.00    -0.140 NA
ATOM     13  C   UNL A   1      33.054  26.057  23.881  1.00  0.00     0.163 A 
ATOM     14  Br  UNL A   1      32.420  25.960  22.083  1.00  0.00    -0.024 Br
BRANCH  10  15
ATOM     15  C   UNL A   1      34.708  23.723  25.315  1.00  0.00     0.086 A 
ATOM     16  C   UNL A   1      38.035  21.991  25.545  1.00  0.00     0.044 C 
ATOM     17  C   UNL A   1      36.559  22.232  25.521  1.00  0.00    -0.049 A 
ATOM     18  C   UNL A   1      35.633  21.178  25.599  1.00  0.00     0.003 A 
ATOM     19  C   UNL A   1      36.086  23.523  25.352  1.00  0.00     0.033 A 
ATOM     20  C   UNL A   1      34.254  21.419  25.638  1.00  0.00     0.003 A 
ATOM     21  C   UNL A   1      33.781  22.713  25.548  1.00  0.00     0.030 A 
ENDBRANCH  10  15
ENDBRANCH   7   9
ENDBRANCH   6   7
ENDBRANCH   5   6
ENDBRANCH   4   5
ENDBRANCH   3   4
ENDBRANCH   2   3
ENDBRANCH   1   2
BRANCH   1  22
ATOM     22  O   UNL A   1      35.303  33.657  29.393  1.00  0.00    -0.376 OA
BRANCH  22  23
ATOM     23  C   UNL A   1      34.507  34.737  28.920  1.00  0.00     0.202 C 
BRANCH  23  24
ATOM     24  C   UNL A   1      33.189  34.941  29.694  1.00  0.00     0.261 C 
BRANCH  24  25
ATOM     25  O   UNL A   1      33.433  35.662  30.924  1.00  0.00    -0.460 OA
BRANCH  25  26
ATOM     26  C   UNL A   1      33.073  35.081  32.118  1.00  0.00     0.338 C 
ATOM     27  O   UNL A   1      31.967  35.144  32.622  1.00  0.00    -0.246 OA
BRANCH  26  28
ATOM     28  C   UNL A   1      34.333  34.683  32.852  1.00  0.00     0.060 A 
ATOM     29  C   UNL A   1      35.566  35.329  32.702  1.00  0.00     0.016 A 
ATOM     30  C   UNL A   1      34.395  33.388  33.240  1.00  0.00     0.016 A 
ATOM     31  C   UNL A   1      36.812  34.583  32.681  1.00  0.00     0.010 A 
ATOM     32  C   UNL A   1      35.550  32.713  32.838  1.00  0.00     0.010 A 
ATOM     33  C   UNL A   1      36.866  33.182  32.608  1.00  0.00    -0.014 A 
BRANCH  33  34
ATOM     34  C   UNL A   1      38.247  32.316  32.181  1.00  0.00     0.031 A 
ATOM     35  C   UNL A   1      38.570  30.849  31.424  1.00  0.00     0.074 A 
ATOM     36  C   UNL A   1      39.419  32.847  32.573  1.00  0.00     0.049 A 
ATOM     37  N   UNL A   1      39.343  29.877  31.895  1.00  0.00    -0.248 NA
ATOM     38  C   UNL A   1      37.992  30.285  30.173  1.00  0.00     0.031 C 
ATOM     39  C   UNL A   1      40.749  32.496  32.096  1.00  0.00     0.029 A 
ATOM     40  N   UNL A   1      39.639  33.899  33.461  1.00  0.00    -0.354 N 
ATOM     41  C   UNL A   1      39.287  28.841  30.929  1.00  0.00     0.074 A 
ATOM     42  C   UNL A   1      37.999  28.976  30.380  1.00  0.00     0.031 C 
ATOM     43  C   UNL A   1      41.654  33.128  32.856  1.00  0.00     0.029 A 
ATOM     44  C   UNL A   1      40.942  33.758  33.949  1.00  0.00     0.049 A 
ATOM     45  H   UNL A   1      38.999  34.607  33.699  1.00  0.00     0.167 HD
ATOM     46  C   UNL A   1      40.380  28.311  30.271  1.00  0.00     0.037 A 
ATOM     47  C   UNL A   1      41.148  33.564  35.283  1.00  0.00     0.037 A 
ATOM     48  C   UNL A   1      41.565  28.720  30.989  1.00  0.00     0.049 A 
ATOM     49  C   UNL A   1      41.771  32.217  35.566  1.00  0.00     0.074 A 
ATOM     50  C   UNL A   1      42.582  29.620  30.744  1.00  0.00     0.029 A 
ATOM     51  N   UNL A   1      41.625  28.399  32.329  1.00  0.00    -0.354 N 
ATOM     52  N   UNL A   1      41.985  31.326  34.634  1.00  0.00    -0.248 NA
ATOM     53  C   UNL A   1      42.204  31.740  36.875  1.00  0.00     0.031 C 
ATOM     54  C   UNL A   1      43.166  29.944  32.004  1.00  0.00     0.029 A 
ATOM     55  C   UNL A   1      42.534  29.197  32.984  1.00  0.00     0.049 A 
ATOM     56  H   UNL A   1      41.089  27.694  32.759  1.00  0.00     0.167 HD
ATOM     57  C   UNL A   1      42.475  30.178  35.176  1.00  0.00     0.074 A 
ATOM     58  C   UNL A   1      42.640  30.500  36.580  1.00  0.00     0.031 C 
ATOM     59  C   UNL A   1      42.644  29.050  34.428  1.00  0.00     0.037 A 
BRANCH  46  60
ATOM     60  C   UNL A   1      40.438  27.653  28.838  1.00  0.00     0.064 A 
ATOM     61  C   UNL A   1      39.828  26.389  28.622  1.00  0.00     0.173 A 
ATOM     62  C   UNL A   1      41.089  28.129  27.663  1.00  0.00     0.173 A 
ATOM     63  F   UNL A   1      39.121  25.790  29.589  1.00  0.00    -0.203 F 
ATOM     64  C   UNL A   1      39.908  25.675  27.406  1.00  0.00     0.198 A 
ATOM     65  C   UNL A   1      41.166  27.419  26.450  1.00  0.00     0.198 A 
ATOM     66  F   UNL A   1      41.695  29.309  27.577  1.00  0.00    -0.203 F 
ATOM     67  F   UNL A   1      39.325  24.472  27.299  1.00  0.00    -0.200 F 
ATOM     68  C   UNL A   1      40.584  26.187  26.321  1.00  0.00     0.200 A 
ATOM     69  F   UNL A   1      41.823  27.959  25.411  1.00  0.00    -0.200 F 
ATOM     70  F   UNL A   1      40.666  25.512  25.167  1.00  0.00    -0.200 F 
ENDBRANCH  46  60
BRANCH  47  71
ATOM     71  C   UNL A   1      40.220  34.396  36.112  1.00  0.00     0.064 A 
ATOM     72  C   UNL A   1      39.187  33.687  36.776  1.00  0.00     0.173 A 
ATOM     73  C   UNL A   1      40.540  35.660  36.620  1.00  0.00     0.173 A 
ATOM     74  F   UNL A   1      38.828  32.470  36.336  1.00  0.00    -0.203 F 
ATOM     75  C   UNL A   1      38.637  34.133  37.975  1.00  0.00     0.198 A 
ATOM     76  C   UNL A   1      39.945  36.129  37.804  1.00  0.00     0.198 A 
ATOM     77  F   UNL A   1      41.532  36.379  36.077  1.00  0.00    -0.203 F 
ATOM     78  F   UNL A   1      37.808  33.337  38.667  1.00  0.00    -0.200 F 
ATOM     79  C   UNL A   1      39.034  35.345  38.502  1.00  0.00     0.200 A 
ATOM     80  F   UNL A   1      40.368  37.276  38.358  1.00  0.00    -0.200 F 
ATOM     81  F   UNL A   1      38.604  35.719  39.717  1.00  0.00    -0.200 F 
ENDBRANCH  47  71
BRANCH  59  82
ATOM     82  C   UNL A   1      42.851  27.661  34.978  1.00  0.00     0.064 A 
ATOM     83  C   UNL A   1      41.964  27.048  35.874  1.00  0.00     0.173 A 
ATOM     84  C   UNL A   1      43.846  26.821  34.419  1.00  0.00     0.173 A 
ATOM     85  F   UNL A   1      40.909  27.706  36.373  1.00  0.00    -0.203 F 
ATOM     86  C   UNL A   1      42.096  25.704  36.228  1.00  0.00     0.198 A 
ATOM     87  C   UNL A   1      43.921  25.463  34.713  1.00  0.00     0.198 A 
ATOM     88  F   UNL A   1      44.734  27.289  33.527  1.00  0.00    -0.203 F 
ATOM     89  F   UNL A   1      41.251  25.172  37.122  1.00  0.00    -0.200 F 
ATOM     90  C   UNL A   1      43.059  24.909  35.634  1.00  0.00     0.200 A 
ATOM     91  F   UNL A   1      44.809  24.690  34.071  1.00  0.00    -0.200 F 
ATOM     92  F   UNL A   1      43.138  23.605  35.932  1.00  0.00    -0.200 F 
ENDBRANCH  59  82
ENDBRANCH  33  34
ENDBRANCH  26  28
ENDBRANCH  25  26
ENDBRANCH  24  25
ENDBRANCH  23  24
ENDBRANCH  22  23
ENDBRANCH   1  22
TORSDOF 18
ENDMDL
MODEL 2
REMARK VINA RESULT:     -11.2      3.296      5.209
REMARK SMILES Cc1cccc(-n2nc(Br)c(C(=O)OCCOCCOCCOC(=O)c3ccc(-c4c5nc(c(-c6c(F)c(F)c(F)c(F)c6F)c6ccc([nH]6)c(-c6c(F)c(F)c(F)c(F)c6F)c6nc(c(-c7c(F)c(F)c(F)c(F)c7F)c7ccc4[nH]7)C=C6)C=C5)cc3)n2)c1
REMARK SMILES IDX 19 1 18 2 17 3 16 4 15 5 14 6 12 7 13 8 11 9 7 10 8 11 89 12
REMARK SMILES IDX 9 13 10 14 6 15 1 16 2 17 3 18 90 19 4 20 5 21 20 22 21 23
REMARK SMILES IDX 22 24 23 25 24 26 25 27 26 28 27 29 88 30 28 31 87 32 29 33
REMARK SMILES IDX 30 34 31 35 81 36 32 37 86 38 80 39 82 40 33 41 85 42 79 43
REMARK SMILES IDX 78 44 34 46 66 47 46 48 65 49 47 50 50 51 64 52 83 53 48 54
REMARK SMILES IDX 49 55 63 57 84 58 51 59 35 60 36 61 44 62 37 63 38 64 42 65
REMARK SMILES IDX 45 66 39 67 40 68 43 69 41 70 67 71 68 72 76 73 69 74 70 75
REMARK SMILES IDX 74 76 77 77 71 78 72 79 75 80 73 81 52 82 53 83 61 84 54 85
REMARK SMILES IDX 55 86 59 87 62 88 56 89 57 90 60 91 58 92
REMARK H PARENT 82 45 50 56
REMARK Flexibility Score: inf
ROOT
ATOM      1  C   UNL A   1      32.829  28.698  25.395  1.00  0.00     0.188 C 
ENDROOT
BRANCH   1   2
ATOM      2  C   UNL A   1      32.009  27.957  24.348  1.00  0.00     0.188 C 
BRANCH   2   3
ATOM      3  O   UNL A   1      32.159  26.540  24.348  1.00  0.00    -0.376 OA
BRANCH   3   4
ATOM      4  C   UNL A   1      31.185  25.791  25.076  1.00  0.00     0.202 C 
BRANCH   4   5
ATOM      5  C   UNL A   1      31.591  25.517  26.565  1.00  0.00     0.261 C 
BRANCH   5   6
ATOM      6  O   UNL A   1      31.270  24.175  27.083  1.00  0.00    -0.458 OA
BRANCH   6   7
ATOM      7  C   UNL A   1      30.956  22.996  26.406  1.00  0.00     0.361 C 
ATOM      8  O   UNL A   1      29.806  22.551  26.481  1.00  0.00    -0.244 OA
BRANCH   7   9
ATOM      9  C   UNL A   1      32.099  22.264  25.505  1.00  0.00     0.205 A 
ATOM     10  N   UNL A   1      33.193  20.531  24.985  1.00  0.00    -0.150 N 
ATOM     11  N   UNL A   1      34.019  21.458  24.552  1.00  0.00    -0.140 NA
ATOM     12  N   UNL A   1      32.109  20.921  25.665  1.00  0.00    -0.140 NA
ATOM     13  C   UNL A   1      33.180  22.486  24.477  1.00  0.00     0.163 A 
ATOM     14  Br  UNL A   1      33.762  23.614  23.051  1.00  0.00    -0.024 Br
BRANCH  10  15
ATOM     15  C   UNL A   1      33.291  19.290  24.380  1.00  0.00     0.086 A 
ATOM     16  C   UNL A   1      35.083  16.040  24.965  1.00  0.00     0.044 C 
ATOM     17  C   UNL A   1      34.199  17.085  24.361  1.00  0.00    -0.049 A 
ATOM     18  C   UNL A   1      33.510  16.868  23.156  1.00  0.00     0.003 A 
ATOM     19  C   UNL A   1      34.105  18.326  24.969  1.00  0.00     0.033 A 
ATOM     20  C   UNL A   1      32.638  17.829  22.631  1.00  0.00     0.003 A 
ATOM     21  C   UNL A   1      32.482  19.039  23.278  1.00  0.00     0.030 A 
ENDBRANCH  10  15
ENDBRANCH   7   9
ENDBRANCH   6   7
ENDBRANCH   5   6
ENDBRANCH   4   5
ENDBRANCH   3   4
ENDBRANCH   2   3
ENDBRANCH   1   2
BRANCH   1  22
ATOM     22  O   UNL A   1      32.072  29.048  26.542  1.00  0.00    -0.376 OA
BRANCH  22  23
ATOM     23  C   UNL A   1      32.252  30.393  26.967  1.00  0.00     0.202 C 
BRANCH  23  24
ATOM     24  C   UNL A   1      33.726  30.840  27.055  1.00  0.00     0.261 C 
BRANCH  24  25
ATOM     25  O   UNL A   1      34.032  31.311  28.387  1.00  0.00    -0.460 OA
BRANCH  25  26
ATOM     26  C   UNL A   1      35.344  31.552  28.722  1.00  0.00     0.338 C 
ATOM     27  O   UNL A   1      35.864  32.652  28.771  1.00  0.00    -0.246 OA
BRANCH  26  28
ATOM     28  C   UNL A   1      36.100  30.245  28.658  1.00  0.00     0.060 A 
ATOM     29  C   UNL A   1      36.554  29.545  29.782  1.00  0.00     0.016 A 
ATOM     30  C   UNL A   1      36.794  30.031  27.516  1.00  0.00     0.016 A 
ATOM     31  C   UNL A   1      37.841  28.872  29.785  1.00  0.00     0.010 A 
ATOM     32  C   UNL A   1      38.139  29.706  27.704  1.00  0.00     0.010 A 
ATOM     33  C   UNL A   1      38.793  29.035  28.766  1.00  0.00    -0.014 A 
BRANCH  33  34
ATOM     34  C   UNL A   1      40.416  28.611  28.920  1.00  0.00     0.031 A 
ATOM     35  C   UNL A   1      41.357  27.268  28.545  1.00  0.00     0.074 A 
ATOM     36  C   UNL A   1      41.200  29.502  29.552  1.00  0.00     0.049 A 
ATOM     37  N   UNL A   1      42.160  26.615  29.379  1.00  0.00    -0.248 NA
ATOM     38  C   UNL A   1      41.406  26.470  27.290  1.00  0.00     0.031 C 
ATOM     39  C   UNL A   1      42.655  29.548  29.560  1.00  0.00     0.029 A 
ATOM     40  N   UNL A   1      40.818  30.628  30.281  1.00  0.00    -0.354 N 
ATOM     41  C   UNL A   1      42.713  25.550  28.624  1.00  0.00     0.074 A 
ATOM     42  C   UNL A   1      41.697  25.245  27.700  1.00  0.00     0.031 C 
ATOM     43  C   UNL A   1      43.048  30.478  30.442  1.00  0.00     0.029 A 
ATOM     44  C   UNL A   1      41.869  30.929  31.153  1.00  0.00     0.049 A 
ATOM     45  H   UNL A   1      39.969  31.118  30.197  1.00  0.00     0.167 HD
ATOM     46  C   UNL A   1      44.062  25.341  28.419  1.00  0.00     0.037 A 
ATOM     47  C   UNL A   1      41.661  30.898  32.500  1.00  0.00     0.037 A 
ATOM     48  C   UNL A   1      44.781  26.142  29.382  1.00  0.00     0.049 A 
ATOM     49  C   UNL A   1      42.493  29.831  33.173  1.00  0.00     0.074 A 
ATOM     50  C   UNL A   1      45.540  27.294  29.309  1.00  0.00     0.029 A 
ATOM     51  N   UNL A   1      44.474  25.947  30.712  1.00  0.00    -0.354 N 
ATOM     52  N   UNL A   1      43.238  28.990  32.507  1.00  0.00    -0.248 NA
ATOM     53  C   UNL A   1      42.574  29.600  34.611  1.00  0.00     0.031 C 
ATOM     54  C   UNL A   1      45.557  27.866  30.616  1.00  0.00     0.029 A 
ATOM     55  C   UNL A   1      44.860  27.028  31.470  1.00  0.00     0.049 A 
ATOM     56  H   UNL A   1      44.037  25.141  31.072  1.00  0.00     0.167 HD
ATOM     57  C   UNL A   1      43.809  28.088  33.352  1.00  0.00     0.074 A 
ATOM     58  C   UNL A   1      43.402  28.538  34.667  1.00  0.00     0.031 C 
ATOM     59  C   UNL A   1      44.516  27.019  32.884  1.00  0.00     0.037 A 
BRANCH  46  60
ATOM     60  C   UNL A   1      44.771  24.638  27.198  1.00  0.00     0.064 A 
ATOM     61  C   UNL A   1      44.579  23.247  26.980  1.00  0.00     0.173 A 
ATOM     62  C   UNL A   1      45.673  25.198  26.247  1.00  0.00     0.173 A 
ATOM     63  F   UNL A   1      43.727  22.543  27.736  1.00  0.00    -0.203 F 
ATOM     64  C   UNL A   1      45.244  22.510  25.976  1.00  0.00     0.198 A 
ATOM     65  C   UNL A   1      46.333  24.463  25.244  1.00  0.00     0.198 A 
ATOM     66  F   UNL A   1      45.989  26.488  26.194  1.00  0.00    -0.203 F 
ATOM     67  F   UNL A   1      45.023  21.192  25.860  1.00  0.00    -0.200 F 
ATOM     68  C   UNL A   1      46.127  23.116  25.112  1.00  0.00     0.200 A 
ATOM     69  F   UNL A   1      47.177  25.094  24.412  1.00  0.00    -0.200 F 
ATOM     70  F   UNL A   1      46.764  22.420  24.160  1.00  0.00    -0.200 F 
ENDBRANCH  46  60
BRANCH  47  71
ATOM     71  C   UNL A   1      40.321  31.457  32.865  1.00  0.00     0.064 A 
ATOM     72  C   UNL A   1      40.123  32.827  32.562  1.00  0.00     0.173 A 
ATOM     73  C   UNL A   1      39.170  30.680  33.045  1.00  0.00     0.173 A 
ATOM     74  F   UNL A   1      41.186  33.628  32.383  1.00  0.00    -0.203 F 
ATOM     75  C   UNL A   1      38.862  33.346  32.278  1.00  0.00     0.198 A 
ATOM     76  C   UNL A   1      37.895  31.222  32.806  1.00  0.00     0.198 A 
ATOM     77  F   UNL A   1      39.269  29.367  33.293  1.00  0.00    -0.203 F 
ATOM     78  F   UNL A   1      38.745  34.597  31.806  1.00  0.00    -0.200 F 
ATOM     79  C   UNL A   1      37.749  32.537  32.378  1.00  0.00     0.200 A 
ATOM     80  F   UNL A   1      36.813  30.429  32.839  1.00  0.00    -0.200 F 
ATOM     81  F   UNL A   1      36.551  32.995  31.984  1.00  0.00    -0.200 F 
ENDBRANCH  47  71
BRANCH  59  82
ATOM     82  C   UNL A   1      44.894  25.802  33.690  1.00  0.00     0.064 A 
ATOM     83  C   UNL A   1      43.952  24.946  34.278  1.00  0.00     0.173 A 
ATOM     84  C   UNL A   1      46.234  25.342  33.689  1.00  0.00     0.173 A 
ATOM     85  F   UNL A   1      42.641  25.213  34.232  1.00  0.00    -0.203 F 
ATOM     86  C   UNL A   1      44.331  23.740  34.870  1.00  0.00     0.198 A 
ATOM     87  C   UNL A   1      46.593  24.102  34.207  1.00  0.00     0.198 A 
ATOM     88  F   UNL A   1      47.219  26.063  33.129  1.00  0.00    -0.203 F 
ATOM     89  F   UNL A   1      43.402  22.974  35.458  1.00  0.00    -0.200 F 
ATOM     90  C   UNL A   1      45.644  23.309  34.817  1.00  0.00     0.200 A 
ATOM     91  F   UNL A   1      47.854  23.665  34.079  1.00  0.00    -0.200 F 
ATOM     92  F   UNL A   1      45.989  22.121  35.331  1.00  0.00    -0.200 F 
ENDBRANCH  59  82
ENDBRANCH  33  34
ENDBRANCH  26  28
ENDBRANCH  25  26
ENDBRANCH  24  25
ENDBRANCH  23  24
ENDBRANCH  22  23
ENDBRANCH   1  22
TORSDOF 18
ENDMDL
MODEL 3
REMARK VINA RESULT:     -11.2      2.292      3.441
REMARK SMILES Cc1cccc(-n2nc(Br)c(C(=O)OCCOCCOCCOC(=O)c3ccc(-c4c5nc(c(-c6c(F)c(F)c(F)c(F)c6F)c6ccc([nH]6)c(-c6c(F)c(F)c(F)c(F)c6F)c6nc(c(-c7c(F)c(F)c(F)c(F)c7F)c7ccc4[nH]7)C=C6)C=C5)cc3)n2)c1
REMARK SMILES IDX 19 1 18 2 17 3 16 4 15 5 14 6 12 7 13 8 11 9 7 10 8 11 89 12
REMARK SMILES IDX 9 13 10 14 6 15 1 16 2 17 3 18 90 19 4 20 5 21 20 22 21 23
REMARK SMILES IDX 22 24 23 25 24 26 25 27 26 28 27 29 88 30 28 31 87 32 29 33
REMARK SMILES IDX 30 34 31 35 81 36 32 37 86 38 80 39 82 40 33 41 85 42 79 43
REMARK SMILES IDX 78 44 34 46 66 47 46 48 65 49 47 50 50 51 64 52 83 53 48 54
REMARK SMILES IDX 49 55 63 57 84 58 51 59 35 60 36 61 44 62 37 63 38 64 42 65
REMARK SMILES IDX 45 66 39 67 40 68 43 69 41 70 67 71 68 72 76 73 69 74 70 75
REMARK SMILES IDX 74 76 77 77 71 78 72 79 75 80 73 81 52 82 53 83 61 84 54 85
REMARK SMILES IDX 55 86 59 87 62 88 56 89 57 90 60 91 58 92
REMARK H PARENT 82 45 50 56
REMARK Flexibility Score: inf
ROOT
ATOM      1  C   UNL A   1      32.284  28.857  24.992  1.00  0.00     0.188 C 
ENDROOT
BRANCH   1   2
ATOM      2  C   UNL A   1      31.675  27.910  23.968  1.00  0.00     0.188 C 
BRANCH   2   3
ATOM      3  O   UNL A   1      30.254  27.940  23.880  1.00  0.00    -0.376 OA
BRANCH   3   4
ATOM      4  C   UNL A   1      29.573  26.695  24.044  1.00  0.00     0.202 C 
BRANCH   4   5
ATOM      5  C   UNL A   1      29.856  26.004  25.423  1.00  0.00     0.261 C 
BRANCH   5   6
ATOM      6  O   UNL A   1      30.390  24.632  25.356  1.00  0.00    -0.458 OA
BRANCH   6   7
ATOM      7  C   UNL A   1      31.445  24.037  26.050  1.00  0.00     0.361 C 
ATOM      8  O   UNL A   1      31.428  24.044  27.285  1.00  0.00    -0.244 OA
BRANCH   7   9
ATOM      9  C   UNL A   1      32.642  23.316  25.214  1.00  0.00     0.205 A 
ATOM     10  N   UNL A   1      34.698  23.113  24.762  1.00  0.00    -0.150 N 
ATOM     11  N   UNL A   1      34.174  22.597  23.671  1.00  0.00    -0.140 NA
ATOM     12  N   UNL A   1      33.872  23.669  25.655  1.00  0.00    -0.140 NA
ATOM     13  C   UNL A   1      32.952  22.328  24.117  1.00  0.00     0.163 A 
ATOM     14  Br  UNL A   1      32.315  20.788  23.186  1.00  0.00    -0.024 Br
BRANCH  10  15
ATOM     15  C   UNL A   1      35.979  22.701  25.083  1.00  0.00     0.086 A 
ATOM     16  C   UNL A   1      39.064  24.159  26.656  1.00  0.00     0.044 C 
ATOM     17  C   UNL A   1      38.119  23.193  26.016  1.00  0.00    -0.049 A 
ATOM     18  C   UNL A   1      38.511  21.890  25.668  1.00  0.00     0.003 A 
ATOM     19  C   UNL A   1      36.838  23.610  25.695  1.00  0.00     0.033 A 
ATOM     20  C   UNL A   1      37.603  20.973  25.124  1.00  0.00     0.003 A 
ATOM     21  C   UNL A   1      36.302  21.364  24.876  1.00  0.00     0.030 A 
ENDBRANCH  10  15
ENDBRANCH   7   9
ENDBRANCH   6   7
ENDBRANCH   5   6
ENDBRANCH   4   5
ENDBRANCH   3   4
ENDBRANCH   2   3
ENDBRANCH   1   2
BRANCH   1  22
ATOM     22  O   UNL A   1      31.727  28.699  26.288  1.00  0.00    -0.376 OA
BRANCH  22  23
ATOM     23  C   UNL A   1      32.350  29.496  27.287  1.00  0.00     0.202 C 
BRANCH  23  24
ATOM     24  C   UNL A   1      33.304  30.576  26.735  1.00  0.00     0.261 C 
BRANCH  24  25
ATOM     25  O   UNL A   1      34.275  30.952  27.738  1.00  0.00    -0.460 OA
BRANCH  25  26
ATOM     26  C   UNL A   1      34.241  32.229  28.251  1.00  0.00     0.338 C 
ATOM     27  O   UNL A   1      33.506  33.120  27.865  1.00  0.00    -0.246 OA
BRANCH  26  28
ATOM     28  C   UNL A   1      35.481  32.437  29.089  1.00  0.00     0.060 A 
ATOM     29  C   UNL A   1      36.634  33.088  28.637  1.00  0.00     0.016 A 
ATOM     30  C   UNL A   1      35.670  31.536  30.081  1.00  0.00     0.016 A 
ATOM     31  C   UNL A   1      37.960  32.620  29.001  1.00  0.00     0.010 A 
ATOM     32  C   UNL A   1      36.925  30.923  30.081  1.00  0.00     0.010 A 
ATOM     33  C   UNL A   1      38.189  31.396  29.648  1.00  0.00    -0.014 A 
BRANCH  33  34
ATOM     34  C   UNL A   1      39.692  30.640  29.725  1.00  0.00     0.031 A 
ATOM     35  C   UNL A   1      40.334  29.167  29.225  1.00  0.00     0.074 A 
ATOM     36  C   UNL A   1      40.650  31.302  30.398  1.00  0.00     0.049 A 
ATOM     37  N   UNL A   1      40.997  28.302  29.985  1.00  0.00    -0.248 NA
ATOM     38  C   UNL A   1      40.202  28.477  27.913  1.00  0.00     0.031 C 
ATOM     39  C   UNL A   1      42.084  31.050  30.368  1.00  0.00     0.029 A 
ATOM     40  N   UNL A   1      40.516  32.421  31.218  1.00  0.00    -0.354 N 
ATOM     41  C   UNL A   1      41.310  27.209  29.138  1.00  0.00     0.074 A 
ATOM     42  C   UNL A   1      40.241  27.189  28.223  1.00  0.00     0.031 C 
ATOM     43  C   UNL A   1      42.670  31.809  31.304  1.00  0.00     0.029 A 
ATOM     44  C   UNL A   1      41.617  32.434  32.080  1.00  0.00     0.049 A 
ATOM     45  H   UNL A   1      39.784  33.078  31.196  1.00  0.00     0.167 HD
ATOM     46  C   UNL A   1      42.585  26.747  28.880  1.00  0.00     0.037 A 
ATOM     47  C   UNL A   1      41.425  32.340  33.427  1.00  0.00     0.037 A 
ATOM     48  C   UNL A   1      43.466  27.308  29.878  1.00  0.00     0.049 A 
ATOM     49  C   UNL A   1      42.029  31.077  33.995  1.00  0.00     0.074 A 
ATOM     50  C   UNL A   1      44.442  28.284  29.868  1.00  0.00     0.029 A 
ATOM     51  N   UNL A   1      43.142  27.075  31.198  1.00  0.00    -0.354 N 
ATOM     52  N   UNL A   1      42.578  30.157  33.248  1.00  0.00    -0.248 NA
ATOM     53  C   UNL A   1      42.080  30.722  35.409  1.00  0.00     0.031 C 
ATOM     54  C   UNL A   1      44.594  28.737  31.213  1.00  0.00     0.029 A 
ATOM     55  C   UNL A   1      43.751  27.993  32.022  1.00  0.00     0.049 A 
ATOM     56  H   UNL A   1      42.554  26.350  31.510  1.00  0.00     0.167 HD
ATOM     57  C   UNL A   1      42.963  29.094  34.007  1.00  0.00     0.074 A 
ATOM     58  C   UNL A   1      42.673  29.514  35.363  1.00  0.00     0.031 C 
ATOM     59  C   UNL A   1      43.430  27.944  33.441  1.00  0.00     0.037 A 
BRANCH  46  60
ATOM     60  C   UNL A   1      43.120  26.012  27.590  1.00  0.00     0.064 A 
ATOM     61  C   UNL A   1      42.770  24.655  27.360  1.00  0.00     0.173 A 
ATOM     62  C   UNL A   1      43.995  26.507  26.580  1.00  0.00     0.173 A 
ATOM     63  F   UNL A   1      41.915  24.017  28.170  1.00  0.00    -0.203 F 
ATOM     64  C   UNL A   1      43.275  23.883  26.290  1.00  0.00     0.198 A 
ATOM     65  C   UNL A   1      44.495  25.739  25.511  1.00  0.00     0.198 A 
ATOM     66  F   UNL A   1      44.434  27.761  26.527  1.00  0.00    -0.203 F 
ATOM     67  F   UNL A   1      42.913  22.598  26.165  1.00  0.00    -0.200 F 
ATOM     68  C   UNL A   1      44.144  24.424  25.369  1.00  0.00     0.200 A 
ATOM     69  F   UNL A   1      45.330  26.307  24.626  1.00  0.00    -0.200 F 
ATOM     70  F   UNL A   1      44.629  23.695  24.354  1.00  0.00    -0.200 F 
ENDBRANCH  46  60
BRANCH  47  71
ATOM     71  C   UNL A   1      40.232  33.128  33.870  1.00  0.00     0.064 A 
ATOM     72  C   UNL A   1      39.049  32.380  34.092  1.00  0.00     0.173 A 
ATOM     73  C   UNL A   1      40.305  34.384  34.484  1.00  0.00     0.173 A 
ATOM     74  F   UNL A   1      38.913  31.169  33.527  1.00  0.00    -0.203 F 
ATOM     75  C   UNL A   1      38.083  32.780  35.012  1.00  0.00     0.198 A 
ATOM     76  C   UNL A   1      39.303  34.807  35.374  1.00  0.00     0.198 A 
ATOM     77  F   UNL A   1      41.406  35.138  34.360  1.00  0.00    -0.203 F 
ATOM     78  F   UNL A   1      37.081  31.948  35.333  1.00  0.00    -0.200 F 
ATOM     79  C   UNL A   1      38.222  33.984  35.671  1.00  0.00     0.200 A 
ATOM     80  F   UNL A   1      39.458  35.946  36.066  1.00  0.00    -0.200 F 
ATOM     81  F   UNL A   1      37.363  34.315  36.649  1.00  0.00    -0.200 F 
ENDBRANCH  47  71
BRANCH  59  82
ATOM     82  C   UNL A   1      43.561  26.617  34.144  1.00  0.00     0.064 A 
ATOM     83  C   UNL A   1      42.471  25.923  34.688  1.00  0.00     0.173 A 
ATOM     84  C   UNL A   1      44.781  25.899  34.076  1.00  0.00     0.173 A 
ATOM     85  F   UNL A   1      41.241  26.451  34.694  1.00  0.00    -0.203 F 
ATOM     86  C   UNL A   1      42.604  24.623  35.179  1.00  0.00     0.198 A 
ATOM     87  C   UNL A   1      44.887  24.575  34.490  1.00  0.00     0.198 A 
ATOM     88  F   UNL A   1      45.887  26.448  33.548  1.00  0.00    -0.203 F 
ATOM     89  F   UNL A   1      41.544  24.015  35.730  1.00  0.00    -0.200 F 
ATOM     90  C   UNL A   1      43.803  23.943  35.062  1.00  0.00     0.200 A 
ATOM     91  F   UNL A   1      46.033  23.905  34.299  1.00  0.00    -0.200 F 
ATOM     92  F   UNL A   1      43.905  22.674  35.477  1.00  0.00    -0.200 F 
ENDBRANCH  59  82
ENDBRANCH  33  34
ENDBRANCH  26  28
ENDBRANCH  25  26
ENDBRANCH  24  25
ENDBRANCH  23  24
ENDBRANCH  22  23
ENDBRANCH   1  22
TORSDOF 18
ENDMDL
