MODEL 1
REMARK VINA RESULT:     -10.9      0.000      0.000
REMARK SMILES COc1cccc(Cn2c(=O)c(=O)n(CC(=O)OCCOCCOCCOC(=O)c3ccc(-c4c5nc(c(-c6c(F)c(F)c(F)c(F)c6F)c6ccc([nH]6)c(-c6c(F)c(F)c(F)c(F)c6F)c6nc(c(-c7c(F)c(F)c(F)c(F)c7F)c7ccc4[nH]7)C=C6)C=C5)cc3)c3ccccc32)c1
REMARK SMILES IDX 22 1 21 2 20 3 19 4 18 5 16 6 17 7 15 8 14 9 9 10 10 11
REMARK SMILES IDX 98 12 11 13 12 14 93 15 97 16 13 17 94 18 96 19 95 20 8 21
REMARK SMILES IDX 7 22 3 23 4 24 99 25 5 26 6 27 2 28 1 29 23 30 24 31 25 32
REMARK SMILES IDX 26 33 27 34 28 35 29 36 30 37 31 38 92 39 32 40 91 41 33 42
REMARK SMILES IDX 34 43 35 44 85 45 36 46 90 47 84 48 86 49 37 50 89 51 83 52
REMARK SMILES IDX 82 53 38 55 70 56 50 57 69 58 51 59 54 60 68 61 87 62 52 63
REMARK SMILES IDX 53 64 67 66 88 67 55 68 39 69 40 70 48 71 41 72 42 73 46 74
REMARK SMILES IDX 49 75 43 76 44 77 47 78 45 79 71 80 72 81 80 82 73 83 74 84
REMARK SMILES IDX 78 85 81 86 75 87 76 88 79 89 77 90 56 91 57 92 65 93 58 94
REMARK SMILES IDX 59 95 63 96 66 97 60 98 61 99 64 100 62 101
REMARK H PARENT 86 54 54 65
REMARK Flexibility Score: inf
ROOT
ATOM      1  C   UNL A   1      40.003  22.228  26.510  1.00  0.00     0.188 C 
ENDROOT
BRANCH   1   2
ATOM      2  O   UNL A   1      38.915  21.481  25.967  1.00  0.00    -0.376 OA
BRANCH   2   3
ATOM      3  C   UNL A   1      37.793  22.186  25.449  1.00  0.00     0.202 C 
BRANCH   3   4
ATOM      4  C   UNL A   1      36.474  21.413  25.460  1.00  0.00     0.261 C 
BRANCH   4   5
ATOM      5  O   UNL A   1      35.534  21.940  24.514  1.00  0.00    -0.462 OA
BRANCH   5   6
ATOM      6  C   UNL A   1      34.329  21.311  24.466  1.00  0.00     0.326 C 
ATOM      7  O   UNL A   1      34.017  20.327  25.128  1.00  0.00    -0.250 OA
BRANCH   6   8
ATOM      8  C   UNL A   1      33.301  22.080  23.633  1.00  0.00     0.248 C 
BRANCH   8   9
ATOM      9  N   UNL A   1      32.870  23.377  24.118  1.00  0.00    -0.291 N 
ATOM     10  N   UNL A   1      31.679  25.930  24.190  1.00  0.00    -0.298 N 
ATOM     11  C   UNL A   1      32.226  25.418  23.028  1.00  0.00     0.317 A 
ATOM     12  C   UNL A   1      31.274  24.962  25.154  1.00  0.00     0.068 A 
ATOM     13  O   UNL A   1      31.906  25.679  21.884  1.00  0.00    -0.263 OA
ATOM     14  C   UNL A   1      33.318  24.410  23.302  1.00  0.00     0.317 A 
ATOM     15  C   UNL A   1      31.784  23.627  25.022  1.00  0.00     0.069 A 
ATOM     16  C   UNL A   1      30.278  25.237  26.101  1.00  0.00     0.028 A 
ATOM     17  O   UNL A   1      34.378  24.476  22.722  1.00  0.00    -0.263 OA
ATOM     18  C   UNL A   1      31.223  22.615  25.802  1.00  0.00     0.028 A 
ATOM     19  C   UNL A   1      29.740  24.201  26.871  1.00  0.00     0.002 A 
ATOM     20  C   UNL A   1      30.200  22.896  26.713  1.00  0.00     0.002 A 
BRANCH  10  21
ATOM     21  C   UNL A   1      31.441  27.367  24.206  1.00  0.00     0.162 C 
BRANCH  21  22
ATOM     22  C   UNL A   1      32.213  27.948  25.400  1.00  0.00    -0.024 A 
ATOM     23  C   UNL A   1      32.755  30.009  26.593  1.00  0.00     0.119 A 
ATOM     24  C   UNL A   1      34.014  29.486  26.883  1.00  0.00     0.046 A 
ATOM     25  C   UNL A   1      31.827  29.200  25.940  1.00  0.00     0.052 A 
ATOM     26  C   UNL A   1      34.353  28.186  26.500  1.00  0.00     0.004 A 
ATOM     27  C   UNL A   1      33.467  27.427  25.737  1.00  0.00     0.006 A 
BRANCH  23  28
ATOM     28  O   UNL A   1      32.589  31.322  26.937  1.00  0.00    -0.497 OA
ATOM     29  C   UNL A   1      31.403  31.986  26.508  1.00  0.00     0.278 C 
ENDBRANCH  23  28
ENDBRANCH  21  22
ENDBRANCH  10  21
ENDBRANCH   8   9
ENDBRANCH   6   8
ENDBRANCH   5   6
ENDBRANCH   4   5
ENDBRANCH   3   4
ENDBRANCH   2   3
ENDBRANCH   1   2
BRANCH   1  30
ATOM     30  C   UNL A   1      41.445  21.829  26.163  1.00  0.00     0.188 C 
BRANCH  30  31
ATOM     31  O   UNL A   1      41.982  20.919  27.121  1.00  0.00    -0.376 OA
BRANCH  31  32
ATOM     32  C   UNL A   1      41.596  19.561  26.923  1.00  0.00     0.202 C 
BRANCH  32  33
ATOM     33  C   UNL A   1      42.699  18.760  26.226  1.00  0.00     0.261 C 
BRANCH  33  34
ATOM     34  O   UNL A   1      43.015  19.210  24.894  1.00  0.00    -0.460 OA
BRANCH  34  35
ATOM     35  C   UNL A   1      44.325  19.324  24.596  1.00  0.00     0.338 C 
ATOM     36  O   UNL A   1      45.056  18.469  24.129  1.00  0.00    -0.246 OA
BRANCH  35  37
ATOM     37  C   UNL A   1      44.743  20.724  24.792  1.00  0.00     0.060 A 
ATOM     38  C   UNL A   1      45.333  21.068  26.010  1.00  0.00     0.016 A 
ATOM     39  C   UNL A   1      44.477  21.704  23.837  1.00  0.00     0.016 A 
ATOM     40  C   UNL A   1      45.631  22.400  26.302  1.00  0.00     0.010 A 
ATOM     41  C   UNL A   1      44.768  23.042  24.131  1.00  0.00     0.010 A 
ATOM     42  C   UNL A   1      45.319  23.405  25.376  1.00  0.00    -0.014 A 
BRANCH  42  43
ATOM     43  C   UNL A   1      45.408  24.840  25.753  1.00  0.00     0.031 A 
ATOM     44  C   UNL A   1      46.728  25.548  25.609  1.00  0.00     0.074 A 
ATOM     45  C   UNL A   1      44.342  25.526  26.204  1.00  0.00     0.049 A 
ATOM     46  N   UNL A   1      47.100  26.724  26.049  1.00  0.00    -0.248 NA
ATOM     47  C   UNL A   1      47.770  24.826  24.864  1.00  0.00     0.031 C 
ATOM     48  C   UNL A   1      42.981  25.006  26.309  1.00  0.00     0.029 A 
ATOM     49  N   UNL A   1      44.247  26.816  26.669  1.00  0.00    -0.354 N 
ATOM     50  C   UNL A   1      48.430  26.863  25.675  1.00  0.00     0.074 A 
ATOM     51  C   UNL A   1      48.800  25.654  24.970  1.00  0.00     0.031 C 
ATOM     52  C   UNL A   1      42.186  25.967  26.811  1.00  0.00     0.029 A 
ATOM     53  C   UNL A   1      42.994  27.146  27.123  1.00  0.00     0.049 A 
ATOM     54  H   UNL A   1      45.005  27.445  26.675  1.00  0.00     0.167 HD
ATOM     55  C   UNL A   1      49.269  27.901  25.904  1.00  0.00     0.037 A 
ATOM     56  C   UNL A   1      42.559  28.252  27.760  1.00  0.00     0.037 A 
ATOM     57  C   UNL A   1      48.897  29.117  26.579  1.00  0.00     0.049 A 
ATOM     58  C   UNL A   1      43.529  29.361  28.079  1.00  0.00     0.074 A 
ATOM     59  C   UNL A   1      49.682  30.221  26.865  1.00  0.00     0.029 A 
ATOM     60  N   UNL A   1      47.629  29.392  27.066  1.00  0.00    -0.354 N 
ATOM     61  N   UNL A   1      44.801  29.463  27.783  1.00  0.00    -0.248 NA
ATOM     62  C   UNL A   1      43.000  30.503  28.843  1.00  0.00     0.031 C 
ATOM     63  C   UNL A   1      48.896  31.149  27.558  1.00  0.00     0.029 A 
ATOM     64  C   UNL A   1      47.612  30.641  27.663  1.00  0.00     0.049 A 
ATOM     65  H   UNL A   1      46.855  28.788  26.997  1.00  0.00     0.167 HD
ATOM     66  C   UNL A   1      45.219  30.682  28.303  1.00  0.00     0.074 A 
ATOM     67  C   UNL A   1      44.064  31.292  28.924  1.00  0.00     0.031 C 
ATOM     68  C   UNL A   1      46.452  31.245  28.269  1.00  0.00     0.037 A 
BRANCH  55  69
ATOM     69  C   UNL A   1      50.692  27.744  25.460  1.00  0.00     0.064 A 
ATOM     70  C   UNL A   1      51.078  27.924  24.124  1.00  0.00     0.173 A 
ATOM     71  C   UNL A   1      51.689  27.418  26.394  1.00  0.00     0.173 A 
ATOM     72  F   UNL A   1      50.159  28.217  23.191  1.00  0.00    -0.203 F 
ATOM     73  C   UNL A   1      52.404  27.754  23.733  1.00  0.00     0.198 A 
ATOM     74  C   UNL A   1      53.017  27.276  26.005  1.00  0.00     0.198 A 
ATOM     75  F   UNL A   1      51.372  27.237  27.685  1.00  0.00    -0.203 F 
ATOM     76  F   UNL A   1      52.741  27.879  22.442  1.00  0.00    -0.200 F 
ATOM     77  C   UNL A   1      53.373  27.436  24.674  1.00  0.00     0.200 A 
ATOM     78  F   UNL A   1      53.953  26.978  26.917  1.00  0.00    -0.200 F 
ATOM     79  F   UNL A   1      54.648  27.274  24.296  1.00  0.00    -0.200 F 
ENDBRANCH  55  69
BRANCH  56  80
ATOM     80  C   UNL A   1      41.138  28.353  28.183  1.00  0.00     0.064 A 
ATOM     81  C   UNL A   1      40.168  28.893  27.327  1.00  0.00     0.173 A 
ATOM     82  C   UNL A   1      40.725  27.933  29.456  1.00  0.00     0.173 A 
ATOM     83  F   UNL A   1      40.521  29.340  26.113  1.00  0.00    -0.203 F 
ATOM     84  C   UNL A   1      38.840  29.015  27.732  1.00  0.00     0.198 A 
ATOM     85  C   UNL A   1      39.392  28.032  29.849  1.00  0.00     0.198 A 
ATOM     86  F   UNL A   1      41.618  27.423  30.316  1.00  0.00    -0.203 F 
ATOM     87  F   UNL A   1      37.941  29.575  26.910  1.00  0.00    -0.200 F 
ATOM     88  C   UNL A   1      38.452  28.578  28.990  1.00  0.00     0.200 A 
ATOM     89  F   UNL A   1      39.021  27.603  31.064  1.00  0.00    -0.200 F 
ATOM     90  F   UNL A   1      37.174  28.694  29.377  1.00  0.00    -0.200 F 
ENDBRANCH  56  80
BRANCH  68  91
ATOM     91  C   UNL A   1      46.613  32.604  28.884  1.00  0.00     0.064 A 
ATOM     92  C   UNL A   1      47.002  32.767  30.221  1.00  0.00     0.173 A 
ATOM     93  C   UNL A   1      46.420  33.760  28.111  1.00  0.00     0.173 A 
ATOM     94  F   UNL A   1      47.184  31.694  31.005  1.00  0.00    -0.203 F 
ATOM     95  C   UNL A   1      47.173  34.037  30.767  1.00  0.00     0.198 A 
ATOM     96  C   UNL A   1      46.617  35.027  28.652  1.00  0.00     0.198 A 
ATOM     97  F   UNL A   1      46.055  33.658  26.824  1.00  0.00    -0.203 F 
ATOM     98  F   UNL A   1      47.509  34.170  32.058  1.00  0.00    -0.200 F 
ATOM     99  C   UNL A   1      46.988  35.164  29.981  1.00  0.00     0.200 A 
ATOM    100  F   UNL A   1      46.449  36.115  27.888  1.00  0.00    -0.200 F 
ATOM    101  F   UNL A   1      47.162  36.385  30.506  1.00  0.00    -0.200 F 
ENDBRANCH  68  91
ENDBRANCH  42  43
ENDBRANCH  35  37
ENDBRANCH  34  35
ENDBRANCH  33  34
ENDBRANCH  32  33
ENDBRANCH  31  32
ENDBRANCH  30  31
ENDBRANCH   1  30
TORSDOF 21
ENDMDL
MODEL 2
REMARK VINA RESULT:     -10.4      5.335      9.449
REMARK SMILES COc1cccc(Cn2c(=O)c(=O)n(CC(=O)OCCOCCOCCOC(=O)c3ccc(-c4c5nc(c(-c6c(F)c(F)c(F)c(F)c6F)c6ccc([nH]6)c(-c6c(F)c(F)c(F)c(F)c6F)c6nc(c(-c7c(F)c(F)c(F)c(F)c7F)c7ccc4[nH]7)C=C6)C=C5)cc3)c3ccccc32)c1
REMARK SMILES IDX 22 1 21 2 20 3 19 4 18 5 16 6 17 7 15 8 14 9 9 10 10 11
REMARK SMILES IDX 98 12 11 13 12 14 93 15 97 16 13 17 94 18 96 19 95 20 8 21
REMARK SMILES IDX 7 22 3 23 4 24 99 25 5 26 6 27 2 28 1 29 23 30 24 31 25 32
REMARK SMILES IDX 26 33 27 34 28 35 29 36 30 37 31 38 92 39 32 40 91 41 33 42
REMARK SMILES IDX 34 43 35 44 85 45 36 46 90 47 84 48 86 49 37 50 89 51 83 52
REMARK SMILES IDX 82 53 38 55 70 56 50 57 69 58 51 59 54 60 68 61 87 62 52 63
REMARK SMILES IDX 53 64 67 66 88 67 55 68 39 69 40 70 48 71 41 72 42 73 46 74
REMARK SMILES IDX 49 75 43 76 44 77 47 78 45 79 71 80 72 81 80 82 73 83 74 84
REMARK SMILES IDX 78 85 81 86 75 87 76 88 79 89 77 90 56 91 57 92 65 93 58 94
REMARK SMILES IDX 59 95 63 96 66 97 60 98 61 99 64 100 62 101
REMARK H PARENT 86 54 54 65
REMARK Flexibility Score: inf
ROOT
ATOM      1  C   UNL A   1      38.903  22.054  26.114  1.00  0.00     0.188 C 
ENDROOT
BRANCH   1   2
ATOM      2  O   UNL A   1      37.642  21.476  25.777  1.00  0.00    -0.376 OA
BRANCH   2   3
ATOM      3  C   UNL A   1      36.537  22.339  25.538  1.00  0.00     0.202 C 
BRANCH   3   4
ATOM      4  C   UNL A   1      35.194  21.846  26.080  1.00  0.00     0.261 C 
BRANCH   4   5
ATOM      5  O   UNL A   1      34.407  22.917  26.619  1.00  0.00    -0.462 OA
BRANCH   5   6
ATOM      6  C   UNL A   1      33.208  22.557  27.151  1.00  0.00     0.326 C 
ATOM      7  O   UNL A   1      32.985  22.387  28.345  1.00  0.00    -0.250 OA
BRANCH   6   8
ATOM      8  C   UNL A   1      32.081  22.571  26.115  1.00  0.00     0.248 C 
BRANCH   8   9
ATOM      9  N   UNL A   1      31.914  23.767  25.314  1.00  0.00    -0.291 N 
ATOM     10  N   UNL A   1      32.256  26.392  24.346  1.00  0.00    -0.298 N 
ATOM     11  C   UNL A   1      32.406  26.088  25.687  1.00  0.00     0.317 A 
ATOM     12  C   UNL A   1      32.452  25.303  23.447  1.00  0.00     0.068 A 
ATOM     13  O   UNL A   1      33.099  26.665  26.502  1.00  0.00    -0.263 OA
ATOM     14  C   UNL A   1      31.603  24.874  26.094  1.00  0.00     0.317 A 
ATOM     15  C   UNL A   1      32.411  23.973  23.982  1.00  0.00     0.069 A 
ATOM     16  C   UNL A   1      32.845  25.508  22.118  1.00  0.00     0.028 A 
ATOM     17  O   UNL A   1      30.910  24.897  27.086  1.00  0.00    -0.263 OA
ATOM     18  C   UNL A   1      32.830  22.912  23.178  1.00  0.00     0.028 A 
ATOM     19  C   UNL A   1      33.255  24.423  21.336  1.00  0.00     0.002 A 
ATOM     20  C   UNL A   1      33.260  23.135  21.866  1.00  0.00     0.002 A 
BRANCH  10  21
ATOM     21  C   UNL A   1      32.084  27.801  24.024  1.00  0.00     0.162 C 
BRANCH  21  22
ATOM     22  C   UNL A   1      30.703  27.960  23.371  1.00  0.00    -0.024 A 
ATOM     23  C   UNL A   1      29.068  29.585  22.565  1.00  0.00     0.119 A 
ATOM     24  C   UNL A   1      28.046  28.726  22.967  1.00  0.00     0.046 A 
ATOM     25  C   UNL A   1      30.389  29.155  22.678  1.00  0.00     0.052 A 
ATOM     26  C   UNL A   1      28.338  27.469  23.502  1.00  0.00     0.004 A 
ATOM     27  C   UNL A   1      29.662  27.095  23.730  1.00  0.00     0.006 A 
BRANCH  23  28
ATOM     28  O   UNL A   1      28.648  30.819  22.151  1.00  0.00    -0.497 OA
ATOM     29  C   UNL A   1      28.029  30.927  20.873  1.00  0.00     0.278 C 
ENDBRANCH  23  28
ENDBRANCH  21  22
ENDBRANCH  10  21
ENDBRANCH   8   9
ENDBRANCH   6   8
ENDBRANCH   5   6
ENDBRANCH   4   5
ENDBRANCH   3   4
ENDBRANCH   2   3
ENDBRANCH   1   2
BRANCH   1  30
ATOM     30  C   UNL A   1      40.141  21.154  26.237  1.00  0.00     0.188 C 
BRANCH  30  31
ATOM     31  O   UNL A   1      41.308  21.907  26.563  1.00  0.00    -0.376 OA
BRANCH  31  32
ATOM     32  C   UNL A   1      42.508  21.418  25.969  1.00  0.00     0.202 C 
BRANCH  32  33
ATOM     33  C   UNL A   1      43.266  22.531  25.239  1.00  0.00     0.261 C 
BRANCH  33  34
ATOM     34  O   UNL A   1      44.027  23.401  26.099  1.00  0.00    -0.460 OA
BRANCH  34  35
ATOM     35  C   UNL A   1      43.924  24.722  25.853  1.00  0.00     0.338 C 
ATOM     36  O   UNL A   1      43.893  25.275  24.768  1.00  0.00    -0.246 OA
BRANCH  35  37
ATOM     37  C   UNL A   1      43.707  25.434  27.126  1.00  0.00     0.060 A 
ATOM     38  C   UNL A   1      43.018  24.766  28.141  1.00  0.00     0.016 A 
ATOM     39  C   UNL A   1      44.088  26.764  27.291  1.00  0.00     0.016 A 
ATOM     40  C   UNL A   1      42.670  25.432  29.318  1.00  0.00     0.010 A 
ATOM     41  C   UNL A   1      43.735  27.436  28.468  1.00  0.00     0.010 A 
ATOM     42  C   UNL A   1      42.997  26.786  29.477  1.00  0.00    -0.014 A 
BRANCH  42  43
ATOM     43  C   UNL A   1      42.439  27.575  30.608  1.00  0.00     0.031 A 
ATOM     44  C   UNL A   1      41.166  28.348  30.395  1.00  0.00     0.074 A 
ATOM     45  C   UNL A   1      43.030  27.603  31.816  1.00  0.00     0.049 A 
ATOM     46  N   UNL A   1      40.599  29.252  31.154  1.00  0.00    -0.248 NA
ATOM     47  C   UNL A   1      40.434  28.060  29.152  1.00  0.00     0.031 C 
ATOM     48  C   UNL A   1      44.210  26.834  32.202  1.00  0.00     0.029 A 
ATOM     49  N   UNL A   1      42.713  28.324  32.943  1.00  0.00    -0.354 N 
ATOM     50  C   UNL A   1      39.471  29.672  30.461  1.00  0.00     0.074 A 
ATOM     51  C   UNL A   1      39.431  28.923  29.223  1.00  0.00     0.031 C 
ATOM     52  C   UNL A   1      44.522  27.127  33.477  1.00  0.00     0.029 A 
ATOM     53  C   UNL A   1      43.603  28.151  33.974  1.00  0.00     0.049 A 
ATOM     54  H   UNL A   1      41.922  28.907  33.006  1.00  0.00     0.167 HD
ATOM     55  C   UNL A   1      38.554  30.602  30.822  1.00  0.00     0.037 A 
ATOM     56  C   UNL A   1      43.695  28.779  35.163  1.00  0.00     0.037 A 
ATOM     57  C   UNL A   1      38.574  31.327  32.065  1.00  0.00     0.049 A 
ATOM     58  C   UNL A   1      42.714  29.870  35.510  1.00  0.00     0.074 A 
ATOM     59  C   UNL A   1      37.692  32.295  32.514  1.00  0.00     0.029 A 
ATOM     60  N   UNL A   1      39.520  31.156  33.063  1.00  0.00    -0.354 N 
ATOM     61  N   UNL A   1      41.687  30.312  34.827  1.00  0.00    -0.248 NA
ATOM     62  C   UNL A   1      42.921  30.565  36.791  1.00  0.00     0.031 C 
ATOM     63  C   UNL A   1      38.127  32.735  33.769  1.00  0.00     0.029 A 
ATOM     64  C   UNL A   1      39.253  32.010  34.120  1.00  0.00     0.049 A 
ATOM     65  H   UNL A   1      40.272  30.521  33.025  1.00  0.00     0.167 HD
ATOM     66  C   UNL A   1      41.116  31.316  35.598  1.00  0.00     0.074 A 
ATOM     67  C   UNL A   1      41.902  31.414  36.809  1.00  0.00     0.031 C 
ATOM     68  C   UNL A   1      40.036  32.091  35.327  1.00  0.00     0.037 A 
BRANCH  55  69
ATOM     69  C   UNL A   1      37.476  30.922  29.831  1.00  0.00     0.064 A 
ATOM     70  C   UNL A   1      37.441  32.142  29.139  1.00  0.00     0.173 A 
ATOM     71  C   UNL A   1      36.467  29.984  29.560  1.00  0.00     0.173 A 
ATOM     72  F   UNL A   1      38.372  33.078  29.377  1.00  0.00    -0.203 F 
ATOM     73  C   UNL A   1      36.418  32.422  28.236  1.00  0.00     0.198 A 
ATOM     74  C   UNL A   1      35.463  30.256  28.638  1.00  0.00     0.198 A 
ATOM     75  F   UNL A   1      36.458  28.801  30.194  1.00  0.00    -0.203 F 
ATOM     76  F   UNL A   1      36.375  33.615  27.626  1.00  0.00    -0.200 F 
ATOM     77  C   UNL A   1      35.434  31.479  27.982  1.00  0.00     0.200 A 
ATOM     78  F   UNL A   1      34.518  29.339  28.387  1.00  0.00    -0.200 F 
ATOM     79  F   UNL A   1      34.451  31.751  27.113  1.00  0.00    -0.200 F 
ENDBRANCH  55  69
BRANCH  56  80
ATOM     80  C   UNL A   1      44.787  28.426  36.106  1.00  0.00     0.064 A 
ATOM     81  C   UNL A   1      44.594  27.461  37.104  1.00  0.00     0.173 A 
ATOM     82  C   UNL A   1      46.038  29.059  36.043  1.00  0.00     0.173 A 
ATOM     83  F   UNL A   1      43.404  26.854  37.227  1.00  0.00    -0.203 F 
ATOM     84  C   UNL A   1      45.607  27.148  38.008  1.00  0.00     0.198 A 
ATOM     85  C   UNL A   1      47.059  28.726  36.930  1.00  0.00     0.198 A 
ATOM     86  F   UNL A   1      46.268  29.998  35.115  1.00  0.00    -0.203 F 
ATOM     87  F   UNL A   1      45.382  26.254  38.980  1.00  0.00    -0.200 F 
ATOM     88  C   UNL A   1      46.841  27.775  37.916  1.00  0.00     0.200 A 
ATOM     89  F   UNL A   1      48.251  29.331  36.834  1.00  0.00    -0.200 F 
ATOM     90  F   UNL A   1      47.816  27.472  38.784  1.00  0.00    -0.200 F 
ENDBRANCH  56  80
BRANCH  68  91
ATOM     91  C   UNL A   1      39.612  33.083  36.370  1.00  0.00     0.064 A 
ATOM     92  C   UNL A   1      38.687  32.749  37.370  1.00  0.00     0.173 A 
ATOM     93  C   UNL A   1      40.174  34.369  36.397  1.00  0.00     0.173 A 
ATOM     94  F   UNL A   1      38.111  31.538  37.379  1.00  0.00    -0.203 F 
ATOM     95  C   UNL A   1      38.326  33.674  38.347  1.00  0.00     0.198 A 
ATOM     96  C   UNL A   1      39.830  35.281  37.390  1.00  0.00     0.198 A 
ATOM     97  F   UNL A   1      41.069  34.734  35.467  1.00  0.00    -0.203 F 
ATOM     98  F   UNL A   1      37.411  33.347  39.271  1.00  0.00    -0.200 F 
ATOM     99  C   UNL A   1      38.902  34.935  38.360  1.00  0.00     0.200 A 
ATOM    100  F   UNL A   1      40.396  36.495  37.408  1.00  0.00    -0.200 F 
ATOM    101  F   UNL A   1      38.559  35.820  39.307  1.00  0.00    -0.200 F 
ENDBRANCH  68  91
ENDBRANCH  42  43
ENDBRANCH  35  37
ENDBRANCH  34  35
ENDBRANCH  33  34
ENDBRANCH  32  33
ENDBRANCH  31  32
ENDBRANCH  30  31
ENDBRANCH   1  30
TORSDOF 21
ENDMDL
MODEL 3
REMARK VINA RESULT:     -10.0      5.228      9.273
REMARK SMILES COc1cccc(Cn2c(=O)c(=O)n(CC(=O)OCCOCCOCCOC(=O)c3ccc(-c4c5nc(c(-c6c(F)c(F)c(F)c(F)c6F)c6ccc([nH]6)c(-c6c(F)c(F)c(F)c(F)c6F)c6nc(c(-c7c(F)c(F)c(F)c(F)c7F)c7ccc4[nH]7)C=C6)C=C5)cc3)c3ccccc32)c1
REMARK SMILES IDX 22 1 21 2 20 3 19 4 18 5 16 6 17 7 15 8 14 9 9 10 10 11
REMARK SMILES IDX 98 12 11 13 12 14 93 15 97 16 13 17 94 18 96 19 95 20 8 21
REMARK SMILES IDX 7 22 3 23 4 24 99 25 5 26 6 27 2 28 1 29 23 30 24 31 25 32
REMARK SMILES IDX 26 33 27 34 28 35 29 36 30 37 31 38 92 39 32 40 91 41 33 42
REMARK SMILES IDX 34 43 35 44 85 45 36 46 90 47 84 48 86 49 37 50 89 51 83 52
REMARK SMILES IDX 82 53 38 55 70 56 50 57 69 58 51 59 54 60 68 61 87 62 52 63
REMARK SMILES IDX 53 64 67 66 88 67 55 68 39 69 40 70 48 71 41 72 42 73 46 74
REMARK SMILES IDX 49 75 43 76 44 77 47 78 45 79 71 80 72 81 80 82 73 83 74 84
REMARK SMILES IDX 78 85 81 86 75 87 76 88 79 89 77 90 56 91 57 92 65 93 58 94
REMARK SMILES IDX 59 95 63 96 66 97 60 98 61 99 64 100 62 101
REMARK H PARENT 86 54 54 65
REMARK Flexibility Score: inf
ROOT
ATOM      1  C   UNL A   1      38.954  21.781  26.098  1.00  0.00     0.188 C 
ENDROOT
BRANCH   1   2
ATOM      2  O   UNL A   1      37.763  21.312  25.465  1.00  0.00    -0.376 OA
BRANCH   2   3
ATOM      3  C   UNL A   1      36.628  22.169  25.424  1.00  0.00     0.202 C 
BRANCH   3   4
ATOM      4  C   UNL A   1      35.373  21.624  26.107  1.00  0.00     0.261 C 
BRANCH   4   5
ATOM      5  O   UNL A   1      34.608  22.663  26.732  1.00  0.00    -0.462 OA
BRANCH   5   6
ATOM      6  C   UNL A   1      33.433  22.273  27.296  1.00  0.00     0.326 C 
ATOM      7  O   UNL A   1      33.154  22.364  28.486  1.00  0.00    -0.250 OA
BRANCH   6   8
ATOM      8  C   UNL A   1      32.387  21.877  26.251  1.00  0.00     0.248 C 
BRANCH   8   9
ATOM      9  N   UNL A   1      31.719  22.940  25.526  1.00  0.00    -0.291 N 
ATOM     10  N   UNL A   1      30.824  25.511  24.798  1.00  0.00    -0.298 N 
ATOM     11  C   UNL A   1      31.014  25.157  26.121  1.00  0.00     0.317 A 
ATOM     12  C   UNL A   1      31.573  24.757  23.849  1.00  0.00     0.068 A 
ATOM     13  O   UNL A   1      31.293  25.892  27.050  1.00  0.00    -0.263 OA
ATOM     14  C   UNL A   1      30.866  23.670  26.346  1.00  0.00     0.317 A 
ATOM     15  C   UNL A   1      32.140  23.510  24.277  1.00  0.00     0.069 A 
ATOM     16  C   UNL A   1      31.904  25.277  22.591  1.00  0.00     0.028 A 
ATOM     17  O   UNL A   1      30.185  23.248  27.253  1.00  0.00    -0.263 OA
ATOM     18  C   UNL A   1      33.066  22.874  23.449  1.00  0.00     0.028 A 
ATOM     19  C   UNL A   1      32.832  24.614  21.782  1.00  0.00     0.002 A 
ATOM     20  C   UNL A   1      33.419  23.427  22.214  1.00  0.00     0.002 A 
BRANCH  10  21
ATOM     21  C   UNL A   1      30.018  26.702  24.564  1.00  0.00     0.162 C 
BRANCH  21  22
ATOM     22  C   UNL A   1      30.945  27.919  24.700  1.00  0.00    -0.024 A 
ATOM     23  C   UNL A   1      32.994  28.951  23.865  1.00  0.00     0.119 A 
ATOM     24  C   UNL A   1      33.236  29.457  25.141  1.00  0.00     0.046 A 
ATOM     25  C   UNL A   1      31.802  28.270  23.628  1.00  0.00     0.052 A 
ATOM     26  C   UNL A   1      32.315  29.261  26.173  1.00  0.00     0.004 A 
ATOM     27  C   UNL A   1      31.185  28.472  25.963  1.00  0.00     0.006 A 
BRANCH  23  28
ATOM     28  O   UNL A   1      34.018  29.130  22.976  1.00  0.00    -0.497 OA
ATOM     29  C   UNL A   1      34.137  28.214  21.891  1.00  0.00     0.278 C 
ENDBRANCH  23  28
ENDBRANCH  21  22
ENDBRANCH  10  21
ENDBRANCH   8   9
ENDBRANCH   6   8
ENDBRANCH   5   6
ENDBRANCH   4   5
ENDBRANCH   3   4
ENDBRANCH   2   3
ENDBRANCH   1   2
BRANCH   1  30
ATOM     30  C   UNL A   1      40.216  20.907  26.083  1.00  0.00     0.188 C 
BRANCH  30  31
ATOM     31  O   UNL A   1      41.328  21.579  26.672  1.00  0.00    -0.376 OA
BRANCH  31  32
ATOM     32  C   UNL A   1      42.596  21.179  26.159  1.00  0.00     0.202 C 
BRANCH  32  33
ATOM     33  C   UNL A   1      43.269  22.314  25.381  1.00  0.00     0.261 C 
BRANCH  33  34
ATOM     34  O   UNL A   1      44.069  23.200  26.187  1.00  0.00    -0.460 OA
BRANCH  34  35
ATOM     35  C   UNL A   1      43.963  24.516  25.914  1.00  0.00     0.338 C 
ATOM     36  O   UNL A   1      43.909  25.043  24.817  1.00  0.00    -0.246 OA
BRANCH  35  37
ATOM     37  C   UNL A   1      43.775  25.257  27.175  1.00  0.00     0.060 A 
ATOM     38  C   UNL A   1      43.094  24.620  28.215  1.00  0.00     0.016 A 
ATOM     39  C   UNL A   1      44.175  26.586  27.305  1.00  0.00     0.016 A 
ATOM     40  C   UNL A   1      42.774  25.315  29.382  1.00  0.00     0.010 A 
ATOM     41  C   UNL A   1      43.849  27.287  28.472  1.00  0.00     0.010 A 
ATOM     42  C   UNL A   1      43.119  26.667  29.507  1.00  0.00    -0.014 A 
BRANCH  42  43
ATOM     43  C   UNL A   1      42.589  27.487  30.629  1.00  0.00     0.031 A 
ATOM     44  C   UNL A   1      41.325  28.275  30.419  1.00  0.00     0.074 A 
ATOM     45  C   UNL A   1      43.198  27.530  31.828  1.00  0.00     0.049 A 
ATOM     46  N   UNL A   1      40.783  29.202  31.168  1.00  0.00    -0.248 NA
ATOM     47  C   UNL A   1      40.571  27.973  29.193  1.00  0.00     0.031 C 
ATOM     48  C   UNL A   1      44.372  26.752  32.213  1.00  0.00     0.029 A 
ATOM     49  N   UNL A   1      42.908  28.278  32.945  1.00  0.00    -0.354 N 
ATOM     50  C   UNL A   1      39.651  29.626  30.483  1.00  0.00     0.074 A 
ATOM     51  C   UNL A   1      39.583  28.853  29.260  1.00  0.00     0.031 C 
ATOM     52  C   UNL A   1      44.706  27.065  33.477  1.00  0.00     0.029 A 
ATOM     53  C   UNL A   1      43.810  28.112  33.967  1.00  0.00     0.049 A 
ATOM     54  H   UNL A   1      42.127  28.875  33.007  1.00  0.00     0.167 HD
ATOM     55  C   UNL A   1      38.754  30.576  30.837  1.00  0.00     0.037 A 
ATOM     56  C   UNL A   1      43.929  28.763  35.141  1.00  0.00     0.037 A 
ATOM     57  C   UNL A   1      38.801  31.325  32.065  1.00  0.00     0.049 A 
ATOM     58  C   UNL A   1      42.969  29.875  35.480  1.00  0.00     0.074 A 
ATOM     59  C   UNL A   1      37.941  32.315  32.507  1.00  0.00     0.029 A 
ATOM     60  N   UNL A   1      39.760  31.160  33.053  1.00  0.00    -0.354 N 
ATOM     61  N   UNL A   1      41.939  30.319  34.803  1.00  0.00    -0.248 NA
ATOM     62  C   UNL A   1      43.205  30.592  36.744  1.00  0.00     0.031 C 
ATOM     63  C   UNL A   1      38.401  32.774  33.747  1.00  0.00     0.029 A 
ATOM     64  C   UNL A   1      39.521  32.039  34.096  1.00  0.00     0.049 A 
ATOM     65  H   UNL A   1      40.501  30.513  33.017  1.00  0.00     0.167 HD
ATOM     66  C   UNL A   1      41.394  31.347  35.562  1.00  0.00     0.074 A 
ATOM     67  C   UNL A   1      42.199  31.456  36.760  1.00  0.00     0.031 C 
ATOM     68  C   UNL A   1      40.322  32.132  35.290  1.00  0.00     0.037 A 
BRANCH  55  69
ATOM     69  C   UNL A   1      37.666  30.893  29.855  1.00  0.00     0.064 A 
ATOM     70  C   UNL A   1      37.647  32.093  29.129  1.00  0.00     0.173 A 
ATOM     71  C   UNL A   1      36.632  29.971  29.628  1.00  0.00     0.173 A 
ATOM     72  F   UNL A   1      38.602  33.014  29.325  1.00  0.00    -0.203 F 
ATOM     73  C   UNL A   1      36.615  32.371  28.235  1.00  0.00     0.198 A 
ATOM     74  C   UNL A   1      35.618  30.240  28.715  1.00  0.00     0.198 A 
ATOM     75  F   UNL A   1      36.607  28.807  30.296  1.00  0.00    -0.203 F 
ATOM     76  F   UNL A   1      36.588  33.546  27.593  1.00  0.00    -0.200 F 
ATOM     77  C   UNL A   1      35.605  31.443  28.025  1.00  0.00     0.200 A 
ATOM     78  F   UNL A   1      34.649  29.338  28.506  1.00  0.00    -0.200 F 
ATOM     79  F   UNL A   1      34.615  31.713  27.165  1.00  0.00    -0.200 F 
ENDBRANCH  55  69
BRANCH  56  80
ATOM     80  C   UNL A   1      45.029  28.412  36.076  1.00  0.00     0.064 A 
ATOM     81  C   UNL A   1      46.325  28.911  35.886  1.00  0.00     0.173 A 
ATOM     82  C   UNL A   1      44.814  27.554  37.165  1.00  0.00     0.173 A 
ATOM     83  F   UNL A   1      46.587  29.707  34.838  1.00  0.00    -0.203 F 
ATOM     84  C   UNL A   1      47.364  28.561  36.744  1.00  0.00     0.198 A 
ATOM     85  C   UNL A   1      45.848  27.225  38.039  1.00  0.00     0.198 A 
ATOM     86  F   UNL A   1      43.595  27.038  37.382  1.00  0.00    -0.203 F 
ATOM     87  F   UNL A   1      48.603  29.018  36.514  1.00  0.00    -0.200 F 
ATOM     88  C   UNL A   1      47.124  27.724  37.824  1.00  0.00     0.200 A 
ATOM     89  F   UNL A   1      45.609  26.421  39.083  1.00  0.00    -0.200 F 
ATOM     90  F   UNL A   1      48.124  27.389  38.651  1.00  0.00    -0.200 F 
ENDBRANCH  56  80
BRANCH  68  91
ATOM     91  C   UNL A   1      39.928  33.150  36.319  1.00  0.00     0.064 A 
ATOM     92  C   UNL A   1      40.484  34.438  36.331  1.00  0.00     0.173 A 
ATOM     93  C   UNL A   1      38.946  32.849  37.276  1.00  0.00     0.173 A 
ATOM     94  F   UNL A   1      41.436  34.770  35.446  1.00  0.00    -0.203 F 
ATOM     95  C   UNL A   1      40.085  35.380  37.276  1.00  0.00     0.198 A 
ATOM     96  C   UNL A   1      38.532  33.802  38.203  1.00  0.00     0.198 A 
ATOM     97  F   UNL A   1      38.378  31.635  37.302  1.00  0.00    -0.203 F 
ATOM     98  F   UNL A   1      40.657  36.593  37.294  1.00  0.00    -0.200 F 
ATOM     99  C   UNL A   1      39.106  35.064  38.206  1.00  0.00     0.200 A 
ATOM    100  F   UNL A   1      37.577  33.498  39.093  1.00  0.00    -0.200 F 
ATOM    101  F   UNL A   1      38.718  35.975  39.109  1.00  0.00    -0.200 F 
ENDBRANCH  68  91
ENDBRANCH  42  43
ENDBRANCH  35  37
ENDBRANCH  34  35
ENDBRANCH  33  34
ENDBRANCH  32  33
ENDBRANCH  31  32
ENDBRANCH  30  31
ENDBRANCH   1  30
TORSDOF 21
ENDMDL
