MODEL 1
REMARK VINA RESULT:     -10.0      0.000      0.000
REMARK SMILES CC(=O)Oc1ccccc1SCCCCCC(=O)OCCOCCOCCOC(=O)c1ccc(-c2c3nc(c(-c4c(F)c(F)c(F)c(F)c4F)c4ccc([nH]4)c(-c4c(F)c(F)c(F)c(F)c4F)c4nc(c(-c5c(F)c(F)c(F)c(F)c5F)c5ccc2[nH]5)C=C4)C=C3)cc1
REMARK SMILES IDX 20 1 19 2 17 3 18 4 16 5 15 6 14 7 13 8 12 9 11 10 10 11
REMARK SMILES IDX 5 12 6 13 7 14 9 15 8 16 4 17 2 18 1 19 3 20 21 21 22 22
REMARK SMILES IDX 23 23 24 24 25 25 26 26 27 27 28 28 29 29 30 30 31 31 32 32
REMARK SMILES IDX 93 33 33 34 92 35 34 36 35 37 36 38 86 39 37 40 91 41 85 42
REMARK SMILES IDX 87 43 38 44 90 45 84 46 83 47 39 49 71 50 51 51 70 52 52 53
REMARK SMILES IDX 55 54 69 55 88 56 53 57 54 58 68 60 89 61 56 62 40 63 41 64
REMARK SMILES IDX 49 65 42 66 43 67 47 68 50 69 44 70 45 71 48 72 46 73 72 74
REMARK SMILES IDX 73 75 81 76 74 77 75 78 79 79 82 80 76 81 77 82 80 83 78 84
REMARK SMILES IDX 57 85 58 86 66 87 59 88 60 89 64 90 67 91 61 92 62 93 65 94
REMARK SMILES IDX 63 95
REMARK H PARENT 87 48 55 59
REMARK Flexibility Score: inf
ROOT
ATOM      1  C   UNL A   1      34.959  31.509  27.769  1.00  0.00     0.261 C 
ENDROOT
BRANCH   1   2
ATOM      2  O   UNL A   1      33.544  31.537  27.568  1.00  0.00    -0.463 OA
BRANCH   2   3
ATOM      3  C   UNL A   1      32.982  30.418  27.050  1.00  0.00     0.305 C 
ATOM      4  O   UNL A   1      31.838  30.319  26.625  1.00  0.00    -0.252 OA
BRANCH   3   5
ATOM      5  C   UNL A   1      33.975  29.288  26.985  1.00  0.00     0.123 C 
BRANCH   5   6
ATOM      6  C   UNL A   1      33.644  28.198  25.973  1.00  0.00     0.012 C 
BRANCH   6   7
ATOM      7  C   UNL A   1      33.034  26.823  26.362  1.00  0.00     0.001 C 
BRANCH   7   8
ATOM      8  C   UNL A   1      31.759  26.143  25.804  1.00  0.00     0.011 C 
BRANCH   8   9
ATOM      9  C   UNL A   1      31.379  24.630  25.758  1.00  0.00     0.075 C 
BRANCH   9  10
ATOM     10  S   UNL A   1      32.022  23.178  26.760  1.00  0.00    -0.122 SA
BRANCH  10  11
ATOM     11  C   UNL A   1      32.927  21.994  25.759  1.00  0.00     0.050 A 
ATOM     12  C   UNL A   1      34.280  21.995  25.379  1.00  0.00     0.144 A 
ATOM     13  C   UNL A   1      34.896  20.816  24.904  1.00  0.00     0.048 A 
ATOM     14  C   UNL A   1      34.127  19.682  24.653  1.00  0.00     0.004 A 
ATOM     15  C   UNL A   1      32.154  20.916  25.299  1.00  0.00     0.019 A 
ATOM     16  C   UNL A   1      32.744  19.768  24.757  1.00  0.00     0.001 A 
BRANCH  12  17
ATOM     17  O   UNL A   1      35.089  23.120  25.566  1.00  0.00    -0.426 OA
BRANCH  17  18
ATOM     18  C   UNL A   1      35.157  23.667  24.325  1.00  0.00     0.308 C 
ATOM     19  C   UNL A   1      36.282  23.157  23.479  1.00  0.00     0.139 C 
ATOM     20  O   UNL A   1      34.337  24.472  23.918  1.00  0.00    -0.252 OA
ENDBRANCH  17  18
ENDBRANCH  12  17
ENDBRANCH  10  11
ENDBRANCH   9  10
ENDBRANCH   8   9
ENDBRANCH   7   8
ENDBRANCH   6   7
ENDBRANCH   5   6
ENDBRANCH   3   5
ENDBRANCH   2   3
ENDBRANCH   1   2
BRANCH   1  21
ATOM     21  C   UNL A   1      35.542  32.906  28.001  1.00  0.00     0.202 C 
BRANCH  21  22
ATOM     22  O   UNL A   1      34.717  34.003  27.609  1.00  0.00    -0.376 OA
BRANCH  22  23
ATOM     23  C   UNL A   1      34.446  34.992  28.599  1.00  0.00     0.188 C 
BRANCH  23  24
ATOM     24  C   UNL A   1      32.991  35.085  29.054  1.00  0.00     0.188 C 
BRANCH  24  25
ATOM     25  O   UNL A   1      32.780  34.980  30.452  1.00  0.00    -0.376 OA
BRANCH  25  26
ATOM     26  C   UNL A   1      33.929  35.086  31.298  1.00  0.00     0.202 C 
BRANCH  26  27
ATOM     27  C   UNL A   1      34.256  33.959  32.307  1.00  0.00     0.261 C 
BRANCH  27  28
ATOM     28  O   UNL A   1      35.144  32.916  31.854  1.00  0.00    -0.460 OA
BRANCH  28  29
ATOM     29  C   UNL A   1      35.979  32.362  32.770  1.00  0.00     0.338 C 
ATOM     30  O   UNL A   1      35.848  32.392  33.968  1.00  0.00    -0.246 OA
BRANCH  29  31
ATOM     31  C   UNL A   1      36.975  31.503  32.049  1.00  0.00     0.060 A 
ATOM     32  C   UNL A   1      38.199  31.258  32.686  1.00  0.00     0.016 A 
ATOM     33  C   UNL A   1      36.721  30.914  30.805  1.00  0.00     0.016 A 
ATOM     34  C   UNL A   1      39.197  30.509  32.051  1.00  0.00     0.010 A 
ATOM     35  C   UNL A   1      37.723  30.165  30.165  1.00  0.00     0.010 A 
ATOM     36  C   UNL A   1      38.990  30.008  30.758  1.00  0.00    -0.014 A 
BRANCH  36  37
ATOM     37  C   UNL A   1      40.169  29.579  29.949  1.00  0.00     0.031 A 
ATOM     38  C   UNL A   1      41.280  30.581  29.735  1.00  0.00     0.074 A 
ATOM     39  C   UNL A   1      40.316  28.329  29.473  1.00  0.00     0.049 A 
ATOM     40  N   UNL A   1      42.414  30.454  29.091  1.00  0.00    -0.248 NA
ATOM     41  C   UNL A   1      41.080  31.910  30.334  1.00  0.00     0.031 C 
ATOM     42  C   UNL A   1      39.358  27.239  29.636  1.00  0.00     0.029 A 
ATOM     43  N   UNL A   1      41.346  27.766  28.753  1.00  0.00    -0.354 N 
ATOM     44  C   UNL A   1      43.055  31.682  29.207  1.00  0.00     0.074 A 
ATOM     45  C   UNL A   1      42.166  32.555  29.941  1.00  0.00     0.031 C 
ATOM     46  C   UNL A   1      39.842  26.138  29.032  1.00  0.00     0.029 A 
ATOM     47  C   UNL A   1      41.133  26.451  28.416  1.00  0.00     0.049 A 
ATOM     48  H   UNL A   1      42.159  28.261  28.502  1.00  0.00     0.167 HD
ATOM     49  C   UNL A   1      44.278  32.053  28.760  1.00  0.00     0.037 A 
ATOM     50  C   UNL A   1      41.886  25.602  27.684  1.00  0.00     0.037 A 
ATOM     51  C   UNL A   1      45.174  31.199  28.027  1.00  0.00     0.049 A 
ATOM     52  C   UNL A   1      43.214  26.062  27.128  1.00  0.00     0.074 A 
ATOM     53  C   UNL A   1      46.436  31.489  27.538  1.00  0.00     0.029 A 
ATOM     54  N   UNL A   1      44.901  29.887  27.670  1.00  0.00    -0.354 N 
ATOM     55  N   UNL A   1      43.819  27.218  27.262  1.00  0.00    -0.248 NA
ATOM     56  C   UNL A   1      43.970  25.087  26.325  1.00  0.00     0.031 C 
ATOM     57  C   UNL A   1      46.901  30.374  26.834  1.00  0.00     0.029 A 
ATOM     58  C   UNL A   1      45.961  29.363  26.946  1.00  0.00     0.049 A 
ATOM     59  H   UNL A   1      44.076  29.400  27.897  1.00  0.00     0.167 HD
ATOM     60  C   UNL A   1      45.036  27.095  26.597  1.00  0.00     0.074 A 
ATOM     61  C   UNL A   1      45.091  25.747  26.077  1.00  0.00     0.031 C 
ATOM     62  C   UNL A   1      46.019  28.016  26.437  1.00  0.00     0.037 A 
BRANCH  49  63
ATOM     63  C   UNL A   1      44.709  33.469  29.028  1.00  0.00     0.064 A 
ATOM     64  C   UNL A   1      45.429  33.818  30.181  1.00  0.00     0.173 A 
ATOM     65  C   UNL A   1      44.411  34.485  28.107  1.00  0.00     0.173 A 
ATOM     66  F   UNL A   1      45.723  32.889  31.102  1.00  0.00    -0.203 F 
ATOM     67  C   UNL A   1      45.806  35.139  30.417  1.00  0.00     0.198 A 
ATOM     68  C   UNL A   1      44.821  35.797  28.330  1.00  0.00     0.198 A 
ATOM     69  F   UNL A   1      43.728  34.206  26.988  1.00  0.00    -0.203 F 
ATOM     70  F   UNL A   1      46.439  35.459  31.554  1.00  0.00    -0.200 F 
ATOM     71  C   UNL A   1      45.509  36.124  29.489  1.00  0.00     0.200 A 
ATOM     72  F   UNL A   1      44.547  36.745  27.424  1.00  0.00    -0.200 F 
ATOM     73  F   UNL A   1      45.878  37.393  29.715  1.00  0.00    -0.200 F 
ENDBRANCH  49  63
BRANCH  50  74
ATOM     74  C   UNL A   1      41.409  24.216  27.415  1.00  0.00     0.064 A 
ATOM     75  C   UNL A   1      40.290  23.974  26.605  1.00  0.00     0.173 A 
ATOM     76  C   UNL A   1      42.027  23.108  28.013  1.00  0.00     0.173 A 
ATOM     77  F   UNL A   1      39.638  25.001  26.039  1.00  0.00    -0.203 F 
ATOM     78  C   UNL A   1      39.794  22.684  26.424  1.00  0.00     0.198 A 
ATOM     79  C   UNL A   1      41.552  21.814  27.804  1.00  0.00     0.198 A 
ATOM     80  F   UNL A   1      43.093  23.281  28.808  1.00  0.00    -0.203 F 
ATOM     81  F   UNL A   1      38.684  22.490  25.697  1.00  0.00    -0.200 F 
ATOM     82  C   UNL A   1      40.429  21.605  27.018  1.00  0.00     0.200 A 
ATOM     83  F   UNL A   1      42.173  20.773  28.375  1.00  0.00    -0.200 F 
ATOM     84  F   UNL A   1      39.950  20.364  26.846  1.00  0.00    -0.200 F 
ENDBRANCH  50  74
BRANCH  62  85
ATOM     85  C   UNL A   1      47.269  27.585  25.715  1.00  0.00     0.064 A 
ATOM     86  C   UNL A   1      47.389  27.658  24.319  1.00  0.00     0.173 A 
ATOM     87  C   UNL A   1      48.371  27.100  26.439  1.00  0.00     0.173 A 
ATOM     88  F   UNL A   1      46.365  28.106  23.576  1.00  0.00    -0.203 F 
ATOM     89  C   UNL A   1      48.543  27.219  23.672  1.00  0.00     0.198 A 
ATOM     90  C   UNL A   1      49.538  26.698  25.792  1.00  0.00     0.198 A 
ATOM     91  F   UNL A   1      48.321  27.020  27.777  1.00  0.00    -0.203 F 
ATOM     92  F   UNL A   1      48.605  27.233  22.334  1.00  0.00    -0.200 F 
ATOM     93  C   UNL A   1      49.618  26.744  24.409  1.00  0.00     0.200 A 
ATOM     94  F   UNL A   1      50.583  26.260  26.508  1.00  0.00    -0.200 F 
ATOM     95  F   UNL A   1      50.725  26.320  23.785  1.00  0.00    -0.200 F 
ENDBRANCH  62  85
ENDBRANCH  36  37
ENDBRANCH  29  31
ENDBRANCH  28  29
ENDBRANCH  27  28
ENDBRANCH  26  27
ENDBRANCH  25  26
ENDBRANCH  24  25
ENDBRANCH  23  24
ENDBRANCH  22  23
ENDBRANCH  21  22
ENDBRANCH   1  21
TORSDOF 25
ENDMDL
MODEL 2
REMARK VINA RESULT:      -9.9      5.045     11.137
REMARK SMILES CC(=O)Oc1ccccc1SCCCCCC(=O)OCCOCCOCCOC(=O)c1ccc(-c2c3nc(c(-c4c(F)c(F)c(F)c(F)c4F)c4ccc([nH]4)c(-c4c(F)c(F)c(F)c(F)c4F)c4nc(c(-c5c(F)c(F)c(F)c(F)c5F)c5ccc2[nH]5)C=C4)C=C3)cc1
REMARK SMILES IDX 20 1 19 2 17 3 18 4 16 5 15 6 14 7 13 8 12 9 11 10 10 11
REMARK SMILES IDX 5 12 6 13 7 14 9 15 8 16 4 17 2 18 1 19 3 20 21 21 22 22
REMARK SMILES IDX 23 23 24 24 25 25 26 26 27 27 28 28 29 29 30 30 31 31 32 32
REMARK SMILES IDX 93 33 33 34 92 35 34 36 35 37 36 38 86 39 37 40 91 41 85 42
REMARK SMILES IDX 87 43 38 44 90 45 84 46 83 47 39 49 71 50 51 51 70 52 52 53
REMARK SMILES IDX 55 54 69 55 88 56 53 57 54 58 68 60 89 61 56 62 40 63 41 64
REMARK SMILES IDX 49 65 42 66 43 67 47 68 50 69 44 70 45 71 48 72 46 73 72 74
REMARK SMILES IDX 73 75 81 76 74 77 75 78 79 79 82 80 76 81 77 82 80 83 78 84
REMARK SMILES IDX 57 85 58 86 66 87 59 88 60 89 64 90 67 91 61 92 62 93 65 94
REMARK SMILES IDX 63 95
REMARK H PARENT 87 48 55 59
REMARK Flexibility Score: inf
ROOT
ATOM      1  C   UNL A   1      38.887  21.320  25.764  1.00  0.00     0.261 C 
ENDROOT
BRANCH   1   2
ATOM      2  O   UNL A   1      37.732  22.147  25.928  1.00  0.00    -0.463 OA
BRANCH   2   3
ATOM      3  C   UNL A   1      36.723  21.963  25.043  1.00  0.00     0.305 C 
ATOM      4  O   UNL A   1      36.730  22.301  23.865  1.00  0.00    -0.252 OA
BRANCH   3   5
ATOM      5  C   UNL A   1      35.580  21.207  25.666  1.00  0.00     0.123 C 
BRANCH   5   6
ATOM      6  C   UNL A   1      34.476  20.799  24.698  1.00  0.00     0.012 C 
BRANCH   6   7
ATOM      7  C   UNL A   1      33.471  21.804  24.071  1.00  0.00     0.001 C 
BRANCH   7   8
ATOM      8  C   UNL A   1      32.827  23.054  24.720  1.00  0.00     0.011 C 
BRANCH   8   9
ATOM      9  C   UNL A   1      33.332  24.530  24.750  1.00  0.00     0.075 C 
BRANCH   9  10
ATOM     10  S   UNL A   1      33.336  25.847  23.411  1.00  0.00    -0.122 SA
BRANCH  10  11
ATOM     11  C   UNL A   1      32.007  27.039  23.610  1.00  0.00     0.050 A 
ATOM     12  C   UNL A   1      31.815  28.004  24.613  1.00  0.00     0.144 A 
ATOM     13  C   UNL A   1      30.923  29.081  24.415  1.00  0.00     0.048 A 
ATOM     14  C   UNL A   1      30.103  29.107  23.290  1.00  0.00     0.004 A 
ATOM     15  C   UNL A   1      31.027  26.983  22.606  1.00  0.00     0.019 A 
ATOM     16  C   UNL A   1      30.087  28.007  22.441  1.00  0.00     0.001 A 
BRANCH  12  17
ATOM     17  O   UNL A   1      32.580  28.000  25.783  1.00  0.00    -0.426 OA
BRANCH  17  18
ATOM     18  C   UNL A   1      31.737  27.469  26.707  1.00  0.00     0.308 C 
ATOM     19  C   UNL A   1      31.489  28.340  27.899  1.00  0.00     0.139 C 
ATOM     20  O   UNL A   1      31.189  26.392  26.551  1.00  0.00    -0.252 OA
ENDBRANCH  17  18
ENDBRANCH  12  17
ENDBRANCH  10  11
ENDBRANCH   9  10
ENDBRANCH   8   9
ENDBRANCH   7   8
ENDBRANCH   6   7
ENDBRANCH   5   6
ENDBRANCH   3   5
ENDBRANCH   2   3
ENDBRANCH   1   2
BRANCH   1  21
ATOM     21  C   UNL A   1      40.127  21.910  26.442  1.00  0.00     0.202 C 
BRANCH  21  22
ATOM     22  O   UNL A   1      41.009  20.973  27.060  1.00  0.00    -0.376 OA
BRANCH  22  23
ATOM     23  C   UNL A   1      41.419  19.858  26.274  1.00  0.00     0.188 C 
BRANCH  23  24
ATOM     24  C   UNL A   1      42.930  19.673  26.133  1.00  0.00     0.188 C 
BRANCH  24  25
ATOM     25  O   UNL A   1      43.535  20.384  25.066  1.00  0.00    -0.376 OA
BRANCH  25  26
ATOM     26  C   UNL A   1      43.962  21.724  25.332  1.00  0.00     0.202 C 
BRANCH  26  27
ATOM     27  C   UNL A   1      44.148  22.725  24.165  1.00  0.00     0.261 C 
BRANCH  27  28
ATOM     28  O   UNL A   1      43.761  24.092  24.412  1.00  0.00    -0.460 OA
BRANCH  28  29
ATOM     29  C   UNL A   1      44.518  24.812  25.278  1.00  0.00     0.338 C 
ATOM     30  O   UNL A   1      45.714  24.961  25.229  1.00  0.00    -0.246 OA
BRANCH  29  31
ATOM     31  C   UNL A   1      43.604  25.588  26.179  1.00  0.00     0.060 A 
ATOM     32  C   UNL A   1      43.844  26.963  26.314  1.00  0.00     0.016 A 
ATOM     33  C   UNL A   1      42.516  25.014  26.847  1.00  0.00     0.016 A 
ATOM     34  C   UNL A   1      43.063  27.741  27.177  1.00  0.00     0.010 A 
ATOM     35  C   UNL A   1      41.735  25.794  27.716  1.00  0.00     0.010 A 
ATOM     36  C   UNL A   1      42.042  27.151  27.934  1.00  0.00    -0.014 A 
BRANCH  36  37
ATOM     37  C   UNL A   1      41.504  27.879  29.121  1.00  0.00     0.031 A 
ATOM     38  C   UNL A   1      42.242  27.734  30.431  1.00  0.00     0.074 A 
ATOM     39  C   UNL A   1      40.448  28.710  29.054  1.00  0.00     0.049 A 
ATOM     40  N   UNL A   1      41.995  28.274  31.600  1.00  0.00    -0.248 NA
ATOM     41  C   UNL A   1      43.424  26.857  30.417  1.00  0.00     0.031 C 
ATOM     42  C   UNL A   1      39.662  28.993  27.856  1.00  0.00     0.029 A 
ATOM     43  N   UNL A   1      39.857  29.479  30.032  1.00  0.00    -0.354 N 
ATOM     44  C   UNL A   1      42.985  27.799  32.453  1.00  0.00     0.074 A 
ATOM     45  C   UNL A   1      43.809  26.894  31.682  1.00  0.00     0.031 C 
ATOM     46  C   UNL A   1      38.690  29.870  28.169  1.00  0.00     0.029 A 
ATOM     47  C   UNL A   1      38.767  30.192  29.595  1.00  0.00     0.049 A 
ATOM     48  H   UNL A   1      40.185  29.513  30.960  1.00  0.00     0.167 HD
ATOM     49  C   UNL A   1      43.206  28.098  33.755  1.00  0.00     0.037 A 
ATOM     50  C   UNL A   1      37.922  31.000  30.270  1.00  0.00     0.037 A 
ATOM     51  C   UNL A   1      42.397  28.995  34.536  1.00  0.00     0.049 A 
ATOM     52  C   UNL A   1      38.142  31.258  31.742  1.00  0.00     0.074 A 
ATOM     53  C   UNL A   1      42.549  29.361  35.862  1.00  0.00     0.029 A 
ATOM     54  N   UNL A   1      41.277  29.663  34.065  1.00  0.00    -0.354 N 
ATOM     55  N   UNL A   1      39.093  30.822  32.532  1.00  0.00    -0.248 NA
ATOM     56  C   UNL A   1      37.169  32.136  32.414  1.00  0.00     0.031 C 
ATOM     57  C   UNL A   1      41.488  30.202  36.211  1.00  0.00     0.029 A 
ATOM     58  C   UNL A   1      40.715  30.420  35.082  1.00  0.00     0.049 A 
ATOM     59  H   UNL A   1      40.932  29.608  33.144  1.00  0.00     0.167 HD
ATOM     60  C   UNL A   1      38.856  31.401  33.777  1.00  0.00     0.074 A 
ATOM     61  C   UNL A   1      37.682  32.233  33.631  1.00  0.00     0.031 C 
ATOM     62  C   UNL A   1      39.551  31.257  34.933  1.00  0.00     0.037 A 
BRANCH  49  63
ATOM     63  C   UNL A   1      44.364  27.417  34.431  1.00  0.00     0.064 A 
ATOM     64  C   UNL A   1      45.640  27.999  34.479  1.00  0.00     0.173 A 
ATOM     65  C   UNL A   1      44.187  26.172  35.054  1.00  0.00     0.173 A 
ATOM     66  F   UNL A   1      45.868  29.179  33.885  1.00  0.00    -0.203 F 
ATOM     67  C   UNL A   1      46.703  27.344  35.098  1.00  0.00     0.198 A 
ATOM     68  C   UNL A   1      45.243  25.537  35.702  1.00  0.00     0.198 A 
ATOM     69  F   UNL A   1      42.987  25.572  35.039  1.00  0.00    -0.203 F 
ATOM     70  F   UNL A   1      47.926  27.890  35.080  1.00  0.00    -0.200 F 
ATOM     71  C   UNL A   1      46.501  26.119  35.716  1.00  0.00     0.200 A 
ATOM     72  F   UNL A   1      45.042  24.361  36.311  1.00  0.00    -0.200 F 
ATOM     73  F   UNL A   1      47.523  25.493  36.316  1.00  0.00    -0.200 F 
ENDBRANCH  49  63
BRANCH  50  74
ATOM     74  C   UNL A   1      36.768  31.633  29.569  1.00  0.00     0.064 A 
ATOM     75  C   UNL A   1      35.683  30.869  29.114  1.00  0.00     0.173 A 
ATOM     76  C   UNL A   1      36.756  33.007  29.288  1.00  0.00     0.173 A 
ATOM     77  F   UNL A   1      35.663  29.544  29.323  1.00  0.00    -0.203 F 
ATOM     78  C   UNL A   1      34.647  31.448  28.384  1.00  0.00     0.198 A 
ATOM     79  C   UNL A   1      35.702  33.592  28.588  1.00  0.00     0.198 A 
ATOM     80  F   UNL A   1      37.773  33.783  29.688  1.00  0.00    -0.203 F 
ATOM     81  F   UNL A   1      33.656  30.682  27.906  1.00  0.00    -0.200 F 
ATOM     82  C   UNL A   1      34.653  32.811  28.128  1.00  0.00     0.200 A 
ATOM     83  F   UNL A   1      35.709  34.911  28.349  1.00  0.00    -0.200 F 
ATOM     84  F   UNL A   1      33.657  33.368  27.424  1.00  0.00    -0.200 F 
ENDBRANCH  50  74
BRANCH  62  85
ATOM     85  C   UNL A   1      39.098  32.059  36.124  1.00  0.00     0.064 A 
ATOM     86  C   UNL A   1      38.188  31.553  37.065  1.00  0.00     0.173 A 
ATOM     87  C   UNL A   1      39.596  33.356  36.334  1.00  0.00     0.173 A 
ATOM     88  F   UNL A   1      37.674  30.323  36.911  1.00  0.00    -0.203 F 
ATOM     89  C   UNL A   1      37.757  32.329  38.138  1.00  0.00     0.198 A 
ATOM     90  C   UNL A   1      39.193  34.115  37.430  1.00  0.00     0.198 A 
ATOM     91  F   UNL A   1      40.481  33.889  35.477  1.00  0.00    -0.203 F 
ATOM     92  F   UNL A   1      36.833  31.848  38.982  1.00  0.00    -0.200 F 
ATOM     93  C   UNL A   1      38.263  33.607  38.323  1.00  0.00     0.200 A 
ATOM     94  F   UNL A   1      39.700  35.342  37.618  1.00  0.00    -0.200 F 
ATOM     95  F   UNL A   1      37.846  34.353  39.356  1.00  0.00    -0.200 F 
ENDBRANCH  62  85
ENDBRANCH  36  37
ENDBRANCH  29  31
ENDBRANCH  28  29
ENDBRANCH  27  28
ENDBRANCH  26  27
ENDBRANCH  25  26
ENDBRANCH  24  25
ENDBRANCH  23  24
ENDBRANCH  22  23
ENDBRANCH  21  22
ENDBRANCH   1  21
TORSDOF 25
ENDMDL
MODEL 3
REMARK VINA RESULT:      -9.6      5.037     11.046
REMARK SMILES CC(=O)Oc1ccccc1SCCCCCC(=O)OCCOCCOCCOC(=O)c1ccc(-c2c3nc(c(-c4c(F)c(F)c(F)c(F)c4F)c4ccc([nH]4)c(-c4c(F)c(F)c(F)c(F)c4F)c4nc(c(-c5c(F)c(F)c(F)c(F)c5F)c5ccc2[nH]5)C=C4)C=C3)cc1
REMARK SMILES IDX 20 1 19 2 17 3 18 4 16 5 15 6 14 7 13 8 12 9 11 10 10 11
REMARK SMILES IDX 5 12 6 13 7 14 9 15 8 16 4 17 2 18 1 19 3 20 21 21 22 22
REMARK SMILES IDX 23 23 24 24 25 25 26 26 27 27 28 28 29 29 30 30 31 31 32 32
REMARK SMILES IDX 93 33 33 34 92 35 34 36 35 37 36 38 86 39 37 40 91 41 85 42
REMARK SMILES IDX 87 43 38 44 90 45 84 46 83 47 39 49 71 50 51 51 70 52 52 53
REMARK SMILES IDX 55 54 69 55 88 56 53 57 54 58 68 60 89 61 56 62 40 63 41 64
REMARK SMILES IDX 49 65 42 66 43 67 47 68 50 69 44 70 45 71 48 72 46 73 72 74
REMARK SMILES IDX 73 75 81 76 74 77 75 78 79 79 82 80 76 81 77 82 80 83 78 84
REMARK SMILES IDX 57 85 58 86 66 87 59 88 60 89 64 90 67 91 61 92 62 93 65 94
REMARK SMILES IDX 63 95
REMARK H PARENT 87 48 55 59
REMARK Flexibility Score: inf
ROOT
ATOM      1  C   UNL A   1      38.682  21.661  25.909  1.00  0.00     0.261 C 
ENDROOT
BRANCH   1   2
ATOM      2  O   UNL A   1      37.945  22.708  25.272  1.00  0.00    -0.463 OA
BRANCH   2   3
ATOM      3  C   UNL A   1      36.853  22.336  24.562  1.00  0.00     0.305 C 
ATOM      4  O   UNL A   1      36.614  22.639  23.399  1.00  0.00    -0.252 OA
BRANCH   3   5
ATOM      5  C   UNL A   1      35.968  21.418  25.361  1.00  0.00     0.123 C 
BRANCH   5   6
ATOM      6  C   UNL A   1      34.639  21.071  24.702  1.00  0.00     0.012 C 
BRANCH   6   7
ATOM      7  C   UNL A   1      33.541  22.122  24.380  1.00  0.00     0.001 C 
BRANCH   7   8
ATOM      8  C   UNL A   1      33.309  23.505  25.038  1.00  0.00     0.011 C 
BRANCH   8   9
ATOM      9  C   UNL A   1      34.062  24.853  24.812  1.00  0.00     0.075 C 
BRANCH   9  10
ATOM     10  S   UNL A   1      33.641  26.317  23.714  1.00  0.00    -0.122 SA
BRANCH  10  11
ATOM     11  C   UNL A   1      31.924  26.822  23.864  1.00  0.00     0.050 A 
ATOM     12  C   UNL A   1      31.382  28.106  24.036  1.00  0.00     0.144 A 
ATOM     13  C   UNL A   1      30.017  28.354  23.771  1.00  0.00     0.048 A 
ATOM     14  C   UNL A   1      29.159  27.293  23.495  1.00  0.00     0.004 A 
ATOM     15  C   UNL A   1      31.004  25.764  23.796  1.00  0.00     0.019 A 
ATOM     16  C   UNL A   1      29.636  25.993  23.607  1.00  0.00     0.001 A 
BRANCH  12  17
ATOM     17  O   UNL A   1      32.191  29.202  24.356  1.00  0.00    -0.426 OA
BRANCH  17  18
ATOM     18  C   UNL A   1      31.785  29.534  25.610  1.00  0.00     0.308 C 
ATOM     19  C   UNL A   1      31.289  30.939  25.753  1.00  0.00     0.139 C 
ATOM     20  O   UNL A   1      31.781  28.734  26.530  1.00  0.00    -0.252 OA
ENDBRANCH  17  18
ENDBRANCH  12  17
ENDBRANCH  10  11
ENDBRANCH   9  10
ENDBRANCH   8   9
ENDBRANCH   7   8
ENDBRANCH   6   7
ENDBRANCH   5   6
ENDBRANCH   3   5
ENDBRANCH   2   3
ENDBRANCH   1   2
BRANCH   1  21
ATOM     21  C   UNL A   1      40.031  22.144  26.450  1.00  0.00     0.202 C 
BRANCH  21  22
ATOM     22  O   UNL A   1      40.868  21.144  27.031  1.00  0.00    -0.376 OA
BRANCH  22  23
ATOM     23  C   UNL A   1      41.175  20.010  26.224  1.00  0.00     0.188 C 
BRANCH  23  24
ATOM     24  C   UNL A   1      42.659  19.663  26.115  1.00  0.00     0.188 C 
BRANCH  24  25
ATOM     25  O   UNL A   1      43.351  20.272  25.038  1.00  0.00    -0.376 OA
BRANCH  25  26
ATOM     26  C   UNL A   1      43.942  21.552  25.279  1.00  0.00     0.202 C 
BRANCH  26  27
ATOM     27  C   UNL A   1      44.009  22.602  24.144  1.00  0.00     0.261 C 
BRANCH  27  28
ATOM     28  O   UNL A   1      44.356  23.950  24.522  1.00  0.00    -0.460 OA
BRANCH  28  29
ATOM     29  C   UNL A   1      44.917  24.133  25.745  1.00  0.00     0.338 C 
ATOM     30  O   UNL A   1      46.036  23.826  26.072  1.00  0.00    -0.246 OA
BRANCH  29  31
ATOM     31  C   UNL A   1      44.000  24.992  26.565  1.00  0.00     0.060 A 
ATOM     32  C   UNL A   1      44.309  26.356  26.665  1.00  0.00     0.016 A 
ATOM     33  C   UNL A   1      42.847  24.504  27.190  1.00  0.00     0.016 A 
ATOM     34  C   UNL A   1      43.528  27.208  27.456  1.00  0.00     0.010 A 
ATOM     35  C   UNL A   1      42.065  25.358  27.987  1.00  0.00     0.010 A 
ATOM     36  C   UNL A   1      42.436  26.704  28.173  1.00  0.00    -0.014 A 
BRANCH  36  37
ATOM     37  C   UNL A   1      41.876  27.504  29.302  1.00  0.00     0.031 A 
ATOM     38  C   UNL A   1      42.577  27.426  30.638  1.00  0.00     0.074 A 
ATOM     39  C   UNL A   1      40.833  28.342  29.160  1.00  0.00     0.049 A 
ATOM     40  N   UNL A   1      42.306  28.035  31.767  1.00  0.00    -0.248 NA
ATOM     41  C   UNL A   1      43.748  26.536  30.706  1.00  0.00     0.031 C 
ATOM     42  C   UNL A   1      40.083  28.565  27.927  1.00  0.00     0.029 A 
ATOM     43  N   UNL A   1      40.226  29.173  30.076  1.00  0.00    -0.354 N 
ATOM     44  C   UNL A   1      43.268  27.599  32.672  1.00  0.00     0.074 A 
ATOM     45  C   UNL A   1      44.099  26.642  31.977  1.00  0.00     0.031 C 
ATOM     46  C   UNL A   1      39.115  29.469  28.162  1.00  0.00     0.029 A 
ATOM     47  C   UNL A   1      39.158  29.872  29.569  1.00  0.00     0.049 A 
ATOM     48  H   UNL A   1      40.530  29.256  31.009  1.00  0.00     0.167 HD
ATOM     49  C   UNL A   1      43.458  27.970  33.960  1.00  0.00     0.037 A 
ATOM     50  C   UNL A   1      38.305  30.727  30.173  1.00  0.00     0.037 A 
ATOM     51  C   UNL A   1      42.640  28.919  34.667  1.00  0.00     0.049 A 
ATOM     52  C   UNL A   1      38.490  31.067  31.634  1.00  0.00     0.074 A 
ATOM     53  C   UNL A   1      42.762  29.359  35.974  1.00  0.00     0.029 A 
ATOM     54  N   UNL A   1      41.542  29.571  34.128  1.00  0.00    -0.354 N 
ATOM     55  N   UNL A   1      39.414  30.666  32.474  1.00  0.00    -0.248 NA
ATOM     56  C   UNL A   1      37.511  31.993  32.228  1.00  0.00     0.031 C 
ATOM     57  C   UNL A   1      41.703  30.231  36.245  1.00  0.00     0.029 A 
ATOM     58  C   UNL A   1      40.963  30.392  35.085  1.00  0.00     0.049 A 
ATOM     59  H   UNL A   1      41.220  29.468  33.203  1.00  0.00     0.167 HD
ATOM     60  C   UNL A   1      39.152  31.318  33.676  1.00  0.00     0.074 A 
ATOM     61  C   UNL A   1      37.993  32.154  33.452  1.00  0.00     0.031 C 
ATOM     62  C   UNL A   1      39.814  31.232  34.857  1.00  0.00     0.037 A 
BRANCH  49  63
ATOM     63  C   UNL A   1      44.588  27.315  34.705  1.00  0.00     0.064 A 
ATOM     64  C   UNL A   1      44.448  26.052  35.303  1.00  0.00     0.173 A 
ATOM     65  C   UNL A   1      45.834  27.952  34.804  1.00  0.00     0.173 A 
ATOM     66  F   UNL A   1      43.273  25.408  35.254  1.00  0.00    -0.203 F 
ATOM     67  C   UNL A   1      45.504  25.469  36.001  1.00  0.00     0.198 A 
ATOM     68  C   UNL A   1      46.897  27.350  35.472  1.00  0.00     0.198 A 
ATOM     69  F   UNL A   1      46.023  29.158  34.249  1.00  0.00    -0.203 F 
ATOM     70  F   UNL A   1      45.328  24.292  36.616  1.00  0.00    -0.200 F 
ATOM     71  C   UNL A   1      46.728  26.114  36.077  1.00  0.00     0.200 A 
ATOM     72  F   UNL A   1      48.084  27.968  35.531  1.00  0.00    -0.200 F 
ATOM     73  F   UNL A   1      47.745  25.549  36.744  1.00  0.00    -0.200 F 
ENDBRANCH  49  63
BRANCH  50  74
ATOM     74  C   UNL A   1      37.179  31.332  29.407  1.00  0.00     0.064 A 
ATOM     75  C   UNL A   1      37.168  32.696  29.081  1.00  0.00     0.173 A 
ATOM     76  C   UNL A   1      36.061  30.569  29.039  1.00  0.00     0.173 A 
ATOM     77  F   UNL A   1      38.196  33.479  29.443  1.00  0.00    -0.203 F 
ATOM     78  C   UNL A   1      36.075  33.278  28.440  1.00  0.00     0.198 A 
ATOM     79  C   UNL A   1      34.983  31.144  28.368  1.00  0.00     0.198 A 
ATOM     80  F   UNL A   1      36.011  29.263  29.337  1.00  0.00    -0.203 F 
ATOM     81  F   UNL A   1      36.065  34.597  28.200  1.00  0.00    -0.200 F 
ATOM     82  C   UNL A   1      34.987  32.500  28.078  1.00  0.00     0.200 A 
ATOM     83  F   UNL A   1      33.935  30.387  28.013  1.00  0.00    -0.200 F 
ATOM     84  F   UNL A   1      33.934  33.060  27.464  1.00  0.00    -0.200 F 
ENDBRANCH  50  74
BRANCH  62  85
ATOM     85  C   UNL A   1      39.340  32.107  35.988  1.00  0.00     0.064 A 
ATOM     86  C   UNL A   1      39.864  33.390  36.211  1.00  0.00     0.173 A 
ATOM     87  C   UNL A   1      38.332  31.655  36.856  1.00  0.00     0.173 A 
ATOM     88  F   UNL A   1      40.834  33.870  35.418  1.00  0.00    -0.203 F 
ATOM     89  C   UNL A   1      39.434  34.165  37.286  1.00  0.00     0.198 A 
ATOM     90  C   UNL A   1      37.877  32.449  37.906  1.00  0.00     0.198 A 
ATOM     91  F   UNL A   1      37.782  30.444  36.684  1.00  0.00    -0.203 F 
ATOM     92  F   UNL A   1      40.001  35.356  37.519  1.00  0.00    -0.200 F 
ATOM     93  C   UNL A   1      38.438  33.696  38.130  1.00  0.00     0.200 A 
ATOM     94  F   UNL A   1      36.899  32.002  38.707  1.00  0.00    -0.200 F 
ATOM     95  F   UNL A   1      38.027  34.443  39.164  1.00  0.00    -0.200 F 
ENDBRANCH  62  85
ENDBRANCH  36  37
ENDBRANCH  29  31
ENDBRANCH  28  29
ENDBRANCH  27  28
ENDBRANCH  26  27
ENDBRANCH  25  26
ENDBRANCH  24  25
ENDBRANCH  23  24
ENDBRANCH  22  23
ENDBRANCH  21  22
ENDBRANCH   1  21
TORSDOF 25
ENDMDL
