MODEL 1
REMARK VINA RESULT:     -11.1      0.000      0.000
REMARK SMILES Nc1c(N2CCCC2)ncnc1N1CCC(C(=O)OCCOCCOCCOC(=O)c2ccc(-c3c4nc(c(-c5c(F)c(F)c(F)c(F)c5F)c5ccc([nH]5)c(-c5c(F)c(F)c(F)c(F)c5F)c5nc(c(-c6c(F)c(F)c(F)c(F)c6F)c6ccc3[nH]6)C=C5)C=C4)cc2)CC1
REMARK SMILES IDX 23 1 22 2 21 3 20 4 19 5 17 6 18 7 16 8 13 9 14 10 95 11
REMARK SMILES IDX 15 12 94 13 12 14 2 15 3 16 9 17 11 18 10 19 1 20 4 23 5 24
REMARK SMILES IDX 8 25 6 26 7 27 24 28 25 29 26 30 27 31 28 32 29 33 30 34
REMARK SMILES IDX 31 35 32 36 93 37 33 38 92 39 34 40 35 41 36 42 86 43 37 44
REMARK SMILES IDX 91 45 85 46 87 47 38 48 90 49 84 50 83 51 39 53 71 54 51 55
REMARK SMILES IDX 70 56 52 57 55 58 69 59 88 60 53 61 54 62 68 64 89 65 56 66
REMARK SMILES IDX 40 67 41 68 49 69 42 70 43 71 47 72 50 73 44 74 45 75 48 76
REMARK SMILES IDX 46 77 72 78 73 79 81 80 74 81 75 82 79 83 82 84 76 85 77 86
REMARK SMILES IDX 80 87 78 88 57 89 58 90 66 91 59 92 60 93 64 94 67 95 61 96
REMARK SMILES IDX 62 97 65 98 63 99
REMARK H PARENT 1 21 1 22 87 52 55 63
REMARK Flexibility Score: inf
ROOT
ATOM      1  C   UNL A   1      34.998  31.987  28.203  1.00  0.00     0.188 C 
ENDROOT
BRANCH   1   2
ATOM      2  O   UNL A   1      33.699  31.476  27.957  1.00  0.00    -0.376 OA
BRANCH   2   3
ATOM      3  C   UNL A   1      33.568  30.414  27.016  1.00  0.00     0.202 C 
BRANCH   3   4
ATOM      4  C   UNL A   1      33.155  29.026  27.532  1.00  0.00     0.261 C 
BRANCH   4   5
ATOM      5  O   UNL A   1      31.903  28.497  27.028  1.00  0.00    -0.463 OA
BRANCH   5   6
ATOM      6  C   UNL A   1      31.729  28.585  25.686  1.00  0.00     0.309 C 
ATOM      7  O   UNL A   1      31.386  29.610  25.101  1.00  0.00    -0.252 OA
BRANCH   6   8
ATOM      8  C   UNL A   1      32.005  27.308  24.904  1.00  0.00     0.103 C 
ATOM      9  N   UNL A   1      32.475  24.519  24.490  1.00  0.00    -0.355 N 
ATOM     10  C   UNL A   1      33.518  25.432  24.088  1.00  0.00     0.119 C 
ATOM     11  C   UNL A   1      31.104  24.991  24.598  1.00  0.00     0.119 C 
ATOM     12  C   UNL A   1      33.431  26.750  24.852  1.00  0.00     0.037 C 
ATOM     13  C   UNL A   1      31.050  26.245  25.450  1.00  0.00     0.037 C 
BRANCH   9  14
ATOM     14  C   UNL A   1      32.842  23.334  25.118  1.00  0.00     0.157 A 
ATOM     15  C   UNL A   1      32.960  22.163  24.351  1.00  0.00     0.118 A 
ATOM     16  C   UNL A   1      33.302  20.996  25.047  1.00  0.00     0.157 A 
ATOM     17  N   UNL A   1      33.441  20.990  26.385  1.00  0.00    -0.217 NA
ATOM     18  N   UNL A   1      33.058  23.356  26.443  1.00  0.00    -0.217 NA
ATOM     19  C   UNL A   1      33.336  22.173  27.006  1.00  0.00     0.226 A 
BRANCH  15  20
ATOM     20  N   UNL A   1      32.806  22.206  22.955  1.00  0.00    -0.393 N 
ATOM     21  H   UNL A   1      33.528  22.565  22.391  1.00  0.00     0.156 HD
ATOM     22  H   UNL A   1      31.974  21.879  22.541  1.00  0.00     0.156 HD
ENDBRANCH  15  20
BRANCH  16  23
ATOM     23  N   UNL A   1      33.483  19.789  24.409  1.00  0.00    -0.355 N 
ATOM     24  C   UNL A   1      32.400  18.951  23.929  1.00  0.00     0.118 C 
ATOM     25  C   UNL A   1      34.683  19.032  24.723  1.00  0.00     0.118 C 
ATOM     26  C   UNL A   1      32.793  17.566  24.436  1.00  0.00     0.023 C 
ATOM     27  C   UNL A   1      34.313  17.594  24.348  1.00  0.00     0.023 C 
ENDBRANCH  16  23
ENDBRANCH   9  14
ENDBRANCH   6   8
ENDBRANCH   5   6
ENDBRANCH   4   5
ENDBRANCH   3   4
ENDBRANCH   2   3
ENDBRANCH   1   2
BRANCH   1  28
ATOM     28  C   UNL A   1      35.260  33.469  27.925  1.00  0.00     0.188 C 
BRANCH  28  29
ATOM     29  O   UNL A   1      34.930  34.346  28.973  1.00  0.00    -0.376 OA
BRANCH  29  30
ATOM     30  C   UNL A   1      34.209  33.827  30.075  1.00  0.00     0.202 C 
BRANCH  30  31
ATOM     31  C   UNL A   1      34.996  33.712  31.398  1.00  0.00     0.261 C 
BRANCH  31  32
ATOM     32  O   UNL A   1      35.089  32.398  31.991  1.00  0.00    -0.460 OA
BRANCH  32  33
ATOM     33  C   UNL A   1      36.140  32.149  32.810  1.00  0.00     0.338 C 
ATOM     34  O   UNL A   1      36.156  32.273  34.025  1.00  0.00    -0.246 OA
BRANCH  33  35
ATOM     35  C   UNL A   1      37.168  31.401  32.030  1.00  0.00     0.060 A 
ATOM     36  C   UNL A   1      38.222  30.785  32.727  1.00  0.00     0.016 A 
ATOM     37  C   UNL A   1      37.065  31.235  30.648  1.00  0.00     0.016 A 
ATOM     38  C   UNL A   1      39.187  30.036  32.044  1.00  0.00     0.010 A 
ATOM     39  C   UNL A   1      38.049  30.511  29.960  1.00  0.00     0.010 A 
ATOM     40  C   UNL A   1      39.135  29.934  30.649  1.00  0.00    -0.014 A 
BRANCH  40  41
ATOM     41  C   UNL A   1      40.321  29.446  29.894  1.00  0.00     0.031 A 
ATOM     42  C   UNL A   1      41.469  30.399  29.695  1.00  0.00     0.074 A 
ATOM     43  C   UNL A   1      40.414  28.192  29.415  1.00  0.00     0.049 A 
ATOM     44  N   UNL A   1      42.591  30.234  29.043  1.00  0.00    -0.248 NA
ATOM     45  C   UNL A   1      41.325  31.723  30.321  1.00  0.00     0.031 C 
ATOM     46  C   UNL A   1      39.413  27.144  29.583  1.00  0.00     0.029 A 
ATOM     47  N   UNL A   1      41.412  27.592  28.682  1.00  0.00    -0.354 N 
ATOM     48  C   UNL A   1      43.286  31.428  29.184  1.00  0.00     0.074 A 
ATOM     49  C   UNL A   1      42.441  32.324  29.943  1.00  0.00     0.031 C 
ATOM     50  C   UNL A   1      39.845  26.027  28.971  1.00  0.00     0.029 A 
ATOM     51  C   UNL A   1      41.139  26.291  28.337  1.00  0.00     0.049 A 
ATOM     52  H   UNL A   1      42.244  28.053  28.427  1.00  0.00     0.167 HD
ATOM     53  C   UNL A   1      44.525  31.749  28.741  1.00  0.00     0.037 A 
ATOM     54  C   UNL A   1      41.845  25.418  27.586  1.00  0.00     0.037 A 
ATOM     55  C   UNL A   1      45.365  30.872  27.972  1.00  0.00     0.049 A 
ATOM     56  C   UNL A   1      43.170  25.835  26.994  1.00  0.00     0.074 A 
ATOM     57  C   UNL A   1      46.633  31.112  27.473  1.00  0.00     0.029 A 
ATOM     58  N   UNL A   1      45.018  29.587  27.579  1.00  0.00    -0.354 N 
ATOM     59  N   UNL A   1      43.827  26.960  27.142  1.00  0.00    -0.248 NA
ATOM     60  C   UNL A   1      43.849  24.860  26.125  1.00  0.00     0.031 C 
ATOM     61  C   UNL A   1      47.029  29.997  26.729  1.00  0.00     0.029 A 
ATOM     62  C   UNL A   1      46.034  29.036  26.815  1.00  0.00     0.049 A 
ATOM     63  H   UNL A   1      44.175  29.134  27.810  1.00  0.00     0.167 HD
ATOM     64  C   UNL A   1      44.999  26.822  26.408  1.00  0.00     0.074 A 
ATOM     65  C   UNL A   1      44.974  25.497  25.825  1.00  0.00     0.031 C 
ATOM     66  C   UNL A   1      46.005  27.716  26.235  1.00  0.00     0.037 A 
BRANCH  53  67
ATOM     67  C   UNL A   1      45.035  33.124  29.064  1.00  0.00     0.064 A 
ATOM     68  C   UNL A   1      45.933  33.345  30.119  1.00  0.00     0.173 A 
ATOM     69  C   UNL A   1      44.636  34.230  28.299  1.00  0.00     0.173 A 
ATOM     70  F   UNL A   1      46.333  32.323  30.892  1.00  0.00    -0.203 F 
ATOM     71  C   UNL A   1      46.387  34.627  30.417  1.00  0.00     0.198 A 
ATOM     72  C   UNL A   1      45.120  35.506  28.579  1.00  0.00     0.198 A 
ATOM     73  F   UNL A   1      43.781  34.075  27.277  1.00  0.00    -0.203 F 
ATOM     74  F   UNL A   1      47.200  34.821  31.465  1.00  0.00    -0.200 F 
ATOM     75  C   UNL A   1      45.987  35.705  29.643  1.00  0.00     0.200 A 
ATOM     76  F   UNL A   1      44.743  36.545  27.820  1.00  0.00    -0.200 F 
ATOM     77  F   UNL A   1      46.430  36.937  29.926  1.00  0.00    -0.200 F 
ENDBRANCH  53  67
BRANCH  54  78
ATOM     78  C   UNL A   1      41.317  24.045  27.364  1.00  0.00     0.064 A 
ATOM     79  C   UNL A   1      40.207  23.828  26.536  1.00  0.00     0.173 A 
ATOM     80  C   UNL A   1      41.917  22.924  27.957  1.00  0.00     0.173 A 
ATOM     81  F   UNL A   1      39.576  24.871  25.975  1.00  0.00    -0.203 F 
ATOM     82  C   UNL A   1      39.724  22.542  26.301  1.00  0.00     0.198 A 
ATOM     83  C   UNL A   1      41.449  21.636  27.701  1.00  0.00     0.198 A 
ATOM     84  F   UNL A   1      42.972  23.078  28.770  1.00  0.00    -0.203 F 
ATOM     85  F   UNL A   1      38.646  22.365  25.525  1.00  0.00    -0.200 F 
ATOM     86  C   UNL A   1      40.352  21.447  26.874  1.00  0.00     0.200 A 
ATOM     87  F   UNL A   1      42.063  20.580  28.251  1.00  0.00    -0.200 F 
ATOM     88  F   UNL A   1      39.898  20.209  26.632  1.00  0.00    -0.200 F 
ENDBRANCH  54  78
BRANCH  66  89
ATOM     89  C   UNL A   1      47.182  27.308  25.392  1.00  0.00     0.064 A 
ATOM     90  C   UNL A   1      47.272  27.663  24.038  1.00  0.00     0.173 A 
ATOM     91  C   UNL A   1      48.277  26.643  25.967  1.00  0.00     0.173 A 
ATOM     92  F   UNL A   1      46.250  28.290  23.435  1.00  0.00    -0.203 F 
ATOM     93  C   UNL A   1      48.408  27.361  23.291  1.00  0.00     0.198 A 
ATOM     94  C   UNL A   1      49.424  26.370  25.226  1.00  0.00     0.198 A 
ATOM     95  F   UNL A   1      48.249  26.290  27.261  1.00  0.00    -0.203 F 
ATOM     96  F   UNL A   1      48.459  27.686  21.991  1.00  0.00    -0.200 F 
ATOM     97  C   UNL A   1      49.487  26.727  23.888  1.00  0.00     0.200 A 
ATOM     98  F   UNL A   1      50.473  25.776  25.811  1.00  0.00    -0.200 F 
ATOM     99  F   UNL A   1      50.590  26.460  23.174  1.00  0.00    -0.200 F 
ENDBRANCH  66  89
ENDBRANCH  40  41
ENDBRANCH  33  35
ENDBRANCH  32  33
ENDBRANCH  31  32
ENDBRANCH  30  31
ENDBRANCH  29  30
ENDBRANCH  28  29
ENDBRANCH   1  28
TORSDOF 20
ENDMDL
MODEL 2
REMARK VINA RESULT:     -11.0      4.716      7.608
REMARK SMILES Nc1c(N2CCCC2)ncnc1N1CCC(C(=O)OCCOCCOCCOC(=O)c2ccc(-c3c4nc(c(-c5c(F)c(F)c(F)c(F)c5F)c5ccc([nH]5)c(-c5c(F)c(F)c(F)c(F)c5F)c5nc(c(-c6c(F)c(F)c(F)c(F)c6F)c6ccc3[nH]6)C=C5)C=C4)cc2)CC1
REMARK SMILES IDX 23 1 22 2 21 3 20 4 19 5 17 6 18 7 16 8 13 9 14 10 95 11
REMARK SMILES IDX 15 12 94 13 12 14 2 15 3 16 9 17 11 18 10 19 1 20 4 23 5 24
REMARK SMILES IDX 8 25 6 26 7 27 24 28 25 29 26 30 27 31 28 32 29 33 30 34
REMARK SMILES IDX 31 35 32 36 93 37 33 38 92 39 34 40 35 41 36 42 86 43 37 44
REMARK SMILES IDX 91 45 85 46 87 47 38 48 90 49 84 50 83 51 39 53 71 54 51 55
REMARK SMILES IDX 70 56 52 57 55 58 69 59 88 60 53 61 54 62 68 64 89 65 56 66
REMARK SMILES IDX 40 67 41 68 49 69 42 70 43 71 47 72 50 73 44 74 45 75 48 76
REMARK SMILES IDX 46 77 72 78 73 79 81 80 74 81 75 82 79 83 82 84 76 85 77 86
REMARK SMILES IDX 80 87 78 88 57 89 58 90 66 91 59 92 60 93 64 94 67 95 61 96
REMARK SMILES IDX 62 97 65 98 63 99
REMARK H PARENT 1 21 1 22 87 52 55 63
REMARK Flexibility Score: inf
ROOT
ATOM      1  C   UNL A   1      35.612  33.473  34.001  1.00  0.00     0.188 C 
ENDROOT
BRANCH   1   2
ATOM      2  O   UNL A   1      36.848  34.157  33.900  1.00  0.00    -0.376 OA
BRANCH   2   3
ATOM      3  C   UNL A   1      37.856  33.857  34.862  1.00  0.00     0.202 C 
BRANCH   3   4
ATOM      4  C   UNL A   1      39.135  33.148  34.387  1.00  0.00     0.261 C 
BRANCH   4   5
ATOM      5  O   UNL A   1      38.966  32.120  33.380  1.00  0.00    -0.463 OA
BRANCH   5   6
ATOM      6  C   UNL A   1      38.897  30.849  33.848  1.00  0.00     0.309 C 
ATOM      7  O   UNL A   1      37.846  30.269  34.115  1.00  0.00    -0.252 OA
BRANCH   6   8
ATOM      8  C   UNL A   1      40.233  30.140  34.021  1.00  0.00     0.103 C 
ATOM      9  N   UNL A   1      42.022  27.948  34.428  1.00  0.00    -0.355 N 
ATOM     10  C   UNL A   1      42.030  29.000  35.416  1.00  0.00     0.119 C 
ATOM     11  C   UNL A   1      41.545  28.223  33.083  1.00  0.00     0.119 C 
ATOM     12  C   UNL A   1      40.710  29.765  35.428  1.00  0.00     0.037 C 
ATOM     13  C   UNL A   1      40.184  28.891  33.139  1.00  0.00     0.037 C 
BRANCH   9  14
ATOM     14  C   UNL A   1      42.107  26.632  34.868  1.00  0.00     0.157 A 
ATOM     15  C   UNL A   1      43.269  25.893  34.591  1.00  0.00     0.118 A 
ATOM     16  C   UNL A   1      43.281  24.563  35.033  1.00  0.00     0.157 A 
ATOM     17  N   UNL A   1      42.209  24.010  35.628  1.00  0.00    -0.217 NA
ATOM     18  N   UNL A   1      41.063  26.113  35.534  1.00  0.00    -0.217 NA
ATOM     19  C   UNL A   1      41.169  24.821  35.868  1.00  0.00     0.226 A 
BRANCH  15  20
ATOM     20  N   UNL A   1      44.370  26.503  33.965  1.00  0.00    -0.393 N 
ATOM     21  H   UNL A   1      44.542  27.464  34.098  1.00  0.00     0.156 HD
ATOM     22  H   UNL A   1      44.968  25.971  33.392  1.00  0.00     0.156 HD
ENDBRANCH  15  20
BRANCH  16  23
ATOM     23  N   UNL A   1      44.373  23.742  34.856  1.00  0.00    -0.355 N 
ATOM     24  C   UNL A   1      44.412  22.629  33.925  1.00  0.00     0.118 C 
ATOM     25  C   UNL A   1      45.276  23.566  35.980  1.00  0.00     0.118 C 
ATOM     26  C   UNL A   1      45.001  21.503  34.768  1.00  0.00     0.023 C 
ATOM     27  C   UNL A   1      45.976  22.238  35.680  1.00  0.00     0.023 C 
ENDBRANCH  16  23
ENDBRANCH   9  14
ENDBRANCH   6   8
ENDBRANCH   5   6
ENDBRANCH   4   5
ENDBRANCH   3   4
ENDBRANCH   2   3
ENDBRANCH   1   2
BRANCH   1  28
ATOM     28  C   UNL A   1      34.905  33.056  32.709  1.00  0.00     0.188 C 
BRANCH  28  29
ATOM     29  O   UNL A   1      34.850  34.040  31.707  1.00  0.00    -0.376 OA
BRANCH  29  30
ATOM     30  C   UNL A   1      35.605  33.832  30.527  1.00  0.00     0.202 C 
BRANCH  30  31
ATOM     31  C   UNL A   1      34.832  33.237  29.331  1.00  0.00     0.261 C 
BRANCH  31  32
ATOM     32  O   UNL A   1      34.386  31.869  29.457  1.00  0.00    -0.460 OA
BRANCH  32  33
ATOM     33  C   UNL A   1      34.539  31.054  28.385  1.00  0.00     0.338 C 
ATOM     34  O   UNL A   1      33.822  31.015  27.396  1.00  0.00    -0.246 OA
BRANCH  33  35
ATOM     35  C   UNL A   1      35.896  30.440  28.461  1.00  0.00     0.060 A 
ATOM     36  C   UNL A   1      36.278  29.801  29.654  1.00  0.00     0.016 A 
ATOM     37  C   UNL A   1      36.755  30.416  27.360  1.00  0.00     0.016 A 
ATOM     38  C   UNL A   1      37.524  29.172  29.759  1.00  0.00     0.010 A 
ATOM     39  C   UNL A   1      38.016  29.815  27.476  1.00  0.00     0.010 A 
ATOM     40  C   UNL A   1      38.422  29.217  28.686  1.00  0.00    -0.014 A 
BRANCH  40  41
ATOM     41  C   UNL A   1      39.852  28.864  28.899  1.00  0.00     0.031 A 
ATOM     42  C   UNL A   1      40.717  29.851  29.639  1.00  0.00     0.074 A 
ATOM     43  C   UNL A   1      40.385  27.700  28.486  1.00  0.00     0.049 A 
ATOM     44  N   UNL A   1      41.995  29.801  29.917  1.00  0.00    -0.248 NA
ATOM     45  C   UNL A   1      40.040  31.060  30.131  1.00  0.00     0.031 C 
ATOM     46  C   UNL A   1      39.660  26.627  27.814  1.00  0.00     0.029 A 
ATOM     47  N   UNL A   1      41.676  27.232  28.574  1.00  0.00    -0.354 N 
ATOM     48  C   UNL A   1      42.271  30.967  30.618  1.00  0.00     0.074 A 
ATOM     49  C   UNL A   1      41.041  31.726  30.683  1.00  0.00     0.031 C 
ATOM     50  C   UNL A   1      40.515  25.623  27.550  1.00  0.00     0.029 A 
ATOM     51  C   UNL A   1      41.857  25.996  28.003  1.00  0.00     0.049 A 
ATOM     52  H   UNL A   1      42.403  27.736  29.007  1.00  0.00     0.167 HD
ATOM     53  C   UNL A   1      43.438  31.367  31.177  1.00  0.00     0.037 A 
ATOM     54  C   UNL A   1      42.978  25.258  27.851  1.00  0.00     0.037 A 
ATOM     55  C   UNL A   1      44.669  30.628  31.103  1.00  0.00     0.049 A 
ATOM     56  C   UNL A   1      44.297  25.777  28.371  1.00  0.00     0.074 A 
ATOM     57  C   UNL A   1      45.904  30.958  31.634  1.00  0.00     0.029 A 
ATOM     58  N   UNL A   1      44.826  29.416  30.448  1.00  0.00    -0.354 N 
ATOM     59  N   UNL A   1      44.549  26.873  29.044  1.00  0.00    -0.248 NA
ATOM     60  C   UNL A   1      45.488  24.955  28.105  1.00  0.00     0.031 C 
ATOM     61  C   UNL A   1      46.820  29.975  31.250  1.00  0.00     0.029 A 
ATOM     62  C   UNL A   1      46.146  29.000  30.532  1.00  0.00     0.049 A 
ATOM     63  H   UNL A   1      44.106  28.922  29.992  1.00  0.00     0.167 HD
ATOM     64  C   UNL A   1      45.915  26.864  29.300  1.00  0.00     0.074 A 
ATOM     65  C   UNL A   1      46.440  25.644  28.723  1.00  0.00     0.031 C 
ATOM     66  C   UNL A   1      46.665  27.785  29.955  1.00  0.00     0.037 A 
BRANCH  53  67
ATOM     67  C   UNL A   1      43.436  32.681  31.903  1.00  0.00     0.064 A 
ATOM     68  C   UNL A   1      43.290  32.751  33.296  1.00  0.00     0.173 A 
ATOM     69  C   UNL A   1      43.602  33.884  31.199  1.00  0.00     0.173 A 
ATOM     70  F   UNL A   1      43.112  31.631  34.014  1.00  0.00    -0.203 F 
ATOM     71  C   UNL A   1      43.276  33.978  33.955  1.00  0.00     0.198 A 
ATOM     72  C   UNL A   1      43.622  35.107  31.866  1.00  0.00     0.198 A 
ATOM     73  F   UNL A   1      43.749  33.875  29.866  1.00  0.00    -0.203 F 
ATOM     74  F   UNL A   1      43.078  34.022  35.280  1.00  0.00    -0.200 F 
ATOM     75  C   UNL A   1      43.450  35.153  33.242  1.00  0.00     0.200 A 
ATOM     76  F   UNL A   1      43.805  36.241  31.176  1.00  0.00    -0.200 F 
ATOM     77  F   UNL A   1      43.443  36.332  33.877  1.00  0.00    -0.200 F 
ENDBRANCH  53  67
BRANCH  54  78
ATOM     78  C   UNL A   1      42.897  23.929  27.186  1.00  0.00     0.064 A 
ATOM     79  C   UNL A   1      43.195  23.788  25.824  1.00  0.00     0.173 A 
ATOM     80  C   UNL A   1      42.540  22.774  27.898  1.00  0.00     0.173 A 
ATOM     81  F   UNL A   1      43.506  24.869  25.092  1.00  0.00    -0.203 F 
ATOM     82  C   UNL A   1      43.150  22.543  25.201  1.00  0.00     0.198 A 
ATOM     83  C   UNL A   1      42.520  21.524  27.281  1.00  0.00     0.198 A 
ATOM     84  F   UNL A   1      42.231  22.856  29.200  1.00  0.00    -0.203 F 
ATOM     85  F   UNL A   1      43.414  22.440  23.892  1.00  0.00    -0.200 F 
ATOM     86  C   UNL A   1      42.823  21.410  25.932  1.00  0.00     0.200 A 
ATOM     87  F   UNL A   1      42.212  20.432  27.992  1.00  0.00    -0.200 F 
ATOM     88  F   UNL A   1      42.799  20.210  25.337  1.00  0.00    -0.200 F 
ENDBRANCH  54  78
BRANCH  66  89
ATOM     89  C   UNL A   1      48.139  27.526  30.107  1.00  0.00     0.064 A 
ATOM     90  C   UNL A   1      48.639  26.719  31.139  1.00  0.00     0.173 A 
ATOM     91  C   UNL A   1      49.050  28.007  29.153  1.00  0.00     0.173 A 
ATOM     92  F   UNL A   1      47.814  26.242  32.083  1.00  0.00    -0.203 F 
ATOM     93  C   UNL A   1      49.995  26.410  31.214  1.00  0.00     0.198 A 
ATOM     94  C   UNL A   1      50.400  27.671  29.213  1.00  0.00     0.198 A 
ATOM     95  F   UNL A   1      48.624  28.775  28.138  1.00  0.00    -0.203 F 
ATOM     96  F   UNL A   1      50.455  25.658  32.225  1.00  0.00    -0.200 F 
ATOM     97  C   UNL A   1      50.872  26.875  30.245  1.00  0.00     0.200 A 
ATOM     98  F   UNL A   1      51.241  28.105  28.264  1.00  0.00    -0.200 F 
ATOM     99  F   UNL A   1      52.172  26.555  30.305  1.00  0.00    -0.200 F 
ENDBRANCH  66  89
ENDBRANCH  40  41
ENDBRANCH  33  35
ENDBRANCH  32  33
ENDBRANCH  31  32
ENDBRANCH  30  31
ENDBRANCH  29  30
ENDBRANCH  28  29
ENDBRANCH   1  28
TORSDOF 20
ENDMDL
MODEL 3
REMARK VINA RESULT:     -10.7      4.755      9.120
REMARK SMILES Nc1c(N2CCCC2)ncnc1N1CCC(C(=O)OCCOCCOCCOC(=O)c2ccc(-c3c4nc(c(-c5c(F)c(F)c(F)c(F)c5F)c5ccc([nH]5)c(-c5c(F)c(F)c(F)c(F)c5F)c5nc(c(-c6c(F)c(F)c(F)c(F)c6F)c6ccc3[nH]6)C=C5)C=C4)cc2)CC1
REMARK SMILES IDX 23 1 22 2 21 3 20 4 19 5 17 6 18 7 16 8 13 9 14 10 95 11
REMARK SMILES IDX 15 12 94 13 12 14 2 15 3 16 9 17 11 18 10 19 1 20 4 23 5 24
REMARK SMILES IDX 8 25 6 26 7 27 24 28 25 29 26 30 27 31 28 32 29 33 30 34
REMARK SMILES IDX 31 35 32 36 93 37 33 38 92 39 34 40 35 41 36 42 86 43 37 44
REMARK SMILES IDX 91 45 85 46 87 47 38 48 90 49 84 50 83 51 39 53 71 54 51 55
REMARK SMILES IDX 70 56 52 57 55 58 69 59 88 60 53 61 54 62 68 64 89 65 56 66
REMARK SMILES IDX 40 67 41 68 49 69 42 70 43 71 47 72 50 73 44 74 45 75 48 76
REMARK SMILES IDX 46 77 72 78 73 79 81 80 74 81 75 82 79 83 82 84 76 85 77 86
REMARK SMILES IDX 80 87 78 88 57 89 58 90 66 91 59 92 60 93 64 94 67 95 61 96
REMARK SMILES IDX 62 97 65 98 63 99
REMARK H PARENT 1 21 1 22 87 52 55 63
REMARK Flexibility Score: inf
ROOT
ATOM      1  C   UNL A   1      31.937  29.703  25.860  1.00  0.00     0.188 C 
ENDROOT
BRANCH   1   2
ATOM      2  O   UNL A   1      31.872  29.078  24.590  1.00  0.00    -0.376 OA
BRANCH   2   3
ATOM      3  C   UNL A   1      30.612  29.050  23.925  1.00  0.00     0.202 C 
BRANCH   3   4
ATOM      4  C   UNL A   1      30.588  28.786  22.410  1.00  0.00     0.261 C 
BRANCH   4   5
ATOM      5  O   UNL A   1      30.601  27.397  21.997  1.00  0.00    -0.463 OA
BRANCH   5   6
ATOM      6  C   UNL A   1      31.812  26.786  22.039  1.00  0.00     0.309 C 
ATOM      7  O   UNL A   1      32.885  27.386  22.059  1.00  0.00    -0.252 OA
BRANCH   6   8
ATOM      8  C   UNL A   1      31.779  25.266  22.075  1.00  0.00     0.103 C 
ATOM      9  N   UNL A   1      32.137  22.645  23.161  1.00  0.00    -0.355 N 
ATOM     10  C   UNL A   1      32.875  22.972  21.964  1.00  0.00     0.119 C 
ATOM     11  C   UNL A   1      30.925  23.379  23.485  1.00  0.00     0.119 C 
ATOM     12  C   UNL A   1      33.069  24.478  21.821  1.00  0.00     0.037 C 
ATOM     13  C   UNL A   1      31.189  24.872  23.431  1.00  0.00     0.037 C 
BRANCH   9  14
ATOM     14  C   UNL A   1      32.782  21.918  24.154  1.00  0.00     0.157 A 
ATOM     15  C   UNL A   1      32.843  20.518  24.046  1.00  0.00     0.118 A 
ATOM     16  C   UNL A   1      33.478  19.839  25.094  1.00  0.00     0.157 A 
ATOM     17  N   UNL A   1      33.942  20.492  26.175  1.00  0.00    -0.217 NA
ATOM     18  N   UNL A   1      33.314  22.585  25.191  1.00  0.00    -0.217 NA
ATOM     19  C   UNL A   1      33.857  21.829  26.153  1.00  0.00     0.226 A 
BRANCH  15  20
ATOM     20  N   UNL A   1      32.346  19.870  22.902  1.00  0.00    -0.393 N 
ATOM     21  H   UNL A   1      32.934  19.716  22.128  1.00  0.00     0.156 HD
ATOM     22  H   UNL A   1      31.408  19.571  22.875  1.00  0.00     0.156 HD
ENDBRANCH  15  20
BRANCH  16  23
ATOM     23  N   UNL A   1      33.636  18.471  25.093  1.00  0.00    -0.355 N 
ATOM     24  C   UNL A   1      34.660  17.770  24.341  1.00  0.00     0.118 C 
ATOM     25  C   UNL A   1      32.459  17.655  25.335  1.00  0.00     0.118 C 
ATOM     26  C   UNL A   1      33.878  16.644  23.672  1.00  0.00     0.023 C 
ATOM     27  C   UNL A   1      32.820  16.303  24.714  1.00  0.00     0.023 C 
ENDBRANCH  16  23
ENDBRANCH   9  14
ENDBRANCH   6   8
ENDBRANCH   5   6
ENDBRANCH   4   5
ENDBRANCH   3   4
ENDBRANCH   2   3
ENDBRANCH   1   2
BRANCH   1  28
ATOM     28  C   UNL A   1      33.313  29.904  26.501  1.00  0.00     0.188 C 
BRANCH  28  29
ATOM     29  O   UNL A   1      33.317  30.624  27.707  1.00  0.00    -0.376 OA
BRANCH  29  30
ATOM     30  C   UNL A   1      34.040  31.841  27.755  1.00  0.00     0.202 C 
BRANCH  30  31
ATOM     31  C   UNL A   1      33.195  33.128  27.656  1.00  0.00     0.261 C 
BRANCH  31  32
ATOM     32  O   UNL A   1      33.787  34.341  28.173  1.00  0.00    -0.460 OA
BRANCH  32  33
ATOM     33  C   UNL A   1      33.560  34.649  29.473  1.00  0.00     0.338 C 
ATOM     34  O   UNL A   1      32.504  35.028  29.955  1.00  0.00    -0.246 OA
BRANCH  33  35
ATOM     35  C   UNL A   1      34.715  34.150  30.275  1.00  0.00     0.060 A 
ATOM     36  C   UNL A   1      36.012  34.540  29.898  1.00  0.00     0.016 A 
ATOM     37  C   UNL A   1      34.534  33.378  31.424  1.00  0.00     0.016 A 
ATOM     38  C   UNL A   1      37.124  34.134  30.644  1.00  0.00     0.010 A 
ATOM     39  C   UNL A   1      35.650  32.944  32.152  1.00  0.00     0.010 A 
ATOM     40  C   UNL A   1      36.954  33.292  31.749  1.00  0.00    -0.014 A 
BRANCH  40  41
ATOM     41  C   UNL A   1      38.127  32.583  32.331  1.00  0.00     0.031 A 
ATOM     42  C   UNL A   1      38.719  31.442  31.546  1.00  0.00     0.074 A 
ATOM     43  C   UNL A   1      38.686  32.939  33.501  1.00  0.00     0.049 A 
ATOM     44  N   UNL A   1      39.709  30.642  31.849  1.00  0.00    -0.248 NA
ATOM     45  C   UNL A   1      38.104  31.170  30.238  1.00  0.00     0.031 C 
ATOM     46  C   UNL A   1      38.263  34.056  34.339  1.00  0.00     0.029 A 
ATOM     47  N   UNL A   1      39.742  32.383  34.188  1.00  0.00    -0.354 N 
ATOM     48  C   UNL A   1      39.837  29.778  30.769  1.00  0.00     0.074 A 
ATOM     49  C   UNL A   1      38.795  30.120  29.826  1.00  0.00     0.031 C 
ATOM     50  C   UNL A   1      39.049  34.106  35.429  1.00  0.00     0.029 A 
ATOM     51  C   UNL A   1      40.011  33.002  35.384  1.00  0.00     0.049 A 
ATOM     52  H   UNL A   1      40.255  31.612  33.854  1.00  0.00     0.167 HD
ATOM     53  C   UNL A   1      40.750  28.798  30.567  1.00  0.00     0.037 A 
ATOM     54  C   UNL A   1      40.920  32.705  36.338  1.00  0.00     0.037 A 
ATOM     55  C   UNL A   1      41.778  28.440  31.506  1.00  0.00     0.049 A 
ATOM     56  C   UNL A   1      41.849  31.530  36.152  1.00  0.00     0.074 A 
ATOM     57  C   UNL A   1      42.744  27.457  31.390  1.00  0.00     0.029 A 
ATOM     58  N   UNL A   1      41.968  29.044  32.740  1.00  0.00    -0.354 N 
ATOM     59  N   UNL A   1      41.973  30.726  35.125  1.00  0.00    -0.248 NA
ATOM     60  C   UNL A   1      42.762  31.219  37.264  1.00  0.00     0.031 C 
ATOM     61  C   UNL A   1      43.480  27.425  32.578  1.00  0.00     0.029 A 
ATOM     62  C   UNL A   1      43.015  28.431  33.410  1.00  0.00     0.049 A 
ATOM     63  H   UNL A   1      41.438  29.798  33.088  1.00  0.00     0.167 HD
ATOM     64  C   UNL A   1      42.986  29.832  35.453  1.00  0.00     0.074 A 
ATOM     65  C   UNL A   1      43.456  30.200  36.772  1.00  0.00     0.031 C 
ATOM     66  C   UNL A   1      43.480  28.800  34.724  1.00  0.00     0.037 A 
BRANCH  53  67
ATOM     67  C   UNL A   1      40.658  28.030  29.281  1.00  0.00     0.064 A 
ATOM     68  C   UNL A   1      39.786  26.940  29.136  1.00  0.00     0.173 A 
ATOM     69  C   UNL A   1      41.437  28.398  28.173  1.00  0.00     0.173 A 
ATOM     70  F   UNL A   1      39.031  26.537  30.170  1.00  0.00    -0.203 F 
ATOM     71  C   UNL A   1      39.721  26.228  27.942  1.00  0.00     0.198 A 
ATOM     72  C   UNL A   1      41.343  27.704  26.969  1.00  0.00     0.198 A 
ATOM     73  F   UNL A   1      42.285  29.434  28.255  1.00  0.00    -0.203 F 
ATOM     74  F   UNL A   1      38.922  25.155  27.847  1.00  0.00    -0.200 F 
ATOM     75  C   UNL A   1      40.493  26.614  26.858  1.00  0.00     0.200 A 
ATOM     76  F   UNL A   1      42.080  28.088  25.917  1.00  0.00    -0.200 F 
ATOM     77  F   UNL A   1      40.425  25.931  25.707  1.00  0.00    -0.200 F 
ENDBRANCH  53  67
BRANCH  54  78
ATOM     78  C   UNL A   1      41.008  33.553  37.558  1.00  0.00     0.064 A 
ATOM     79  C   UNL A   1      40.138  33.349  38.638  1.00  0.00     0.173 A 
ATOM     80  C   UNL A   1      41.969  34.568  37.678  1.00  0.00     0.173 A 
ATOM     81  F   UNL A   1      39.179  32.415  38.557  1.00  0.00    -0.203 F 
ATOM     82  C   UNL A   1      40.233  34.120  39.795  1.00  0.00     0.198 A 
ATOM     83  C   UNL A   1      42.080  35.321  38.845  1.00  0.00     0.198 A 
ATOM     84  F   UNL A   1      42.815  34.814  36.667  1.00  0.00    -0.203 F 
ATOM     85  F   UNL A   1      39.373  33.921  40.803  1.00  0.00    -0.200 F 
ATOM     86  C   UNL A   1      41.211  35.097  39.902  1.00  0.00     0.200 A 
ATOM     87  F   UNL A   1      43.031  36.260  38.947  1.00  0.00    -0.200 F 
ATOM     88  F   UNL A   1      41.313  35.825  41.023  1.00  0.00    -0.200 F 
ENDBRANCH  54  78
BRANCH  66  89
ATOM     89  C   UNL A   1      44.598  27.984  35.313  1.00  0.00     0.064 A 
ATOM     90  C   UNL A   1      44.344  26.873  36.129  1.00  0.00     0.173 A 
ATOM     91  C   UNL A   1      45.934  28.256  34.977  1.00  0.00     0.173 A 
ATOM     92  F   UNL A   1      43.087  26.573  36.490  1.00  0.00    -0.203 F 
ATOM     93  C   UNL A   1      45.384  26.069  36.592  1.00  0.00     0.198 A 
ATOM     94  C   UNL A   1      46.969  27.434  35.416  1.00  0.00     0.198 A 
ATOM     95  F   UNL A   1      46.234  29.302  34.191  1.00  0.00    -0.203 F 
ATOM     96  F   UNL A   1      45.118  25.028  37.393  1.00  0.00    -0.200 F 
ATOM     97  C   UNL A   1      46.693  26.343  36.225  1.00  0.00     0.200 A 
ATOM     98  F   UNL A   1      48.231  27.689  35.044  1.00  0.00    -0.200 F 
ATOM     99  F   UNL A   1      47.689  25.554  36.651  1.00  0.00    -0.200 F 
ENDBRANCH  66  89
ENDBRANCH  40  41
ENDBRANCH  33  35
ENDBRANCH  32  33
ENDBRANCH  31  32
ENDBRANCH  30  31
ENDBRANCH  29  30
ENDBRANCH  28  29
ENDBRANCH   1  28
TORSDOF 20
ENDMDL
