MODEL 1
REMARK VINA RESULT:     -11.9      0.000      0.000
REMARK SMILES Cc1nc(-c2ccccc2F)sc1C(=O)NCc1ccc(C(=O)OCCOCCOCCOC(=O)c2ccc(-c3c4nc(c(-c5c(F)c(F)c(F)c(F)c5F)c5ccc([nH]5)c(-c5c(F)c(F)c(F)c(F)c5F)c5nc(c(-c6c(F)c(F)c(F)c(F)c6F)c6ccc3[nH]6)C=C5)C=C4)cc2)cc1
REMARK SMILES IDX 28 1 27 2 26 3 25 4 24 5 22 6 23 7 21 8 18 9 19 10 100 11
REMARK SMILES IDX 20 12 99 13 17 14 16 15 14 16 15 17 13 19 1 20 2 21 3 22
REMARK SMILES IDX 4 23 12 24 5 25 6 26 10 27 7 28 9 29 11 30 8 31 29 32 30 33
REMARK SMILES IDX 31 34 32 35 33 36 34 37 35 38 36 39 37 40 98 41 38 42 97 43
REMARK SMILES IDX 39 44 40 45 41 46 91 47 42 48 96 49 90 50 92 51 43 52 95 53
REMARK SMILES IDX 89 54 88 55 44 57 76 58 56 59 75 60 57 61 60 62 74 63 93 64
REMARK SMILES IDX 58 65 59 66 73 68 94 69 61 70 45 71 46 72 54 73 47 74 48 75
REMARK SMILES IDX 52 76 55 77 49 78 50 79 53 80 51 81 77 82 78 83 86 84 79 85
REMARK SMILES IDX 80 86 84 87 87 88 81 89 82 90 85 91 83 92 62 93 63 94 71 95
REMARK SMILES IDX 64 96 65 97 69 98 72 99 66 100 67 101 70 102 68 103
REMARK H PARENT 16 18 92 56 60 67
REMARK Flexibility Score: inf
ROOT
ATOM      1  C   UNL A   1      43.801  18.876  24.632  1.00  0.00     0.188 C 
ENDROOT
BRANCH   1   2
ATOM      2  O   UNL A   1      42.486  19.204  25.058  1.00  0.00    -0.376 OA
BRANCH   2   3
ATOM      3  C   UNL A   1      42.271  19.680  26.381  1.00  0.00     0.202 C 
BRANCH   3   4
ATOM      4  C   UNL A   1      40.846  19.931  26.893  1.00  0.00     0.261 C 
BRANCH   4   5
ATOM      5  O   UNL A   1      39.952  20.458  25.902  1.00  0.00    -0.460 OA
BRANCH   5   6
ATOM      6  C   UNL A   1      39.431  21.679  26.186  1.00  0.00     0.338 C 
ATOM      7  O   UNL A   1      40.018  22.635  26.661  1.00  0.00    -0.246 OA
BRANCH   6   8
ATOM      8  C   UNL A   1      38.061  21.779  25.639  1.00  0.00     0.060 A 
ATOM      9  C   UNL A   1      35.456  22.112  24.647  1.00  0.00    -0.029 A 
ATOM     10  C   UNL A   1      36.241  23.224  24.968  1.00  0.00     0.006 A 
ATOM     11  C   UNL A   1      36.010  20.828  24.796  1.00  0.00     0.006 A 
ATOM     12  C   UNL A   1      37.529  23.061  25.471  1.00  0.00     0.016 A 
ATOM     13  C   UNL A   1      37.310  20.658  25.280  1.00  0.00     0.016 A 
BRANCH   9  14
ATOM     14  C   UNL A   1      34.016  22.267  24.232  1.00  0.00     0.152 C 
BRANCH  14  15
ATOM     15  N   UNL A   1      33.921  22.990  22.991  1.00  0.00    -0.347 N 
ATOM     16  C   UNL A   1      33.299  24.091  22.481  1.00  0.00     0.263 C 
ATOM     17  O   UNL A   1      33.523  24.174  21.262  1.00  0.00    -0.268 OA
ATOM     18  H   UNL A   1      34.473  22.557  22.300  1.00  0.00     0.164 HD
BRANCH  16  19
ATOM     19  C   UNL A   1      32.487  25.093  23.175  1.00  0.00     0.115 A 
ATOM     20  C   UNL A   1      32.986  25.538  25.748  1.00  0.00     0.068 C 
ATOM     21  C   UNL A   1      32.343  25.698  24.425  1.00  0.00     0.062 A 
ATOM     22  N   UNL A   1      31.376  26.700  24.490  1.00  0.00    -0.240 NA
ATOM     23  C   UNL A   1      30.738  26.851  23.360  1.00  0.00     0.127 A 
ATOM     24  S   UNL A   1      31.271  25.832  22.116  1.00  0.00    -0.108 S 
BRANCH  23  25
ATOM     25  C   UNL A   1      29.708  27.868  23.168  1.00  0.00     0.046 A 
ATOM     26  C   UNL A   1      30.104  29.174  22.829  1.00  0.00     0.014 A 
ATOM     27  C   UNL A   1      28.353  27.628  23.407  1.00  0.00     0.133 A 
ATOM     28  C   UNL A   1      29.169  30.207  22.740  1.00  0.00     0.001 A 
ATOM     29  C   UNL A   1      27.415  28.658  23.327  1.00  0.00     0.040 A 
ATOM     30  F   UNL A   1      27.924  26.409  23.768  1.00  0.00    -0.206 F 
ATOM     31  C   UNL A   1      27.825  29.950  22.997  1.00  0.00     0.003 A 
ENDBRANCH  23  25
ENDBRANCH  16  19
ENDBRANCH  14  15
ENDBRANCH   9  14
ENDBRANCH   6   8
ENDBRANCH   5   6
ENDBRANCH   4   5
ENDBRANCH   3   4
ENDBRANCH   2   3
ENDBRANCH   1   2
BRANCH   1  32
ATOM     32  C   UNL A   1      45.025  19.428  25.393  1.00  0.00     0.188 C 
BRANCH  32  33
ATOM     33  O   UNL A   1      45.082  20.824  25.542  1.00  0.00    -0.376 OA
BRANCH  33  34
ATOM     34  C   UNL A   1      45.933  21.612  24.727  1.00  0.00     0.202 C 
BRANCH  34  35
ATOM     35  C   UNL A   1      46.055  23.149  24.748  1.00  0.00     0.261 C 
BRANCH  35  36
ATOM     36  O   UNL A   1      45.212  23.891  25.628  1.00  0.00    -0.460 OA
BRANCH  36  37
ATOM     37  C   UNL A   1      43.964  24.146  25.172  1.00  0.00     0.338 C 
ATOM     38  O   UNL A   1      43.406  23.650  24.212  1.00  0.00    -0.246 OA
BRANCH  37  39
ATOM     39  C   UNL A   1      43.290  25.037  26.134  1.00  0.00     0.060 A 
ATOM     40  C   UNL A   1      43.644  26.390  26.153  1.00  0.00     0.016 A 
ATOM     41  C   UNL A   1      42.350  24.531  27.033  1.00  0.00     0.016 A 
ATOM     42  C   UNL A   1      43.075  27.243  27.098  1.00  0.00     0.010 A 
ATOM     43  C   UNL A   1      41.793  25.384  27.990  1.00  0.00     0.010 A 
ATOM     44  C   UNL A   1      42.174  26.736  28.044  1.00  0.00    -0.014 A 
BRANCH  44  45
ATOM     45  C   UNL A   1      41.751  27.584  29.183  1.00  0.00     0.031 A 
ATOM     46  C   UNL A   1      42.533  27.518  30.465  1.00  0.00     0.074 A 
ATOM     47  C   UNL A   1      40.703  28.418  29.074  1.00  0.00     0.049 A 
ATOM     48  N   UNL A   1      42.329  28.144  31.595  1.00  0.00    -0.248 NA
ATOM     49  C   UNL A   1      43.706  26.628  30.471  1.00  0.00     0.031 C 
ATOM     50  C   UNL A   1      39.892  28.600  27.872  1.00  0.00     0.029 A 
ATOM     51  N   UNL A   1      40.140  29.267  29.995  1.00  0.00    -0.354 N 
ATOM     52  C   UNL A   1      43.343  27.724  32.445  1.00  0.00     0.074 A 
ATOM     53  C   UNL A   1      44.145  26.769  31.713  1.00  0.00     0.031 C 
ATOM     54  C   UNL A   1      38.930  29.502  28.131  1.00  0.00     0.029 A 
ATOM     55  C   UNL A   1      39.037  29.935  29.524  1.00  0.00     0.049 A 
ATOM     56  H   UNL A   1      40.493  29.384  30.906  1.00  0.00     0.167 HD
ATOM     57  C   UNL A   1      43.589  28.112  33.718  1.00  0.00     0.037 A 
ATOM     58  C   UNL A   1      38.201  30.785  30.153  1.00  0.00     0.037 A 
ATOM     59  C   UNL A   1      42.791  29.063  34.445  1.00  0.00     0.049 A 
ATOM     60  C   UNL A   1      38.448  31.139  31.596  1.00  0.00     0.074 A 
ATOM     61  C   UNL A   1      42.973  29.530  35.735  1.00  0.00     0.029 A 
ATOM     62  N   UNL A   1      41.654  29.682  33.950  1.00  0.00    -0.354 N 
ATOM     63  N   UNL A   1      39.420  30.754  32.388  1.00  0.00    -0.248 NA
ATOM     64  C   UNL A   1      37.482  32.045  32.236  1.00  0.00     0.031 C 
ATOM     65  C   UNL A   1      41.917  30.393  36.039  1.00  0.00     0.029 A 
ATOM     66  C   UNL A   1      41.108  30.508  34.919  1.00  0.00     0.049 A 
ATOM     67  H   UNL A   1      41.289  29.555  33.045  1.00  0.00     0.167 HD
ATOM     68  C   UNL A   1      39.198  31.387  33.605  1.00  0.00     0.074 A 
ATOM     69  C   UNL A   1      38.004  32.189  33.447  1.00  0.00     0.031 C 
ATOM     70  C   UNL A   1      39.922  31.308  34.748  1.00  0.00     0.037 A 
BRANCH  57  71
ATOM     71  C   UNL A   1      44.766  27.500  34.419  1.00  0.00     0.064 A 
ATOM     72  C   UNL A   1      46.036  28.088  34.320  1.00  0.00     0.173 A 
ATOM     73  C   UNL A   1      44.651  26.297  35.131  1.00  0.00     0.173 A 
ATOM     74  F   UNL A   1      46.198  29.236  33.647  1.00  0.00    -0.203 F 
ATOM     75  C   UNL A   1      47.150  27.486  34.898  1.00  0.00     0.198 A 
ATOM     76  C   UNL A   1      45.763  25.712  35.732  1.00  0.00     0.198 A 
ATOM     77  F   UNL A   1      43.455  25.703  35.267  1.00  0.00    -0.203 F 
ATOM     78  F   UNL A   1      48.358  28.049  34.764  1.00  0.00    -0.200 F 
ATOM     79  C   UNL A   1      47.013  26.301  35.605  1.00  0.00     0.200 A 
ATOM     80  F   UNL A   1      45.625  24.580  36.435  1.00  0.00    -0.200 F 
ATOM     81  F   UNL A   1      48.085  25.728  36.169  1.00  0.00    -0.200 F 
ENDBRANCH  57  71
BRANCH  58  82
ATOM     82  C   UNL A   1      37.049  31.362  29.413  1.00  0.00     0.064 A 
ATOM     83  C   UNL A   1      35.941  30.575  29.062  1.00  0.00     0.173 A 
ATOM     84  C   UNL A   1      37.039  32.710  29.029  1.00  0.00     0.173 A 
ATOM     85  F   UNL A   1      35.899  29.282  29.413  1.00  0.00    -0.203 F 
ATOM     86  C   UNL A   1      34.878  31.110  28.337  1.00  0.00     0.198 A 
ATOM     87  C   UNL A   1      35.964  33.250  28.325  1.00  0.00     0.198 A 
ATOM     88  F   UNL A   1      38.062  33.508  29.366  1.00  0.00    -0.203 F 
ATOM     89  F   UNL A   1      33.846  30.329  27.990  1.00  0.00    -0.200 F 
ATOM     90  C   UNL A   1      34.889  32.447  27.972  1.00  0.00     0.200 A 
ATOM     91  F   UNL A   1      35.964  34.549  28.000  1.00  0.00    -0.200 F 
ATOM     92  F   UNL A   1      33.861  32.965  27.286  1.00  0.00    -0.200 F 
ENDBRANCH  58  82
BRANCH  70  93
ATOM     93  C   UNL A   1      39.468  32.124  35.925  1.00  0.00     0.064 A 
ATOM     94  C   UNL A   1      38.483  31.629  36.794  1.00  0.00     0.173 A 
ATOM     95  C   UNL A   1      39.936  33.429  36.138  1.00  0.00     0.173 A 
ATOM     96  F   UNL A   1      37.993  30.391  36.627  1.00  0.00    -0.203 F 
ATOM     97  C   UNL A   1      37.969  32.417  37.820  1.00  0.00     0.198 A 
ATOM     98  C   UNL A   1      39.441  34.204  37.184  1.00  0.00     0.198 A 
ATOM     99  F   UNL A   1      40.885  33.944  35.342  1.00  0.00    -0.203 F 
ATOM    100  F   UNL A   1      36.999  31.938  38.611  1.00  0.00    -0.200 F 
ATOM    101  C   UNL A   1      38.450  33.702  38.016  1.00  0.00     0.200 A 
ATOM    102  F   UNL A   1      39.922  35.438  37.386  1.00  0.00    -0.200 F 
ATOM    103  F   UNL A   1      37.959  34.459  39.007  1.00  0.00    -0.200 F 
ENDBRANCH  70  93
ENDBRANCH  44  45
ENDBRANCH  37  39
ENDBRANCH  36  37
ENDBRANCH  35  36
ENDBRANCH  34  35
ENDBRANCH  33  34
ENDBRANCH  32  33
ENDBRANCH   1  32
TORSDOF 21
ENDMDL
MODEL 2
REMARK VINA RESULT:     -11.7      4.886      7.519
REMARK SMILES Cc1nc(-c2ccccc2F)sc1C(=O)NCc1ccc(C(=O)OCCOCCOCCOC(=O)c2ccc(-c3c4nc(c(-c5c(F)c(F)c(F)c(F)c5F)c5ccc([nH]5)c(-c5c(F)c(F)c(F)c(F)c5F)c5nc(c(-c6c(F)c(F)c(F)c(F)c6F)c6ccc3[nH]6)C=C5)C=C4)cc2)cc1
REMARK SMILES IDX 28 1 27 2 26 3 25 4 24 5 22 6 23 7 21 8 18 9 19 10 100 11
REMARK SMILES IDX 20 12 99 13 17 14 16 15 14 16 15 17 13 19 1 20 2 21 3 22
REMARK SMILES IDX 4 23 12 24 5 25 6 26 10 27 7 28 9 29 11 30 8 31 29 32 30 33
REMARK SMILES IDX 31 34 32 35 33 36 34 37 35 38 36 39 37 40 98 41 38 42 97 43
REMARK SMILES IDX 39 44 40 45 41 46 91 47 42 48 96 49 90 50 92 51 43 52 95 53
REMARK SMILES IDX 89 54 88 55 44 57 76 58 56 59 75 60 57 61 60 62 74 63 93 64
REMARK SMILES IDX 58 65 59 66 73 68 94 69 61 70 45 71 46 72 54 73 47 74 48 75
REMARK SMILES IDX 52 76 55 77 49 78 50 79 53 80 51 81 77 82 78 83 86 84 79 85
REMARK SMILES IDX 80 86 84 87 87 88 81 89 82 90 85 91 83 92 62 93 63 94 71 95
REMARK SMILES IDX 64 96 65 97 69 98 72 99 66 100 67 101 70 102 68 103
REMARK H PARENT 16 18 92 56 60 67
REMARK Flexibility Score: inf
ROOT
ATOM      1  C   UNL A   1      41.315  22.382  28.126  1.00  0.00     0.188 C 
ENDROOT
BRANCH   1   2
ATOM      2  O   UNL A   1      40.789  23.375  27.257  1.00  0.00    -0.376 OA
BRANCH   2   3
ATOM      3  C   UNL A   1      39.424  23.315  26.860  1.00  0.00     0.202 C 
BRANCH   3   4
ATOM      4  C   UNL A   1      38.902  22.119  26.052  1.00  0.00     0.261 C 
BRANCH   4   5
ATOM      5  O   UNL A   1      37.473  22.055  25.955  1.00  0.00    -0.460 OA
BRANCH   5   6
ATOM      6  C   UNL A   1      36.994  21.147  25.069  1.00  0.00     0.338 C 
ATOM      7  O   UNL A   1      37.450  20.042  24.831  1.00  0.00    -0.246 OA
BRANCH   6   8
ATOM      8  C   UNL A   1      35.682  21.592  24.553  1.00  0.00     0.060 A 
ATOM      9  C   UNL A   1      33.132  22.311  23.623  1.00  0.00    -0.029 A 
ATOM     10  C   UNL A   1      33.283  21.277  24.552  1.00  0.00     0.006 A 
ATOM     11  C   UNL A   1      34.277  23.006  23.193  1.00  0.00     0.006 A 
ATOM     12  C   UNL A   1      34.548  20.911  25.006  1.00  0.00     0.016 A 
ATOM     13  C   UNL A   1      35.547  22.658  23.661  1.00  0.00     0.016 A 
BRANCH   9  14
ATOM     14  C   UNL A   1      31.789  22.627  23.020  1.00  0.00     0.152 C 
BRANCH  14  15
ATOM     15  N   UNL A   1      31.818  23.907  22.360  1.00  0.00    -0.347 N 
ATOM     16  C   UNL A   1      31.878  25.232  22.676  1.00  0.00     0.263 C 
ATOM     17  O   UNL A   1      31.766  25.915  21.645  1.00  0.00    -0.268 OA
ATOM     18  H   UNL A   1      31.784  23.788  21.383  1.00  0.00     0.164 HD
BRANCH  16  19
ATOM     19  C   UNL A   1      32.062  25.857  23.987  1.00  0.00     0.115 A 
ATOM     20  C   UNL A   1      31.489  24.418  26.147  1.00  0.00     0.068 C 
ATOM     21  C   UNL A   1      31.945  25.577  25.350  1.00  0.00     0.062 A 
ATOM     22  N   UNL A   1      32.344  26.606  26.202  1.00  0.00    -0.240 NA
ATOM     23  C   UNL A   1      32.710  27.679  25.552  1.00  0.00     0.127 A 
ATOM     24  S   UNL A   1      32.643  27.529  23.865  1.00  0.00    -0.108 S 
BRANCH  23  25
ATOM     25  C   UNL A   1      33.209  28.875  26.224  1.00  0.00     0.046 A 
ATOM     26  C   UNL A   1      34.432  28.801  26.913  1.00  0.00     0.014 A 
ATOM     27  C   UNL A   1      32.476  30.061  26.302  1.00  0.00     0.133 A 
ATOM     28  C   UNL A   1      34.900  29.882  27.662  1.00  0.00     0.001 A 
ATOM     29  C   UNL A   1      32.935  31.142  27.055  1.00  0.00     0.040 A 
ATOM     30  F   UNL A   1      31.286  30.175  25.693  1.00  0.00    -0.206 F 
ATOM     31  C   UNL A   1      34.147  31.051  27.739  1.00  0.00     0.003 A 
ENDBRANCH  23  25
ENDBRANCH  16  19
ENDBRANCH  14  15
ENDBRANCH   9  14
ENDBRANCH   6   8
ENDBRANCH   5   6
ENDBRANCH   4   5
ENDBRANCH   3   4
ENDBRANCH   2   3
ENDBRANCH   1   2
BRANCH   1  32
ATOM     32  C   UNL A   1      42.270  21.299  27.580  1.00  0.00     0.188 C 
BRANCH  32  33
ATOM     33  O   UNL A   1      41.663  20.203  26.944  1.00  0.00    -0.376 OA
BRANCH  33  34
ATOM     34  C   UNL A   1      42.348  18.970  26.801  1.00  0.00     0.202 C 
BRANCH  34  35
ATOM     35  C   UNL A   1      43.308  18.584  25.658  1.00  0.00     0.261 C 
BRANCH  35  36
ATOM     36  O   UNL A   1      43.497  19.502  24.581  1.00  0.00    -0.460 OA
BRANCH  36  37
ATOM     37  C   UNL A   1      44.780  19.715  24.207  1.00  0.00     0.338 C 
ATOM     38  O   UNL A   1      45.498  18.978  23.559  1.00  0.00    -0.246 OA
BRANCH  37  39
ATOM     39  C   UNL A   1      45.151  21.091  24.581  1.00  0.00     0.060 A 
ATOM     40  C   UNL A   1      45.677  21.317  25.858  1.00  0.00     0.016 A 
ATOM     41  C   UNL A   1      44.943  22.150  23.696  1.00  0.00     0.016 A 
ATOM     42  C   UNL A   1      45.973  22.617  26.267  1.00  0.00     0.010 A 
ATOM     43  C   UNL A   1      45.225  23.454  24.113  1.00  0.00     0.010 A 
ATOM     44  C   UNL A   1      45.714  23.695  25.408  1.00  0.00    -0.014 A 
BRANCH  44  45
ATOM     45  C   UNL A   1      45.809  25.082  25.922  1.00  0.00     0.031 A 
ATOM     46  C   UNL A   1      47.141  25.779  25.883  1.00  0.00     0.074 A 
ATOM     47  C   UNL A   1      44.726  25.722  26.393  1.00  0.00     0.049 A 
ATOM     48  N   UNL A   1      47.464  26.975  26.303  1.00  0.00    -0.248 NA
ATOM     49  C   UNL A   1      48.257  25.026  25.288  1.00  0.00     0.031 C 
ATOM     50  C   UNL A   1      43.375  25.167  26.443  1.00  0.00     0.029 A 
ATOM     51  N   UNL A   1      44.595  26.982  26.922  1.00  0.00    -0.354 N 
ATOM     52  C   UNL A   1      48.817  27.117  26.025  1.00  0.00     0.074 A 
ATOM     53  C   UNL A   1      49.262  25.877  25.428  1.00  0.00     0.031 C 
ATOM     54  C   UNL A   1      42.551  26.082  26.982  1.00  0.00     0.029 A 
ATOM     55  C   UNL A   1      43.321  27.273  27.342  1.00  0.00     0.049 A 
ATOM     56  H   UNL A   1      45.344  27.617  26.994  1.00  0.00     0.167 HD
ATOM     57  C   UNL A   1      49.612  28.191  26.238  1.00  0.00     0.037 A 
ATOM     58  C   UNL A   1      42.838  28.368  27.962  1.00  0.00     0.037 A 
ATOM     59  C   UNL A   1      49.168  29.424  26.832  1.00  0.00     0.049 A 
ATOM     60  C   UNL A   1      43.760  29.520  28.262  1.00  0.00     0.074 A 
ATOM     61  C   UNL A   1      49.898  30.575  27.072  1.00  0.00     0.029 A 
ATOM     62  N   UNL A   1      47.880  29.662  27.288  1.00  0.00    -0.354 N 
ATOM     63  N   UNL A   1      45.033  29.656  27.979  1.00  0.00    -0.248 NA
ATOM     64  C   UNL A   1      43.181  30.672  28.970  1.00  0.00     0.031 C 
ATOM     65  C   UNL A   1      49.066  31.491  27.721  1.00  0.00     0.029 A 
ATOM     66  C   UNL A   1      47.802  30.934  27.833  1.00  0.00     0.049 A 
ATOM     67  H   UNL A   1      47.133  29.025  27.231  1.00  0.00     0.167 HD
ATOM     68  C   UNL A   1      45.400  30.910  28.449  1.00  0.00     0.074 A 
ATOM     69  C   UNL A   1      44.213  31.503  29.028  1.00  0.00     0.031 C 
ATOM     70  C   UNL A   1      46.613  31.515  28.402  1.00  0.00     0.037 A 
BRANCH  57  71
ATOM     71  C   UNL A   1      51.053  28.083  25.839  1.00  0.00     0.064 A 
ATOM     72  C   UNL A   1      51.435  28.263  24.501  1.00  0.00     0.173 A 
ATOM     73  C   UNL A   1      52.047  27.734  26.765  1.00  0.00     0.173 A 
ATOM     74  F   UNL A   1      50.521  28.594  23.576  1.00  0.00    -0.203 F 
ATOM     75  C   UNL A   1      52.757  28.085  24.103  1.00  0.00     0.198 A 
ATOM     76  C   UNL A   1      53.374  27.585  26.369  1.00  0.00     0.198 A 
ATOM     77  F   UNL A   1      51.735  27.565  28.059  1.00  0.00    -0.203 F 
ATOM     78  F   UNL A   1      53.093  28.233  22.814  1.00  0.00    -0.200 F 
ATOM     79  C   UNL A   1      53.725  27.749  25.037  1.00  0.00     0.200 A 
ATOM     80  F   UNL A   1      54.312  27.284  27.277  1.00  0.00    -0.200 F 
ATOM     81  F   UNL A   1      55.000  27.588  24.655  1.00  0.00    -0.200 F 
ENDBRANCH  57  71
BRANCH  58  82
ATOM     82  C   UNL A   1      41.401  28.423  28.338  1.00  0.00     0.064 A 
ATOM     83  C   UNL A   1      40.439  28.952  27.464  1.00  0.00     0.173 A 
ATOM     84  C   UNL A   1      40.963  27.959  29.585  1.00  0.00     0.173 A 
ATOM     85  F   UNL A   1      40.807  29.402  26.255  1.00  0.00    -0.203 F 
ATOM     86  C   UNL A   1      39.098  29.035  27.832  1.00  0.00     0.198 A 
ATOM     87  C   UNL A   1      39.617  28.019  29.944  1.00  0.00     0.198 A 
ATOM     88  F   UNL A   1      41.840  27.419  30.443  1.00  0.00    -0.203 F 
ATOM     89  F   UNL A   1      38.205  29.571  26.990  1.00  0.00    -0.200 F 
ATOM     90  C   UNL A   1      38.688  28.565  29.071  1.00  0.00     0.200 A 
ATOM     91  F   UNL A   1      39.220  27.537  31.129  1.00  0.00    -0.200 F 
ATOM     92  F   UNL A   1      37.396  28.633  29.421  1.00  0.00    -0.200 F 
ENDBRANCH  58  82
BRANCH  70  93
ATOM     93  C   UNL A   1      46.729  32.902  28.969  1.00  0.00     0.064 A 
ATOM     94  C   UNL A   1      46.992  33.090  30.335  1.00  0.00     0.173 A 
ATOM     95  C   UNL A   1      46.488  34.039  28.185  1.00  0.00     0.173 A 
ATOM     96  F   UNL A   1      47.218  32.034  31.132  1.00  0.00    -0.203 F 
ATOM     97  C   UNL A   1      46.989  34.362  30.899  1.00  0.00     0.198 A 
ATOM     98  C   UNL A   1      46.516  35.313  28.745  1.00  0.00     0.198 A 
ATOM     99  F   UNL A   1      46.243  33.914  26.872  1.00  0.00    -0.203 F 
ATOM    100  F   UNL A   1      47.200  34.513  32.213  1.00  0.00    -0.200 F 
ATOM    101  C   UNL A   1      46.754  35.473  30.103  1.00  0.00     0.200 A 
ATOM    102  F   UNL A   1      46.309  36.388  27.972  1.00  0.00    -0.200 F 
ATOM    103  F   UNL A   1      46.756  36.699  30.645  1.00  0.00    -0.200 F 
ENDBRANCH  70  93
ENDBRANCH  44  45
ENDBRANCH  37  39
ENDBRANCH  36  37
ENDBRANCH  35  36
ENDBRANCH  34  35
ENDBRANCH  33  34
ENDBRANCH  32  33
ENDBRANCH   1  32
TORSDOF 21
ENDMDL
MODEL 3
REMARK VINA RESULT:     -11.7      1.186      7.061
REMARK SMILES Cc1nc(-c2ccccc2F)sc1C(=O)NCc1ccc(C(=O)OCCOCCOCCOC(=O)c2ccc(-c3c4nc(c(-c5c(F)c(F)c(F)c(F)c5F)c5ccc([nH]5)c(-c5c(F)c(F)c(F)c(F)c5F)c5nc(c(-c6c(F)c(F)c(F)c(F)c6F)c6ccc3[nH]6)C=C5)C=C4)cc2)cc1
REMARK SMILES IDX 28 1 27 2 26 3 25 4 24 5 22 6 23 7 21 8 18 9 19 10 100 11
REMARK SMILES IDX 20 12 99 13 17 14 16 15 14 16 15 17 13 19 1 20 2 21 3 22
REMARK SMILES IDX 4 23 12 24 5 25 6 26 10 27 7 28 9 29 11 30 8 31 29 32 30 33
REMARK SMILES IDX 31 34 32 35 33 36 34 37 35 38 36 39 37 40 98 41 38 42 97 43
REMARK SMILES IDX 39 44 40 45 41 46 91 47 42 48 96 49 90 50 92 51 43 52 95 53
REMARK SMILES IDX 89 54 88 55 44 57 76 58 56 59 75 60 57 61 60 62 74 63 93 64
REMARK SMILES IDX 58 65 59 66 73 68 94 69 61 70 45 71 46 72 54 73 47 74 48 75
REMARK SMILES IDX 52 76 55 77 49 78 50 79 53 80 51 81 77 82 78 83 86 84 79 85
REMARK SMILES IDX 80 86 84 87 87 88 81 89 82 90 85 91 83 92 62 93 63 94 71 95
REMARK SMILES IDX 64 96 65 97 69 98 72 99 66 100 67 101 70 102 68 103
REMARK H PARENT 16 18 92 56 60 67
REMARK Flexibility Score: inf
ROOT
ATOM      1  C   UNL A   1      43.904  18.876  24.794  1.00  0.00     0.188 C 
ENDROOT
BRANCH   1   2
ATOM      2  O   UNL A   1      42.564  19.220  25.110  1.00  0.00    -0.376 OA
BRANCH   2   3
ATOM      3  C   UNL A   1      42.300  20.148  26.157  1.00  0.00     0.202 C 
BRANCH   3   4
ATOM      4  C   UNL A   1      40.865  20.372  26.652  1.00  0.00     0.261 C 
BRANCH   4   5
ATOM      5  O   UNL A   1      40.085  21.238  25.815  1.00  0.00    -0.460 OA
BRANCH   5   6
ATOM      6  C   UNL A   1      39.418  22.223  26.467  1.00  0.00     0.338 C 
ATOM      7  O   UNL A   1      39.856  22.953  27.340  1.00  0.00    -0.246 OA
BRANCH   6   8
ATOM      8  C   UNL A   1      38.106  22.450  25.826  1.00  0.00     0.060 A 
ATOM      9  C   UNL A   1      35.589  22.993  24.705  1.00  0.00    -0.029 A 
ATOM     10  C   UNL A   1      36.212  23.928  25.539  1.00  0.00     0.006 A 
ATOM     11  C   UNL A   1      36.265  21.795  24.411  1.00  0.00     0.006 A 
ATOM     12  C   UNL A   1      37.455  23.656  26.105  1.00  0.00     0.016 A 
ATOM     13  C   UNL A   1      37.522  21.525  24.959  1.00  0.00     0.016 A 
BRANCH   9  14
ATOM     14  C   UNL A   1      34.189  23.213  24.196  1.00  0.00     0.152 C 
BRANCH  14  15
ATOM     15  N   UNL A   1      34.183  24.181  23.130  1.00  0.00    -0.347 N 
ATOM     16  C   UNL A   1      33.498  25.297  22.752  1.00  0.00     0.263 C 
ATOM     17  O   UNL A   1      33.890  25.673  21.635  1.00  0.00    -0.268 OA
ATOM     18  H   UNL A   1      34.888  23.973  22.475  1.00  0.00     0.164 HD
BRANCH  16  19
ATOM     19  C   UNL A   1      32.458  26.029  23.479  1.00  0.00     0.115 A 
ATOM     20  C   UNL A   1      32.095  25.457  26.049  1.00  0.00     0.068 C 
ATOM     21  C   UNL A   1      31.896  26.139  24.752  1.00  0.00     0.062 A 
ATOM     22  N   UNL A   1      30.909  27.115  24.881  1.00  0.00    -0.240 NA
ATOM     23  C   UNL A   1      30.654  27.719  23.751  1.00  0.00     0.127 A 
ATOM     24  S   UNL A   1      31.603  27.194  22.449  1.00  0.00    -0.108 S 
BRANCH  23  25
ATOM     25  C   UNL A   1      29.687  28.808  23.641  1.00  0.00     0.046 A 
ATOM     26  C   UNL A   1      28.453  28.553  23.016  1.00  0.00     0.014 A 
ATOM     27  C   UNL A   1      29.973  30.117  24.034  1.00  0.00     0.133 A 
ATOM     28  C   UNL A   1      27.539  29.584  22.788  1.00  0.00     0.001 A 
ATOM     29  C   UNL A   1      29.066  31.152  23.802  1.00  0.00     0.040 A 
ATOM     30  F   UNL A   1      31.149  30.422  24.603  1.00  0.00    -0.206 F 
ATOM     31  C   UNL A   1      27.849  30.885  23.175  1.00  0.00     0.003 A 
ENDBRANCH  23  25
ENDBRANCH  16  19
ENDBRANCH  14  15
ENDBRANCH   9  14
ENDBRANCH   6   8
ENDBRANCH   5   6
ENDBRANCH   4   5
ENDBRANCH   3   4
ENDBRANCH   2   3
ENDBRANCH   1   2
BRANCH   1  32
ATOM     32  C   UNL A   1      45.073  19.468  25.611  1.00  0.00     0.188 C 
BRANCH  32  33
ATOM     33  O   UNL A   1      45.810  20.487  24.984  1.00  0.00    -0.376 OA
BRANCH  33  34
ATOM     34  C   UNL A   1      45.772  21.819  25.468  1.00  0.00     0.202 C 
BRANCH  34  35
ATOM     35  C   UNL A   1      45.000  22.998  24.843  1.00  0.00     0.261 C 
BRANCH  35  36
ATOM     36  O   UNL A   1      44.859  24.202  25.596  1.00  0.00    -0.460 OA
BRANCH  36  37
ATOM     37  C   UNL A   1      43.650  24.805  25.520  1.00  0.00     0.338 C 
ATOM     38  O   UNL A   1      42.828  24.717  24.627  1.00  0.00    -0.246 OA
BRANCH  37  39
ATOM     39  C   UNL A   1      43.392  25.493  26.797  1.00  0.00     0.060 A 
ATOM     40  C   UNL A   1      42.294  25.086  27.565  1.00  0.00     0.016 A 
ATOM     41  C   UNL A   1      44.199  26.554  27.210  1.00  0.00     0.016 A 
ATOM     42  C   UNL A   1      41.983  25.763  28.744  1.00  0.00     0.010 A 
ATOM     43  C   UNL A   1      43.876  27.241  28.384  1.00  0.00     0.010 A 
ATOM     44  C   UNL A   1      42.752  26.866  29.139  1.00  0.00    -0.014 A 
BRANCH  44  45
ATOM     45  C   UNL A   1      42.288  27.722  30.257  1.00  0.00     0.031 A 
ATOM     46  C   UNL A   1      41.043  28.543  30.072  1.00  0.00     0.074 A 
ATOM     47  C   UNL A   1      42.947  27.750  31.428  1.00  0.00     0.049 A 
ATOM     48  N   UNL A   1      40.470  29.382  30.897  1.00  0.00    -0.248 NA
ATOM     49  C   UNL A   1      40.348  28.398  28.782  1.00  0.00     0.031 C 
ATOM     50  C   UNL A   1      44.140  26.968  31.742  1.00  0.00     0.029 A 
ATOM     51  N   UNL A   1      42.703  28.471  32.571  1.00  0.00    -0.354 N 
ATOM     52  C   UNL A   1      39.353  29.863  30.228  1.00  0.00     0.074 A 
ATOM     53  C   UNL A   1      39.341  29.248  28.920  1.00  0.00     0.031 C 
ATOM     54  C   UNL A   1      44.530  27.256  32.995  1.00  0.00     0.029 A 
ATOM     55  C   UNL A   1      43.633  28.266  33.559  1.00  0.00     0.049 A 
ATOM     56  H   UNL A   1      41.935  29.078  32.671  1.00  0.00     0.167 HD
ATOM     57  C   UNL A   1      38.415  30.731  30.673  1.00  0.00     0.037 A 
ATOM     58  C   UNL A   1      43.755  28.841  34.772  1.00  0.00     0.037 A 
ATOM     59  C   UNL A   1      38.427  31.342  31.976  1.00  0.00     0.049 A 
ATOM     60  C   UNL A   1      42.743  29.865  35.214  1.00  0.00     0.074 A 
ATOM     61  C   UNL A   1      37.509  32.221  32.522  1.00  0.00     0.029 A 
ATOM     62  N   UNL A   1      39.413  31.145  32.931  1.00  0.00    -0.354 N 
ATOM     63  N   UNL A   1      41.679  30.301  34.585  1.00  0.00    -0.248 NA
ATOM     64  C   UNL A   1      42.950  30.481  36.534  1.00  0.00     0.031 C 
ATOM     65  C   UNL A   1      37.966  32.598  33.788  1.00  0.00     0.029 A 
ATOM     66  C   UNL A   1      39.138  31.909  34.054  1.00  0.00     0.049 A 
ATOM     67  H   UNL A   1      40.190  30.551  32.828  1.00  0.00     0.167 HD
ATOM     68  C   UNL A   1      41.077  31.218  35.437  1.00  0.00     0.074 A 
ATOM     69  C   UNL A   1      41.889  31.272  36.634  1.00  0.00     0.031 C 
ATOM     70  C   UNL A   1      39.951  31.949  35.243  1.00  0.00     0.037 A 
BRANCH  57  71
ATOM     71  C   UNL A   1      37.296  31.086  29.741  1.00  0.00     0.064 A 
ATOM     72  C   UNL A   1      36.287  30.155  29.454  1.00  0.00     0.173 A 
ATOM     73  C   UNL A   1      37.257  32.323  29.079  1.00  0.00     0.173 A 
ATOM     74  F   UNL A   1      36.282  28.957  30.057  1.00  0.00    -0.203 F 
ATOM     75  C   UNL A   1      35.288  30.442  28.528  1.00  0.00     0.198 A 
ATOM     76  C   UNL A   1      36.239  32.619  28.175  1.00  0.00     0.198 A 
ATOM     77  F   UNL A   1      38.190  33.253  29.330  1.00  0.00    -0.203 F 
ATOM     78  F   UNL A   1      34.353  29.525  28.247  1.00  0.00    -0.200 F 
ATOM     79  C   UNL A   1      35.263  31.674  27.892  1.00  0.00     0.200 A 
ATOM     80  F   UNL A   1      36.203  33.818  27.579  1.00  0.00    -0.200 F 
ATOM     81  F   UNL A   1      34.295  31.954  27.008  1.00  0.00    -0.200 F 
ENDBRANCH  57  71
BRANCH  58  82
ATOM     82  C   UNL A   1      44.885  28.453  35.657  1.00  0.00     0.064 A 
ATOM     83  C   UNL A   1      44.750  27.426  36.603  1.00  0.00     0.173 A 
ATOM     84  C   UNL A   1      46.119  29.112  35.581  1.00  0.00     0.173 A 
ATOM     85  F   UNL A   1      43.591  26.760  36.709  1.00  0.00    -0.203 F 
ATOM     86  C   UNL A   1      45.799  27.088  37.455  1.00  0.00     0.198 A 
ATOM     87  C   UNL A   1      47.176  28.757  36.417  1.00  0.00     0.198 A 
ATOM     88  F   UNL A   1      46.306  30.081  34.674  1.00  0.00    -0.203 F 
ATOM     89  F   UNL A   1      45.633  26.123  38.369  1.00  0.00    -0.200 F 
ATOM     90  C   UNL A   1      47.012  27.752  37.359  1.00  0.00     0.200 A 
ATOM     91  F   UNL A   1      48.357  29.379  36.302  1.00  0.00    -0.200 F 
ATOM     92  F   UNL A   1      48.026  27.418  38.170  1.00  0.00    -0.200 F 
ENDBRANCH  58  82
BRANCH  70  93
ATOM     93  C   UNL A   1      39.504  32.859  36.352  1.00  0.00     0.064 A 
ATOM     94  C   UNL A   1      40.065  34.138  36.490  1.00  0.00     0.173 A 
ATOM     95  C   UNL A   1      38.593  32.433  37.329  1.00  0.00     0.173 A 
ATOM     96  F   UNL A   1      40.951  34.589  35.588  1.00  0.00    -0.203 F 
ATOM     97  C   UNL A   1      39.747  34.948  37.576  1.00  0.00     0.198 A 
ATOM     98  C   UNL A   1      38.254  33.257  38.398  1.00  0.00     0.198 A 
ATOM     99  F   UNL A   1      38.020  31.223  37.236  1.00  0.00    -0.203 F 
ATOM    100  F   UNL A   1      40.328  36.147  37.710  1.00  0.00    -0.200 F 
ATOM    101  C   UNL A   1      38.840  34.509  38.528  1.00  0.00     0.200 A 
ATOM    102  F   UNL A   1      37.360  32.840  39.306  1.00  0.00    -0.200 F 
ATOM    103  F   UNL A   1      38.529  35.291  39.570  1.00  0.00    -0.200 F 
ENDBRANCH  70  93
ENDBRANCH  44  45
ENDBRANCH  37  39
ENDBRANCH  36  37
ENDBRANCH  35  36
ENDBRANCH  34  35
ENDBRANCH  33  34
ENDBRANCH  32  33
ENDBRANCH   1  32
TORSDOF 21
ENDMDL
