MODEL 1
REMARK VINA RESULT:     -10.1      0.000      0.000
REMARK SMILES Cc1cc(CS(=O)(=O)N[C@@H]2C=C[C@H](C(=O)OCCOCCOCCOC(=O)c3ccc(-c4c5nc(c(-c6c(F)c(F)c(F)c(F)c6F)c6ccc([nH]6)c(-c6c(F)c(F)c(F)c(F)c6F)c6nc(c(-c7c(F)c(F)c(F)c(F)c7F)c7ccc4[nH]7)C=C6)C=C5)cc3)C2)no1
REMARK SMILES IDX 20 1 19 2 18 3 17 4 16 5 14 6 15 7 13 8 10 9 11 10 91 11
REMARK SMILES IDX 12 12 9 13 6 15 7 16 8 17 5 18 4 19 1 20 2 21 3 22 93 23
REMARK SMILES IDX 92 24 21 25 22 26 23 27 24 28 25 29 26 30 27 31 28 32 29 33
REMARK SMILES IDX 90 34 30 35 89 36 31 37 32 38 33 39 83 40 34 41 88 42 82 43
REMARK SMILES IDX 84 44 35 45 87 46 81 47 80 48 36 50 68 51 48 52 67 53 49 54
REMARK SMILES IDX 52 55 66 56 85 57 50 58 51 59 65 61 86 62 53 63 37 64 38 65
REMARK SMILES IDX 46 66 39 67 40 68 44 69 47 70 41 71 42 72 45 73 43 74 69 75
REMARK SMILES IDX 70 76 78 77 71 78 72 79 76 80 79 81 73 82 74 83 77 84 75 85
REMARK SMILES IDX 54 86 55 87 63 88 56 89 57 90 61 91 64 92 58 93 59 94 62 95
REMARK SMILES IDX 60 96
REMARK H PARENT 9 14 84 49 52 60
REMARK Flexibility Score: inf
ROOT
ATOM      1  C   UNL A   1      43.753  18.696  25.002  1.00  0.00     0.188 C 
ENDROOT
BRANCH   1   2
ATOM      2  O   UNL A   1      44.999  18.151  25.375  1.00  0.00    -0.376 OA
BRANCH   2   3
ATOM      3  C   UNL A   1      46.164  18.957  25.480  1.00  0.00     0.202 C 
BRANCH   3   4
ATOM      4  C   UNL A   1      46.518  20.136  24.555  1.00  0.00     0.261 C 
BRANCH   4   5
ATOM      5  O   UNL A   1      45.510  21.131  24.436  1.00  0.00    -0.463 OA
BRANCH   5   6
ATOM      6  C   UNL A   1      45.530  22.140  25.352  1.00  0.00     0.312 C 
ATOM      7  O   UNL A   1      46.532  22.677  25.802  1.00  0.00    -0.252 OA
BRANCH   6   8
ATOM      8  C   UNL A   1      44.101  22.578  25.641  1.00  0.00     0.123 C 
ATOM      9  C   UNL A   1      43.862  24.967  25.887  1.00  0.00     0.093 C 
ATOM     10  C   UNL A   1      43.877  24.271  27.209  1.00  0.00    -0.011 C 
ATOM     11  C   UNL A   1      43.696  23.837  24.886  1.00  0.00     0.043 C 
ATOM     12  C   UNL A   1      43.971  22.949  27.081  1.00  0.00    -0.015 C 
BRANCH   9  13
ATOM     13  N   UNL A   1      45.146  25.640  25.773  1.00  0.00    -0.208 NA
ATOM     14  H   UNL A   1      45.590  25.607  26.691  1.00  0.00     0.141 HD
BRANCH  13  15
ATOM     15  S   UNL A   1      45.140  27.243  25.276  1.00  0.00     0.218 S 
ATOM     16  O   UNL A   1      43.776  27.580  24.942  1.00  0.00    -0.212 OA
ATOM     17  O   UNL A   1      46.170  27.305  24.256  1.00  0.00    -0.212 OA
BRANCH  15  18
ATOM     18  C   UNL A   1      45.737  28.179  26.714  1.00  0.00     0.213 C 
BRANCH  18  19
ATOM     19  C   UNL A   1      45.642  29.657  26.578  1.00  0.00     0.100 A 
ATOM     20  C   UNL A   1      44.126  32.994  26.582  1.00  0.00     0.091 C 
ATOM     21  C   UNL A   1      44.883  31.728  26.578  1.00  0.00     0.133 A 
ATOM     22  C   UNL A   1      44.800  30.554  27.288  1.00  0.00     0.073 A 
ATOM     23  O   UNL A   1      45.850  31.604  25.632  1.00  0.00    -0.361 OA
ATOM     24  N   UNL A   1      46.359  30.318  25.660  1.00  0.00    -0.084 NA
ENDBRANCH  18  19
ENDBRANCH  15  18
ENDBRANCH  13  15
ENDBRANCH   9  13
ENDBRANCH   6   8
ENDBRANCH   5   6
ENDBRANCH   4   5
ENDBRANCH   3   4
ENDBRANCH   2   3
ENDBRANCH   1   2
BRANCH   1  25
ATOM     25  C   UNL A   1      42.748  19.089  26.111  1.00  0.00     0.188 C 
BRANCH  25  26
ATOM     26  O   UNL A   1      41.380  18.835  25.915  1.00  0.00    -0.376 OA
BRANCH  26  27
ATOM     27  C   UNL A   1      40.442  19.870  26.147  1.00  0.00     0.202 C 
BRANCH  27  28
ATOM     28  C   UNL A   1      40.733  21.161  26.944  1.00  0.00     0.261 C 
BRANCH  28  29
ATOM     29  O   UNL A   1      40.708  22.415  26.247  1.00  0.00    -0.460 OA
BRANCH  29  30
ATOM     30  C   UNL A   1      39.510  23.050  26.210  1.00  0.00     0.338 C 
ATOM     31  O   UNL A   1      38.438  22.583  25.851  1.00  0.00    -0.246 OA
BRANCH  30  32
ATOM     32  C   UNL A   1      39.624  24.371  26.859  1.00  0.00     0.060 A 
ATOM     33  C   UNL A   1      40.310  25.400  26.195  1.00  0.00     0.016 A 
ATOM     34  C   UNL A   1      39.111  24.580  28.139  1.00  0.00     0.016 A 
ATOM     35  C   UNL A   1      40.503  26.634  26.819  1.00  0.00     0.010 A 
ATOM     36  C   UNL A   1      39.326  25.809  28.772  1.00  0.00     0.010 A 
ATOM     37  C   UNL A   1      40.047  26.833  28.129  1.00  0.00    -0.014 A 
BRANCH  37  38
ATOM     38  C   UNL A   1      40.469  28.036  28.894  1.00  0.00     0.031 A 
ATOM     39  C   UNL A   1      41.865  28.083  29.454  1.00  0.00     0.074 A 
ATOM     40  C   UNL A   1      39.632  29.069  29.097  1.00  0.00     0.049 A 
ATOM     41  N   UNL A   1      42.425  28.977  30.229  1.00  0.00    -0.248 NA
ATOM     42  C   UNL A   1      42.747  26.962  29.092  1.00  0.00     0.031 C 
ATOM     43  C   UNL A   1      38.273  29.170  28.573  1.00  0.00     0.029 A 
ATOM     44  N   UNL A   1      39.803  30.226  29.818  1.00  0.00    -0.354 N 
ATOM     45  C   UNL A   1      43.716  28.521  30.458  1.00  0.00     0.074 A 
ATOM     46  C   UNL A   1      43.850  27.258  29.765  1.00  0.00     0.031 C 
ATOM     47  C   UNL A   1      37.725  30.321  29.004  1.00  0.00     0.029 A 
ATOM     48  C   UNL A   1      38.680  31.016  29.867  1.00  0.00     0.049 A 
ATOM     49  H   UNL A   1      40.651  30.466  30.258  1.00  0.00     0.167 HD
ATOM     50  C   UNL A   1      44.705  29.106  31.177  1.00  0.00     0.037 A 
ATOM     51  C   UNL A   1      38.443  32.150  30.555  1.00  0.00     0.037 A 
ATOM     52  C   UNL A   1      44.571  30.361  31.869  1.00  0.00     0.049 A 
ATOM     53  C   UNL A   1      39.533  32.738  31.418  1.00  0.00     0.074 A 
ATOM     54  C   UNL A   1      45.522  31.045  32.606  1.00  0.00     0.029 A 
ATOM     55  N   UNL A   1      43.409  31.117  31.919  1.00  0.00    -0.354 N 
ATOM     56  N   UNL A   1      40.760  32.317  31.611  1.00  0.00    -0.248 NA
ATOM     57  C   UNL A   1      39.203  33.965  32.160  1.00  0.00     0.031 C 
ATOM     58  C   UNL A   1      44.918  32.179  33.157  1.00  0.00     0.029 A 
ATOM     59  C   UNL A   1      43.610  32.243  32.702  1.00  0.00     0.049 A 
ATOM     60  H   UNL A   1      42.566  30.887  31.465  1.00  0.00     0.167 HD
ATOM     61  C   UNL A   1      41.355  33.242  32.461  1.00  0.00     0.074 A 
ATOM     62  C   UNL A   1      40.360  34.254  32.739  1.00  0.00     0.031 C 
ATOM     63  C   UNL A   1      42.616  33.253  32.964  1.00  0.00     0.037 A 
BRANCH  50  64
ATOM     64  C   UNL A   1      46.013  28.374  31.283  1.00  0.00     0.064 A 
ATOM     65  C   UNL A   1      46.205  27.328  32.198  1.00  0.00     0.173 A 
ATOM     66  C   UNL A   1      47.079  28.703  30.431  1.00  0.00     0.173 A 
ATOM     67  F   UNL A   1      45.224  26.981  33.044  1.00  0.00    -0.203 F 
ATOM     68  C   UNL A   1      47.425  26.659  32.276  1.00  0.00     0.198 A 
ATOM     69  C   UNL A   1      48.285  28.010  30.489  1.00  0.00     0.198 A 
ATOM     70  F   UNL A   1      46.948  29.692  29.533  1.00  0.00    -0.203 F 
ATOM     71  F   UNL A   1      47.602  25.699  33.194  1.00  0.00    -0.200 F 
ATOM     72  C   UNL A   1      48.460  26.995  31.417  1.00  0.00     0.200 A 
ATOM     73  F   UNL A   1      49.278  28.325  29.646  1.00  0.00    -0.200 F 
ATOM     74  F   UNL A   1      49.630  26.344  31.488  1.00  0.00    -0.200 F 
ENDBRANCH  50  64
BRANCH  51  75
ATOM     75  C   UNL A   1      37.109  32.806  30.476  1.00  0.00     0.064 A 
ATOM     76  C   UNL A   1      36.147  32.613  31.477  1.00  0.00     0.173 A 
ATOM     77  C   UNL A   1      36.756  33.610  29.382  1.00  0.00     0.173 A 
ATOM     78  F   UNL A   1      36.423  31.826  32.529  1.00  0.00    -0.203 F 
ATOM     79  C   UNL A   1      34.877  33.178  31.377  1.00  0.00     0.198 A 
ATOM     80  C   UNL A   1      35.497  34.203  29.299  1.00  0.00     0.198 A 
ATOM     81  F   UNL A   1      37.635  33.821  28.392  1.00  0.00    -0.203 F 
ATOM     82  F   UNL A   1      33.957  32.926  32.319  1.00  0.00    -0.200 F 
ATOM     83  C   UNL A   1      34.556  33.978  30.291  1.00  0.00     0.200 A 
ATOM     84  F   UNL A   1      35.195  34.981  28.251  1.00  0.00    -0.200 F 
ATOM     85  F   UNL A   1      33.334  34.520  30.193  1.00  0.00    -0.200 F 
ENDBRANCH  51  75
BRANCH  63  86
ATOM     86  C   UNL A   1      43.013  34.419  33.826  1.00  0.00     0.064 A 
ATOM     87  C   UNL A   1      42.943  34.368  35.226  1.00  0.00     0.173 A 
ATOM     88  C   UNL A   1      43.515  35.593  33.240  1.00  0.00     0.173 A 
ATOM     89  F   UNL A   1      42.461  33.275  35.838  1.00  0.00    -0.203 F 
ATOM     90  C   UNL A   1      43.332  35.456  36.004  1.00  0.00     0.198 A 
ATOM     91  C   UNL A   1      43.936  36.665  34.021  1.00  0.00     0.198 A 
ATOM     92  F   UNL A   1      43.614  35.694  31.906  1.00  0.00    -0.203 F 
ATOM     93  F   UNL A   1      43.206  35.403  37.338  1.00  0.00    -0.200 F 
ATOM     94  C   UNL A   1      43.836  36.600  35.403  1.00  0.00     0.200 A 
ATOM     95  F   UNL A   1      44.442  37.761  33.438  1.00  0.00    -0.200 F 
ATOM     96  F   UNL A   1      44.219  37.641  36.154  1.00  0.00    -0.200 F 
ENDBRANCH  63  86
ENDBRANCH  37  38
ENDBRANCH  30  32
ENDBRANCH  29  30
ENDBRANCH  28  29
ENDBRANCH  27  28
ENDBRANCH  26  27
ENDBRANCH  25  26
ENDBRANCH   1  25
TORSDOF 21
ENDMDL
MODEL 2
REMARK VINA RESULT:     -10.0      4.817      7.463
REMARK SMILES Cc1cc(CS(=O)(=O)N[C@@H]2C=C[C@H](C(=O)OCCOCCOCCOC(=O)c3ccc(-c4c5nc(c(-c6c(F)c(F)c(F)c(F)c6F)c6ccc([nH]6)c(-c6c(F)c(F)c(F)c(F)c6F)c6nc(c(-c7c(F)c(F)c(F)c(F)c7F)c7ccc4[nH]7)C=C6)C=C5)cc3)C2)no1
REMARK SMILES IDX 20 1 19 2 18 3 17 4 16 5 14 6 15 7 13 8 10 9 11 10 91 11
REMARK SMILES IDX 12 12 9 13 6 15 7 16 8 17 5 18 4 19 1 20 2 21 3 22 93 23
REMARK SMILES IDX 92 24 21 25 22 26 23 27 24 28 25 29 26 30 27 31 28 32 29 33
REMARK SMILES IDX 90 34 30 35 89 36 31 37 32 38 33 39 83 40 34 41 88 42 82 43
REMARK SMILES IDX 84 44 35 45 87 46 81 47 80 48 36 50 68 51 48 52 67 53 49 54
REMARK SMILES IDX 52 55 66 56 85 57 50 58 51 59 65 61 86 62 53 63 37 64 38 65
REMARK SMILES IDX 46 66 39 67 40 68 44 69 47 70 41 71 42 72 45 73 43 74 69 75
REMARK SMILES IDX 70 76 78 77 71 78 72 79 76 80 79 81 73 82 74 83 77 84 75 85
REMARK SMILES IDX 54 86 55 87 63 88 56 89 57 90 61 91 64 92 58 93 59 94 62 95
REMARK SMILES IDX 60 96
REMARK H PARENT 9 14 84 49 52 60
REMARK Flexibility Score: inf
ROOT
ATOM      1  C   UNL A   1      39.441  21.816  26.236  1.00  0.00     0.188 C 
ENDROOT
BRANCH   1   2
ATOM      2  O   UNL A   1      38.423  21.387  25.359  1.00  0.00    -0.376 OA
BRANCH   2   3
ATOM      3  C   UNL A   1      37.117  21.944  25.405  1.00  0.00     0.202 C 
BRANCH   3   4
ATOM      4  C   UNL A   1      36.324  22.459  24.189  1.00  0.00     0.261 C 
BRANCH   4   5
ATOM      5  O   UNL A   1      34.915  22.294  24.276  1.00  0.00    -0.463 OA
BRANCH   5   6
ATOM      6  C   UNL A   1      34.166  22.874  23.296  1.00  0.00     0.312 C 
ATOM      7  O   UNL A   1      34.587  23.611  22.416  1.00  0.00    -0.252 OA
BRANCH   6   8
ATOM      8  C   UNL A   1      32.735  22.365  23.396  1.00  0.00     0.123 C 
ATOM      9  C   UNL A   1      31.280  23.832  24.643  1.00  0.00     0.093 C 
ATOM     10  C   UNL A   1      31.716  22.658  25.458  1.00  0.00    -0.011 C 
ATOM     11  C   UNL A   1      31.694  23.463  23.229  1.00  0.00     0.043 C 
ATOM     12  C   UNL A   1      32.489  21.824  24.765  1.00  0.00    -0.015 C 
BRANCH   9  13
ATOM     13  N   UNL A   1      32.007  24.976  25.166  1.00  0.00    -0.208 NA
ATOM     14  H   UNL A   1      32.551  24.652  25.966  1.00  0.00     0.141 HD
BRANCH  13  15
ATOM     15  S   UNL A   1      31.109  26.299  25.674  1.00  0.00     0.218 S 
ATOM     16  O   UNL A   1      31.245  26.381  27.109  1.00  0.00    -0.212 OA
ATOM     17  O   UNL A   1      29.800  26.092  25.083  1.00  0.00    -0.212 OA
BRANCH  15  18
ATOM     18  C   UNL A   1      31.867  27.725  24.840  1.00  0.00     0.213 C 
BRANCH  18  19
ATOM     19  C   UNL A   1      31.063  28.293  23.725  1.00  0.00     0.100 A 
ATOM     20  C   UNL A   1      28.311  30.039  22.047  1.00  0.00     0.091 C 
ATOM     21  C   UNL A   1      29.502  29.349  22.579  1.00  0.00     0.133 A 
ATOM     22  C   UNL A   1      30.235  29.448  23.737  1.00  0.00     0.073 A 
ATOM     23  O   UNL A   1      29.987  28.321  21.835  1.00  0.00    -0.361 OA
ATOM     24  N   UNL A   1      30.998  27.684  22.534  1.00  0.00    -0.084 NA
ENDBRANCH  18  19
ENDBRANCH  15  18
ENDBRANCH  13  15
ENDBRANCH   9  13
ENDBRANCH   6   8
ENDBRANCH   5   6
ENDBRANCH   4   5
ENDBRANCH   3   4
ENDBRANCH   2   3
ENDBRANCH   1   2
BRANCH   1  25
ATOM     25  C   UNL A   1      40.495  20.789  26.715  1.00  0.00     0.188 C 
BRANCH  25  26
ATOM     26  O   UNL A   1      41.352  20.199  25.770  1.00  0.00    -0.376 OA
BRANCH  26  27
ATOM     27  C   UNL A   1      42.753  20.329  25.929  1.00  0.00     0.202 C 
BRANCH  27  28
ATOM     28  C   UNL A   1      43.577  21.568  25.513  1.00  0.00     0.261 C 
BRANCH  28  29
ATOM     29  O   UNL A   1      42.875  22.736  25.063  1.00  0.00    -0.460 OA
BRANCH  29  30
ATOM     30  C   UNL A   1      43.588  23.890  25.056  1.00  0.00     0.338 C 
ATOM     31  O   UNL A   1      44.521  24.177  24.319  1.00  0.00    -0.246 OA
BRANCH  30  32
ATOM     32  C   UNL A   1      42.954  24.874  25.956  1.00  0.00     0.060 A 
ATOM     33  C   UNL A   1      43.447  26.188  25.985  1.00  0.00     0.016 A 
ATOM     34  C   UNL A   1      41.919  24.492  26.809  1.00  0.00     0.016 A 
ATOM     35  C   UNL A   1      42.920  27.117  26.885  1.00  0.00     0.010 A 
ATOM     36  C   UNL A   1      41.409  25.417  27.726  1.00  0.00     0.010 A 
ATOM     37  C   UNL A   1      41.925  26.726  27.790  1.00  0.00    -0.014 A 
BRANCH  37  38
ATOM     38  C   UNL A   1      41.543  27.619  28.914  1.00  0.00     0.031 A 
ATOM     39  C   UNL A   1      42.322  27.537  30.199  1.00  0.00     0.074 A 
ATOM     40  C   UNL A   1      40.520  28.487  28.808  1.00  0.00     0.049 A 
ATOM     41  N   UNL A   1      42.118  28.143  31.341  1.00  0.00    -0.248 NA
ATOM     42  C   UNL A   1      43.490  26.643  30.192  1.00  0.00     0.031 C 
ATOM     43  C   UNL A   1      39.714  28.698  27.608  1.00  0.00     0.029 A 
ATOM     44  N   UNL A   1      39.976  29.341  29.735  1.00  0.00    -0.354 N 
ATOM     45  C   UNL A   1      43.120  27.693  32.191  1.00  0.00     0.074 A 
ATOM     46  C   UNL A   1      43.915  26.743  31.443  1.00  0.00     0.031 C 
ATOM     47  C   UNL A   1      38.765  29.613  27.878  1.00  0.00     0.029 A 
ATOM     48  C   UNL A   1      38.871  30.019  29.279  1.00  0.00     0.049 A 
ATOM     49  H   UNL A   1      40.342  29.456  30.642  1.00  0.00     0.167 HD
ATOM     50  C   UNL A   1      43.359  28.046  33.477  1.00  0.00     0.037 A 
ATOM     51  C   UNL A   1      38.027  30.845  29.928  1.00  0.00     0.037 A 
ATOM     52  C   UNL A   1      42.566  28.989  34.222  1.00  0.00     0.049 A 
ATOM     53  C   UNL A   1      38.265  31.156  31.386  1.00  0.00     0.074 A 
ATOM     54  C   UNL A   1      42.742  29.427  35.522  1.00  0.00     0.029 A 
ATOM     55  N   UNL A   1      41.438  29.632  33.734  1.00  0.00    -0.354 N 
ATOM     56  N   UNL A   1      39.228  30.749  32.178  1.00  0.00    -0.248 NA
ATOM     57  C   UNL A   1      37.295  32.047  32.041  1.00  0.00     0.031 C 
ATOM     58  C   UNL A   1      41.684  30.282  35.844  1.00  0.00     0.029 A 
ATOM     59  C   UNL A   1      40.890  30.438  34.720  1.00  0.00     0.049 A 
ATOM     60  H   UNL A   1      41.080  29.531  32.822  1.00  0.00     0.167 HD
ATOM     61  C   UNL A   1      39.002  31.360  33.405  1.00  0.00     0.074 A 
ATOM     62  C   UNL A   1      37.817  32.176  33.253  1.00  0.00     0.031 C 
ATOM     63  C   UNL A   1      39.714  31.256  34.556  1.00  0.00     0.037 A 
BRANCH  50  64
ATOM     64  C   UNL A   1      44.510  27.379  34.178  1.00  0.00     0.064 A 
ATOM     65  C   UNL A   1      45.779  27.973  34.248  1.00  0.00     0.173 A 
ATOM     66  C   UNL A   1      44.329  26.144  34.818  1.00  0.00     0.173 A 
ATOM     67  F   UNL A   1      46.010  29.148  33.642  1.00  0.00    -0.203 F 
ATOM     68  C   UNL A   1      46.831  27.341  34.907  1.00  0.00     0.198 A 
ATOM     69  C   UNL A   1      45.373  25.531  35.505  1.00  0.00     0.198 A 
ATOM     70  F   UNL A   1      43.134  25.533  34.787  1.00  0.00    -0.203 F 
ATOM     71  F   UNL A   1      48.048  27.902  34.916  1.00  0.00    -0.200 F 
ATOM     72  C   UNL A   1      46.625  26.125  35.542  1.00  0.00     0.200 A 
ATOM     73  F   UNL A   1      45.167  24.364  36.132  1.00  0.00    -0.200 F 
ATOM     74  F   UNL A   1      47.636  25.523  36.184  1.00  0.00    -0.200 F 
ENDBRANCH  50  64
BRANCH  51  75
ATOM     75  C   UNL A   1      36.859  31.430  29.215  1.00  0.00     0.064 A 
ATOM     76  C   UNL A   1      36.819  32.792  28.885  1.00  0.00     0.173 A 
ATOM     77  C   UNL A   1      35.742  30.648  28.881  1.00  0.00     0.173 A 
ATOM     78  F   UNL A   1      37.847  33.590  29.212  1.00  0.00    -0.203 F 
ATOM     79  C   UNL A   1      35.702  33.353  28.270  1.00  0.00     0.198 A 
ATOM     80  C   UNL A   1      34.639  31.204  28.236  1.00  0.00     0.198 A 
ATOM     81  F   UNL A   1      35.723  29.342  29.182  1.00  0.00    -0.203 F 
ATOM     82  F   UNL A   1      35.668  34.670  28.022  1.00  0.00    -0.200 F 
ATOM     83  C   UNL A   1      34.616  32.558  27.940  1.00  0.00     0.200 A 
ATOM     84  F   UNL A   1      33.595  30.428  27.912  1.00  0.00    -0.200 F 
ATOM     85  F   UNL A   1      33.540  33.098  27.351  1.00  0.00    -0.200 F 
ENDBRANCH  51  75
BRANCH  63  86
ATOM     86  C   UNL A   1      39.268  32.082  35.730  1.00  0.00     0.064 A 
ATOM     87  C   UNL A   1      39.680  33.412  35.904  1.00  0.00     0.173 A 
ATOM     88  C   UNL A   1      38.377  31.546  36.674  1.00  0.00     0.173 A 
ATOM     89  F   UNL A   1      40.540  33.971  35.039  1.00  0.00    -0.203 F 
ATOM     90  C   UNL A   1      39.241  34.162  36.993  1.00  0.00     0.198 A 
ATOM     91  C   UNL A   1      37.911  32.310  37.740  1.00  0.00     0.198 A 
ATOM     92  F   UNL A   1      37.941  30.283  36.552  1.00  0.00    -0.203 F 
ATOM     93  F   UNL A   1      39.690  35.413  37.167  1.00  0.00    -0.200 F 
ATOM     94  C   UNL A   1      38.350  33.615  37.904  1.00  0.00     0.200 A 
ATOM     95  F   UNL A   1      37.036  31.784  38.608  1.00  0.00    -0.200 F 
ATOM     96  F   UNL A   1      37.921  34.342  38.945  1.00  0.00    -0.200 F 
ENDBRANCH  63  86
ENDBRANCH  37  38
ENDBRANCH  30  32
ENDBRANCH  29  30
ENDBRANCH  28  29
ENDBRANCH  27  28
ENDBRANCH  26  27
ENDBRANCH  25  26
ENDBRANCH   1  25
TORSDOF 21
ENDMDL
MODEL 3
REMARK VINA RESULT:      -9.5      0.859      2.184
REMARK SMILES Cc1cc(CS(=O)(=O)N[C@@H]2C=C[C@H](C(=O)OCCOCCOCCOC(=O)c3ccc(-c4c5nc(c(-c6c(F)c(F)c(F)c(F)c6F)c6ccc([nH]6)c(-c6c(F)c(F)c(F)c(F)c6F)c6nc(c(-c7c(F)c(F)c(F)c(F)c7F)c7ccc4[nH]7)C=C6)C=C5)cc3)C2)no1
REMARK SMILES IDX 20 1 19 2 18 3 17 4 16 5 14 6 15 7 13 8 10 9 11 10 91 11
REMARK SMILES IDX 12 12 9 13 6 15 7 16 8 17 5 18 4 19 1 20 2 21 3 22 93 23
REMARK SMILES IDX 92 24 21 25 22 26 23 27 24 28 25 29 26 30 27 31 28 32 29 33
REMARK SMILES IDX 90 34 30 35 89 36 31 37 32 38 33 39 83 40 34 41 88 42 82 43
REMARK SMILES IDX 84 44 35 45 87 46 81 47 80 48 36 50 68 51 48 52 67 53 49 54
REMARK SMILES IDX 52 55 66 56 85 57 50 58 51 59 65 61 86 62 53 63 37 64 38 65
REMARK SMILES IDX 46 66 39 67 40 68 44 69 47 70 41 71 42 72 45 73 43 74 69 75
REMARK SMILES IDX 70 76 78 77 71 78 72 79 76 80 79 81 73 82 74 83 77 84 75 85
REMARK SMILES IDX 54 86 55 87 63 88 56 89 57 90 61 91 64 92 58 93 59 94 62 95
REMARK SMILES IDX 60 96
REMARK H PARENT 9 14 84 49 52 60
REMARK Flexibility Score: inf
ROOT
ATOM      1  C   UNL A   1      43.946  18.762  24.660  1.00  0.00     0.188 C 
ENDROOT
BRANCH   1   2
ATOM      2  O   UNL A   1      45.311  18.495  24.894  1.00  0.00    -0.376 OA
BRANCH   2   3
ATOM      3  C   UNL A   1      46.215  19.521  25.281  1.00  0.00     0.202 C 
BRANCH   3   4
ATOM      4  C   UNL A   1      46.018  21.027  25.025  1.00  0.00     0.261 C 
BRANCH   4   5
ATOM      5  O   UNL A   1      45.267  21.713  26.017  1.00  0.00    -0.463 OA
BRANCH   5   6
ATOM      6  C   UNL A   1      44.343  22.613  25.577  1.00  0.00     0.312 C 
ATOM      7  O   UNL A   1      43.787  22.593  24.489  1.00  0.00    -0.252 OA
BRANCH   6   8
ATOM      8  C   UNL A   1      44.020  23.585  26.703  1.00  0.00     0.123 C 
ATOM      9  C   UNL A   1      45.397  25.567  26.683  1.00  0.00     0.093 C 
ATOM     10  C   UNL A   1      45.853  24.584  27.712  1.00  0.00    -0.011 C 
ATOM     11  C   UNL A   1      44.036  25.042  26.261  1.00  0.00     0.043 C 
ATOM     12  C   UNL A   1      45.075  23.504  27.755  1.00  0.00    -0.015 C 
BRANCH   9  13
ATOM     13  N   UNL A   1      46.381  25.515  25.615  1.00  0.00    -0.208 NA
ATOM     14  H   UNL A   1      46.777  24.575  25.610  1.00  0.00     0.141 HD
BRANCH  13  15
ATOM     15  S   UNL A   1      47.661  26.598  25.686  1.00  0.00     0.218 S 
ATOM     16  O   UNL A   1      48.771  25.992  24.989  1.00  0.00    -0.212 OA
ATOM     17  O   UNL A   1      47.781  26.918  27.096  1.00  0.00    -0.212 OA
BRANCH  15  18
ATOM     18  C   UNL A   1      47.059  28.087  24.836  1.00  0.00     0.213 C 
BRANCH  18  19
ATOM     19  C   UNL A   1      46.438  29.104  25.727  1.00  0.00     0.100 A 
ATOM     20  C   UNL A   1      43.807  30.904  27.535  1.00  0.00     0.091 C 
ATOM     21  C   UNL A   1      44.974  30.259  26.905  1.00  0.00     0.133 A 
ATOM     22  C   UNL A   1      45.284  28.969  26.544  1.00  0.00     0.073 A 
ATOM     23  O   UNL A   1      45.975  31.083  26.498  1.00  0.00    -0.361 OA
ATOM     24  N   UNL A   1      46.917  30.352  25.797  1.00  0.00    -0.084 NA
ENDBRANCH  18  19
ENDBRANCH  15  18
ENDBRANCH  13  15
ENDBRANCH   9  13
ENDBRANCH   6   8
ENDBRANCH   5   6
ENDBRANCH   4   5
ENDBRANCH   3   4
ENDBRANCH   2   3
ENDBRANCH   1   2
BRANCH   1  25
ATOM     25  C   UNL A   1      43.029  19.073  25.866  1.00  0.00     0.188 C 
BRANCH  25  26
ATOM     26  O   UNL A   1      41.672  18.710  25.804  1.00  0.00    -0.376 OA
BRANCH  26  27
ATOM     27  C   UNL A   1      40.680  19.692  26.038  1.00  0.00     0.202 C 
BRANCH  27  28
ATOM     28  C   UNL A   1      40.832  20.887  27.006  1.00  0.00     0.261 C 
BRANCH  28  29
ATOM     29  O   UNL A   1      40.906  22.210  26.454  1.00  0.00    -0.460 OA
BRANCH  29  30
ATOM     30  C   UNL A   1      39.722  22.850  26.288  1.00  0.00     0.338 C 
ATOM     31  O   UNL A   1      38.681  22.378  25.854  1.00  0.00    -0.246 OA
BRANCH  30  32
ATOM     32  C   UNL A   1      39.793  24.195  26.895  1.00  0.00     0.060 A 
ATOM     33  C   UNL A   1      40.404  25.235  26.177  1.00  0.00     0.016 A 
ATOM     34  C   UNL A   1      39.313  24.417  28.184  1.00  0.00     0.016 A 
ATOM     35  C   UNL A   1      40.557  26.495  26.759  1.00  0.00     0.010 A 
ATOM     36  C   UNL A   1      39.488  25.674  28.774  1.00  0.00     0.010 A 
ATOM     37  C   UNL A   1      40.136  26.712  28.077  1.00  0.00    -0.014 A 
BRANCH  37  38
ATOM     38  C   UNL A   1      40.523  27.956  28.792  1.00  0.00     0.031 A 
ATOM     39  C   UNL A   1      41.927  28.079  29.321  1.00  0.00     0.074 A 
ATOM     40  C   UNL A   1      39.649  28.962  28.977  1.00  0.00     0.049 A 
ATOM     41  N   UNL A   1      42.465  29.021  30.053  1.00  0.00    -0.248 NA
ATOM     42  C   UNL A   1      42.846  26.982  28.980  1.00  0.00     0.031 C 
ATOM     43  C   UNL A   1      38.277  28.991  28.478  1.00  0.00     0.029 A 
ATOM     44  N   UNL A   1      39.787  30.149  29.655  1.00  0.00    -0.354 N 
ATOM     45  C   UNL A   1      43.778  28.624  30.272  1.00  0.00     0.074 A 
ATOM     46  C   UNL A   1      43.949  27.344  29.619  1.00  0.00     0.031 C 
ATOM     47  C   UNL A   1      37.692  30.133  28.881  1.00  0.00     0.029 A 
ATOM     48  C   UNL A   1      38.635  30.895  29.700  1.00  0.00     0.049 A 
ATOM     49  H   UNL A   1      40.633  30.437  30.069  1.00  0.00     0.167 HD
ATOM     50  C   UNL A   1      44.755  29.273  30.950  1.00  0.00     0.037 A 
ATOM     51  C   UNL A   1      38.365  32.042  30.354  1.00  0.00     0.037 A 
ATOM     52  C   UNL A   1      44.584  30.545  31.601  1.00  0.00     0.049 A 
ATOM     53  C   UNL A   1      39.446  32.703  31.174  1.00  0.00     0.074 A 
ATOM     54  C   UNL A   1      45.521  31.291  32.295  1.00  0.00     0.029 A 
ATOM     55  N   UNL A   1      43.394  31.255  31.649  1.00  0.00    -0.354 N 
ATOM     56  N   UNL A   1      40.692  32.338  31.356  1.00  0.00    -0.248 NA
ATOM     57  C   UNL A   1      39.081  33.941  31.880  1.00  0.00     0.031 C 
ATOM     58  C   UNL A   1      44.882  32.419  32.820  1.00  0.00     0.029 A 
ATOM     59  C   UNL A   1      43.564  32.415  32.390  1.00  0.00     0.049 A 
ATOM     60  H   UNL A   1      42.552  30.976  31.221  1.00  0.00     0.167 HD
ATOM     61  C   UNL A   1      41.267  33.314  32.161  1.00  0.00     0.074 A 
ATOM     62  C   UNL A   1      40.236  34.296  32.425  1.00  0.00     0.031 C 
ATOM     63  C   UNL A   1      42.535  33.393  32.638  1.00  0.00     0.037 A 
BRANCH  50  64
ATOM     64  C   UNL A   1      46.094  28.598  31.054  1.00  0.00     0.064 A 
ATOM     65  C   UNL A   1      47.185  28.990  30.263  1.00  0.00     0.173 A 
ATOM     66  C   UNL A   1      46.298  27.567  31.984  1.00  0.00     0.173 A 
ATOM     67  F   UNL A   1      47.042  29.961  29.348  1.00  0.00    -0.203 F 
ATOM     68  C   UNL A   1      48.419  28.355  30.379  1.00  0.00     0.198 A 
ATOM     69  C   UNL A   1      47.541  26.958  32.122  1.00  0.00     0.198 A 
ATOM     70  F   UNL A   1      45.290  27.156  32.770  1.00  0.00    -0.203 F 
ATOM     71  F   UNL A   1      49.431  28.710  29.575  1.00  0.00    -0.200 F 
ATOM     72  C   UNL A   1      48.599  27.346  31.313  1.00  0.00     0.200 A 
ATOM     73  F   UNL A   1      47.716  25.995  33.037  1.00  0.00    -0.200 F 
ATOM     74  F   UNL A   1      49.790  26.743  31.430  1.00  0.00    -0.200 F 
ENDBRANCH  50  64
BRANCH  51  75
ATOM     75  C   UNL A   1      37.004  32.641  30.280  1.00  0.00     0.064 A 
ATOM     76  C   UNL A   1      36.648  33.504  29.234  1.00  0.00     0.173 A 
ATOM     77  C   UNL A   1      36.044  32.394  31.273  1.00  0.00     0.173 A 
ATOM     78  F   UNL A   1      37.540  33.799  28.277  1.00  0.00    -0.203 F 
ATOM     79  C   UNL A   1      35.395  34.112  29.196  1.00  0.00     0.198 A 
ATOM     80  C   UNL A   1      34.780  32.977  31.216  1.00  0.00     0.198 A 
ATOM     81  F   UNL A   1      36.335  31.584  32.302  1.00  0.00    -0.203 F 
ATOM     82  F   UNL A   1      35.104  34.980  28.216  1.00  0.00    -0.200 F 
ATOM     83  C   UNL A   1      34.460  33.843  30.183  1.00  0.00     0.200 A 
ATOM     84  F   UNL A   1      33.877  32.706  32.169  1.00  0.00    -0.200 F 
ATOM     85  F   UNL A   1      33.255  34.430  30.147  1.00  0.00    -0.200 F 
ENDBRANCH  51  75
BRANCH  63  86
ATOM     86  C   UNL A   1      42.901  34.604  33.451  1.00  0.00     0.064 A 
ATOM     87  C   UNL A   1      43.309  35.805  32.853  1.00  0.00     0.173 A 
ATOM     88  C   UNL A   1      42.800  34.572  34.851  1.00  0.00     0.173 A 
ATOM     89  F   UNL A   1      43.434  35.888  31.520  1.00  0.00    -0.203 F 
ATOM     90  C   UNL A   1      43.629  36.919  33.627  1.00  0.00     0.198 A 
ATOM     91  C   UNL A   1      43.086  35.697  35.620  1.00  0.00     0.198 A 
ATOM     92  F   UNL A   1      42.405  33.453  35.476  1.00  0.00    -0.203 F 
ATOM     93  F   UNL A   1      44.068  38.040  33.037  1.00  0.00    -0.200 F 
ATOM     94  C   UNL A   1      43.509  36.868  35.008  1.00  0.00     0.200 A 
ATOM     95  F   UNL A   1      42.949  35.650  36.952  1.00  0.00    -0.200 F 
ATOM     96  F   UNL A   1      43.807  37.943  35.749  1.00  0.00    -0.200 F 
ENDBRANCH  63  86
ENDBRANCH  37  38
ENDBRANCH  30  32
ENDBRANCH  29  30
ENDBRANCH  28  29
ENDBRANCH  27  28
ENDBRANCH  26  27
ENDBRANCH  25  26
ENDBRANCH   1  25
TORSDOF 21
ENDMDL
