MODEL 1
REMARK VINA RESULT:     -10.8      0.000      0.000
REMARK SMILES CC[C@@]1(C(=O)OCCOCCOCCOC(=O)c2ccc(-c3c4nc(c(-c5c(F)c(F)c(F)c(F)c5F)c5ccc([nH]5)c(-c5c(F)c(F)c(F)c(F)c5F)c5nc(c(-c6c(F)c(F)c(F)c(F)c6F)c6ccc3[nH]6)C=C5)C=C4)cc2)CCC[N@@H+](Cc2ccc(C3CC3)cc2)C1
REMARK SMILES IDX 10 1 9 2 8 3 7 4 6 5 4 6 5 7 3 8 81 9 95 10 82 11 84 12
REMARK SMILES IDX 83 13 2 15 1 16 85 17 86 18 87 19 94 20 88 21 93 22 89 23
REMARK SMILES IDX 90 24 91 25 92 26 11 27 12 28 13 29 14 30 15 31 16 32 17 33
REMARK SMILES IDX 18 34 19 35 80 36 20 37 79 38 21 39 22 40 23 41 73 42 24 43
REMARK SMILES IDX 78 44 72 45 74 46 25 47 77 48 71 49 70 50 26 52 58 53 38 54
REMARK SMILES IDX 57 55 39 56 42 57 56 58 75 59 40 60 41 61 55 63 76 64 43 65
REMARK SMILES IDX 27 66 28 67 36 68 29 69 30 70 34 71 37 72 31 73 32 74 35 75
REMARK SMILES IDX 33 76 59 77 60 78 68 79 61 80 62 81 66 82 69 83 63 84 64 85
REMARK SMILES IDX 67 86 65 87 44 88 45 89 53 90 46 91 47 92 51 93 54 94 48 95
REMARK SMILES IDX 49 96 52 97 50 98
REMARK H PARENT 84 14 74 51 42 62
REMARK Flexibility Score: inf
ROOT
ATOM      1  C   UNL A   1      35.005  23.051  23.700  1.00  0.00     0.188 C 
ENDROOT
BRANCH   1   2
ATOM      2  O   UNL A   1      33.973  23.763  23.033  1.00  0.00    -0.376 OA
BRANCH   2   3
ATOM      3  C   UNL A   1      32.939  22.950  22.470  1.00  0.00     0.202 C 
BRANCH   3   4
ATOM      4  C   UNL A   1      31.565  23.255  23.070  1.00  0.00     0.261 C 
BRANCH   4   5
ATOM      5  O   UNL A   1      31.297  24.664  22.995  1.00  0.00    -0.463 OA
BRANCH   5   6
ATOM      6  C   UNL A   1      31.101  25.375  24.139  1.00  0.00     0.317 C 
ATOM      7  O   UNL A   1      31.128  24.887  25.263  1.00  0.00    -0.251 OA
BRANCH   6   8
ATOM      8  C   UNL A   1      31.002  26.890  23.835  1.00  0.00     0.117 C 
ATOM      9  C   UNL A   1      31.758  27.277  22.539  1.00  0.00     0.030 C 
ATOM     10  C   UNL A   1      31.629  27.688  25.003  1.00  0.00     0.281 C 
ATOM     11  C   UNL A   1      33.285  27.305  22.686  1.00  0.00     0.063 C 
ATOM     12  N   UNL A   1      33.055  27.381  25.085  1.00  0.00    -0.330 N 
ATOM     13  C   UNL A   1      33.770  27.982  23.972  1.00  0.00     0.262 C 
ATOM     14  H   UNL A   1      33.157  26.374  24.967  1.00  0.00     0.348 HD
BRANCH   8  15
ATOM     15  C   UNL A   1      29.501  27.279  23.677  1.00  0.00     0.021 C 
ATOM     16  C   UNL A   1      29.233  28.506  22.808  1.00  0.00     0.005 C 
ENDBRANCH   8  15
BRANCH  12  17
ATOM     17  C   UNL A   1      33.657  27.518  26.410  1.00  0.00     0.299 C 
BRANCH  17  18
ATOM     18  C   UNL A   1      33.845  28.922  26.921  1.00  0.00     0.006 A 
ATOM     19  C   UNL A   1      32.787  29.832  26.905  1.00  0.00     0.010 A 
ATOM     20  C   UNL A   1      35.084  29.346  27.410  1.00  0.00     0.010 A 
ATOM     21  C   UNL A   1      32.959  31.124  27.410  1.00  0.00     0.004 A 
ATOM     22  C   UNL A   1      35.243  30.635  27.923  1.00  0.00     0.004 A 
ATOM     23  C   UNL A   1      34.180  31.553  27.958  1.00  0.00    -0.045 A 
BRANCH  23  24
ATOM     24  C   UNL A   1      34.290  32.940  28.560  1.00  0.00     0.019 C 
ATOM     25  C   UNL A   1      34.896  34.088  27.790  1.00  0.00     0.009 C 
ATOM     26  C   UNL A   1      33.420  34.071  28.071  1.00  0.00     0.009 C 
ENDBRANCH  23  24
ENDBRANCH  17  18
ENDBRANCH  12  17
ENDBRANCH   6   8
ENDBRANCH   5   6
ENDBRANCH   4   5
ENDBRANCH   3   4
ENDBRANCH   2   3
ENDBRANCH   1   2
BRANCH   1  27
ATOM     27  C   UNL A   1      34.521  21.963  24.681  1.00  0.00     0.188 C 
BRANCH  27  28
ATOM     28  O   UNL A   1      35.451  21.296  25.517  1.00  0.00    -0.376 OA
BRANCH  28  29
ATOM     29  C   UNL A   1      36.111  20.154  24.982  1.00  0.00     0.202 C 
BRANCH  29  30
ATOM     30  C   UNL A   1      37.650  20.145  24.946  1.00  0.00     0.261 C 
BRANCH  30  31
ATOM     31  O   UNL A   1      38.279  21.324  25.496  1.00  0.00    -0.460 OA
BRANCH  31  32
ATOM     32  C   UNL A   1      39.417  21.107  26.193  1.00  0.00     0.338 C 
ATOM     33  O   UNL A   1      40.074  20.069  26.242  1.00  0.00    -0.246 OA
BRANCH  32  34
ATOM     34  C   UNL A   1      39.914  22.358  26.795  1.00  0.00     0.060 A 
ATOM     35  C   UNL A   1      39.417  23.578  26.314  1.00  0.00     0.016 A 
ATOM     36  C   UNL A   1      40.950  22.341  27.729  1.00  0.00     0.016 A 
ATOM     37  C   UNL A   1      39.972  24.786  26.741  1.00  0.00     0.010 A 
ATOM     38  C   UNL A   1      41.523  23.553  28.139  1.00  0.00     0.010 A 
ATOM     39  C   UNL A   1      41.060  24.777  27.623  1.00  0.00    -0.014 A 
BRANCH  39  40
ATOM     40  C   UNL A   1      41.823  26.028  27.869  1.00  0.00     0.031 A 
ATOM     41  C   UNL A   1      41.181  27.123  28.677  1.00  0.00     0.074 A 
ATOM     42  C   UNL A   1      43.069  26.192  27.391  1.00  0.00     0.049 A 
ATOM     43  N   UNL A   1      41.622  28.325  28.951  1.00  0.00    -0.248 NA
ATOM     44  C   UNL A   1      39.862  26.819  29.254  1.00  0.00     0.031 C 
ATOM     45  C   UNL A   1      43.823  25.193  26.639  1.00  0.00     0.029 A 
ATOM     46  N   UNL A   1      43.912  27.273  27.459  1.00  0.00    -0.354 N 
ATOM     47  C   UNL A   1      40.631  28.923  29.719  1.00  0.00     0.074 A 
ATOM     48  C   UNL A   1      39.559  27.961  29.851  1.00  0.00     0.031 C 
ATOM     49  C   UNL A   1      45.011  25.716  26.293  1.00  0.00     0.029 A 
ATOM     50  C   UNL A   1      45.087  27.097  26.771  1.00  0.00     0.049 A 
ATOM     51  H   UNL A   1      43.695  28.097  27.954  1.00  0.00     0.167 HD
ATOM     52  C   UNL A   1      40.619  30.163  30.267  1.00  0.00     0.037 A 
ATOM     53  C   UNL A   1      46.093  27.962  26.530  1.00  0.00     0.037 A 
ATOM     54  C   UNL A   1      41.683  31.122  30.136  1.00  0.00     0.049 A 
ATOM     55  C   UNL A   1      46.022  29.362  27.086  1.00  0.00     0.074 A 
ATOM     56  C   UNL A   1      41.769  32.396  30.671  1.00  0.00     0.029 A 
ATOM     57  N   UNL A   1      42.846  30.915  29.409  1.00  0.00    -0.354 N 
ATOM     58  N   UNL A   1      45.093  29.914  27.827  1.00  0.00    -0.248 NA
ATOM     59  C   UNL A   1      47.145  30.259  26.770  1.00  0.00     0.031 C 
ATOM     60  C   UNL A   1      42.960  32.978  30.225  1.00  0.00     0.029 A 
ATOM     61  C   UNL A   1      43.643  32.047  29.458  1.00  0.00     0.049 A 
ATOM     62  H   UNL A   1      43.072  30.086  28.928  1.00  0.00     0.167 HD
ATOM     63  C   UNL A   1      45.531  31.207  28.091  1.00  0.00     0.074 A 
ATOM     64  C   UNL A   1      46.814  31.355  27.437  1.00  0.00     0.031 C 
ATOM     65  C   UNL A   1      44.924  32.181  28.813  1.00  0.00     0.037 A 
BRANCH  52  66
ATOM     66  C   UNL A   1      39.394  30.565  31.037  1.00  0.00     0.064 A 
ATOM     67  C   UNL A   1      38.363  31.311  30.447  1.00  0.00     0.173 A 
ATOM     68  C   UNL A   1      39.240  30.174  32.375  1.00  0.00     0.173 A 
ATOM     69  F   UNL A   1      38.468  31.720  29.175  1.00  0.00    -0.203 F 
ATOM     70  C   UNL A   1      37.233  31.672  31.178  1.00  0.00     0.198 A 
ATOM     71  C   UNL A   1      38.097  30.512  33.094  1.00  0.00     0.198 A 
ATOM     72  F   UNL A   1      40.195  29.455  32.985  1.00  0.00    -0.203 F 
ATOM     73  F   UNL A   1      36.282  32.424  30.609  1.00  0.00    -0.200 F 
ATOM     74  C   UNL A   1      37.098  31.268  32.498  1.00  0.00     0.200 A 
ATOM     75  F   UNL A   1      37.963  30.110  34.366  1.00  0.00    -0.200 F 
ATOM     76  F   UNL A   1      36.008  31.612  33.198  1.00  0.00    -0.200 F 
ENDBRANCH  52  66
BRANCH  53  77
ATOM     77  C   UNL A   1      47.253  27.536  25.704  1.00  0.00     0.064 A 
ATOM     78  C   UNL A   1      48.384  26.953  26.292  1.00  0.00     0.173 A 
ATOM     79  C   UNL A   1      47.261  27.720  24.313  1.00  0.00     0.173 A 
ATOM     80  F   UNL A   1      48.436  26.784  27.620  1.00  0.00    -0.203 F 
ATOM     81  C   UNL A   1      49.486  26.584  25.521  1.00  0.00     0.198 A 
ATOM     82  C   UNL A   1      48.351  27.326  23.541  1.00  0.00     0.198 A 
ATOM     83  F   UNL A   1      46.205  28.279  23.704  1.00  0.00    -0.203 F 
ATOM     84  F   UNL A   1      50.572  26.070  26.114  1.00  0.00    -0.200 F 
ATOM     85  C   UNL A   1      49.466  26.764  24.146  1.00  0.00     0.200 A 
ATOM     86  F   UNL A   1      48.323  27.493  22.212  1.00  0.00    -0.200 F 
ATOM     87  F   UNL A   1      50.523  26.406  23.406  1.00  0.00    -0.200 F 
ENDBRANCH  53  77
BRANCH  65  88
ATOM     88  C   UNL A   1      45.656  33.483  28.977  1.00  0.00     0.064 A 
ATOM     89  C   UNL A   1      46.583  33.683  30.010  1.00  0.00     0.173 A 
ATOM     90  C   UNL A   1      45.462  34.525  28.056  1.00  0.00     0.173 A 
ATOM     91  F   UNL A   1      46.793  32.723  30.923  1.00  0.00    -0.203 F 
ATOM     92  C   UNL A   1      47.272  34.887  30.129  1.00  0.00     0.198 A 
ATOM     93  C   UNL A   1      46.175  35.716  28.161  1.00  0.00     0.198 A 
ATOM     94  F   UNL A   1      44.593  34.381  27.046  1.00  0.00    -0.203 F 
ATOM     95  F   UNL A   1      48.122  35.073  31.148  1.00  0.00    -0.200 F 
ATOM     96  C   UNL A   1      47.076  35.899  29.200  1.00  0.00     0.200 A 
ATOM     97  F   UNL A   1      45.993  36.686  27.255  1.00  0.00    -0.200 F 
ATOM     98  F   UNL A   1      47.747  37.053  29.310  1.00  0.00    -0.200 F 
ENDBRANCH  65  88
ENDBRANCH  39  40
ENDBRANCH  32  34
ENDBRANCH  31  32
ENDBRANCH  30  31
ENDBRANCH  29  30
ENDBRANCH  28  29
ENDBRANCH  27  28
ENDBRANCH   1  27
TORSDOF 21
ENDMDL
MODEL 2
REMARK VINA RESULT:     -10.7      3.203      8.155
REMARK SMILES CC[C@@]1(C(=O)OCCOCCOCCOC(=O)c2ccc(-c3c4nc(c(-c5c(F)c(F)c(F)c(F)c5F)c5ccc([nH]5)c(-c5c(F)c(F)c(F)c(F)c5F)c5nc(c(-c6c(F)c(F)c(F)c(F)c6F)c6ccc3[nH]6)C=C5)C=C4)cc2)CCC[N@@H+](Cc2ccc(C3CC3)cc2)C1
REMARK SMILES IDX 10 1 9 2 8 3 7 4 6 5 4 6 5 7 3 8 81 9 95 10 82 11 84 12
REMARK SMILES IDX 83 13 2 15 1 16 85 17 86 18 87 19 94 20 88 21 93 22 89 23
REMARK SMILES IDX 90 24 91 25 92 26 11 27 12 28 13 29 14 30 15 31 16 32 17 33
REMARK SMILES IDX 18 34 19 35 80 36 20 37 79 38 21 39 22 40 23 41 73 42 24 43
REMARK SMILES IDX 78 44 72 45 74 46 25 47 77 48 71 49 70 50 26 52 58 53 38 54
REMARK SMILES IDX 57 55 39 56 42 57 56 58 75 59 40 60 41 61 55 63 76 64 43 65
REMARK SMILES IDX 27 66 28 67 36 68 29 69 30 70 34 71 37 72 31 73 32 74 35 75
REMARK SMILES IDX 33 76 59 77 60 78 68 79 61 80 62 81 66 82 69 83 63 84 64 85
REMARK SMILES IDX 67 86 65 87 44 88 45 89 53 90 46 91 47 92 51 93 54 94 48 95
REMARK SMILES IDX 49 96 52 97 50 98
REMARK H PARENT 84 14 74 51 42 62
REMARK Flexibility Score: inf
ROOT
ATOM      1  C   UNL A   1      33.801  31.076  27.623  1.00  0.00     0.188 C 
ENDROOT
BRANCH   1   2
ATOM      2  O   UNL A   1      34.682  30.005  27.319  1.00  0.00    -0.376 OA
BRANCH   2   3
ATOM      3  C   UNL A   1      34.062  28.721  27.200  1.00  0.00     0.202 C 
BRANCH   3   4
ATOM      4  C   UNL A   1      32.734  28.782  26.442  1.00  0.00     0.261 C 
BRANCH   4   5
ATOM      5  O   UNL A   1      32.497  27.539  25.764  1.00  0.00    -0.463 OA
BRANCH   5   6
ATOM      6  C   UNL A   1      31.768  26.565  26.375  1.00  0.00     0.317 C 
ATOM      7  O   UNL A   1      30.811  26.782  27.108  1.00  0.00    -0.251 OA
BRANCH   6   8
ATOM      8  C   UNL A   1      32.214  25.162  25.895  1.00  0.00     0.117 C 
ATOM      9  C   UNL A   1      33.756  25.028  25.829  1.00  0.00     0.030 C 
ATOM     10  C   UNL A   1      31.658  24.909  24.472  1.00  0.00     0.281 C 
ATOM     11  C   UNL A   1      34.401  25.751  24.640  1.00  0.00     0.063 C 
ATOM     12  N   UNL A   1      32.256  25.868  23.545  1.00  0.00    -0.330 N 
ATOM     13  C   UNL A   1      33.655  25.550  23.316  1.00  0.00     0.262 C 
ATOM     14  H   UNL A   1      32.250  26.779  24.003  1.00  0.00     0.348 HD
BRANCH   8  15
ATOM     15  C   UNL A   1      31.656  24.088  26.876  1.00  0.00     0.021 C 
ATOM     16  C   UNL A   1      30.414  23.343  26.391  1.00  0.00     0.005 C 
ENDBRANCH   8  15
BRANCH  12  17
ATOM     17  C   UNL A   1      31.452  26.198  22.370  1.00  0.00     0.299 C 
BRANCH  17  18
ATOM     18  C   UNL A   1      30.488  27.345  22.515  1.00  0.00     0.006 A 
ATOM     19  C   UNL A   1      30.816  28.615  22.036  1.00  0.00     0.010 A 
ATOM     20  C   UNL A   1      29.252  27.167  23.143  1.00  0.00     0.010 A 
ATOM     21  C   UNL A   1      29.904  29.669  22.145  1.00  0.00     0.004 A 
ATOM     22  C   UNL A   1      28.343  28.224  23.238  1.00  0.00     0.004 A 
ATOM     23  C   UNL A   1      28.634  29.498  22.723  1.00  0.00    -0.045 A 
BRANCH  23  24
ATOM     24  C   UNL A   1      27.657  30.656  22.749  1.00  0.00     0.019 C 
ATOM     25  C   UNL A   1      27.653  31.659  23.877  1.00  0.00     0.009 C 
ATOM     26  C   UNL A   1      28.121  32.071  22.510  1.00  0.00     0.009 C 
ENDBRANCH  23  24
ENDBRANCH  17  18
ENDBRANCH  12  17
ENDBRANCH   6   8
ENDBRANCH   5   6
ENDBRANCH   4   5
ENDBRANCH   3   4
ENDBRANCH   2   3
ENDBRANCH   1   2
BRANCH   1  27
ATOM     27  C   UNL A   1      34.471  32.459  27.751  1.00  0.00     0.188 C 
BRANCH  27  28
ATOM     28  O   UNL A   1      33.676  33.619  27.930  1.00  0.00    -0.376 OA
BRANCH  28  29
ATOM     29  C   UNL A   1      33.401  34.025  29.266  1.00  0.00     0.202 C 
BRANCH  29  30
ATOM     30  C   UNL A   1      34.460  33.754  30.350  1.00  0.00     0.261 C 
BRANCH  30  31
ATOM     31  O   UNL A   1      34.408  32.433  30.933  1.00  0.00    -0.460 OA
BRANCH  31  32
ATOM     32  C   UNL A   1      35.378  32.155  31.834  1.00  0.00     0.338 C 
ATOM     33  O   UNL A   1      35.387  32.439  33.030  1.00  0.00    -0.246 OA
BRANCH  32  34
ATOM     34  C   UNL A   1      36.412  31.284  31.245  1.00  0.00     0.060 A 
ATOM     35  C   UNL A   1      37.242  30.551  32.107  1.00  0.00     0.016 A 
ATOM     36  C   UNL A   1      36.652  31.286  29.871  1.00  0.00     0.016 A 
ATOM     37  C   UNL A   1      38.332  29.840  31.602  1.00  0.00     0.010 A 
ATOM     38  C   UNL A   1      37.761  30.591  29.369  1.00  0.00     0.010 A 
ATOM     39  C   UNL A   1      38.624  29.894  30.233  1.00  0.00    -0.014 A 
BRANCH  39  40
ATOM     40  C   UNL A   1      39.921  29.371  29.732  1.00  0.00     0.031 A 
ATOM     41  C   UNL A   1      41.111  30.291  29.697  1.00  0.00     0.074 A 
ATOM     42  C   UNL A   1      40.047  28.098  29.318  1.00  0.00     0.049 A 
ATOM     43  N   UNL A   1      42.315  30.079  29.228  1.00  0.00    -0.248 NA
ATOM     44  C   UNL A   1      40.914  31.633  30.269  1.00  0.00     0.031 C 
ATOM     45  C   UNL A   1      38.990  27.091  29.347  1.00  0.00     0.029 A 
ATOM     46  N   UNL A   1      41.126  27.441  28.777  1.00  0.00    -0.354 N 
ATOM     47  C   UNL A   1      43.013  31.262  29.437  1.00  0.00     0.074 A 
ATOM     48  C   UNL A   1      42.094  32.193  30.055  1.00  0.00     0.031 C 
ATOM     49  C   UNL A   1      39.464  25.948  28.823  1.00  0.00     0.029 A 
ATOM     50  C   UNL A   1      40.848  26.153  28.392  1.00  0.00     0.049 A 
ATOM     51  H   UNL A   1      42.014  27.855  28.675  1.00  0.00     0.167 HD
ATOM     52  C   UNL A   1      44.305  31.545  29.142  1.00  0.00     0.037 A 
ATOM     53  C   UNL A   1      41.613  25.255  27.741  1.00  0.00     0.037 A 
ATOM     54  C   UNL A   1      45.221  30.621  28.525  1.00  0.00     0.049 A 
ATOM     55  C   UNL A   1      43.024  25.618  27.354  1.00  0.00     0.074 A 
ATOM     56  C   UNL A   1      46.554  30.811  28.204  1.00  0.00     0.029 A 
ATOM     57  N   UNL A   1      44.893  29.334  28.127  1.00  0.00    -0.354 N 
ATOM     58  N   UNL A   1      43.684  26.730  27.571  1.00  0.00    -0.248 NA
ATOM     59  C   UNL A   1      43.798  24.598  26.630  1.00  0.00     0.031 C 
ATOM     60  C   UNL A   1      47.019  29.656  27.566  1.00  0.00     0.029 A 
ATOM     61  C   UNL A   1      45.991  28.727  27.539  1.00  0.00     0.049 A 
ATOM     62  H   UNL A   1      44.011  28.913  28.244  1.00  0.00     0.167 HD
ATOM     63  C   UNL A   1      44.953  26.533  27.042  1.00  0.00     0.074 A 
ATOM     64  C   UNL A   1      44.975  25.191  26.498  1.00  0.00     0.031 C 
ATOM     65  C   UNL A   1      46.006  27.387  27.011  1.00  0.00     0.037 A 
BRANCH  52  66
ATOM     66  C   UNL A   1      44.798  32.928  29.455  1.00  0.00     0.064 A 
ATOM     67  C   UNL A   1      44.669  33.983  28.540  1.00  0.00     0.173 A 
ATOM     68  C   UNL A   1      45.383  33.205  30.700  1.00  0.00     0.173 A 
ATOM     69  F   UNL A   1      44.130  33.767  27.332  1.00  0.00    -0.203 F 
ATOM     70  C   UNL A   1      45.131  35.260  28.851  1.00  0.00     0.198 A 
ATOM     71  C   UNL A   1      45.818  34.489  31.018  1.00  0.00     0.198 A 
ATOM     72  F   UNL A   1      45.525  32.232  31.612  1.00  0.00    -0.203 F 
ATOM     73  F   UNL A   1      45.040  36.242  27.945  1.00  0.00    -0.200 F 
ATOM     74  C   UNL A   1      45.699  35.513  30.091  1.00  0.00     0.200 A 
ATOM     75  F   UNL A   1      46.355  34.733  32.222  1.00  0.00    -0.200 F 
ATOM     76  F   UNL A   1      46.139  36.744  30.390  1.00  0.00    -0.200 F 
ENDBRANCH  52  66
BRANCH  53  77
ATOM     77  C   UNL A   1      41.055  23.921  27.393  1.00  0.00     0.064 A 
ATOM     78  C   UNL A   1      40.019  23.793  26.458  1.00  0.00     0.173 A 
ATOM     79  C   UNL A   1      41.535  22.752  28.002  1.00  0.00     0.173 A 
ATOM     80  F   UNL A   1      39.507  24.884  25.873  1.00  0.00    -0.203 F 
ATOM     81  C   UNL A   1      39.473  22.546  26.156  1.00  0.00     0.198 A 
ATOM     82  C   UNL A   1      41.008  21.504  27.678  1.00  0.00     0.198 A 
ATOM     83  F   UNL A   1      42.522  22.823  28.907  1.00  0.00    -0.203 F 
ATOM     84  F   UNL A   1      38.453  22.456  25.292  1.00  0.00    -0.200 F 
ATOM     85  C   UNL A   1      39.973  21.402  26.761  1.00  0.00     0.200 A 
ATOM     86  F   UNL A   1      41.500  20.401  28.259  1.00  0.00    -0.200 F 
ATOM     87  F   UNL A   1      39.450  20.204  26.468  1.00  0.00    -0.200 F 
ENDBRANCH  53  77
BRANCH  65  88
ATOM     88  C   UNL A   1      47.289  26.887  26.411  1.00  0.00     0.064 A 
ATOM     89  C   UNL A   1      47.599  27.088  25.057  1.00  0.00     0.173 A 
ATOM     90  C   UNL A   1      48.243  26.243  27.214  1.00  0.00     0.173 A 
ATOM     91  F   UNL A   1      46.715  27.686  24.245  1.00  0.00    -0.203 F 
ATOM     92  C   UNL A   1      48.807  26.642  24.526  1.00  0.00     0.198 A 
ATOM     93  C   UNL A   1      49.462  25.825  26.686  1.00  0.00     0.198 A 
ATOM     94  F   UNL A   1      48.000  26.033  28.515  1.00  0.00    -0.203 F 
ATOM     95  F   UNL A   1      49.064  26.807  23.222  1.00  0.00    -0.200 F 
ATOM     96  C   UNL A   1      49.741  26.020  25.342  1.00  0.00     0.200 A 
ATOM     97  F   UNL A   1      50.367  25.236  27.478  1.00  0.00    -0.200 F 
ATOM     98  F   UNL A   1      50.906  25.600  24.831  1.00  0.00    -0.200 F 
ENDBRANCH  65  88
ENDBRANCH  39  40
ENDBRANCH  32  34
ENDBRANCH  31  32
ENDBRANCH  30  31
ENDBRANCH  29  30
ENDBRANCH  28  29
ENDBRANCH  27  28
ENDBRANCH   1  27
TORSDOF 21
ENDMDL
MODEL 3
REMARK VINA RESULT:     -10.6      5.233     10.068
REMARK SMILES CC[C@@]1(C(=O)OCCOCCOCCOC(=O)c2ccc(-c3c4nc(c(-c5c(F)c(F)c(F)c(F)c5F)c5ccc([nH]5)c(-c5c(F)c(F)c(F)c(F)c5F)c5nc(c(-c6c(F)c(F)c(F)c(F)c6F)c6ccc3[nH]6)C=C5)C=C4)cc2)CCC[N@@H+](Cc2ccc(C3CC3)cc2)C1
REMARK SMILES IDX 10 1 9 2 8 3 7 4 6 5 4 6 5 7 3 8 81 9 95 10 82 11 84 12
REMARK SMILES IDX 83 13 2 15 1 16 85 17 86 18 87 19 94 20 88 21 93 22 89 23
REMARK SMILES IDX 90 24 91 25 92 26 11 27 12 28 13 29 14 30 15 31 16 32 17 33
REMARK SMILES IDX 18 34 19 35 80 36 20 37 79 38 21 39 22 40 23 41 73 42 24 43
REMARK SMILES IDX 78 44 72 45 74 46 25 47 77 48 71 49 70 50 26 52 58 53 38 54
REMARK SMILES IDX 57 55 39 56 42 57 56 58 75 59 40 60 41 61 55 63 76 64 43 65
REMARK SMILES IDX 27 66 28 67 36 68 29 69 30 70 34 71 37 72 31 73 32 74 35 75
REMARK SMILES IDX 33 76 59 77 60 78 68 79 61 80 62 81 66 82 69 83 63 84 64 85
REMARK SMILES IDX 67 86 65 87 44 88 45 89 53 90 46 91 47 92 51 93 54 94 48 95
REMARK SMILES IDX 49 96 52 97 50 98
REMARK H PARENT 84 14 74 51 42 62
REMARK Flexibility Score: inf
ROOT
ATOM      1  C   UNL A   1      33.458  30.945  27.375  1.00  0.00     0.188 C 
ENDROOT
BRANCH   1   2
ATOM      2  O   UNL A   1      32.388  31.192  26.475  1.00  0.00    -0.376 OA
BRANCH   2   3
ATOM      3  C   UNL A   1      31.975  30.065  25.696  1.00  0.00     0.202 C 
BRANCH   3   4
ATOM      4  C   UNL A   1      32.766  28.800  26.035  1.00  0.00     0.261 C 
BRANCH   4   5
ATOM      5  O   UNL A   1      32.457  27.760  25.094  1.00  0.00    -0.463 OA
BRANCH   5   6
ATOM      6  C   UNL A   1      33.244  26.651  25.032  1.00  0.00     0.317 C 
ATOM      7  O   UNL A   1      34.136  26.397  25.833  1.00  0.00    -0.251 OA
BRANCH   6   8
ATOM      8  C   UNL A   1      32.756  25.692  23.919  1.00  0.00     0.117 C 
ATOM      9  C   UNL A   1      31.216  25.727  23.749  1.00  0.00     0.030 C 
ATOM     10  C   UNL A   1      33.156  24.241  24.282  1.00  0.00     0.281 C 
ATOM     11  C   UNL A   1      30.443  24.998  24.856  1.00  0.00     0.063 C 
ATOM     12  N   UNL A   1      32.458  23.840  25.501  1.00  0.00    -0.330 N 
ATOM     13  C   UNL A   1      31.044  23.640  25.236  1.00  0.00     0.262 C 
ATOM     14  H   UNL A   1      32.508  24.623  26.153  1.00  0.00     0.348 HD
BRANCH   8  15
ATOM     15  C   UNL A   1      33.421  26.100  22.570  1.00  0.00     0.021 C 
ATOM     16  C   UNL A   1      32.775  25.506  21.319  1.00  0.00     0.005 C 
ENDBRANCH   8  15
BRANCH  12  17
ATOM     17  C   UNL A   1      33.129  22.826  26.311  1.00  0.00     0.299 C 
BRANCH  17  18
ATOM     18  C   UNL A   1      33.406  21.506  25.641  1.00  0.00     0.006 A 
ATOM     19  C   UNL A   1      34.716  21.044  25.492  1.00  0.00     0.010 A 
ATOM     20  C   UNL A   1      32.361  20.722  25.144  1.00  0.00     0.010 A 
ATOM     21  C   UNL A   1      34.964  19.804  24.898  1.00  0.00     0.004 A 
ATOM     22  C   UNL A   1      32.619  19.479  24.561  1.00  0.00     0.004 A 
ATOM     23  C   UNL A   1      33.924  18.975  24.442  1.00  0.00    -0.045 A 
BRANCH  23  24
ATOM     24  C   UNL A   1      34.246  17.607  23.873  1.00  0.00     0.019 C 
ATOM     25  C   UNL A   1      34.574  16.438  24.769  1.00  0.00     0.009 C 
ATOM     26  C   UNL A   1      33.278  16.460  24.010  1.00  0.00     0.009 C 
ENDBRANCH  23  24
ENDBRANCH  17  18
ENDBRANCH  12  17
ENDBRANCH   6   8
ENDBRANCH   5   6
ENDBRANCH   4   5
ENDBRANCH   3   4
ENDBRANCH   2   3
ENDBRANCH   1   2
BRANCH   1  27
ATOM     27  C   UNL A   1      34.037  32.197  28.064  1.00  0.00     0.188 C 
BRANCH  27  28
ATOM     28  O   UNL A   1      33.379  33.446  27.935  1.00  0.00    -0.376 OA
BRANCH  28  29
ATOM     29  C   UNL A   1      34.047  34.594  28.446  1.00  0.00     0.202 C 
BRANCH  29  30
ATOM     30  C   UNL A   1      33.231  35.619  29.255  1.00  0.00     0.261 C 
BRANCH  30  31
ATOM     31  O   UNL A   1      32.520  35.072  30.388  1.00  0.00    -0.460 OA
BRANCH  31  32
ATOM     32  C   UNL A   1      32.758  35.679  31.573  1.00  0.00     0.338 C 
ATOM     33  O   UNL A   1      32.091  36.565  32.104  1.00  0.00    -0.246 OA
BRANCH  32  34
ATOM     34  C   UNL A   1      33.867  35.022  32.289  1.00  0.00     0.060 A 
ATOM     35  C   UNL A   1      35.131  35.632  32.273  1.00  0.00     0.016 A 
ATOM     36  C   UNL A   1      33.704  33.759  32.859  1.00  0.00     0.016 A 
ATOM     37  C   UNL A   1      36.241  34.970  32.799  1.00  0.00     0.010 A 
ATOM     38  C   UNL A   1      34.824  33.086  33.365  1.00  0.00     0.010 A 
ATOM     39  C   UNL A   1      36.101  33.673  33.307  1.00  0.00    -0.014 A 
BRANCH  39  40
ATOM     40  C   UNL A   1      37.309  32.864  33.617  1.00  0.00     0.031 A 
ATOM     41  C   UNL A   1      38.045  33.123  34.903  1.00  0.00     0.074 A 
ATOM     42  C   UNL A   1      37.746  31.910  32.776  1.00  0.00     0.049 A 
ATOM     43  N   UNL A   1      39.162  32.600  35.344  1.00  0.00    -0.248 NA
ATOM     44  C   UNL A   1      37.439  34.106  35.815  1.00  0.00     0.031 C 
ATOM     45  C   UNL A   1      37.098  31.526  31.526  1.00  0.00     0.029 A 
ATOM     46  N   UNL A   1      38.853  31.101  32.848  1.00  0.00    -0.354 N 
ATOM     47  C   UNL A   1      39.397  33.198  36.576  1.00  0.00     0.074 A 
ATOM     48  C   UNL A   1      38.320  34.137  36.803  1.00  0.00     0.031 C 
ATOM     49  C   UNL A   1      37.831  30.569  30.933  1.00  0.00     0.029 A 
ATOM     50  C   UNL A   1      39.018  30.298  31.745  1.00  0.00     0.049 A 
ATOM     51  H   UNL A   1      39.470  31.096  33.615  1.00  0.00     0.167 HD
ATOM     52  C   UNL A   1      40.418  32.982  37.440  1.00  0.00     0.037 A 
ATOM     53  C   UNL A   1      40.025  29.465  31.419  1.00  0.00     0.037 A 
ATOM     54  C   UNL A   1      41.492  32.049  37.216  1.00  0.00     0.049 A 
ATOM     55  C   UNL A   1      41.190  29.297  32.362  1.00  0.00     0.074 A 
ATOM     56  C   UNL A   1      42.561  31.748  38.042  1.00  0.00     0.029 A 
ATOM     57  N   UNL A   1      41.636  31.274  36.075  1.00  0.00    -0.354 N 
ATOM     58  N   UNL A   1      41.397  29.850  33.532  1.00  0.00    -0.248 NA
ATOM     59  C   UNL A   1      42.263  28.386  31.935  1.00  0.00     0.031 C 
ATOM     60  C   UNL A   1      43.379  30.828  37.379  1.00  0.00     0.029 A 
ATOM     61  C   UNL A   1      42.792  30.514  36.164  1.00  0.00     0.049 A 
ATOM     62  H   UNL A   1      41.012  31.265  35.314  1.00  0.00     0.167 HD
ATOM     63  C   UNL A   1      42.601  29.333  33.994  1.00  0.00     0.074 A 
ATOM     64  C   UNL A   1      43.077  28.415  32.981  1.00  0.00     0.031 C 
ATOM     65  C   UNL A   1      43.251  29.595  35.154  1.00  0.00     0.037 A 
BRANCH  52  66
ATOM     66  C   UNL A   1      40.440  33.796  38.701  1.00  0.00     0.064 A 
ATOM     67  C   UNL A   1      39.706  33.419  39.836  1.00  0.00     0.173 A 
ATOM     68  C   UNL A   1      41.227  34.954  38.782  1.00  0.00     0.173 A 
ATOM     69  F   UNL A   1      38.928  32.328  39.805  1.00  0.00    -0.203 F 
ATOM     70  C   UNL A   1      39.741  34.187  40.998  1.00  0.00     0.198 A 
ATOM     71  C   UNL A   1      41.282  35.703  39.954  1.00  0.00     0.198 A 
ATOM     72  F   UNL A   1      41.952  35.355  37.727  1.00  0.00    -0.203 F 
ATOM     73  F   UNL A   1      38.997  33.834  42.054  1.00  0.00    -0.200 F 
ATOM     74  C   UNL A   1      40.533  35.324  41.058  1.00  0.00     0.200 A 
ATOM     75  F   UNL A   1      42.058  36.795  40.014  1.00  0.00    -0.200 F 
ATOM     76  F   UNL A   1      40.570  36.059  42.179  1.00  0.00    -0.200 F 
ENDBRANCH  52  66
BRANCH  53  77
ATOM     77  C   UNL A   1      39.990  28.732  30.125  1.00  0.00     0.064 A 
ATOM     78  C   UNL A   1      39.417  27.457  30.032  1.00  0.00     0.173 A 
ATOM     79  C   UNL A   1      40.544  29.287  28.962  1.00  0.00     0.173 A 
ATOM     80  F   UNL A   1      38.902  26.873  31.123  1.00  0.00    -0.203 F 
ATOM     81  C   UNL A   1      39.414  26.756  28.827  1.00  0.00     0.198 A 
ATOM     82  C   UNL A   1      40.516  28.597  27.753  1.00  0.00     0.198 A 
ATOM     83  F   UNL A   1      41.109  30.503  29.001  1.00  0.00    -0.203 F 
ATOM     84  F   UNL A   1      38.900  25.519  28.775  1.00  0.00    -0.200 F 
ATOM     85  C   UNL A   1      39.957  27.329  27.687  1.00  0.00     0.200 A 
ATOM     86  F   UNL A   1      41.033  29.159  26.651  1.00  0.00    -0.200 F 
ATOM     87  F   UNL A   1      39.950  26.657  26.528  1.00  0.00    -0.200 F 
ENDBRANCH  53  77
BRANCH  65  88
ATOM     88  C   UNL A   1      44.527  28.848  35.420  1.00  0.00     0.064 A 
ATOM     89  C   UNL A   1      45.777  29.365  35.046  1.00  0.00     0.173 A 
ATOM     90  C   UNL A   1      44.501  27.621  36.102  1.00  0.00     0.173 A 
ATOM     91  F   UNL A   1      45.855  30.527  34.380  1.00  0.00    -0.203 F 
ATOM     92  C   UNL A   1      46.951  28.670  35.327  1.00  0.00     0.198 A 
ATOM     93  C   UNL A   1      45.679  26.944  36.407  1.00  0.00     0.198 A 
ATOM     94  F   UNL A   1      43.334  27.087  36.487  1.00  0.00    -0.203 F 
ATOM     95  F   UNL A   1      48.130  29.162  34.924  1.00  0.00    -0.200 F 
ATOM     96  C   UNL A   1      46.903  27.466  36.014  1.00  0.00     0.200 A 
ATOM     97  F   UNL A   1      45.631  25.788  37.081  1.00  0.00    -0.200 F 
ATOM     98  F   UNL A   1      48.034  26.804  36.291  1.00  0.00    -0.200 F 
ENDBRANCH  65  88
ENDBRANCH  39  40
ENDBRANCH  32  34
ENDBRANCH  31  32
ENDBRANCH  30  31
ENDBRANCH  29  30
ENDBRANCH  28  29
ENDBRANCH  27  28
ENDBRANCH   1  27
TORSDOF 21
ENDMDL
