MODEL 1
REMARK VINA RESULT:     -11.1      0.000      0.000
REMARK SMILES O=C(OCCOCCOCCOC(=O)[C@H]1Cc2cc(O)ccc2C[NH2+]1)c1ccc(-c2c3nc(c(-c4c(F)c(F)c(F)c(F)c4F)c4ccc([nH]4)c(-c4c(F)c(F)c(F)c(F)c4F)c4nc(c(-c5c(F)c(F)c(F)c(F)c5F)c5ccc2[nH]5)C=C4)C=C3)cc1
REMARK SMILES IDX 7 1 6 2 5 3 4 4 3 5 2 6 1 7 26 8 27 9 88 10 28 11 87 12
REMARK SMILES IDX 29 13 30 14 31 15 81 16 32 17 86 18 80 19 82 20 33 21 85 22
REMARK SMILES IDX 79 23 78 24 34 26 66 27 46 28 65 29 47 30 50 31 64 32 83 33
REMARK SMILES IDX 48 34 49 35 63 37 84 38 51 39 35 40 36 41 44 42 37 43 38 44
REMARK SMILES IDX 42 45 45 46 39 47 40 48 43 49 41 50 67 51 68 52 76 53 69 54
REMARK SMILES IDX 70 55 74 56 77 57 71 58 72 59 75 60 73 61 52 62 53 63 61 64
REMARK SMILES IDX 54 65 55 66 59 67 62 68 56 69 57 70 60 71 58 72 8 73 9 74
REMARK SMILES IDX 10 75 11 76 12 77 13 78 14 79 15 80 16 81 25 82 17 83 24 84
REMARK SMILES IDX 18 87 23 88 19 89 22 90 21 91 20 92
REMARK H PARENT 82 25 50 36 25 85 25 86 20 93
REMARK Flexibility Score: inf
ROOT
ATOM      1  C   UNL A   1      30.564  28.326  22.387  1.00  0.00     0.188 C 
ENDROOT
BRANCH   1   2
ATOM      2  O   UNL A   1      30.909  29.271  23.400  1.00  0.00    -0.376 OA
BRANCH   2   3
ATOM      3  C   UNL A   1      31.220  28.658  24.657  1.00  0.00     0.202 C 
BRANCH   3   4
ATOM      4  C   UNL A   1      32.695  28.766  25.049  1.00  0.00     0.261 C 
BRANCH   4   5
ATOM      5  O   UNL A   1      33.090  30.102  25.375  1.00  0.00    -0.460 OA
BRANCH   5   6
ATOM      6  C   UNL A   1      33.253  30.680  26.588  1.00  0.00     0.338 C 
ATOM      7  O   UNL A   1      32.286  31.279  27.051  1.00  0.00    -0.246 OA
BRANCH   6   8
ATOM      8  C   UNL A   1      34.525  30.686  27.400  1.00  0.00     0.060 A 
ATOM      9  C   UNL A   1      34.844  29.461  28.001  1.00  0.00     0.016 A 
ATOM     10  C   UNL A   1      35.399  31.754  27.647  1.00  0.00     0.016 A 
ATOM     11  C   UNL A   1      35.967  29.329  28.819  1.00  0.00     0.010 A 
ATOM     12  C   UNL A   1      36.529  31.626  28.477  1.00  0.00     0.010 A 
ATOM     13  C   UNL A   1      36.816  30.413  29.091  1.00  0.00    -0.014 A 
BRANCH  13  14
ATOM     14  C   UNL A   1      38.068  30.179  29.853  1.00  0.00     0.031 A 
ATOM     15  C   UNL A   1      38.320  30.715  31.240  1.00  0.00     0.074 A 
ATOM     16  C   UNL A   1      38.984  29.396  29.251  1.00  0.00     0.049 A 
ATOM     17  N   UNL A   1      39.214  30.325  32.119  1.00  0.00    -0.248 NA
ATOM     18  C   UNL A   1      37.483  31.826  31.709  1.00  0.00     0.031 C 
ATOM     19  C   UNL A   1      38.868  28.890  27.879  1.00  0.00     0.029 A 
ATOM     20  N   UNL A   1      40.162  28.867  29.702  1.00  0.00    -0.354 N 
ATOM     21  C   UNL A   1      38.993  31.089  33.263  1.00  0.00     0.074 A 
ATOM     22  C   UNL A   1      37.922  32.007  32.952  1.00  0.00     0.031 C 
ATOM     23  C   UNL A   1      39.897  28.076  27.622  1.00  0.00     0.029 A 
ATOM     24  C   UNL A   1      40.771  28.046  28.786  1.00  0.00     0.049 A 
ATOM     25  H   UNL A   1      40.535  29.056  30.593  1.00  0.00     0.167 HD
ATOM     26  C   UNL A   1      39.629  31.008  34.459  1.00  0.00     0.037 A 
ATOM     27  C   UNL A   1      41.914  27.344  28.871  1.00  0.00     0.037 A 
ATOM     28  C   UNL A   1      40.739  30.127  34.703  1.00  0.00     0.049 A 
ATOM     29  C   UNL A   1      42.658  27.363  30.170  1.00  0.00     0.074 A 
ATOM     30  C   UNL A   1      41.404  29.885  35.889  1.00  0.00     0.029 A 
ATOM     31  N   UNL A   1      41.382  29.394  33.717  1.00  0.00    -0.354 N 
ATOM     32  N   UNL A   1      42.304  27.907  31.309  1.00  0.00    -0.248 NA
ATOM     33  C   UNL A   1      43.957  26.683  30.199  1.00  0.00     0.031 C 
ATOM     34  C   UNL A   1      42.506  29.073  35.604  1.00  0.00     0.029 A 
ATOM     35  C   UNL A   1      42.500  28.775  34.248  1.00  0.00     0.049 A 
ATOM     36  H   UNL A   1      41.088  29.323  32.781  1.00  0.00     0.167 HD
ATOM     37  C   UNL A   1      43.336  27.642  32.194  1.00  0.00     0.074 A 
ATOM     38  C   UNL A   1      44.317  26.860  31.465  1.00  0.00     0.031 C 
ATOM     39  C   UNL A   1      43.464  28.018  33.490  1.00  0.00     0.037 A 
BRANCH  26  40
ATOM     40  C   UNL A   1      39.163  31.866  35.602  1.00  0.00     0.064 A 
ATOM     41  C   UNL A   1      38.271  31.359  36.555  1.00  0.00     0.173 A 
ATOM     42  C   UNL A   1      39.693  33.138  35.842  1.00  0.00     0.173 A 
ATOM     43  F   UNL A   1      37.866  30.090  36.480  1.00  0.00    -0.203 F 
ATOM     44  C   UNL A   1      37.836  32.120  37.637  1.00  0.00     0.198 A 
ATOM     45  C   UNL A   1      39.299  33.885  36.956  1.00  0.00     0.198 A 
ATOM     46  F   UNL A   1      40.625  33.644  35.021  1.00  0.00    -0.203 F 
ATOM     47  F   UNL A   1      36.932  31.615  38.490  1.00  0.00    -0.200 F 
ATOM     48  C   UNL A   1      38.351  33.386  37.838  1.00  0.00     0.200 A 
ATOM     49  F   UNL A   1      39.852  35.084  37.188  1.00  0.00    -0.200 F 
ATOM     50  F   UNL A   1      37.956  34.112  38.894  1.00  0.00    -0.200 F 
ENDBRANCH  26  40
BRANCH  27  51
ATOM     51  C   UNL A   1      42.371  26.576  27.685  1.00  0.00     0.064 A 
ATOM     52  C   UNL A   1      43.304  27.111  26.790  1.00  0.00     0.173 A 
ATOM     53  C   UNL A   1      41.969  25.243  27.492  1.00  0.00     0.173 A 
ATOM     54  F   UNL A   1      43.711  28.381  26.927  1.00  0.00    -0.203 F 
ATOM     55  C   UNL A   1      43.830  26.338  25.756  1.00  0.00     0.198 A 
ATOM     56  C   UNL A   1      42.519  24.463  26.478  1.00  0.00     0.198 A 
ATOM     57  F   UNL A   1      41.087  24.680  28.330  1.00  0.00    -0.203 F 
ATOM     58  F   UNL A   1      44.719  26.874  24.908  1.00  0.00    -0.200 F 
ATOM     59  C   UNL A   1      43.449  25.011  25.611  1.00  0.00     0.200 A 
ATOM     60  F   UNL A   1      42.167  23.176  26.361  1.00  0.00    -0.200 F 
ATOM     61  F   UNL A   1      43.985  24.260  24.638  1.00  0.00    -0.200 F 
ENDBRANCH  27  51
BRANCH  39  62
ATOM     62  C   UNL A   1      44.729  27.635  34.192  1.00  0.00     0.064 A 
ATOM     63  C   UNL A   1      45.814  28.520  34.250  1.00  0.00     0.173 A 
ATOM     64  C   UNL A   1      44.820  26.427  34.898  1.00  0.00     0.173 A 
ATOM     65  F   UNL A   1      45.777  29.679  33.577  1.00  0.00    -0.203 F 
ATOM     66  C   UNL A   1      46.948  28.209  34.993  1.00  0.00     0.198 A 
ATOM     67  C   UNL A   1      45.941  26.134  35.666  1.00  0.00     0.198 A 
ATOM     68  F   UNL A   1      43.802  25.553  34.878  1.00  0.00    -0.203 F 
ATOM     69  F   UNL A   1      47.984  29.059  35.017  1.00  0.00    -0.200 F 
ATOM     70  C   UNL A   1      47.005  27.024  35.712  1.00  0.00     0.200 A 
ATOM     71  F   UNL A   1      45.986  24.998  36.376  1.00  0.00    -0.200 F 
ATOM     72  F   UNL A   1      48.085  26.740  36.452  1.00  0.00    -0.200 F 
ENDBRANCH  39  62
ENDBRANCH  13  14
ENDBRANCH   6   8
ENDBRANCH   5   6
ENDBRANCH   4   5
ENDBRANCH   3   4
ENDBRANCH   2   3
ENDBRANCH   1   2
BRANCH   1  73
ATOM     73  C   UNL A   1      30.780  26.850  22.744  1.00  0.00     0.188 C 
BRANCH  73  74
ATOM     74  O   UNL A   1      31.117  25.944  21.705  1.00  0.00    -0.376 OA
BRANCH  74  75
ATOM     75  C   UNL A   1      32.486  25.821  21.332  1.00  0.00     0.202 C 
BRANCH  75  76
ATOM     76  C   UNL A   1      33.575  26.043  22.387  1.00  0.00     0.261 C 
BRANCH  76  77
ATOM     77  O   UNL A   1      34.208  24.841  22.874  1.00  0.00    -0.459 OA
BRANCH  77  78
ATOM     78  C   UNL A   1      33.921  24.547  24.172  1.00  0.00     0.365 C 
ATOM     79  O   UNL A   1      34.129  25.307  25.117  1.00  0.00    -0.245 OA
BRANCH  78  80
ATOM     80  C   UNL A   1      33.417  23.125  24.430  1.00  0.00     0.298 C 
ATOM     81  C   UNL A   1      32.984  22.277  23.227  1.00  0.00     0.113 C 
ATOM     82  N   UNL A   1      34.445  22.427  25.246  1.00  0.00    -0.331 N 
ATOM     83  C   UNL A   1      32.738  20.830  23.626  1.00  0.00    -0.029 A 
ATOM     84  C   UNL A   1      33.809  21.268  25.876  1.00  0.00     0.298 C 
ATOM     85  H   UNL A   1      34.806  23.056  25.963  1.00  0.00     0.347 HD
ATOM     86  H   UNL A   1      35.223  22.128  24.657  1.00  0.00     0.347 HD
ATOM     87  C   UNL A   1      32.155  19.930  22.731  1.00  0.00     0.050 A 
ATOM     88  C   UNL A   1      33.174  20.345  24.870  1.00  0.00     0.010 A 
ATOM     89  C   UNL A   1      32.148  18.563  22.999  1.00  0.00     0.115 A 
ATOM     90  C   UNL A   1      32.987  18.992  25.189  1.00  0.00     0.013 A 
ATOM     91  C   UNL A   1      32.545  18.084  24.233  1.00  0.00     0.046 A 
BRANCH  89  92
ATOM     92  O   UNL A   1      31.778  17.703  22.008  1.00  0.00    -0.508 OA
ATOM     93  H   UNL A   1      31.084  17.092  22.153  1.00  0.00     0.293 HD
ENDBRANCH  89  92
ENDBRANCH  78  80
ENDBRANCH  77  78
ENDBRANCH  76  77
ENDBRANCH  75  76
ENDBRANCH  74  75
ENDBRANCH  73  74
ENDBRANCH   1  73
TORSDOF 18
ENDMDL
MODEL 2
REMARK VINA RESULT:     -11.1      2.487      4.191
REMARK SMILES O=C(OCCOCCOCCOC(=O)[C@H]1Cc2cc(O)ccc2C[NH2+]1)c1ccc(-c2c3nc(c(-c4c(F)c(F)c(F)c(F)c4F)c4ccc([nH]4)c(-c4c(F)c(F)c(F)c(F)c4F)c4nc(c(-c5c(F)c(F)c(F)c(F)c5F)c5ccc2[nH]5)C=C4)C=C3)cc1
REMARK SMILES IDX 7 1 6 2 5 3 4 4 3 5 2 6 1 7 26 8 27 9 88 10 28 11 87 12
REMARK SMILES IDX 29 13 30 14 31 15 81 16 32 17 86 18 80 19 82 20 33 21 85 22
REMARK SMILES IDX 79 23 78 24 34 26 66 27 46 28 65 29 47 30 50 31 64 32 83 33
REMARK SMILES IDX 48 34 49 35 63 37 84 38 51 39 35 40 36 41 44 42 37 43 38 44
REMARK SMILES IDX 42 45 45 46 39 47 40 48 43 49 41 50 67 51 68 52 76 53 69 54
REMARK SMILES IDX 70 55 74 56 77 57 71 58 72 59 75 60 73 61 52 62 53 63 61 64
REMARK SMILES IDX 54 65 55 66 59 67 62 68 56 69 57 70 60 71 58 72 8 73 9 74
REMARK SMILES IDX 10 75 11 76 12 77 13 78 14 79 15 80 16 81 25 82 17 83 24 84
REMARK SMILES IDX 18 87 23 88 19 89 22 90 21 91 20 92
REMARK H PARENT 82 25 50 36 25 85 25 86 20 93
REMARK Flexibility Score: inf
ROOT
ATOM      1  C   UNL A   1      33.436  29.149  27.165  1.00  0.00     0.188 C 
ENDROOT
BRANCH   1   2
ATOM      2  O   UNL A   1      33.092  30.516  27.396  1.00  0.00    -0.376 OA
BRANCH   2   3
ATOM      3  C   UNL A   1      32.064  30.990  26.518  1.00  0.00     0.202 C 
BRANCH   3   4
ATOM      4  C   UNL A   1      31.402  32.288  26.987  1.00  0.00     0.261 C 
BRANCH   4   5
ATOM      5  O   UNL A   1      32.293  33.407  26.971  1.00  0.00    -0.460 OA
BRANCH   5   6
ATOM      6  C   UNL A   1      32.893  34.046  28.002  1.00  0.00     0.338 C 
ATOM      7  O   UNL A   1      32.312  35.026  28.460  1.00  0.00    -0.246 OA
BRANCH   6   8
ATOM      8  C   UNL A   1      34.226  33.684  28.609  1.00  0.00     0.060 A 
ATOM      9  C   UNL A   1      34.169  32.712  29.617  1.00  0.00     0.016 A 
ATOM     10  C   UNL A   1      35.492  34.211  28.315  1.00  0.00     0.016 A 
ATOM     11  C   UNL A   1      35.317  32.312  30.300  1.00  0.00     0.010 A 
ATOM     12  C   UNL A   1      36.652  33.814  29.007  1.00  0.00     0.010 A 
ATOM     13  C   UNL A   1      36.575  32.871  30.025  1.00  0.00    -0.014 A 
BRANCH  13  14
ATOM     14  C   UNL A   1      37.779  32.307  30.686  1.00  0.00     0.031 A 
ATOM     15  C   UNL A   1      38.267  32.734  32.046  1.00  0.00     0.074 A 
ATOM     16  C   UNL A   1      38.411  31.325  30.014  1.00  0.00     0.049 A 
ATOM     17  N   UNL A   1      39.095  32.111  32.853  1.00  0.00    -0.248 NA
ATOM     18  C   UNL A   1      37.786  34.016  32.579  1.00  0.00     0.031 C 
ATOM     19  C   UNL A   1      38.062  30.891  28.657  1.00  0.00     0.029 A 
ATOM     20  N   UNL A   1      39.443  30.502  30.372  1.00  0.00    -0.354 N 
ATOM     21  C   UNL A   1      39.169  32.885  34.009  1.00  0.00     0.074 A 
ATOM     22  C   UNL A   1      38.351  34.054  33.782  1.00  0.00     0.031 C 
ATOM     23  C   UNL A   1      38.822  29.844  28.321  1.00  0.00     0.029 A 
ATOM     24  C   UNL A   1      39.747  29.568  29.412  1.00  0.00     0.049 A 
ATOM     25  H   UNL A   1      39.920  30.572  31.229  1.00  0.00     0.167 HD
ATOM     26  C   UNL A   1      39.853  32.620  35.151  1.00  0.00     0.037 A 
ATOM     27  C   UNL A   1      40.671  28.593  29.408  1.00  0.00     0.037 A 
ATOM     28  C   UNL A   1      40.712  31.478  35.308  1.00  0.00     0.049 A 
ATOM     29  C   UNL A   1      41.493  28.395  30.643  1.00  0.00     0.074 A 
ATOM     30  C   UNL A   1      41.382  31.050  36.438  1.00  0.00     0.029 A 
ATOM     31  N   UNL A   1      41.065  30.621  34.276  1.00  0.00    -0.354 N 
ATOM     32  N   UNL A   1      41.382  28.991  31.805  1.00  0.00    -0.248 NA
ATOM     33  C   UNL A   1      42.569  27.402  30.570  1.00  0.00     0.031 C 
ATOM     34  C   UNL A   1      42.210  29.986  36.068  1.00  0.00     0.029 A 
ATOM     35  C   UNL A   1      42.022  29.725  34.717  1.00  0.00     0.049 A 
ATOM     36  H   UNL A   1      40.691  30.647  33.366  1.00  0.00     0.167 HD
ATOM     37  C   UNL A   1      42.375  28.453  32.606  1.00  0.00     0.074 A 
ATOM     38  C   UNL A   1      43.060  27.457  31.803  1.00  0.00     0.031 C 
ATOM     39  C   UNL A   1      42.696  28.759  33.887  1.00  0.00     0.037 A 
BRANCH  26  40
ATOM     40  C   UNL A   1      39.715  33.548  36.326  1.00  0.00     0.064 A 
ATOM     41  C   UNL A   1      38.819  33.257  37.362  1.00  0.00     0.173 A 
ATOM     42  C   UNL A   1      40.556  34.652  36.505  1.00  0.00     0.173 A 
ATOM     43  F   UNL A   1      38.115  32.124  37.334  1.00  0.00    -0.203 F 
ATOM     44  C   UNL A   1      38.682  34.085  38.473  1.00  0.00     0.198 A 
ATOM     45  C   UNL A   1      40.458  35.455  37.644  1.00  0.00     0.198 A 
ATOM     46  F   UNL A   1      41.502  34.930  35.597  1.00  0.00    -0.203 F 
ATOM     47  F   UNL A   1      37.766  33.799  39.411  1.00  0.00    -0.200 F 
ATOM     48  C   UNL A   1      39.503  35.186  38.615  1.00  0.00     0.200 A 
ATOM     49  F   UNL A   1      41.303  36.482  37.814  1.00  0.00    -0.200 F 
ATOM     50  F   UNL A   1      39.395  35.971  39.697  1.00  0.00    -0.200 F 
ENDBRANCH  26  40
BRANCH  27  51
ATOM     51  C   UNL A   1      40.820  27.755  28.191  1.00  0.00     0.064 A 
ATOM     52  C   UNL A   1      41.640  28.156  27.130  1.00  0.00     0.173 A 
ATOM     53  C   UNL A   1      40.236  26.479  28.119  1.00  0.00     0.173 A 
ATOM     54  F   UNL A   1      42.212  29.368  27.148  1.00  0.00    -0.203 F 
ATOM     55  C   UNL A   1      41.883  27.307  26.051  1.00  0.00     0.198 A 
ATOM     56  C   UNL A   1      40.504  25.620  27.057  1.00  0.00     0.198 A 
ATOM     57  F   UNL A   1      39.452  26.042  29.117  1.00  0.00    -0.203 F 
ATOM     58  F   UNL A   1      42.667  27.715  25.044  1.00  0.00    -0.200 F 
ATOM     59  C   UNL A   1      41.328  26.035  26.023  1.00  0.00     0.200 A 
ATOM     60  F   UNL A   1      39.988  24.384  27.050  1.00  0.00    -0.200 F 
ATOM     61  F   UNL A   1      41.593  25.207  25.003  1.00  0.00    -0.200 F 
ENDBRANCH  27  51
BRANCH  39  62
ATOM     62  C   UNL A   1      43.869  28.049  34.487  1.00  0.00     0.064 A 
ATOM     63  C   UNL A   1      45.133  28.652  34.518  1.00  0.00     0.173 A 
ATOM     64  C   UNL A   1      43.708  26.812  35.126  1.00  0.00     0.173 A 
ATOM     65  F   UNL A   1      45.336  29.828  33.905  1.00  0.00    -0.203 F 
ATOM     66  C   UNL A   1      46.198  28.040  35.171  1.00  0.00     0.198 A 
ATOM     67  C   UNL A   1      44.766  26.219  35.806  1.00  0.00     0.198 A 
ATOM     68  F   UNL A   1      42.512  26.202  35.130  1.00  0.00    -0.203 F 
ATOM     69  F   UNL A   1      47.405  28.622  35.170  1.00  0.00    -0.200 F 
ATOM     70  C   UNL A   1      46.010  26.832  35.827  1.00  0.00     0.200 A 
ATOM     71  F   UNL A   1      44.578  25.062  36.456  1.00  0.00    -0.200 F 
ATOM     72  F   UNL A   1      47.029  26.259  36.482  1.00  0.00    -0.200 F 
ENDBRANCH  39  62
ENDBRANCH  13  14
ENDBRANCH   6   8
ENDBRANCH   5   6
ENDBRANCH   4   5
ENDBRANCH   3   4
ENDBRANCH   2   3
ENDBRANCH   1   2
BRANCH   1  73
ATOM     73  C   UNL A   1      32.970  28.555  25.831  1.00  0.00     0.188 C 
BRANCH  73  74
ATOM     74  O   UNL A   1      33.785  27.577  25.203  1.00  0.00    -0.376 OA
BRANCH  74  75
ATOM     75  C   UNL A   1      33.685  26.227  25.646  1.00  0.00     0.202 C 
BRANCH  75  76
ATOM     76  C   UNL A   1      32.310  25.656  26.009  1.00  0.00     0.261 C 
BRANCH  76  77
ATOM     77  O   UNL A   1      31.822  24.627  25.122  1.00  0.00    -0.459 OA
BRANCH  77  78
ATOM     78  C   UNL A   1      31.533  25.067  23.866  1.00  0.00     0.365 C 
ATOM     79  O   UNL A   1      32.046  24.620  22.841  1.00  0.00    -0.245 OA
BRANCH  78  80
ATOM     80  C   UNL A   1      30.593  26.272  23.789  1.00  0.00     0.298 C 
ATOM     81  C   UNL A   1      30.964  27.426  22.847  1.00  0.00     0.113 C 
ATOM     82  N   UNL A   1      29.227  25.757  23.507  1.00  0.00    -0.331 N 
ATOM     83  C   UNL A   1      29.822  28.423  22.714  1.00  0.00    -0.029 A 
ATOM     84  C   UNL A   1      28.268  26.801  23.876  1.00  0.00     0.298 C 
ATOM     85  H   UNL A   1      29.053  24.916  24.057  1.00  0.00     0.347 HD
ATOM     86  H   UNL A   1      29.133  25.522  22.519  1.00  0.00     0.347 HD
ATOM     87  C   UNL A   1      30.011  29.642  22.059  1.00  0.00     0.050 A 
ATOM     88  C   UNL A   1      28.532  28.100  23.164  1.00  0.00     0.010 A 
ATOM     89  C   UNL A   1      28.924  30.445  21.724  1.00  0.00     0.115 A 
ATOM     90  C   UNL A   1      27.485  29.014  22.975  1.00  0.00     0.013 A 
ATOM     91  C   UNL A   1      27.657  30.151  22.192  1.00  0.00     0.046 A 
BRANCH  89  92
ATOM     92  O   UNL A   1      29.126  31.508  20.893  1.00  0.00    -0.508 OA
ATOM     93  H   UNL A   1      28.546  32.242  20.922  1.00  0.00     0.293 HD
ENDBRANCH  89  92
ENDBRANCH  78  80
ENDBRANCH  77  78
ENDBRANCH  76  77
ENDBRANCH  75  76
ENDBRANCH  74  75
ENDBRANCH  73  74
ENDBRANCH   1  73
TORSDOF 18
ENDMDL
MODEL 3
REMARK VINA RESULT:     -11.0      1.867      2.893
REMARK SMILES O=C(OCCOCCOCCOC(=O)[C@H]1Cc2cc(O)ccc2C[NH2+]1)c1ccc(-c2c3nc(c(-c4c(F)c(F)c(F)c(F)c4F)c4ccc([nH]4)c(-c4c(F)c(F)c(F)c(F)c4F)c4nc(c(-c5c(F)c(F)c(F)c(F)c5F)c5ccc2[nH]5)C=C4)C=C3)cc1
REMARK SMILES IDX 7 1 6 2 5 3 4 4 3 5 2 6 1 7 26 8 27 9 88 10 28 11 87 12
REMARK SMILES IDX 29 13 30 14 31 15 81 16 32 17 86 18 80 19 82 20 33 21 85 22
REMARK SMILES IDX 79 23 78 24 34 26 66 27 46 28 65 29 47 30 50 31 64 32 83 33
REMARK SMILES IDX 48 34 49 35 63 37 84 38 51 39 35 40 36 41 44 42 37 43 38 44
REMARK SMILES IDX 42 45 45 46 39 47 40 48 43 49 41 50 67 51 68 52 76 53 69 54
REMARK SMILES IDX 70 55 74 56 77 57 71 58 72 59 75 60 73 61 52 62 53 63 61 64
REMARK SMILES IDX 54 65 55 66 59 67 62 68 56 69 57 70 60 71 58 72 8 73 9 74
REMARK SMILES IDX 10 75 11 76 12 77 13 78 14 79 15 80 16 81 25 82 17 83 24 84
REMARK SMILES IDX 18 87 23 88 19 89 22 90 21 91 20 92
REMARK H PARENT 82 25 50 36 25 85 25 86 20 93
REMARK Flexibility Score: inf
ROOT
ATOM      1  C   UNL A   1      32.967  28.914  27.188  1.00  0.00     0.188 C 
ENDROOT
BRANCH   1   2
ATOM      2  O   UNL A   1      32.755  30.120  26.454  1.00  0.00    -0.376 OA
BRANCH   2   3
ATOM      3  C   UNL A   1      33.072  31.297  27.208  1.00  0.00     0.202 C 
BRANCH   3   4
ATOM      4  C   UNL A   1      31.923  32.305  27.290  1.00  0.00     0.261 C 
BRANCH   4   5
ATOM      5  O   UNL A   1      32.374  33.658  27.392  1.00  0.00    -0.460 OA
BRANCH   5   6
ATOM      6  C   UNL A   1      33.016  34.278  28.409  1.00  0.00     0.338 C 
ATOM      7  O   UNL A   1      32.452  35.247  28.913  1.00  0.00    -0.246 OA
BRANCH   6   8
ATOM      8  C   UNL A   1      34.375  33.910  28.951  1.00  0.00     0.060 A 
ATOM      9  C   UNL A   1      34.353  33.129  30.114  1.00  0.00     0.016 A 
ATOM     10  C   UNL A   1      35.638  34.269  28.459  1.00  0.00     0.016 A 
ATOM     11  C   UNL A   1      35.534  32.751  30.753  1.00  0.00     0.010 A 
ATOM     12  C   UNL A   1      36.832  33.895  29.105  1.00  0.00     0.010 A 
ATOM     13  C   UNL A   1      36.793  33.146  30.274  1.00  0.00    -0.014 A 
BRANCH  13  14
ATOM     14  C   UNL A   1      38.016  32.599  30.915  1.00  0.00     0.031 A 
ATOM     15  C   UNL A   1      38.598  33.128  32.201  1.00  0.00     0.074 A 
ATOM     16  C   UNL A   1      38.575  31.538  30.302  1.00  0.00     0.049 A 
ATOM     17  N   UNL A   1      39.452  32.549  33.013  1.00  0.00    -0.248 NA
ATOM     18  C   UNL A   1      38.191  34.469  32.640  1.00  0.00     0.031 C 
ATOM     19  C   UNL A   1      38.131  30.997  29.013  1.00  0.00     0.029 A 
ATOM     20  N   UNL A   1      39.599  30.711  30.675  1.00  0.00    -0.354 N 
ATOM     21  C   UNL A   1      39.620  33.421  34.087  1.00  0.00     0.074 A 
ATOM     22  C   UNL A   1      38.828  34.595  33.800  1.00  0.00     0.031 C 
ATOM     23  C   UNL A   1      38.835  29.896  28.732  1.00  0.00     0.029 A 
ATOM     24  C   UNL A   1      39.814  29.684  29.790  1.00  0.00     0.049 A 
ATOM     25  H   UNL A   1      40.129  30.840  31.494  1.00  0.00     0.167 HD
ATOM     26  C   UNL A   1      40.362  33.234  35.208  1.00  0.00     0.037 A 
ATOM     27  C   UNL A   1      40.704  28.679  29.823  1.00  0.00     0.037 A 
ATOM     28  C   UNL A   1      41.192  32.080  35.421  1.00  0.00     0.049 A 
ATOM     29  C   UNL A   1      41.593  28.562  31.022  1.00  0.00     0.074 A 
ATOM     30  C   UNL A   1      41.914  31.730  36.545  1.00  0.00     0.029 A 
ATOM     31  N   UNL A   1      41.454  31.121  34.454  1.00  0.00    -0.354 N 
ATOM     32  N   UNL A   1      41.570  29.264  32.129  1.00  0.00    -0.248 NA
ATOM     33  C   UNL A   1      42.630  27.527  30.980  1.00  0.00     0.031 C 
ATOM     34  C   UNL A   1      42.683  30.607  36.229  1.00  0.00     0.029 A 
ATOM     35  C   UNL A   1      42.407  30.233  34.921  1.00  0.00     0.049 A 
ATOM     36  H   UNL A   1      41.028  31.078  33.567  1.00  0.00     0.167 HD
ATOM     37  C   UNL A   1      42.591  28.763  32.919  1.00  0.00     0.074 A 
ATOM     38  C   UNL A   1      43.195  27.674  32.173  1.00  0.00     0.031 C 
ATOM     39  C   UNL A   1      42.999  29.171  34.146  1.00  0.00     0.037 A 
BRANCH  26  40
ATOM     40  C   UNL A   1      40.325  34.269  36.298  1.00  0.00     0.064 A 
ATOM     41  C   UNL A   1      39.406  34.163  37.349  1.00  0.00     0.173 A 
ATOM     42  C   UNL A   1      41.277  35.290  36.388  1.00  0.00     0.173 A 
ATOM     43  F   UNL A   1      38.586  33.111  37.414  1.00  0.00    -0.203 F 
ATOM     44  C   UNL A   1      39.358  35.092  38.385  1.00  0.00     0.198 A 
ATOM     45  C   UNL A   1      41.266  36.193  37.454  1.00  0.00     0.198 A 
ATOM     46  F   UNL A   1      42.245  35.389  35.466  1.00  0.00    -0.203 F 
ATOM     47  F   UNL A   1      38.420  34.986  39.337  1.00  0.00    -0.200 F 
ATOM     48  C   UNL A   1      40.291  36.110  38.438  1.00  0.00     0.200 A 
ATOM     49  F   UNL A   1      42.214  37.138  37.541  1.00  0.00    -0.200 F 
ATOM     50  F   UNL A   1      40.267  36.991  39.448  1.00  0.00    -0.200 F 
ENDBRANCH  26  40
BRANCH  27  51
ATOM     51  C   UNL A   1      40.754  27.730  28.682  1.00  0.00     0.064 A 
ATOM     52  C   UNL A   1      39.951  26.584  28.655  1.00  0.00     0.173 A 
ATOM     53  C   UNL A   1      41.524  28.016  27.540  1.00  0.00     0.173 A 
ATOM     54  F   UNL A   1      39.207  26.263  29.723  1.00  0.00    -0.203 F 
ATOM     55  C   UNL A   1      39.903  25.769  27.525  1.00  0.00     0.198 A 
ATOM     56  C   UNL A   1      41.450  27.219  26.402  1.00  0.00     0.198 A 
ATOM     57  F   UNL A   1      42.300  29.109  27.511  1.00  0.00    -0.203 F 
ATOM     58  F   UNL A   1      39.129  24.674  27.524  1.00  0.00    -0.200 F 
ATOM     59  C   UNL A   1      40.639  26.096  26.394  1.00  0.00     0.200 A 
ATOM     60  F   UNL A   1      42.142  27.555  25.305  1.00  0.00    -0.200 F 
ATOM     61  F   UNL A   1      40.561  25.331  25.296  1.00  0.00    -0.200 F 
ENDBRANCH  27  51
BRANCH  39  62
ATOM     62  C   UNL A   1      44.182  28.475  34.742  1.00  0.00     0.064 A 
ATOM     63  C   UNL A   1      45.468  29.018  34.626  1.00  0.00     0.173 A 
ATOM     64  C   UNL A   1      44.017  27.319  35.519  1.00  0.00     0.173 A 
ATOM     65  F   UNL A   1      45.673  30.113  33.878  1.00  0.00    -0.203 F 
ATOM     66  C   UNL A   1      46.551  28.429  35.270  1.00  0.00     0.198 A 
ATOM     67  C   UNL A   1      45.096  26.753  36.188  1.00  0.00     0.198 A 
ATOM     68  F   UNL A   1      42.802  26.769  35.665  1.00  0.00    -0.203 F 
ATOM     69  F   UNL A   1      47.776  28.952  35.128  1.00  0.00    -0.200 F 
ATOM     70  C   UNL A   1      46.362  27.306  36.062  1.00  0.00     0.200 A 
ATOM     71  F   UNL A   1      44.909  25.680  36.969  1.00  0.00    -0.200 F 
ATOM     72  F   UNL A   1      47.400  26.759  36.707  1.00  0.00    -0.200 F 
ENDBRANCH  39  62
ENDBRANCH  13  14
ENDBRANCH   6   8
ENDBRANCH   5   6
ENDBRANCH   4   5
ENDBRANCH   3   4
ENDBRANCH   2   3
ENDBRANCH   1   2
BRANCH   1  73
ATOM     73  C   UNL A   1      31.703  28.180  27.654  1.00  0.00     0.188 C 
BRANCH  73  74
ATOM     74  O   UNL A   1      31.234  27.083  26.885  1.00  0.00    -0.376 OA
BRANCH  74  75
ATOM     75  C   UNL A   1      32.193  26.239  26.256  1.00  0.00     0.202 C 
BRANCH  75  76
ATOM     76  C   UNL A   1      32.366  26.303  24.734  1.00  0.00     0.261 C 
BRANCH  76  77
ATOM     77  O   UNL A   1      33.659  25.882  24.249  1.00  0.00    -0.459 OA
BRANCH  77  78
ATOM     78  C   UNL A   1      33.606  24.935  23.272  1.00  0.00     0.365 C 
ATOM     79  O   UNL A   1      33.819  25.156  22.081  1.00  0.00    -0.245 OA
BRANCH  78  80
ATOM     80  C   UNL A   1      33.132  23.551  23.722  1.00  0.00     0.298 C 
ATOM     81  C   UNL A   1      32.846  22.494  22.647  1.00  0.00     0.113 C 
ATOM     82  N   UNL A   1      34.103  23.051  24.731  1.00  0.00    -0.331 N 
ATOM     83  C   UNL A   1      32.616  21.122  23.263  1.00  0.00    -0.029 A 
ATOM     84  C   UNL A   1      33.453  21.981  25.491  1.00  0.00     0.298 C 
ATOM     85  H   UNL A   1      34.371  23.809  25.360  1.00  0.00     0.347 HD
ATOM     86  H   UNL A   1      34.944  22.700  24.272  1.00  0.00     0.347 HD
ATOM     87  C   UNL A   1      32.155  20.057  22.486  1.00  0.00     0.050 A 
ATOM     88  C   UNL A   1      32.951  20.873  24.604  1.00  0.00     0.010 A 
ATOM     89  C   UNL A   1      32.173  18.755  22.980  1.00  0.00     0.115 A 
ATOM     90  C   UNL A   1      32.784  19.583  25.131  1.00  0.00     0.013 A 
ATOM     91  C   UNL A   1      32.468  18.508  24.307  1.00  0.00     0.046 A 
BRANCH  89  92
ATOM     92  O   UNL A   1      31.929  17.725  22.121  1.00  0.00    -0.508 OA
ATOM     93  H   UNL A   1      31.823  17.893  21.205  1.00  0.00     0.293 HD
ENDBRANCH  89  92
ENDBRANCH  78  80
ENDBRANCH  77  78
ENDBRANCH  76  77
ENDBRANCH  75  76
ENDBRANCH  74  75
ENDBRANCH  73  74
ENDBRANCH   1  73
TORSDOF 18
ENDMDL
