MODEL 1
REMARK VINA RESULT:     -10.4      0.000      0.000
REMARK SMILES Cc1cc(Br)cc([N+](=O)[O-])c1OCCC(=O)OCCOCCOCCOC(=O)c1ccc(-c2c3nc(c(-c4c(F)c(F)c(F)c(F)c4F)c4ccc([nH]4)c(-c4c(F)c(F)c(F)c(F)c4F)c4nc(c(-c5c(F)c(F)c(F)c(F)c5F)c5ccc2[nH]5)C=C4)C=C3)cc1
REMARK SMILES IDX 21 1 20 2 19 3 18 4 17 5 15 6 16 7 14 8 13 9 12 10 11 11
REMARK SMILES IDX 1 12 2 13 3 14 4 15 7 16 5 17 6 18 8 19 9 20 10 21 22 22
REMARK SMILES IDX 23 23 24 24 25 25 26 26 27 27 28 28 29 29 30 30 91 31 31 32
REMARK SMILES IDX 90 33 32 34 33 35 34 36 84 37 35 38 89 39 83 40 85 41 36 42
REMARK SMILES IDX 88 43 82 44 81 45 37 47 69 48 49 49 68 50 50 51 53 52 67 53
REMARK SMILES IDX 86 54 51 55 52 56 66 58 87 59 54 60 38 61 39 62 47 63 40 64
REMARK SMILES IDX 41 65 45 66 48 67 42 68 43 69 46 70 44 71 70 72 71 73 79 74
REMARK SMILES IDX 72 75 73 76 77 77 80 78 74 79 75 80 78 81 76 82 55 83 56 84
REMARK SMILES IDX 64 85 57 86 58 87 62 88 65 89 59 90 60 91 63 92 61 93
REMARK H PARENT 85 46 53 57
REMARK Flexibility Score: inf
ROOT
ATOM      1  C   UNL A   1      40.077  20.316  26.518  1.00  0.00     0.188 C 
ENDROOT
BRANCH   1   2
ATOM      2  O   UNL A   1      39.947  21.601  25.934  1.00  0.00    -0.376 OA
BRANCH   2   3
ATOM      3  C   UNL A   1      39.110  22.633  26.455  1.00  0.00     0.202 C 
BRANCH   3   4
ATOM      4  C   UNL A   1      37.745  22.954  25.777  1.00  0.00     0.261 C 
BRANCH   4   5
ATOM      5  O   UNL A   1      37.381  22.180  24.588  1.00  0.00    -0.463 OA
BRANCH   5   6
ATOM      6  C   UNL A   1      36.353  21.287  24.730  1.00  0.00     0.309 C 
ATOM      7  O   UNL A   1      36.550  20.110  25.030  1.00  0.00    -0.252 OA
BRANCH   6   8
ATOM      8  C   UNL A   1      34.937  21.762  24.318  1.00  0.00     0.164 C 
BRANCH   8   9
ATOM      9  C   UNL A   1      34.497  23.087  23.651  1.00  0.00     0.241 C 
BRANCH   9  10
ATOM     10  O   UNL A   1      33.120  23.365  23.356  1.00  0.00    -0.486 OA
BRANCH  10  11
ATOM     11  C   UNL A   1      32.409  24.302  24.034  1.00  0.00     0.200 A 
ATOM     12  C   UNL A   1      31.069  22.754  25.560  1.00  0.00     0.049 C 
ATOM     13  C   UNL A   1      31.739  24.061  25.213  1.00  0.00    -0.001 A 
ATOM     14  C   UNL A   1      31.597  25.167  26.075  1.00  0.00     0.023 A 
ATOM     15  C   UNL A   1      31.874  26.480  25.724  1.00  0.00     0.025 A 
ATOM     16  C   UNL A   1      32.472  25.645  23.587  1.00  0.00     0.312 A 
ATOM     17  Br  UNL A   1      31.684  27.860  26.997  1.00  0.00    -0.051 Br
ATOM     18  C   UNL A   1      32.217  26.741  24.426  1.00  0.00     0.105 A 
BRANCH  16  19
ATOM     19  N   UNL A   1      32.682  25.941  22.176  1.00  0.00     0.066 N 
ATOM     20  O   UNL A   1      31.696  25.866  21.428  1.00  0.00    -0.258 OA
ATOM     21  O   UNL A   1      33.843  26.151  21.796  1.00  0.00    -0.258 OA
ENDBRANCH  16  19
ENDBRANCH  10  11
ENDBRANCH   9  10
ENDBRANCH   8   9
ENDBRANCH   6   8
ENDBRANCH   5   6
ENDBRANCH   4   5
ENDBRANCH   3   4
ENDBRANCH   2   3
ENDBRANCH   1   2
BRANCH   1  22
ATOM     22  C   UNL A   1      41.181  19.357  26.050  1.00  0.00     0.188 C 
BRANCH  22  23
ATOM     23  O   UNL A   1      42.512  19.563  26.465  1.00  0.00    -0.376 OA
BRANCH  23  24
ATOM     24  C   UNL A   1      43.413  20.045  25.480  1.00  0.00     0.202 C 
BRANCH  24  25
ATOM     25  C   UNL A   1      44.079  21.398  25.793  1.00  0.00     0.261 C 
BRANCH  25  26
ATOM     26  O   UNL A   1      43.102  22.465  25.817  1.00  0.00    -0.460 OA
BRANCH  26  27
ATOM     27  C   UNL A   1      43.528  23.680  25.372  1.00  0.00     0.338 C 
ATOM     28  O   UNL A   1      44.203  23.912  24.392  1.00  0.00    -0.246 OA
BRANCH  27  29
ATOM     29  C   UNL A   1      42.837  24.744  26.139  1.00  0.00     0.060 A 
ATOM     30  C   UNL A   1      43.091  26.091  25.828  1.00  0.00     0.016 A 
ATOM     31  C   UNL A   1      42.002  24.410  27.202  1.00  0.00     0.016 A 
ATOM     32  C   UNL A   1      42.570  27.108  26.635  1.00  0.00     0.010 A 
ATOM     33  C   UNL A   1      41.492  25.424  28.011  1.00  0.00     0.010 A 
ATOM     34  C   UNL A   1      41.815  26.773  27.764  1.00  0.00    -0.014 A 
BRANCH  34  35
ATOM     35  C   UNL A   1      41.529  27.761  28.836  1.00  0.00     0.031 A 
ATOM     36  C   UNL A   1      42.344  27.683  30.099  1.00  0.00     0.074 A 
ATOM     37  C   UNL A   1      40.517  28.637  28.738  1.00  0.00     0.049 A 
ATOM     38  N   UNL A   1      42.149  28.259  31.258  1.00  0.00    -0.248 NA
ATOM     39  C   UNL A   1      43.529  26.811  30.050  1.00  0.00     0.031 C 
ATOM     40  C   UNL A   1      39.683  28.839  27.558  1.00  0.00     0.029 A 
ATOM     41  N   UNL A   1      39.997  29.496  29.675  1.00  0.00    -0.354 N 
ATOM     42  C   UNL A   1      43.170  27.798  32.081  1.00  0.00     0.074 A 
ATOM     43  C   UNL A   1      43.964  26.877  31.298  1.00  0.00     0.031 C 
ATOM     44  C   UNL A   1      38.730  29.742  27.852  1.00  0.00     0.029 A 
ATOM     45  C   UNL A   1      38.861  30.142  29.253  1.00  0.00     0.049 A 
ATOM     46  H   UNL A   1      40.399  29.635  30.563  1.00  0.00     0.167 HD
ATOM     47  C   UNL A   1      43.419  28.114  33.375  1.00  0.00     0.037 A 
ATOM     48  C   UNL A   1      38.006  30.930  29.934  1.00  0.00     0.037 A 
ATOM     49  C   UNL A   1      42.620  29.028  34.148  1.00  0.00     0.049 A 
ATOM     50  C   UNL A   1      38.259  31.213  31.395  1.00  0.00     0.074 A 
ATOM     51  C   UNL A   1      42.801  29.439  35.457  1.00  0.00     0.029 A 
ATOM     52  N   UNL A   1      41.478  29.665  33.683  1.00  0.00    -0.354 N 
ATOM     53  N   UNL A   1      39.234  30.795  32.166  1.00  0.00    -0.248 NA
ATOM     54  C   UNL A   1      37.289  32.080  32.079  1.00  0.00     0.031 C 
ATOM     55  C   UNL A   1      41.734  30.275  35.804  1.00  0.00     0.029 A 
ATOM     56  C   UNL A   1      40.927  30.442  34.689  1.00  0.00     0.049 A 
ATOM     57  H   UNL A   1      41.113  29.578  32.774  1.00  0.00     0.167 HD
ATOM     58  C   UNL A   1      39.015  31.372  33.411  1.00  0.00     0.074 A 
ATOM     59  C   UNL A   1      37.820  32.180  33.289  1.00  0.00     0.031 C 
ATOM     60  C   UNL A   1      39.739  31.249  34.552  1.00  0.00     0.037 A 
BRANCH  47  61
ATOM     61  C   UNL A   1      44.582  27.437  34.043  1.00  0.00     0.064 A 
ATOM     62  C   UNL A   1      44.460  26.176  34.647  1.00  0.00     0.173 A 
ATOM     63  C   UNL A   1      45.844  28.052  34.065  1.00  0.00     0.173 A 
ATOM     64  F   UNL A   1      43.275  25.548  34.668  1.00  0.00    -0.203 F 
ATOM     65  C   UNL A   1      45.547  25.574  35.278  1.00  0.00     0.198 A 
ATOM     66  C   UNL A   1      46.936  27.431  34.664  1.00  0.00     0.198 A 
ATOM     67  F   UNL A   1      46.020  29.256  33.500  1.00  0.00    -0.203 F 
ATOM     68  F   UNL A   1      45.390  24.397  35.900  1.00  0.00    -0.200 F 
ATOM     69  C   UNL A   1      46.784  26.198  35.280  1.00  0.00     0.200 A 
ATOM     70  F   UNL A   1      48.136  28.030  34.652  1.00  0.00    -0.200 F 
ATOM     71  F   UNL A   1      47.830  25.616  35.883  1.00  0.00    -0.200 F 
ENDBRANCH  47  61
BRANCH  48  72
ATOM     72  C   UNL A   1      36.818  31.504  29.247  1.00  0.00     0.064 A 
ATOM     73  C   UNL A   1      36.765  32.867  28.922  1.00  0.00     0.173 A 
ATOM     74  C   UNL A   1      35.709  30.712  28.913  1.00  0.00     0.173 A 
ATOM     75  F   UNL A   1      37.787  33.672  29.247  1.00  0.00    -0.203 F 
ATOM     76  C   UNL A   1      35.644  33.418  28.305  1.00  0.00     0.198 A 
ATOM     77  C   UNL A   1      34.601  31.258  28.266  1.00  0.00     0.198 A 
ATOM     78  F   UNL A   1      35.705  29.403  29.206  1.00  0.00    -0.203 F 
ATOM     79  F   UNL A   1      35.602  34.733  28.050  1.00  0.00    -0.200 F 
ATOM     80  C   UNL A   1      34.567  32.612  27.970  1.00  0.00     0.200 A 
ATOM     81  F   UNL A   1      33.568  30.474  27.935  1.00  0.00    -0.200 F 
ATOM     82  F   UNL A   1      33.492  33.141  27.370  1.00  0.00    -0.200 F 
ENDBRANCH  48  72
BRANCH  60  83
ATOM     83  C   UNL A   1      39.293  32.042  35.749  1.00  0.00     0.064 A 
ATOM     84  C   UNL A   1      39.729  33.356  35.975  1.00  0.00     0.173 A 
ATOM     85  C   UNL A   1      38.378  31.490  36.662  1.00  0.00     0.173 A 
ATOM     86  F   UNL A   1      40.612  33.927  35.142  1.00  0.00    -0.203 F 
ATOM     87  C   UNL A   1      39.290  34.076  37.085  1.00  0.00     0.198 A 
ATOM     88  C   UNL A   1      37.914  32.226  37.749  1.00  0.00     0.198 A 
ATOM     89  F   UNL A   1      37.920  30.241  36.489  1.00  0.00    -0.203 F 
ATOM     90  F   UNL A   1      39.762  35.311  37.308  1.00  0.00    -0.200 F 
ATOM     91  C   UNL A   1      38.377  33.514  37.965  1.00  0.00     0.200 A 
ATOM     92  F   UNL A   1      37.018  31.686  38.587  1.00  0.00    -0.200 F 
ATOM     93  F   UNL A   1      37.949  34.212  39.026  1.00  0.00    -0.200 F 
ENDBRANCH  60  83
ENDBRANCH  34  35
ENDBRANCH  27  29
ENDBRANCH  26  27
ENDBRANCH  25  26
ENDBRANCH  24  25
ENDBRANCH  23  24
ENDBRANCH  22  23
ENDBRANCH   1  22
TORSDOF 21
ENDMDL
MODEL 2
REMARK VINA RESULT:     -10.3      5.087      7.474
REMARK SMILES Cc1cc(Br)cc([N+](=O)[O-])c1OCCC(=O)OCCOCCOCCOC(=O)c1ccc(-c2c3nc(c(-c4c(F)c(F)c(F)c(F)c4F)c4ccc([nH]4)c(-c4c(F)c(F)c(F)c(F)c4F)c4nc(c(-c5c(F)c(F)c(F)c(F)c5F)c5ccc2[nH]5)C=C4)C=C3)cc1
REMARK SMILES IDX 21 1 20 2 19 3 18 4 17 5 15 6 16 7 14 8 13 9 12 10 11 11
REMARK SMILES IDX 1 12 2 13 3 14 4 15 7 16 5 17 6 18 8 19 9 20 10 21 22 22
REMARK SMILES IDX 23 23 24 24 25 25 26 26 27 27 28 28 29 29 30 30 91 31 31 32
REMARK SMILES IDX 90 33 32 34 33 35 34 36 84 37 35 38 89 39 83 40 85 41 36 42
REMARK SMILES IDX 88 43 82 44 81 45 37 47 69 48 49 49 68 50 50 51 53 52 67 53
REMARK SMILES IDX 86 54 51 55 52 56 66 58 87 59 54 60 38 61 39 62 47 63 40 64
REMARK SMILES IDX 41 65 45 66 48 67 42 68 43 69 46 70 44 71 70 72 71 73 79 74
REMARK SMILES IDX 72 75 73 76 77 77 80 78 74 79 75 80 78 81 76 82 55 83 56 84
REMARK SMILES IDX 64 85 57 86 58 87 62 88 65 89 59 90 60 91 63 92 61 93
REMARK H PARENT 85 46 53 57
REMARK Flexibility Score: inf
ROOT
ATOM      1  C   UNL A   1      41.108  21.356  26.446  1.00  0.00     0.188 C 
ENDROOT
BRANCH   1   2
ATOM      2  O   UNL A   1      40.059  22.223  26.052  1.00  0.00    -0.376 OA
BRANCH   2   3
ATOM      3  C   UNL A   1      39.425  23.156  26.927  1.00  0.00     0.202 C 
BRANCH   3   4
ATOM      4  C   UNL A   1      38.255  24.046  26.410  1.00  0.00     0.261 C 
BRANCH   4   5
ATOM      5  O   UNL A   1      37.517  23.578  25.235  1.00  0.00    -0.463 OA
BRANCH   5   6
ATOM      6  C   UNL A   1      36.190  23.297  25.419  1.00  0.00     0.309 C 
ATOM      7  O   UNL A   1      35.757  22.146  25.386  1.00  0.00    -0.252 OA
BRANCH   6   8
ATOM      8  C   UNL A   1      35.213  24.497  25.487  1.00  0.00     0.164 C 
BRANCH   8   9
ATOM      9  C   UNL A   1      34.020  24.852  24.566  1.00  0.00     0.241 C 
BRANCH   9  10
ATOM     10  O   UNL A   1      33.413  26.153  24.582  1.00  0.00    -0.486 OA
BRANCH  10  11
ATOM     11  C   UNL A   1      32.208  26.396  24.006  1.00  0.00     0.200 A 
ATOM     12  C   UNL A   1      30.756  24.906  25.487  1.00  0.00     0.049 C 
ATOM     13  C   UNL A   1      30.997  26.097  24.591  1.00  0.00    -0.001 A 
ATOM     14  C   UNL A   1      29.914  26.916  24.214  1.00  0.00     0.023 A 
ATOM     15  C   UNL A   1      29.939  27.818  23.162  1.00  0.00     0.025 A 
ATOM     16  C   UNL A   1      32.179  27.131  22.796  1.00  0.00     0.312 A 
ATOM     17  Br  UNL A   1      28.428  28.889  22.797  1.00  0.00    -0.051 Br
ATOM     18  C   UNL A   1      31.053  27.854  22.370  1.00  0.00     0.105 A 
BRANCH  16  19
ATOM     19  N   UNL A   1      33.296  27.058  21.863  1.00  0.00     0.066 N 
ATOM     20  O   UNL A   1      33.478  25.978  21.281  1.00  0.00    -0.258 OA
ATOM     21  O   UNL A   1      34.049  28.039  21.786  1.00  0.00    -0.258 OA
ENDBRANCH  16  19
ENDBRANCH  10  11
ENDBRANCH   9  10
ENDBRANCH   8   9
ENDBRANCH   6   8
ENDBRANCH   5   6
ENDBRANCH   4   5
ENDBRANCH   3   4
ENDBRANCH   2   3
ENDBRANCH   1   2
BRANCH   1  22
ATOM     22  C   UNL A   1      40.904  19.833  26.438  1.00  0.00     0.188 C 
BRANCH  22  23
ATOM     23  O   UNL A   1      41.799  19.009  25.727  1.00  0.00    -0.376 OA
BRANCH  23  24
ATOM     24  C   UNL A   1      42.681  18.215  26.506  1.00  0.00     0.202 C 
BRANCH  24  25
ATOM     25  C   UNL A   1      44.119  18.098  25.971  1.00  0.00     0.261 C 
BRANCH  25  26
ATOM     26  O   UNL A   1      44.191  18.496  24.582  1.00  0.00    -0.460 OA
BRANCH  26  27
ATOM     27  C   UNL A   1      45.232  19.307  24.242  1.00  0.00     0.338 C 
ATOM     28  O   UNL A   1      46.201  19.022  23.571  1.00  0.00    -0.246 OA
BRANCH  27  29
ATOM     29  C   UNL A   1      44.900  20.702  24.619  1.00  0.00     0.060 A 
ATOM     30  C   UNL A   1      44.579  21.628  23.612  1.00  0.00     0.016 A 
ATOM     31  C   UNL A   1      44.976  21.104  25.950  1.00  0.00     0.016 A 
ATOM     32  C   UNL A   1      44.411  22.980  23.929  1.00  0.00     0.010 A 
ATOM     33  C   UNL A   1      44.819  22.453  26.263  1.00  0.00     0.010 A 
ATOM     34  C   UNL A   1      44.588  23.405  25.250  1.00  0.00    -0.014 A 
BRANCH  34  35
ATOM     35  C   UNL A   1      44.765  24.839  25.594  1.00  0.00     0.031 A 
ATOM     36  C   UNL A   1      46.150  25.420  25.492  1.00  0.00     0.074 A 
ATOM     37  C   UNL A   1      43.755  25.581  26.075  1.00  0.00     0.049 A 
ATOM     38  N   UNL A   1      46.617  26.555  25.946  1.00  0.00    -0.248 NA
ATOM     39  C   UNL A   1      47.150  24.588  24.803  1.00  0.00     0.031 C 
ATOM     40  C   UNL A   1      42.365  25.150  26.185  1.00  0.00     0.029 A 
ATOM     41  N   UNL A   1      43.762  26.850  26.602  1.00  0.00    -0.354 N 
ATOM     42  C   UNL A   1      47.968  26.561  25.622  1.00  0.00     0.074 A 
ATOM     43  C   UNL A   1      48.251  25.307  24.957  1.00  0.00     0.031 C 
ATOM     44  C   UNL A   1      41.654  26.127  26.776  1.00  0.00     0.029 A 
ATOM     45  C   UNL A   1      42.551  27.229  27.128  1.00  0.00     0.049 A 
ATOM     46  H   UNL A   1      44.556  27.431  26.601  1.00  0.00     0.167 HD
ATOM     47  C   UNL A   1      48.890  27.525  25.860  1.00  0.00     0.037 A 
ATOM     48  C   UNL A   1      42.220  28.320  27.845  1.00  0.00     0.037 A 
ATOM     49  C   UNL A   1      48.602  28.767  26.526  1.00  0.00     0.049 A 
ATOM     50  C   UNL A   1      43.277  29.349  28.164  1.00  0.00     0.074 A 
ATOM     51  C   UNL A   1      49.455  29.823  26.793  1.00  0.00     0.029 A 
ATOM     52  N   UNL A   1      47.361  29.116  27.042  1.00  0.00    -0.354 N 
ATOM     53  N   UNL A   1      44.548  29.363  27.840  1.00  0.00    -0.248 NA
ATOM     54  C   UNL A   1      42.850  30.515  28.952  1.00  0.00     0.031 C 
ATOM     55  C   UNL A   1      48.748  30.782  27.526  1.00  0.00     0.029 A 
ATOM     56  C   UNL A   1      47.435  30.357  27.653  1.00  0.00     0.049 A 
ATOM     57  H   UNL A   1      46.550  28.563  26.984  1.00  0.00     0.167 HD
ATOM     58  C   UNL A   1      45.062  30.550  28.351  1.00  0.00     0.074 A 
ATOM     59  C   UNL A   1      43.963  31.234  28.998  1.00  0.00     0.031 C 
ATOM     60  C   UNL A   1      46.329  31.032  28.287  1.00  0.00     0.037 A 
BRANCH  47  61
ATOM     61  C   UNL A   1      50.304  27.255  25.428  1.00  0.00     0.064 A 
ATOM     62  C   UNL A   1      51.268  26.753  26.316  1.00  0.00     0.173 A 
ATOM     63  C   UNL A   1      50.696  27.485  24.100  1.00  0.00     0.173 A 
ATOM     64  F   UNL A   1      50.952  26.526  27.600  1.00  0.00    -0.203 F 
ATOM     65  C   UNL A   1      52.579  26.527  25.900  1.00  0.00     0.198 A 
ATOM     66  C   UNL A   1      51.997  27.224  23.679  1.00  0.00     0.198 A 
ATOM     67  F   UNL A   1      49.816  27.961  23.207  1.00  0.00    -0.203 F 
ATOM     68  F   UNL A   1      53.496  26.105  26.782  1.00  0.00    -0.200 F 
ATOM     69  C   UNL A   1      52.940  26.755  24.582  1.00  0.00     0.200 A 
ATOM     70  F   UNL A   1      52.341  27.432  22.400  1.00  0.00    -0.200 F 
ATOM     71  F   UNL A   1      54.200  26.534  24.181  1.00  0.00    -0.200 F 
ENDBRANCH  47  61
BRANCH  48  72
ATOM     72  C   UNL A   1      40.824  28.496  28.327  1.00  0.00     0.064 A 
ATOM     73  C   UNL A   1      40.461  28.122  29.629  1.00  0.00     0.173 A 
ATOM     74  C   UNL A   1      39.821  29.025  27.499  1.00  0.00     0.173 A 
ATOM     75  F   UNL A   1      41.375  27.584  30.449  1.00  0.00    -0.203 F 
ATOM     76  C   UNL A   1      39.149  28.257  30.079  1.00  0.00     0.198 A 
ATOM     77  C   UNL A   1      38.517  29.189  27.960  1.00  0.00     0.198 A 
ATOM     78  F   UNL A   1      40.113  29.393  26.242  1.00  0.00    -0.203 F 
ATOM     79  F   UNL A   1      38.822  27.847  31.312  1.00  0.00    -0.200 F 
ATOM     80  C   UNL A   1      38.180  28.798  29.248  1.00  0.00     0.200 A 
ATOM     81  F   UNL A   1      37.587  29.722  27.158  1.00  0.00    -0.200 F 
ATOM     82  F   UNL A   1      36.920  28.933  29.683  1.00  0.00    -0.200 F 
ENDBRANCH  48  72
BRANCH  60  83
ATOM     83  C   UNL A   1      46.590  32.385  28.888  1.00  0.00     0.064 A 
ATOM     84  C   UNL A   1      47.117  32.536  30.180  1.00  0.00     0.173 A 
ATOM     85  C   UNL A   1      46.348  33.550  28.140  1.00  0.00     0.173 A 
ATOM     86  F   UNL A   1      47.355  31.458  30.942  1.00  0.00    -0.203 F 
ATOM     87  C   UNL A   1      47.363  33.801  30.710  1.00  0.00     0.198 A 
ATOM     88  C   UNL A   1      46.630  34.810  28.660  1.00  0.00     0.198 A 
ATOM     89  F   UNL A   1      45.853  33.464  26.896  1.00  0.00    -0.203 F 
ATOM     90  F   UNL A   1      47.817  33.921  31.965  1.00  0.00    -0.200 F 
ATOM     91  C   UNL A   1      47.129  34.936  29.947  1.00  0.00     0.200 A 
ATOM     92  F   UNL A   1      46.418  35.903  27.914  1.00  0.00    -0.200 F 
ATOM     93  F   UNL A   1      47.376  36.150  30.456  1.00  0.00    -0.200 F 
ENDBRANCH  60  83
ENDBRANCH  34  35
ENDBRANCH  27  29
ENDBRANCH  26  27
ENDBRANCH  25  26
ENDBRANCH  24  25
ENDBRANCH  23  24
ENDBRANCH  22  23
ENDBRANCH   1  22
TORSDOF 21
ENDMDL
MODEL 3
REMARK VINA RESULT:     -10.2      3.208      8.810
REMARK SMILES Cc1cc(Br)cc([N+](=O)[O-])c1OCCC(=O)OCCOCCOCCOC(=O)c1ccc(-c2c3nc(c(-c4c(F)c(F)c(F)c(F)c4F)c4ccc([nH]4)c(-c4c(F)c(F)c(F)c(F)c4F)c4nc(c(-c5c(F)c(F)c(F)c(F)c5F)c5ccc2[nH]5)C=C4)C=C3)cc1
REMARK SMILES IDX 21 1 20 2 19 3 18 4 17 5 15 6 16 7 14 8 13 9 12 10 11 11
REMARK SMILES IDX 1 12 2 13 3 14 4 15 7 16 5 17 6 18 8 19 9 20 10 21 22 22
REMARK SMILES IDX 23 23 24 24 25 25 26 26 27 27 28 28 29 29 30 30 91 31 31 32
REMARK SMILES IDX 90 33 32 34 33 35 34 36 84 37 35 38 89 39 83 40 85 41 36 42
REMARK SMILES IDX 88 43 82 44 81 45 37 47 69 48 49 49 68 50 50 51 53 52 67 53
REMARK SMILES IDX 86 54 51 55 52 56 66 58 87 59 54 60 38 61 39 62 47 63 40 64
REMARK SMILES IDX 41 65 45 66 48 67 42 68 43 69 46 70 44 71 70 72 71 73 79 74
REMARK SMILES IDX 72 75 73 76 77 77 80 78 74 79 75 80 78 81 76 82 55 83 56 84
REMARK SMILES IDX 64 85 57 86 58 87 62 88 65 89 59 90 60 91 63 92 61 93
REMARK H PARENT 85 46 53 57
REMARK Flexibility Score: inf
ROOT
ATOM      1  C   UNL A   1      32.394  28.585  25.372  1.00  0.00     0.188 C 
ENDROOT
BRANCH   1   2
ATOM      2  O   UNL A   1      31.592  27.505  25.816  1.00  0.00    -0.376 OA
BRANCH   2   3
ATOM      3  C   UNL A   1      31.124  26.458  24.966  1.00  0.00     0.202 C 
BRANCH   3   4
ATOM      4  C   UNL A   1      30.634  25.111  25.577  1.00  0.00     0.261 C 
BRANCH   4   5
ATOM      5  O   UNL A   1      31.605  24.020  25.676  1.00  0.00    -0.463 OA
BRANCH   5   6
ATOM      6  C   UNL A   1      31.654  23.352  26.870  1.00  0.00     0.309 C 
ATOM      7  O   UNL A   1      30.683  23.291  27.622  1.00  0.00    -0.252 OA
BRANCH   6   8
ATOM      8  C   UNL A   1      33.036  22.829  27.335  1.00  0.00     0.164 C 
BRANCH   8   9
ATOM      9  C   UNL A   1      33.651  21.414  27.205  1.00  0.00     0.241 C 
BRANCH   9  10
ATOM     10  O   UNL A   1      34.467  21.044  26.084  1.00  0.00    -0.486 OA
BRANCH  10  11
ATOM     11  C   UNL A   1      34.301  21.596  24.854  1.00  0.00     0.200 A 
ATOM     12  C   UNL A   1      32.665  19.896  23.876  1.00  0.00     0.049 C 
ATOM     13  C   UNL A   1      33.277  21.272  23.993  1.00  0.00    -0.001 A 
ATOM     14  C   UNL A   1      32.879  22.289  23.102  1.00  0.00     0.023 A 
ATOM     15  C   UNL A   1      33.578  23.467  22.890  1.00  0.00     0.025 A 
ATOM     16  C   UNL A   1      35.144  22.672  24.484  1.00  0.00     0.312 A 
ATOM     17  Br  UNL A   1      32.903  24.768  21.701  1.00  0.00    -0.051 Br
ATOM     18  C   UNL A   1      34.787  23.620  23.511  1.00  0.00     0.105 A 
BRANCH  16  19
ATOM     19  N   UNL A   1      36.496  22.766  25.017  1.00  0.00     0.066 N 
ATOM     20  O   UNL A   1      36.686  23.573  25.940  1.00  0.00    -0.258 OA
ATOM     21  O   UNL A   1      37.386  22.113  24.454  1.00  0.00    -0.258 OA
ENDBRANCH  16  19
ENDBRANCH  10  11
ENDBRANCH   9  10
ENDBRANCH   8   9
ENDBRANCH   6   8
ENDBRANCH   5   6
ENDBRANCH   4   5
ENDBRANCH   3   4
ENDBRANCH   2   3
ENDBRANCH   1   2
BRANCH   1  22
ATOM     22  C   UNL A   1      33.144  29.465  26.384  1.00  0.00     0.188 C 
BRANCH  22  23
ATOM     23  O   UNL A   1      32.428  30.366  27.196  1.00  0.00    -0.376 OA
BRANCH  23  24
ATOM     24  C   UNL A   1      31.626  31.324  26.521  1.00  0.00     0.202 C 
BRANCH  24  25
ATOM     25  C   UNL A   1      31.883  32.793  26.900  1.00  0.00     0.261 C 
BRANCH  25  26
ATOM     26  O   UNL A   1      33.112  32.929  27.651  1.00  0.00    -0.460 OA
BRANCH  26  27
ATOM     27  C   UNL A   1      33.278  34.102  28.325  1.00  0.00     0.338 C 
ATOM     28  O   UNL A   1      32.506  35.034  28.386  1.00  0.00    -0.246 OA
BRANCH  27  29
ATOM     29  C   UNL A   1      34.471  33.990  29.198  1.00  0.00     0.060 A 
ATOM     30  C   UNL A   1      35.724  34.393  28.704  1.00  0.00     0.016 A 
ATOM     31  C   UNL A   1      34.361  33.427  30.466  1.00  0.00     0.016 A 
ATOM     32  C   UNL A   1      36.883  34.157  29.451  1.00  0.00     0.010 A 
ATOM     33  C   UNL A   1      35.516  33.183  31.206  1.00  0.00     0.010 A 
ATOM     34  C   UNL A   1      36.786  33.497  30.682  1.00  0.00    -0.014 A 
BRANCH  34  35
ATOM     35  C   UNL A   1      37.976  32.916  31.353  1.00  0.00     0.031 A 
ATOM     36  C   UNL A   1      38.610  31.701  30.731  1.00  0.00     0.074 A 
ATOM     37  C   UNL A   1      38.426  33.386  32.528  1.00  0.00     0.049 A 
ATOM     38  N   UNL A   1      39.495  30.872  31.225  1.00  0.00    -0.248 NA
ATOM     39  C   UNL A   1      38.159  31.362  29.371  1.00  0.00     0.031 C 
ATOM     40  C   UNL A   1      37.927  34.574  33.212  1.00  0.00     0.029 A 
ATOM     41  N   UNL A   1      39.385  32.883  33.373  1.00  0.00    -0.354 N 
ATOM     42  C   UNL A   1      39.685  29.902  30.248  1.00  0.00     0.074 A 
ATOM     43  C   UNL A   1      38.806  30.230  29.147  1.00  0.00     0.031 C 
ATOM     44  C   UNL A   1      38.562  34.693  34.392  1.00  0.00     0.029 A 
ATOM     45  C   UNL A   1      39.475  33.563  34.563  1.00  0.00     0.049 A 
ATOM     46  H   UNL A   1      39.953  32.111  33.148  1.00  0.00     0.167 HD
ATOM     47  C   UNL A   1      40.517  28.833  30.271  1.00  0.00     0.037 A 
ATOM     48  C   UNL A   1      40.181  33.278  35.675  1.00  0.00     0.037 A 
ATOM     49  C   UNL A   1      41.385  28.512  31.373  1.00  0.00     0.049 A 
ATOM     50  C   UNL A   1      41.046  32.041  35.708  1.00  0.00     0.074 A 
ATOM     51  C   UNL A   1      42.287  27.469  31.487  1.00  0.00     0.029 A 
ATOM     52  N   UNL A   1      41.449  29.227  32.561  1.00  0.00    -0.354 N 
ATOM     53  N   UNL A   1      41.242  31.137  34.779  1.00  0.00    -0.248 NA
ATOM     54  C   UNL A   1      41.791  31.788  36.951  1.00  0.00     0.031 C 
ATOM     55  C   UNL A   1      42.850  27.516  32.767  1.00  0.00     0.029 A 
ATOM     56  C   UNL A   1      42.353  28.630  33.425  1.00  0.00     0.049 A 
ATOM     57  H   UNL A   1      40.929  30.038  32.760  1.00  0.00     0.167 HD
ATOM     58  C   UNL A   1      42.153  30.232  35.308  1.00  0.00     0.074 A 
ATOM     59  C   UNL A   1      42.481  30.701  36.638  1.00  0.00     0.031 C 
ATOM     60  C   UNL A   1      42.676  29.113  34.744  1.00  0.00     0.037 A 
BRANCH  47  61
ATOM     61  C   UNL A   1      40.500  27.915  29.082  1.00  0.00     0.064 A 
ATOM     62  C   UNL A   1      39.679  26.777  29.034  1.00  0.00     0.173 A 
ATOM     63  C   UNL A   1      41.304  28.187  27.963  1.00  0.00     0.173 A 
ATOM     64  F   UNL A   1      38.900  26.462  30.079  1.00  0.00    -0.203 F 
ATOM     65  C   UNL A   1      39.692  25.928  27.929  1.00  0.00     0.198 A 
ATOM     66  C   UNL A   1      41.287  27.356  26.846  1.00  0.00     0.198 A 
ATOM     67  F   UNL A   1      42.105  29.262  27.951  1.00  0.00    -0.203 F 
ATOM     68  F   UNL A   1      38.945  24.815  27.933  1.00  0.00    -0.200 F 
ATOM     69  C   UNL A   1      40.489  26.222  26.834  1.00  0.00     0.200 A 
ATOM     70  F   UNL A   1      42.048  27.650  25.782  1.00  0.00    -0.200 F 
ATOM     71  F   UNL A   1      40.497  25.407  25.770  1.00  0.00    -0.200 F 
ENDBRANCH  47  61
BRANCH  48  72
ATOM     72  C   UNL A   1      40.093  34.172  36.859  1.00  0.00     0.064 A 
ATOM     73  C   UNL A   1      39.179  33.911  37.891  1.00  0.00     0.173 A 
ATOM     74  C   UNL A   1      40.904  35.311  36.983  1.00  0.00     0.173 A 
ATOM     75  F   UNL A   1      38.360  32.852  37.805  1.00  0.00    -0.203 F 
ATOM     76  C   UNL A   1      39.071  34.759  38.990  1.00  0.00     0.198 A 
ATOM     77  C   UNL A   1      40.818  36.141  38.098  1.00  0.00     0.198 A 
ATOM     78  F   UNL A   1      41.791  35.611  36.022  1.00  0.00    -0.203 F 
ATOM     79  F   UNL A   1      38.155  34.510  39.937  1.00  0.00    -0.200 F 
ATOM     80  C   UNL A   1      39.895  35.869  39.098  1.00  0.00     0.200 A 
ATOM     81  F   UNL A   1      41.623  37.206  38.203  1.00  0.00    -0.200 F 
ATOM     82  F   UNL A   1      39.795  36.681  40.158  1.00  0.00    -0.200 F 
ENDBRANCH  48  72
BRANCH  60  83
ATOM     83  C   UNL A   1      43.695  28.344  35.539  1.00  0.00     0.064 A 
ATOM     84  C   UNL A   1      45.070  28.599  35.429  1.00  0.00     0.173 A 
ATOM     85  C   UNL A   1      43.283  27.364  36.457  1.00  0.00     0.173 A 
ATOM     86  F   UNL A   1      45.520  29.516  34.559  1.00  0.00    -0.203 F 
ATOM     87  C   UNL A   1      45.995  27.882  36.187  1.00  0.00     0.198 A 
ATOM     88  C   UNL A   1      44.207  26.675  37.238  1.00  0.00     0.198 A 
ATOM     89  F   UNL A   1      41.979  27.085  36.609  1.00  0.00    -0.203 F 
ATOM     90  F   UNL A   1      47.306  28.108  36.027  1.00  0.00    -0.200 F 
ATOM     91  C   UNL A   1      45.562  26.929  37.096  1.00  0.00     0.200 A 
ATOM     92  F   UNL A   1      43.785  25.767  38.128  1.00  0.00    -0.200 F 
ATOM     93  F   UNL A   1      46.453  26.247  37.830  1.00  0.00    -0.200 F 
ENDBRANCH  60  83
ENDBRANCH  34  35
ENDBRANCH  27  29
ENDBRANCH  26  27
ENDBRANCH  25  26
ENDBRANCH  24  25
ENDBRANCH  23  24
ENDBRANCH  22  23
ENDBRANCH   1  22
TORSDOF 21
ENDMDL
