MODEL 1
REMARK VINA RESULT:     -10.2      0.000      0.000
REMARK SMILES C[NH2+][C@]1(C(=O)OCCOCCOCCOC(=O)c2ccc(-c3c4nc(c(-c5c(F)c(F)c(F)c(F)c5F)c5ccc([nH]5)c(-c5c(F)c(F)c(F)c(F)c5F)c5nc(c(-c6c(F)c(F)c(F)c(F)c6F)c6ccc3[nH]6)C=C5)C=C4)cc2)CCC[C@@H](Sc2nccn2C)C1
REMARK SMILES IDX 10 1 9 2 8 3 7 4 6 5 4 6 5 7 3 8 81 9 92 10 82 11 84 12
REMARK SMILES IDX 83 13 2 14 1 15 85 18 86 19 87 20 90 21 88 22 89 23 91 24
REMARK SMILES IDX 11 25 12 26 13 27 14 28 15 29 16 30 17 31 18 32 19 33 80 34
REMARK SMILES IDX 20 35 79 36 21 37 22 38 23 39 73 40 24 41 78 42 72 43 74 44
REMARK SMILES IDX 25 45 77 46 71 47 70 48 26 50 58 51 38 52 57 53 39 54 42 55
REMARK SMILES IDX 56 56 75 57 40 58 41 59 55 61 76 62 43 63 27 64 28 65 36 66
REMARK SMILES IDX 29 67 30 68 34 69 37 70 31 71 32 72 35 73 33 74 59 75 60 76
REMARK SMILES IDX 68 77 61 78 62 79 66 80 69 81 63 82 64 83 67 84 65 85 44 86
REMARK SMILES IDX 45 87 53 88 46 89 47 90 51 91 54 92 48 93 49 94 52 95 50 96
REMARK H PARENT 2 16 2 17 74 49 42 60
REMARK Flexibility Score: inf
ROOT
ATOM      1  C   UNL A   1      34.620  31.595  28.142  1.00  0.00     0.188 C 
ENDROOT
BRANCH   1   2
ATOM      2  O   UNL A   1      33.304  31.523  27.616  1.00  0.00    -0.376 OA
BRANCH   2   3
ATOM      3  C   UNL A   1      32.932  30.365  26.871  1.00  0.00     0.202 C 
BRANCH   3   4
ATOM      4  C   UNL A   1      33.519  28.990  27.251  1.00  0.00     0.261 C 
BRANCH   4   5
ATOM      5  O   UNL A   1      33.114  27.862  26.441  1.00  0.00    -0.459 OA
BRANCH   5   6
ATOM      6  C   UNL A   1      31.951  27.260  26.813  1.00  0.00     0.368 C 
ATOM      7  O   UNL A   1      31.403  27.462  27.896  1.00  0.00    -0.245 OA
BRANCH   6   8
ATOM      8  C   UNL A   1      31.351  26.259  25.753  1.00  0.00     0.195 C 
ATOM      9  C   UNL A   1      30.585  26.867  24.546  1.00  0.00     0.081 C 
ATOM     10  C   UNL A   1      32.634  25.599  25.189  1.00  0.00     0.096 C 
ATOM     11  C   UNL A   1      30.275  25.819  23.467  1.00  0.00     0.008 C 
ATOM     12  C   UNL A   1      32.446  24.661  23.999  1.00  0.00     0.061 C 
ATOM     13  C   UNL A   1      31.557  25.240  22.895  1.00  0.00     0.015 C 
BRANCH   8  14
ATOM     14  N   UNL A   1      30.373  25.422  26.501  1.00  0.00    -0.335 N 
ATOM     15  C   UNL A   1      30.670  24.020  26.690  1.00  0.00     0.331 C 
ATOM     16  H   UNL A   1      30.268  25.835  27.429  1.00  0.00     0.347 HD
ATOM     17  H   UNL A   1      29.539  25.424  25.914  1.00  0.00     0.347 HD
ENDBRANCH   8  14
BRANCH  12  18
ATOM     18  S   UNL A   1      34.068  24.111  23.336  1.00  0.00    -0.084 SA
BRANCH  18  19
ATOM     19  C   UNL A   1      34.247  22.555  24.080  1.00  0.00     0.167 A 
ATOM     20  N   UNL A   1      33.259  21.804  24.510  1.00  0.00    -0.231 NA
ATOM     21  N   UNL A   1      35.461  21.981  24.341  1.00  0.00    -0.329 N 
ATOM     22  C   UNL A   1      33.849  20.715  25.090  1.00  0.00     0.132 A 
ATOM     23  C   UNL A   1      35.218  20.802  25.001  1.00  0.00     0.108 A 
ATOM     24  C   UNL A   1      36.777  22.483  24.037  1.00  0.00     0.152 C 
ENDBRANCH  18  19
ENDBRANCH  12  18
ENDBRANCH   6   8
ENDBRANCH   5   6
ENDBRANCH   4   5
ENDBRANCH   3   4
ENDBRANCH   2   3
ENDBRANCH   1   2
BRANCH   1  25
ATOM     25  C   UNL A   1      35.316  32.958  28.178  1.00  0.00     0.188 C 
BRANCH  25  26
ATOM     26  O   UNL A   1      34.696  33.925  28.988  1.00  0.00    -0.376 OA
BRANCH  26  27
ATOM     27  C   UNL A   1      34.012  35.015  28.402  1.00  0.00     0.202 C 
BRANCH  27  28
ATOM     28  C   UNL A   1      33.081  35.889  29.266  1.00  0.00     0.261 C 
BRANCH  28  29
ATOM     29  O   UNL A   1      32.415  35.251  30.370  1.00  0.00    -0.460 OA
BRANCH  29  30
ATOM     30  C   UNL A   1      32.656  35.734  31.613  1.00  0.00     0.338 C 
ATOM     31  O   UNL A   1      31.930  36.464  32.267  1.00  0.00    -0.246 OA
BRANCH  30  32
ATOM     32  C   UNL A   1      33.817  34.984  32.166  1.00  0.00     0.060 A 
ATOM     33  C   UNL A   1      35.087  35.583  32.127  1.00  0.00     0.016 A 
ATOM     34  C   UNL A   1      33.652  33.746  32.789  1.00  0.00     0.016 A 
ATOM     35  C   UNL A   1      36.196  34.933  32.677  1.00  0.00     0.010 A 
ATOM     36  C   UNL A   1      34.768  33.083  33.317  1.00  0.00     0.010 A 
ATOM     37  C   UNL A   1      36.051  33.657  33.235  1.00  0.00    -0.014 A 
BRANCH  37  38
ATOM     38  C   UNL A   1      37.250  32.828  33.529  1.00  0.00     0.031 A 
ATOM     39  C   UNL A   1      37.989  33.090  34.815  1.00  0.00     0.074 A 
ATOM     40  C   UNL A   1      37.685  31.865  32.698  1.00  0.00     0.049 A 
ATOM     41  N   UNL A   1      39.108  32.575  35.259  1.00  0.00    -0.248 NA
ATOM     42  C   UNL A   1      37.378  34.073  35.723  1.00  0.00     0.031 C 
ATOM     43  C   UNL A   1      37.042  31.468  31.449  1.00  0.00     0.029 A 
ATOM     44  N   UNL A   1      38.793  31.054  32.780  1.00  0.00    -0.354 N 
ATOM     45  C   UNL A   1      39.340  33.181  36.487  1.00  0.00     0.074 A 
ATOM     46  C   UNL A   1      38.264  34.123  36.706  1.00  0.00     0.031 C 
ATOM     47  C   UNL A   1      37.780  30.503  30.869  1.00  0.00     0.029 A 
ATOM     48  C   UNL A   1      38.965  30.241  31.686  1.00  0.00     0.049 A 
ATOM     49  H   UNL A   1      39.406  31.056  33.551  1.00  0.00     0.167 HD
ATOM     50  C   UNL A   1      40.352  32.968  37.361  1.00  0.00     0.037 A 
ATOM     51  C   UNL A   1      39.978  29.408  31.369  1.00  0.00     0.037 A 
ATOM     52  C   UNL A   1      41.428  32.037  37.146  1.00  0.00     0.049 A 
ATOM     53  C   UNL A   1      41.144  29.252  32.316  1.00  0.00     0.074 A 
ATOM     54  C   UNL A   1      42.493  31.743  37.979  1.00  0.00     0.029 A 
ATOM     55  N   UNL A   1      41.582  31.255  36.011  1.00  0.00    -0.354 N 
ATOM     56  N   UNL A   1      41.348  29.812  33.484  1.00  0.00    -0.248 NA
ATOM     57  C   UNL A   1      42.222  28.343  31.899  1.00  0.00     0.031 C 
ATOM     58  C   UNL A   1      43.325  30.831  37.322  1.00  0.00     0.029 A 
ATOM     59  C   UNL A   1      42.740  30.500  36.110  1.00  0.00     0.049 A 
ATOM     60  H   UNL A   1      40.959  31.237  35.248  1.00  0.00     0.167 HD
ATOM     61  C   UNL A   1      42.553  29.299  33.952  1.00  0.00     0.074 A 
ATOM     62  C   UNL A   1      43.030  28.372  32.949  1.00  0.00     0.031 C 
ATOM     63  C   UNL A   1      43.204  29.570  35.111  1.00  0.00     0.037 A 
BRANCH  50  64
ATOM     64  C   UNL A   1      40.362  33.786  38.620  1.00  0.00     0.064 A 
ATOM     65  C   UNL A   1      41.142  34.946  38.744  1.00  0.00     0.173 A 
ATOM     66  C   UNL A   1      39.559  33.417  39.710  1.00  0.00     0.173 A 
ATOM     67  F   UNL A   1      41.940  35.334  37.738  1.00  0.00    -0.203 F 
ATOM     68  C   UNL A   1      41.140  35.688  39.922  1.00  0.00     0.198 A 
ATOM     69  C   UNL A   1      39.533  34.181  40.874  1.00  0.00     0.198 A 
ATOM     70  F   UNL A   1      38.791  32.319  39.644  1.00  0.00    -0.203 F 
ATOM     71  F   UNL A   1      41.936  36.761  40.037  1.00  0.00    -0.200 F 
ATOM     72  C   UNL A   1      40.330  35.310  40.982  1.00  0.00     0.200 A 
ATOM     73  F   UNL A   1      38.738  33.822  41.891  1.00  0.00    -0.200 F 
ATOM     74  F   UNL A   1      40.324  36.030  42.112  1.00  0.00    -0.200 F 
ENDBRANCH  50  64
BRANCH  51  75
ATOM     75  C   UNL A   1      39.955  28.663  30.079  1.00  0.00     0.064 A 
ATOM     76  C   UNL A   1      39.376  27.390  29.985  1.00  0.00     0.173 A 
ATOM     77  C   UNL A   1      40.551  29.193  28.925  1.00  0.00     0.173 A 
ATOM     78  F   UNL A   1      38.825  26.824  31.069  1.00  0.00    -0.203 F 
ATOM     79  C   UNL A   1      39.410  26.668  28.793  1.00  0.00     0.198 A 
ATOM     80  C   UNL A   1      40.556  28.484  27.724  1.00  0.00     0.198 A 
ATOM     81  F   UNL A   1      41.131  30.401  28.961  1.00  0.00    -0.203 F 
ATOM     82  F   UNL A   1      38.902  25.429  28.750  1.00  0.00    -0.200 F 
ATOM     83  C   UNL A   1      39.994  27.218  27.662  1.00  0.00     0.200 A 
ATOM     84  F   UNL A   1      41.116  29.022  26.633  1.00  0.00    -0.200 F 
ATOM     85  F   UNL A   1      40.028  26.523  26.518  1.00  0.00    -0.200 F 
ENDBRANCH  51  75
BRANCH  63  86
ATOM     86  C   UNL A   1      44.479  28.823  35.391  1.00  0.00     0.064 A 
ATOM     87  C   UNL A   1      44.485  27.584  36.050  1.00  0.00     0.173 A 
ATOM     88  C   UNL A   1      45.710  29.334  34.949  1.00  0.00     0.173 A 
ATOM     89  F   UNL A   1      43.339  27.054  36.502  1.00  0.00    -0.203 F 
ATOM     90  C   UNL A   1      45.678  26.900  36.280  1.00  0.00     0.198 A 
ATOM     91  C   UNL A   1      46.896  28.631  35.151  1.00  0.00     0.198 A 
ATOM     92  F   UNL A   1      45.763  30.509  34.306  1.00  0.00    -0.203 F 
ATOM     93  F   UNL A   1      45.664  25.743  36.956  1.00  0.00    -0.200 F 
ATOM     94  C   UNL A   1      46.879  27.419  35.824  1.00  0.00     0.200 A 
ATOM     95  F   UNL A   1      48.053  29.126  34.691  1.00  0.00    -0.200 F 
ATOM     96  F   UNL A   1      48.023  26.755  36.038  1.00  0.00    -0.200 F 
ENDBRANCH  63  86
ENDBRANCH  37  38
ENDBRANCH  30  32
ENDBRANCH  29  30
ENDBRANCH  28  29
ENDBRANCH  27  28
ENDBRANCH  26  27
ENDBRANCH  25  26
ENDBRANCH   1  25
TORSDOF 20
ENDMDL
MODEL 2
REMARK VINA RESULT:     -10.2      3.781      9.002
REMARK SMILES C[NH2+][C@]1(C(=O)OCCOCCOCCOC(=O)c2ccc(-c3c4nc(c(-c5c(F)c(F)c(F)c(F)c5F)c5ccc([nH]5)c(-c5c(F)c(F)c(F)c(F)c5F)c5nc(c(-c6c(F)c(F)c(F)c(F)c6F)c6ccc3[nH]6)C=C5)C=C4)cc2)CCC[C@@H](Sc2nccn2C)C1
REMARK SMILES IDX 10 1 9 2 8 3 7 4 6 5 4 6 5 7 3 8 81 9 92 10 82 11 84 12
REMARK SMILES IDX 83 13 2 14 1 15 85 18 86 19 87 20 90 21 88 22 89 23 91 24
REMARK SMILES IDX 11 25 12 26 13 27 14 28 15 29 16 30 17 31 18 32 19 33 80 34
REMARK SMILES IDX 20 35 79 36 21 37 22 38 23 39 73 40 24 41 78 42 72 43 74 44
REMARK SMILES IDX 25 45 77 46 71 47 70 48 26 50 58 51 38 52 57 53 39 54 42 55
REMARK SMILES IDX 56 56 75 57 40 58 41 59 55 61 76 62 43 63 27 64 28 65 36 66
REMARK SMILES IDX 29 67 30 68 34 69 37 70 31 71 32 72 35 73 33 74 59 75 60 76
REMARK SMILES IDX 68 77 61 78 62 79 66 80 69 81 63 82 64 83 67 84 65 85 44 86
REMARK SMILES IDX 45 87 53 88 46 89 47 90 51 91 54 92 48 93 49 94 52 95 50 96
REMARK H PARENT 2 16 2 17 74 49 42 60
REMARK Flexibility Score: inf
ROOT
ATOM      1  C   UNL A   1      40.011  20.920  26.132  1.00  0.00     0.188 C 
ENDROOT
BRANCH   1   2
ATOM      2  O   UNL A   1      38.978  21.814  25.747  1.00  0.00    -0.376 OA
BRANCH   2   3
ATOM      3  C   UNL A   1      37.707  21.273  25.394  1.00  0.00     0.202 C 
BRANCH   3   4
ATOM      4  C   UNL A   1      36.760  22.077  24.482  1.00  0.00     0.261 C 
BRANCH   4   5
ATOM      5  O   UNL A   1      35.533  22.559  25.079  1.00  0.00    -0.459 OA
BRANCH   5   6
ATOM      6  C   UNL A   1      34.460  21.728  24.967  1.00  0.00     0.368 C 
ATOM      7  O   UNL A   1      34.562  20.514  24.794  1.00  0.00    -0.245 OA
BRANCH   6   8
ATOM      8  C   UNL A   1      33.056  22.439  25.060  1.00  0.00     0.195 C 
ATOM      9  C   UNL A   1      32.322  22.401  26.429  1.00  0.00     0.081 C 
ATOM     10  C   UNL A   1      33.438  23.917  24.792  1.00  0.00     0.096 C 
ATOM     11  C   UNL A   1      31.102  23.333  26.460  1.00  0.00     0.008 C 
ATOM     12  C   UNL A   1      32.323  24.946  24.962  1.00  0.00     0.061 C 
ATOM     13  C   UNL A   1      31.523  24.778  26.256  1.00  0.00     0.015 C 
BRANCH   8  14
ATOM     14  N   UNL A   1      32.181  21.728  24.087  1.00  0.00    -0.335 N 
ATOM     15  C   UNL A   1      32.390  21.963  22.676  1.00  0.00     0.331 C 
ATOM     16  H   UNL A   1      32.302  20.727  24.247  1.00  0.00     0.347 HD
ATOM     17  H   UNL A   1      31.249  22.100  24.268  1.00  0.00     0.347 HD
ENDBRANCH   8  14
BRANCH  12  18
ATOM     18  S   UNL A   1      32.977  26.654  24.792  1.00  0.00    -0.084 SA
BRANCH  18  19
ATOM     19  C   UNL A   1      31.642  27.474  24.048  1.00  0.00     0.167 A 
ATOM     20  N   UNL A   1      30.876  26.972  23.107  1.00  0.00    -0.231 NA
ATOM     21  N   UNL A   1      31.293  28.763  24.341  1.00  0.00    -0.329 N 
ATOM     22  C   UNL A   1      30.013  27.975  22.760  1.00  0.00     0.132 A 
ATOM     23  C   UNL A   1      30.254  29.100  23.511  1.00  0.00     0.108 A 
ATOM     24  C   UNL A   1      31.886  29.660  25.302  1.00  0.00     0.152 C 
ENDBRANCH  18  19
ENDBRANCH  12  18
ENDBRANCH   6   8
ENDBRANCH   5   6
ENDBRANCH   4   5
ENDBRANCH   3   4
ENDBRANCH   2   3
ENDBRANCH   1   2
BRANCH   1  25
ATOM     25  C   UNL A   1      40.841  21.256  27.374  1.00  0.00     0.188 C 
BRANCH  25  26
ATOM     26  O   UNL A   1      42.049  21.928  27.121  1.00  0.00    -0.376 OA
BRANCH  26  27
ATOM     27  C   UNL A   1      43.024  21.350  26.275  1.00  0.00     0.202 C 
BRANCH  27  28
ATOM     28  C   UNL A   1      43.534  22.133  25.049  1.00  0.00     0.261 C 
BRANCH  28  29
ATOM     29  O   UNL A   1      43.060  23.481  24.884  1.00  0.00    -0.460 OA
BRANCH  29  30
ATOM     30  C   UNL A   1      43.917  24.489  25.179  1.00  0.00     0.338 C 
ATOM     31  O   UNL A   1      44.946  24.771  24.586  1.00  0.00    -0.246 OA
BRANCH  30  32
ATOM     32  C   UNL A   1      43.240  25.378  26.161  1.00  0.00     0.060 A 
ATOM     33  C   UNL A   1      43.619  26.730  26.220  1.00  0.00     0.016 A 
ATOM     34  C   UNL A   1      42.191  24.917  26.959  1.00  0.00     0.016 A 
ATOM     35  C   UNL A   1      42.976  27.611  27.095  1.00  0.00     0.010 A 
ATOM     36  C   UNL A   1      41.566  25.793  27.855  1.00  0.00     0.010 A 
ATOM     37  C   UNL A   1      41.976  27.136  27.953  1.00  0.00    -0.014 A 
BRANCH  37  38
ATOM     38  C   UNL A   1      41.514  27.968  29.096  1.00  0.00     0.031 A 
ATOM     39  C   UNL A   1      42.259  27.851  30.399  1.00  0.00     0.074 A 
ATOM     40  C   UNL A   1      40.472  28.812  29.001  1.00  0.00     0.049 A 
ATOM     41  N   UNL A   1      42.002  28.391  31.564  1.00  0.00    -0.248 NA
ATOM     42  C   UNL A   1      43.459  26.999  30.383  1.00  0.00     0.031 C 
ATOM     43  C   UNL A   1      39.693  29.067  27.792  1.00  0.00     0.029 A 
ATOM     44  N   UNL A   1      39.879  29.603  29.957  1.00  0.00    -0.354 N 
ATOM     45  C   UNL A   1      42.998  27.935  32.417  1.00  0.00     0.074 A 
ATOM     46  C   UNL A   1      43.846  27.051  31.648  1.00  0.00     0.031 C 
ATOM     47  C   UNL A   1      38.709  29.937  28.085  1.00  0.00     0.029 A 
ATOM     48  C   UNL A   1      38.766  30.271  29.509  1.00  0.00     0.049 A 
ATOM     49  H   UNL A   1      40.220  29.682  30.878  1.00  0.00     0.167 HD
ATOM     50  C   UNL A   1      43.197  28.232  33.724  1.00  0.00     0.037 A 
ATOM     51  C   UNL A   1      37.879  31.037  30.179  1.00  0.00     0.037 A 
ATOM     52  C   UNL A   1      42.354  29.106  34.495  1.00  0.00     0.049 A 
ATOM     53  C   UNL A   1      38.068  31.283  31.657  1.00  0.00     0.074 A 
ATOM     54  C   UNL A   1      42.481  29.477  35.823  1.00  0.00     0.029 A 
ATOM     55  N   UNL A   1      41.219  29.739  34.012  1.00  0.00    -0.354 N 
ATOM     56  N   UNL A   1      39.022  30.866  32.454  1.00  0.00    -0.248 NA
ATOM     57  C   UNL A   1      37.054  32.110  32.329  1.00  0.00     0.031 C 
ATOM     58  C   UNL A   1      41.390  30.282  36.160  1.00  0.00     0.029 A 
ATOM     59  C   UNL A   1      40.620  30.475  35.023  1.00  0.00     0.049 A 
ATOM     60  H   UNL A   1      40.887  29.677  33.086  1.00  0.00     0.167 HD
ATOM     61  C   UNL A   1      38.742  31.406  33.705  1.00  0.00     0.074 A 
ATOM     62  C   UNL A   1      37.536  32.192  33.560  1.00  0.00     0.031 C 
ATOM     63  C   UNL A   1      39.425  31.265  34.869  1.00  0.00     0.037 A 
BRANCH  50  64
ATOM     64  C   UNL A   1      44.359  27.575  34.413  1.00  0.00     0.064 A 
ATOM     65  C   UNL A   1      45.622  28.184  34.477  1.00  0.00     0.173 A 
ATOM     66  C   UNL A   1      44.198  26.330  35.040  1.00  0.00     0.173 A 
ATOM     67  F   UNL A   1      45.833  29.366  33.880  1.00  0.00    -0.203 F 
ATOM     68  C   UNL A   1      46.687  27.555  35.117  1.00  0.00     0.198 A 
ATOM     69  C   UNL A   1      45.256  25.722  35.709  1.00  0.00     0.198 A 
ATOM     70  F   UNL A   1      43.011  25.706  35.011  1.00  0.00    -0.203 F 
ATOM     71  F   UNL A   1      47.899  28.130  35.118  1.00  0.00    -0.200 F 
ATOM     72  C   UNL A   1      46.502  26.330  35.739  1.00  0.00     0.200 A 
ATOM     73  F   UNL A   1      45.071  24.545  36.322  1.00  0.00    -0.200 F 
ATOM     74  F   UNL A   1      47.526  25.731  36.361  1.00  0.00    -0.200 F 
ENDBRANCH  50  64
BRANCH  51  75
ATOM     75  C   UNL A   1      36.707  31.618  29.466  1.00  0.00     0.064 A 
ATOM     76  C   UNL A   1      35.626  30.817  29.074  1.00  0.00     0.173 A 
ATOM     77  C   UNL A   1      36.666  32.978  29.124  1.00  0.00     0.173 A 
ATOM     78  F   UNL A   1      35.634  29.503  29.345  1.00  0.00    -0.203 F 
ATOM     79  C   UNL A   1      34.558  31.349  28.352  1.00  0.00     0.198 A 
ATOM     80  C   UNL A   1      35.582  33.516  28.432  1.00  0.00     0.198 A 
ATOM     81  F   UNL A   1      37.680  33.788  29.463  1.00  0.00    -0.203 F 
ATOM     82  F   UNL A   1      33.567  30.547  27.939  1.00  0.00    -0.200 F 
ATOM     83  C   UNL A   1      34.534  32.699  28.037  1.00  0.00     0.200 A 
ATOM     84  F   UNL A   1      35.561  34.822  28.135  1.00  0.00    -0.200 F 
ATOM     85  F   UNL A   1      33.508  33.209  27.343  1.00  0.00    -0.200 F 
ENDBRANCH  51  75
BRANCH  63  86
ATOM     86  C   UNL A   1      38.922  32.013  36.073  1.00  0.00     0.064 A 
ATOM     87  C   UNL A   1      38.090  31.411  37.029  1.00  0.00     0.173 A 
ATOM     88  C   UNL A   1      39.320  33.342  36.297  1.00  0.00     0.173 A 
ATOM     89  F   UNL A   1      37.671  30.147  36.858  1.00  0.00    -0.203 F 
ATOM     90  C   UNL A   1      37.653  32.118  38.147  1.00  0.00     0.198 A 
ATOM     91  C   UNL A   1      38.909  34.034  37.435  1.00  0.00     0.198 A 
ATOM     92  F   UNL A   1      40.122  33.964  35.422  1.00  0.00    -0.203 F 
ATOM     93  F   UNL A   1      36.817  31.538  39.019  1.00  0.00    -0.200 F 
ATOM     94  C   UNL A   1      38.068  33.424  38.353  1.00  0.00     0.200 A 
ATOM     95  F   UNL A   1      39.328  35.289  37.640  1.00  0.00    -0.200 F 
ATOM     96  F   UNL A   1      37.654  34.099  39.434  1.00  0.00    -0.200 F 
ENDBRANCH  63  86
ENDBRANCH  37  38
ENDBRANCH  30  32
ENDBRANCH  29  30
ENDBRANCH  28  29
ENDBRANCH  27  28
ENDBRANCH  26  27
ENDBRANCH  25  26
ENDBRANCH   1  25
TORSDOF 20
ENDMDL
MODEL 3
REMARK VINA RESULT:      -9.9      1.648      7.488
REMARK SMILES C[NH2+][C@]1(C(=O)OCCOCCOCCOC(=O)c2ccc(-c3c4nc(c(-c5c(F)c(F)c(F)c(F)c5F)c5ccc([nH]5)c(-c5c(F)c(F)c(F)c(F)c5F)c5nc(c(-c6c(F)c(F)c(F)c(F)c6F)c6ccc3[nH]6)C=C5)C=C4)cc2)CCC[C@@H](Sc2nccn2C)C1
REMARK SMILES IDX 10 1 9 2 8 3 7 4 6 5 4 6 5 7 3 8 81 9 92 10 82 11 84 12
REMARK SMILES IDX 83 13 2 14 1 15 85 18 86 19 87 20 90 21 88 22 89 23 91 24
REMARK SMILES IDX 11 25 12 26 13 27 14 28 15 29 16 30 17 31 18 32 19 33 80 34
REMARK SMILES IDX 20 35 79 36 21 37 22 38 23 39 73 40 24 41 78 42 72 43 74 44
REMARK SMILES IDX 25 45 77 46 71 47 70 48 26 50 58 51 38 52 57 53 39 54 42 55
REMARK SMILES IDX 56 56 75 57 40 58 41 59 55 61 76 62 43 63 27 64 28 65 36 66
REMARK SMILES IDX 29 67 30 68 34 69 37 70 31 71 32 72 35 73 33 74 59 75 60 76
REMARK SMILES IDX 68 77 61 78 62 79 66 80 69 81 63 82 64 83 67 84 65 85 44 86
REMARK SMILES IDX 45 87 53 88 46 89 47 90 51 91 54 92 48 93 49 94 52 95 50 96
REMARK H PARENT 2 16 2 17 74 49 42 60
REMARK Flexibility Score: inf
ROOT
ATOM      1  C   UNL A   1      34.904  29.505  27.513  1.00  0.00     0.188 C 
ENDROOT
BRANCH   1   2
ATOM      2  O   UNL A   1      33.820  28.734  27.017  1.00  0.00    -0.376 OA
BRANCH   2   3
ATOM      3  C   UNL A   1      33.286  29.058  25.735  1.00  0.00     0.202 C 
BRANCH   3   4
ATOM      4  C   UNL A   1      33.142  27.956  24.667  1.00  0.00     0.261 C 
BRANCH   4   5
ATOM      5  O   UNL A   1      33.194  26.587  25.131  1.00  0.00    -0.459 OA
BRANCH   5   6
ATOM      6  C   UNL A   1      32.003  26.053  25.521  1.00  0.00     0.368 C 
ATOM      7  O   UNL A   1      31.293  26.554  26.392  1.00  0.00    -0.245 OA
BRANCH   6   8
ATOM      8  C   UNL A   1      31.595  24.724  24.779  1.00  0.00     0.195 C 
ATOM      9  C   UNL A   1      32.191  24.479  23.365  1.00  0.00     0.081 C 
ATOM     10  C   UNL A   1      32.196  23.648  25.717  1.00  0.00     0.096 C 
ATOM     11  C   UNL A   1      31.925  23.053  22.862  1.00  0.00     0.008 C 
ATOM     12  C   UNL A   1      32.128  22.205  25.223  1.00  0.00     0.061 C 
ATOM     13  C   UNL A   1      32.582  22.029  23.772  1.00  0.00     0.015 C 
BRANCH   8  14
ATOM     14  N   UNL A   1      30.116  24.797  24.611  1.00  0.00    -0.335 N 
ATOM     15  C   UNL A   1      29.558  25.930  23.909  1.00  0.00     0.331 C 
ATOM     16  H   UNL A   1      29.828  23.957  24.107  1.00  0.00     0.347 HD
ATOM     17  H   UNL A   1      29.760  24.890  25.562  1.00  0.00     0.347 HD
ENDBRANCH   8  14
BRANCH  12  18
ATOM     18  S   UNL A   1      33.042  21.082  26.353  1.00  0.00    -0.084 SA
BRANCH  18  19
ATOM     19  C   UNL A   1      33.180  19.645  25.392  1.00  0.00     0.167 A 
ATOM     20  N   UNL A   1      32.192  18.828  25.108  1.00  0.00    -0.231 NA
ATOM     21  N   UNL A   1      34.365  19.194  24.878  1.00  0.00    -0.329 N 
ATOM     22  C   UNL A   1      32.755  17.799  24.404  1.00  0.00     0.132 A 
ATOM     23  C   UNL A   1      34.106  18.001  24.250  1.00  0.00     0.108 A 
ATOM     24  C   UNL A   1      35.672  19.792  24.973  1.00  0.00     0.152 C 
ENDBRANCH  18  19
ENDBRANCH  12  18
ENDBRANCH   6   8
ENDBRANCH   5   6
ENDBRANCH   4   5
ENDBRANCH   3   4
ENDBRANCH   2   3
ENDBRANCH   1   2
BRANCH   1  25
ATOM     25  C   UNL A   1      34.774  31.030  27.514  1.00  0.00     0.188 C 
BRANCH  25  26
ATOM     26  O   UNL A   1      33.628  31.532  28.153  1.00  0.00    -0.376 OA
BRANCH  26  27
ATOM     27  C   UNL A   1      32.656  32.249  27.416  1.00  0.00     0.202 C 
BRANCH  27  28
ATOM     28  C   UNL A   1      32.787  33.776  27.258  1.00  0.00     0.261 C 
BRANCH  28  29
ATOM     29  O   UNL A   1      32.296  34.596  28.334  1.00  0.00    -0.460 OA
BRANCH  29  30
ATOM     30  C   UNL A   1      33.164  35.463  28.908  1.00  0.00     0.338 C 
ATOM     31  O   UNL A   1      32.964  36.642  29.154  1.00  0.00    -0.246 OA
BRANCH  30  32
ATOM     32  C   UNL A   1      34.293  34.667  29.462  1.00  0.00     0.060 A 
ATOM     33  C   UNL A   1      34.072  33.896  30.615  1.00  0.00     0.016 A 
ATOM     34  C   UNL A   1      35.529  34.610  28.815  1.00  0.00     0.016 A 
ATOM     35  C   UNL A   1      35.092  33.097  31.142  1.00  0.00     0.010 A 
ATOM     36  C   UNL A   1      36.558  33.830  29.358  1.00  0.00     0.010 A 
ATOM     37  C   UNL A   1      36.356  33.095  30.541  1.00  0.00    -0.014 A 
BRANCH  37  38
ATOM     38  C   UNL A   1      37.524  32.516  31.258  1.00  0.00     0.031 A 
ATOM     39  C   UNL A   1      38.273  31.393  30.591  1.00  0.00     0.074 A 
ATOM     40  C   UNL A   1      37.927  32.960  32.462  1.00  0.00     0.049 A 
ATOM     41  N   UNL A   1      39.260  30.659  31.041  1.00  0.00    -0.248 NA
ATOM     42  C   UNL A   1      37.845  31.051  29.225  1.00  0.00     0.031 C 
ATOM     43  C   UNL A   1      37.331  34.070  33.200  1.00  0.00     0.029 A 
ATOM     44  N   UNL A   1      38.933  32.509  33.284  1.00  0.00    -0.354 N 
ATOM     45  C   UNL A   1      39.557  29.763  30.022  1.00  0.00     0.074 A 
ATOM     46  C   UNL A   1      38.630  30.023  28.943  1.00  0.00     0.031 C 
ATOM     47  C   UNL A   1      37.969  34.200  34.378  1.00  0.00     0.029 A 
ATOM     48  C   UNL A   1      38.993  33.159  34.492  1.00  0.00     0.049 A 
ATOM     49  H   UNL A   1      39.553  31.787  33.030  1.00  0.00     0.167 HD
ATOM     50  C   UNL A   1      40.522  28.813  29.983  1.00  0.00     0.037 A 
ATOM     51  C   UNL A   1      39.762  32.921  35.575  1.00  0.00     0.037 A 
ATOM     52  C   UNL A   1      41.444  28.547  31.055  1.00  0.00     0.049 A 
ATOM     53  C   UNL A   1      40.771  31.797  35.544  1.00  0.00     0.074 A 
ATOM     54  C   UNL A   1      42.464  27.612  31.104  1.00  0.00     0.029 A 
ATOM     55  N   UNL A   1      41.451  29.207  32.274  1.00  0.00    -0.354 N 
ATOM     56  N   UNL A   1      41.062  30.967  34.571  1.00  0.00    -0.248 NA
ATOM     57  C   UNL A   1      41.562  31.580  36.765  1.00  0.00     0.031 C 
ATOM     58  C   UNL A   1      43.046  27.664  32.373  1.00  0.00     0.029 A 
ATOM     59  C   UNL A   1      42.438  28.681  33.092  1.00  0.00     0.049 A 
ATOM     60  H   UNL A   1      40.844  29.943  32.522  1.00  0.00     0.167 HD
ATOM     61  C   UNL A   1      42.087  30.158  35.049  1.00  0.00     0.074 A 
ATOM     62  C   UNL A   1      42.378  30.603  36.395  1.00  0.00     0.031 C 
ATOM     63  C   UNL A   1      42.730  29.138  34.428  1.00  0.00     0.037 A 
BRANCH  50  64
ATOM     64  C   UNL A   1      40.608  27.967  28.746  1.00  0.00     0.064 A 
ATOM     65  C   UNL A   1      41.403  28.336  27.650  1.00  0.00     0.173 A 
ATOM     66  C   UNL A   1      39.904  26.755  28.666  1.00  0.00     0.173 A 
ATOM     67  F   UNL A   1      42.084  29.491  27.667  1.00  0.00    -0.203 F 
ATOM     68  C   UNL A   1      41.466  27.538  26.509  1.00  0.00     0.198 A 
ATOM     69  C   UNL A   1      39.996  25.944  27.539  1.00  0.00     0.198 A 
ATOM     70  F   UNL A   1      39.131  26.354  29.687  1.00  0.00    -0.203 F 
ATOM     71  F   UNL A   1      42.188  27.938  25.453  1.00  0.00    -0.200 F 
ATOM     72  C   UNL A   1      40.769  26.340  26.459  1.00  0.00     0.200 A 
ATOM     73  F   UNL A   1      39.334  24.780  27.498  1.00  0.00    -0.200 F 
ATOM     74  F   UNL A   1      40.837  25.570  25.364  1.00  0.00    -0.200 F 
ENDBRANCH  50  64
BRANCH  51  75
ATOM     75  C   UNL A   1      39.599  33.748  36.802  1.00  0.00     0.064 A 
ATOM     76  C   UNL A   1      38.747  33.346  37.841  1.00  0.00     0.173 A 
ATOM     77  C   UNL A   1      40.258  34.978  36.942  1.00  0.00     0.173 A 
ATOM     78  F   UNL A   1      38.066  32.195  37.740  1.00  0.00    -0.203 F 
ATOM     79  C   UNL A   1      38.547  34.151  38.962  1.00  0.00     0.198 A 
ATOM     80  C   UNL A   1      40.083  35.767  38.078  1.00  0.00     0.198 A 
ATOM     81  F   UNL A   1      41.074  35.418  35.973  1.00  0.00    -0.203 F 
ATOM     82  F   UNL A   1      37.681  33.769  39.911  1.00  0.00    -0.200 F 
ATOM     83  C   UNL A   1      39.220  35.357  39.083  1.00  0.00     0.200 A 
ATOM     84  F   UNL A   1      40.740  36.929  38.194  1.00  0.00    -0.200 F 
ATOM     85  F   UNL A   1      39.025  36.130  40.160  1.00  0.00    -0.200 F 
ENDBRANCH  51  75
BRANCH  63  86
ATOM     86  C   UNL A   1      43.850  28.460  35.168  1.00  0.00     0.064 A 
ATOM     87  C   UNL A   1      45.172  28.926  35.106  1.00  0.00     0.173 A 
ATOM     88  C   UNL A   1      43.586  27.353  35.992  1.00  0.00     0.173 A 
ATOM     89  F   UNL A   1      45.483  29.972  34.327  1.00  0.00    -0.203 F 
ATOM     90  C   UNL A   1      46.190  28.293  35.818  1.00  0.00     0.198 A 
ATOM     91  C   UNL A   1      44.600  26.745  36.729  1.00  0.00     0.198 A 
ATOM     92  F   UNL A   1      42.339  26.871  36.098  1.00  0.00    -0.203 F 
ATOM     93  F   UNL A   1      47.454  28.725  35.703  1.00  0.00    -0.200 F 
ATOM     94  C   UNL A   1      45.902  27.210  36.634  1.00  0.00     0.200 A 
ATOM     95  F   UNL A   1      44.314  25.711  37.532  1.00  0.00    -0.200 F 
ATOM     96  F   UNL A   1      46.881  26.610  37.325  1.00  0.00    -0.200 F 
ENDBRANCH  63  86
ENDBRANCH  37  38
ENDBRANCH  30  32
ENDBRANCH  29  30
ENDBRANCH  28  29
ENDBRANCH  27  28
ENDBRANCH  26  27
ENDBRANCH  25  26
ENDBRANCH   1  25
TORSDOF 20
ENDMDL
