MODEL 1
REMARK VINA RESULT:     -11.9      0.000      0.000
REMARK SMILES Cc1cc(C(=O)OCCOCCOCCOC(=O)c2ccc(-c3c4nc(c(-c5c(F)c(F)c(F)c(F)c5F)c5ccc([nH]5)c(-c5c(F)c(F)c(F)c(F)c5F)c5nc(c(-c6c(F)c(F)c(F)c(F)c6F)c6ccc3[nH]6)C=C5)C=C4)cc2)ccc1NC(=O)c1ccc(=O)n(CCOc2ccccc2)n1
REMARK SMILES IDX 9 1 8 2 7 3 5 4 6 5 4 6 1 7 2 8 3 9 84 10 83 11 82 12 85 13
REMARK SMILES IDX 86 14 87 16 88 17 89 18 103 19 90 20 93 21 91 22 92 23 94 24
REMARK SMILES IDX 95 25 96 26 97 27 98 28 102 29 99 30 101 31 100 32 10 33
REMARK SMILES IDX 11 34 12 35 13 36 14 37 15 38 16 39 17 40 18 41 19 42 20 43
REMARK SMILES IDX 81 44 21 45 80 46 22 47 23 48 24 49 74 50 25 51 79 52 73 53
REMARK SMILES IDX 75 54 26 55 78 56 72 57 71 58 27 60 59 61 39 62 58 63 40 64
REMARK SMILES IDX 43 65 57 66 76 67 41 68 42 69 56 71 77 72 44 73 28 74 29 75
REMARK SMILES IDX 37 76 30 77 31 78 35 79 38 80 32 81 33 82 36 83 34 84 60 85
REMARK SMILES IDX 61 86 69 87 62 88 63 89 67 90 70 91 64 92 65 93 68 94 66 95
REMARK SMILES IDX 45 96 46 97 54 98 47 99 48 100 52 101 55 102 49 103 50 104
REMARK SMILES IDX 53 105 51 106
REMARK H PARENT 85 15 75 59 43 70
REMARK Flexibility Score: inf
ROOT
ATOM      1  C   UNL A   1      34.825  32.415  29.346  1.00  0.00     0.202 C 
ENDROOT
BRANCH   1   2
ATOM      2  C   UNL A   1      34.713  31.417  28.045  1.00  0.00     0.261 C 
BRANCH   2   3
ATOM      3  O   UNL A   1      33.616  30.291  27.792  1.00  0.00    -0.460 OA
BRANCH   3   4
ATOM      4  C   UNL A   1      32.859  29.446  26.973  1.00  0.00     0.338 C 
ATOM      5  O   UNL A   1      32.293  28.488  27.507  1.00  0.00    -0.246 OA
BRANCH   4   6
ATOM      6  C   UNL A   1      32.584  29.455  25.466  1.00  0.00     0.060 A 
ATOM      7  C   UNL A   1      29.763  29.657  22.776  1.00  0.00     0.046 C 
ATOM      8  C   UNL A   1      31.027  29.282  23.512  1.00  0.00    -0.027 A 
ATOM      9  C   UNL A   1      31.289  29.636  24.868  1.00  0.00     0.021 A 
ATOM     10  C   UNL A   1      32.041  28.592  22.852  1.00  0.00     0.044 A 
ATOM     11  C   UNL A   1      33.357  28.718  23.304  1.00  0.00     0.027 A 
ATOM     12  C   UNL A   1      33.628  29.115  24.616  1.00  0.00     0.018 A 
BRANCH  10  13
ATOM     13  N   UNL A   1      31.712  27.531  21.972  1.00  0.00    -0.320 N 
ATOM     14  C   UNL A   1      31.505  26.217  22.410  1.00  0.00     0.276 C 
ATOM     15  H   UNL A   1      31.627  27.726  21.010  1.00  0.00     0.170 HD
ATOM     16  O   UNL A   1      31.168  25.305  21.664  1.00  0.00    -0.267 OA
BRANCH  14  17
ATOM     17  C   UNL A   1      31.669  25.934  23.904  1.00  0.00     0.149 A 
ATOM     18  C   UNL A   1      30.482  26.215  24.734  1.00  0.00     0.042 A 
ATOM     19  N   UNL A   1      32.771  25.399  24.336  1.00  0.00    -0.164 NA
ATOM     20  C   UNL A   1      30.420  25.552  25.890  1.00  0.00     0.076 A 
ATOM     21  N   UNL A   1      32.735  24.876  25.629  1.00  0.00    -0.226 N 
ATOM     22  C   UNL A   1      31.554  24.713  26.349  1.00  0.00     0.266 A 
ATOM     23  O   UNL A   1      31.382  23.986  27.323  1.00  0.00    -0.268 OA
BRANCH  21  24
ATOM     24  C   UNL A   1      33.994  24.378  26.182  1.00  0.00     0.190 C 
BRANCH  24  25
ATOM     25  C   UNL A   1      34.337  22.972  25.674  1.00  0.00     0.253 C 
BRANCH  25  26
ATOM     26  O   UNL A   1      33.197  22.243  25.199  1.00  0.00    -0.492 OA
BRANCH  26  27
ATOM     27  C   UNL A   1      33.317  20.924  24.867  1.00  0.00     0.119 A 
ATOM     28  C   UNL A   1      34.584  20.380  25.089  1.00  0.00     0.046 A 
ATOM     29  C   UNL A   1      32.325  20.113  24.320  1.00  0.00     0.046 A 
ATOM     30  C   UNL A   1      34.872  19.061  24.724  1.00  0.00     0.004 A 
ATOM     31  C   UNL A   1      32.621  18.807  23.913  1.00  0.00     0.004 A 
ATOM     32  C   UNL A   1      33.893  18.282  24.112  1.00  0.00     0.000 A 
ENDBRANCH  26  27
ENDBRANCH  25  26
ENDBRANCH  24  25
ENDBRANCH  21  24
ENDBRANCH  14  17
ENDBRANCH  10  13
ENDBRANCH   4   6
ENDBRANCH   3   4
ENDBRANCH   2   3
ENDBRANCH   1   2
BRANCH   1  33
ATOM     33  O   UNL A   1      33.847  33.433  29.492  1.00  0.00    -0.376 OA
BRANCH  33  34
ATOM     34  C   UNL A   1      33.873  34.672  28.774  1.00  0.00     0.188 C 
BRANCH  34  35
ATOM     35  C   UNL A   1      32.934  35.785  29.235  1.00  0.00     0.188 C 
BRANCH  35  36
ATOM     36  O   UNL A   1      33.696  36.795  29.869  1.00  0.00    -0.376 OA
BRANCH  36  37
ATOM     37  C   UNL A   1      33.271  37.142  31.173  1.00  0.00     0.202 C 
BRANCH  37  38
ATOM     38  C   UNL A   1      32.626  35.947  31.878  1.00  0.00     0.261 C 
BRANCH  38  39
ATOM     39  O   UNL A   1      33.425  35.598  33.034  1.00  0.00    -0.460 OA
BRANCH  39  40
ATOM     40  C   UNL A   1      33.775  34.268  33.126  1.00  0.00     0.338 C 
ATOM     41  O   UNL A   1      33.016  33.357  33.221  1.00  0.00    -0.246 OA
BRANCH  40  42
ATOM     42  C   UNL A   1      35.254  34.169  33.371  1.00  0.00     0.060 A 
ATOM     43  C   UNL A   1      36.193  34.930  32.680  1.00  0.00     0.016 A 
ATOM     44  C   UNL A   1      35.759  33.118  34.078  1.00  0.00     0.016 A 
ATOM     45  C   UNL A   1      37.556  34.484  32.532  1.00  0.00     0.010 A 
ATOM     46  C   UNL A   1      37.070  32.693  33.791  1.00  0.00     0.010 A 
ATOM     47  C   UNL A   1      38.043  33.243  32.958  1.00  0.00    -0.014 A 
BRANCH  47  48
ATOM     48  C   UNL A   1      39.333  32.497  32.344  1.00  0.00     0.031 A 
ATOM     49  C   UNL A   1      39.533  31.305  31.351  1.00  0.00     0.074 A 
ATOM     50  C   UNL A   1      40.561  32.984  32.648  1.00  0.00     0.049 A 
ATOM     51  N   UNL A   1      39.806  30.053  31.655  1.00  0.00    -0.248 NA
ATOM     52  C   UNL A   1      39.674  31.491  29.884  1.00  0.00     0.031 C 
ATOM     53  C   UNL A   1      41.869  32.500  32.192  1.00  0.00     0.029 A 
ATOM     54  N   UNL A   1      40.884  33.934  33.619  1.00  0.00    -0.354 N 
ATOM     55  C   UNL A   1      39.989  29.344  30.444  1.00  0.00     0.074 A 
ATOM     56  C   UNL A   1      39.726  30.263  29.373  1.00  0.00     0.031 C 
ATOM     57  C   UNL A   1      42.785  32.859  33.107  1.00  0.00     0.029 A 
ATOM     58  C   UNL A   1      42.073  33.492  34.206  1.00  0.00     0.049 A 
ATOM     59  H   UNL A   1      40.379  34.749  33.844  1.00  0.00     0.167 HD
ATOM     60  C   UNL A   1      40.796  28.264  30.209  1.00  0.00     0.037 A 
ATOM     61  C   UNL A   1      42.080  33.097  35.510  1.00  0.00     0.037 A 
ATOM     62  C   UNL A   1      41.933  28.319  31.082  1.00  0.00     0.049 A 
ATOM     63  C   UNL A   1      42.524  31.669  35.687  1.00  0.00     0.074 A 
ATOM     64  C   UNL A   1      43.182  28.885  30.893  1.00  0.00     0.029 A 
ATOM     65  N   UNL A   1      41.771  28.107  32.431  1.00  0.00    -0.354 N 
ATOM     66  N   UNL A   1      42.483  30.763  34.750  1.00  0.00    -0.248 NA
ATOM     67  C   UNL A   1      43.028  31.153  36.955  1.00  0.00     0.031 C 
ATOM     68  C   UNL A   1      43.743  29.108  32.168  1.00  0.00     0.029 A 
ATOM     69  C   UNL A   1      42.867  28.595  33.106  1.00  0.00     0.049 A 
ATOM     70  H   UNL A   1      40.991  27.675  32.850  1.00  0.00     0.167 HD
ATOM     71  C   UNL A   1      42.922  29.572  35.267  1.00  0.00     0.074 A 
ATOM     72  C   UNL A   1      43.262  29.868  36.642  1.00  0.00     0.031 C 
ATOM     73  C   UNL A   1      42.973  28.427  34.533  1.00  0.00     0.037 A 
BRANCH  60  74
ATOM     74  C   UNL A   1      40.757  27.511  28.882  1.00  0.00     0.064 A 
ATOM     75  C   UNL A   1      41.601  27.772  27.783  1.00  0.00     0.173 A 
ATOM     76  C   UNL A   1      39.853  26.438  28.699  1.00  0.00     0.173 A 
ATOM     77  F   UNL A   1      42.544  28.722  27.837  1.00  0.00    -0.203 F 
ATOM     78  C   UNL A   1      41.497  27.066  26.574  1.00  0.00     0.198 A 
ATOM     79  C   UNL A   1      39.739  25.744  27.488  1.00  0.00     0.198 A 
ATOM     80  F   UNL A   1      39.064  26.042  29.707  1.00  0.00    -0.203 F 
ATOM     81  F   UNL A   1      42.310  27.368  25.550  1.00  0.00    -0.200 F 
ATOM     82  C   UNL A   1      40.555  26.066  26.420  1.00  0.00     0.200 A 
ATOM     83  F   UNL A   1      38.833  24.765  27.355  1.00  0.00    -0.200 F 
ATOM     84  F   UNL A   1      40.439  25.415  25.253  1.00  0.00    -0.200 F 
ENDBRANCH  60  74
BRANCH  61  85
ATOM     85  C   UNL A   1      41.105  33.811  36.396  1.00  0.00     0.064 A 
ATOM     86  C   UNL A   1      39.858  33.195  36.657  1.00  0.00     0.173 A 
ATOM     87  C   UNL A   1      41.453  34.903  37.206  1.00  0.00     0.173 A 
ATOM     88  F   UNL A   1      39.471  32.131  35.935  1.00  0.00    -0.203 F 
ATOM     89  C   UNL A   1      39.056  33.581  37.730  1.00  0.00     0.198 A 
ATOM     90  C   UNL A   1      40.632  35.303  38.271  1.00  0.00     0.198 A 
ATOM     91  F   UNL A   1      42.639  35.509  37.058  1.00  0.00    -0.203 F 
ATOM     92  F   UNL A   1      37.953  32.879  38.026  1.00  0.00    -0.200 F 
ATOM     93  C   UNL A   1      39.448  34.629  38.544  1.00  0.00     0.200 A 
ATOM     94  F   UNL A   1      41.042  36.272  39.103  1.00  0.00    -0.200 F 
ATOM     95  F   UNL A   1      38.733  34.933  39.636  1.00  0.00    -0.200 F 
ENDBRANCH  61  85
BRANCH  73  96
ATOM     96  C   UNL A   1      43.210  27.040  35.058  1.00  0.00     0.064 A 
ATOM     97  C   UNL A   1      42.200  26.073  35.142  1.00  0.00     0.173 A 
ATOM     98  C   UNL A   1      44.526  26.589  35.331  1.00  0.00     0.173 A 
ATOM     99  F   UNL A   1      40.937  26.358  34.797  1.00  0.00    -0.203 F 
ATOM    100  C   UNL A   1      42.473  24.762  35.532  1.00  0.00     0.198 A 
ATOM    101  C   UNL A   1      44.802  25.265  35.661  1.00  0.00     0.198 A 
ATOM    102  F   UNL A   1      45.581  27.414  35.259  1.00  0.00    -0.203 F 
ATOM    103  F   UNL A   1      41.468  23.882  35.640  1.00  0.00    -0.200 F 
ATOM    104  C   UNL A   1      43.773  24.355  35.778  1.00  0.00     0.200 A 
ATOM    105  F   UNL A   1      46.072  24.876  35.847  1.00  0.00    -0.200 F 
ATOM    106  F   UNL A   1      44.033  23.085  36.112  1.00  0.00    -0.200 F 
ENDBRANCH  73  96
ENDBRANCH  47  48
ENDBRANCH  40  42
ENDBRANCH  39  40
ENDBRANCH  38  39
ENDBRANCH  37  38
ENDBRANCH  36  37
ENDBRANCH  35  36
ENDBRANCH  34  35
ENDBRANCH  33  34
ENDBRANCH   1  33
TORSDOF 23
ENDMDL
MODEL 2
REMARK VINA RESULT:     -11.6      1.874      2.700
REMARK SMILES Cc1cc(C(=O)OCCOCCOCCOC(=O)c2ccc(-c3c4nc(c(-c5c(F)c(F)c(F)c(F)c5F)c5ccc([nH]5)c(-c5c(F)c(F)c(F)c(F)c5F)c5nc(c(-c6c(F)c(F)c(F)c(F)c6F)c6ccc3[nH]6)C=C5)C=C4)cc2)ccc1NC(=O)c1ccc(=O)n(CCOc2ccccc2)n1
REMARK SMILES IDX 9 1 8 2 7 3 5 4 6 5 4 6 1 7 2 8 3 9 84 10 83 11 82 12 85 13
REMARK SMILES IDX 86 14 87 16 88 17 89 18 103 19 90 20 93 21 91 22 92 23 94 24
REMARK SMILES IDX 95 25 96 26 97 27 98 28 102 29 99 30 101 31 100 32 10 33
REMARK SMILES IDX 11 34 12 35 13 36 14 37 15 38 16 39 17 40 18 41 19 42 20 43
REMARK SMILES IDX 81 44 21 45 80 46 22 47 23 48 24 49 74 50 25 51 79 52 73 53
REMARK SMILES IDX 75 54 26 55 78 56 72 57 71 58 27 60 59 61 39 62 58 63 40 64
REMARK SMILES IDX 43 65 57 66 76 67 41 68 42 69 56 71 77 72 44 73 28 74 29 75
REMARK SMILES IDX 37 76 30 77 31 78 35 79 38 80 32 81 33 82 36 83 34 84 60 85
REMARK SMILES IDX 61 86 69 87 62 88 63 89 67 90 70 91 64 92 65 93 68 94 66 95
REMARK SMILES IDX 45 96 46 97 54 98 47 99 48 100 52 101 55 102 49 103 50 104
REMARK SMILES IDX 53 105 51 106
REMARK H PARENT 85 15 75 59 43 70
REMARK Flexibility Score: inf
ROOT
ATOM      1  C   UNL A   1      34.775  31.804  27.642  1.00  0.00     0.202 C 
ENDROOT
BRANCH   1   2
ATOM      2  C   UNL A   1      34.358  30.261  28.023  1.00  0.00     0.261 C 
BRANCH   2   3
ATOM      3  O   UNL A   1      33.657  29.194  27.073  1.00  0.00    -0.460 OA
BRANCH   3   4
ATOM      4  C   UNL A   1      33.660  28.067  26.242  1.00  0.00     0.338 C 
ATOM      5  O   UNL A   1      34.395  27.127  26.556  1.00  0.00    -0.246 OA
BRANCH   4   6
ATOM      6  C   UNL A   1      32.909  27.748  24.946  1.00  0.00     0.060 A 
ATOM      7  C   UNL A   1      29.360  27.462  23.345  1.00  0.00     0.046 C 
ATOM      8  C   UNL A   1      30.807  27.207  23.697  1.00  0.00    -0.027 A 
ATOM      9  C   UNL A   1      31.484  27.847  24.776  1.00  0.00     0.021 A 
ATOM     10  C   UNL A   1      31.572  26.341  22.920  1.00  0.00     0.044 A 
ATOM     11  C   UNL A   1      32.958  26.507  22.879  1.00  0.00     0.027 A 
ATOM     12  C   UNL A   1      33.629  27.178  23.905  1.00  0.00     0.018 A 
BRANCH  10  13
ATOM     13  N   UNL A   1      31.008  25.124  22.461  1.00  0.00    -0.320 N 
ATOM     14  C   UNL A   1      31.036  23.943  23.212  1.00  0.00     0.276 C 
ATOM     15  H   UNL A   1      30.580  25.108  21.574  1.00  0.00     0.170 HD
ATOM     16  O   UNL A   1      30.505  22.901  22.847  1.00  0.00    -0.267 OA
BRANCH  14  17
ATOM     17  C   UNL A   1      31.730  23.986  24.574  1.00  0.00     0.149 A 
ATOM     18  C   UNL A   1      30.878  24.403  25.705  1.00  0.00     0.042 A 
ATOM     19  N   UNL A   1      32.962  23.586  24.678  1.00  0.00    -0.164 NA
ATOM     20  C   UNL A   1      31.283  23.996  26.910  1.00  0.00     0.076 A 
ATOM     21  N   UNL A   1      33.424  23.346  25.972  1.00  0.00    -0.226 N 
ATOM     22  C   UNL A   1      32.584  23.305  27.082  1.00  0.00     0.266 A 
ATOM     23  O   UNL A   1      32.831  22.795  28.172  1.00  0.00    -0.268 OA
BRANCH  21  24
ATOM     24  C   UNL A   1      34.840  23.012  26.123  1.00  0.00     0.190 C 
BRANCH  24  25
ATOM     25  C   UNL A   1      35.366  22.167  24.956  1.00  0.00     0.253 C 
BRANCH  25  26
ATOM     26  O   UNL A   1      35.733  20.834  25.338  1.00  0.00    -0.492 OA
BRANCH  26  27
ATOM     27  C   UNL A   1      34.994  19.770  24.907  1.00  0.00     0.119 A 
ATOM     28  C   UNL A   1      33.617  19.999  24.857  1.00  0.00     0.046 A 
ATOM     29  C   UNL A   1      35.477  18.513  24.553  1.00  0.00     0.046 A 
ATOM     30  C   UNL A   1      32.732  18.975  24.508  1.00  0.00     0.004 A 
ATOM     31  C   UNL A   1      34.593  17.472  24.245  1.00  0.00     0.004 A 
ATOM     32  C   UNL A   1      33.221  17.702  24.226  1.00  0.00     0.000 A 
ENDBRANCH  26  27
ENDBRANCH  25  26
ENDBRANCH  24  25
ENDBRANCH  21  24
ENDBRANCH  14  17
ENDBRANCH  10  13
ENDBRANCH   4   6
ENDBRANCH   3   4
ENDBRANCH   2   3
ENDBRANCH   1   2
BRANCH   1  33
ATOM     33  O   UNL A   1      33.799  32.820  27.808  1.00  0.00    -0.376 OA
BRANCH  33  34
ATOM     34  C   UNL A   1      34.101  34.154  28.237  1.00  0.00     0.188 C 
BRANCH  34  35
ATOM     35  C   UNL A   1      33.019  34.925  28.989  1.00  0.00     0.188 C 
BRANCH  35  36
ATOM     36  O   UNL A   1      33.636  35.772  29.939  1.00  0.00    -0.376 OA
BRANCH  36  37
ATOM     37  C   UNL A   1      32.894  35.990  31.125  1.00  0.00     0.202 C 
BRANCH  37  38
ATOM     38  C   UNL A   1      33.513  35.239  32.307  1.00  0.00     0.261 C 
BRANCH  38  39
ATOM     39  O   UNL A   1      34.772  34.662  31.888  1.00  0.00    -0.460 OA
BRANCH  39  40
ATOM     40  C   UNL A   1      35.007  33.379  32.333  1.00  0.00     0.338 C 
ATOM     41  O   UNL A   1      34.844  32.991  33.445  1.00  0.00    -0.246 OA
BRANCH  40  42
ATOM     42  C   UNL A   1      35.760  32.626  31.273  1.00  0.00     0.060 A 
ATOM     43  C   UNL A   1      35.926  31.243  31.293  1.00  0.00     0.016 A 
ATOM     44  C   UNL A   1      36.562  33.298  30.399  1.00  0.00     0.016 A 
ATOM     45  C   UNL A   1      37.033  30.612  30.619  1.00  0.00     0.010 A 
ATOM     46  C   UNL A   1      37.678  32.624  29.868  1.00  0.00     0.010 A 
ATOM     47  C   UNL A   1      38.077  31.293  29.983  1.00  0.00    -0.014 A 
BRANCH  47  48
ATOM     48  C   UNL A   1      39.551  30.693  29.729  1.00  0.00     0.031 A 
ATOM     49  C   UNL A   1      40.098  29.409  29.022  1.00  0.00     0.074 A 
ATOM     50  C   UNL A   1      40.620  31.428  30.123  1.00  0.00     0.049 A 
ATOM     51  N   UNL A   1      40.487  28.289  29.596  1.00  0.00    -0.248 NA
ATOM     52  C   UNL A   1      40.478  29.378  27.587  1.00  0.00     0.031 C 
ATOM     53  C   UNL A   1      42.045  31.110  29.975  1.00  0.00     0.029 A 
ATOM     54  N   UNL A   1      40.620  32.564  30.935  1.00  0.00    -0.354 N 
ATOM     55  C   UNL A   1      40.988  27.437  28.584  1.00  0.00     0.074 A 
ATOM     56  C   UNL A   1      40.798  28.112  27.331  1.00  0.00     0.031 C 
ATOM     57  C   UNL A   1      42.716  31.766  30.938  1.00  0.00     0.029 A 
ATOM     58  C   UNL A   1      41.732  32.434  31.773  1.00  0.00     0.049 A 
ATOM     59  H   UNL A   1      39.971  33.304  30.921  1.00  0.00     0.167 HD
ATOM     60  C   UNL A   1      41.972  26.489  28.685  1.00  0.00     0.037 A 
ATOM     61  C   UNL A   1      41.555  32.263  33.113  1.00  0.00     0.037 A 
ATOM     62  C   UNL A   1      42.908  26.881  29.698  1.00  0.00     0.049 A 
ATOM     63  C   UNL A   1      42.159  30.981  33.623  1.00  0.00     0.074 A 
ATOM     64  C   UNL A   1      44.077  27.617  29.602  1.00  0.00     0.029 A 
ATOM     65  N   UNL A   1      42.533  26.864  31.021  1.00  0.00    -0.354 N 
ATOM     66  N   UNL A   1      42.421  29.942  32.879  1.00  0.00    -0.248 NA
ATOM     67  C   UNL A   1      42.490  30.771  35.028  1.00  0.00     0.031 C 
ATOM     68  C   UNL A   1      44.357  28.135  30.883  1.00  0.00     0.029 A 
ATOM     69  C   UNL A   1      43.405  27.637  31.754  1.00  0.00     0.049 A 
ATOM     70  H   UNL A   1      41.760  26.377  31.388  1.00  0.00     0.167 HD
ATOM     71  C   UNL A   1      42.922  28.944  33.673  1.00  0.00     0.074 A 
ATOM     72  C   UNL A   1      42.959  29.513  35.004  1.00  0.00     0.031 C 
ATOM     73  C   UNL A   1      43.271  27.722  33.186  1.00  0.00     0.037 A 
BRANCH  60  74
ATOM     74  C   UNL A   1      42.284  25.537  27.535  1.00  0.00     0.064 A 
ATOM     75  C   UNL A   1      41.652  24.294  27.325  1.00  0.00     0.173 A 
ATOM     76  C   UNL A   1      43.242  25.892  26.556  1.00  0.00     0.173 A 
ATOM     77  F   UNL A   1      40.683  23.856  28.141  1.00  0.00    -0.203 F 
ATOM     78  C   UNL A   1      42.005  23.443  26.265  1.00  0.00     0.198 A 
ATOM     79  C   UNL A   1      43.604  25.036  25.508  1.00  0.00     0.198 A 
ATOM     80  F   UNL A   1      43.842  27.089  26.604  1.00  0.00    -0.203 F 
ATOM     81  F   UNL A   1      41.388  22.260  26.122  1.00  0.00    -0.200 F 
ATOM     82  C   UNL A   1      42.993  23.806  25.369  1.00  0.00     0.200 A 
ATOM     83  F   UNL A   1      44.553  25.406  24.634  1.00  0.00    -0.200 F 
ATOM     84  F   UNL A   1      43.346  22.977  24.375  1.00  0.00    -0.200 F 
ENDBRANCH  60  74
BRANCH  61  85
ATOM     85  C   UNL A   1      40.342  32.930  33.686  1.00  0.00     0.064 A 
ATOM     86  C   UNL A   1      39.160  32.167  33.831  1.00  0.00     0.173 A 
ATOM     87  C   UNL A   1      40.381  34.167  34.347  1.00  0.00     0.173 A 
ATOM     88  F   UNL A   1      39.062  30.963  33.243  1.00  0.00    -0.203 F 
ATOM     89  C   UNL A   1      38.122  32.568  34.670  1.00  0.00     0.198 A 
ATOM     90  C   UNL A   1      39.324  34.579  35.172  1.00  0.00     0.198 A 
ATOM     91  F   UNL A   1      41.483  34.927  34.303  1.00  0.00    -0.203 F 
ATOM     92  F   UNL A   1      37.083  31.748  34.887  1.00  0.00    -0.200 F 
ATOM     93  C   UNL A   1      38.208  33.770  35.349  1.00  0.00     0.200 A 
ATOM     94  F   UNL A   1      39.435  35.709  35.887  1.00  0.00    -0.200 F 
ATOM     95  F   UNL A   1      37.261  34.108  36.236  1.00  0.00    -0.200 F 
ENDBRANCH  61  85
BRANCH  73  96
ATOM     96  C   UNL A   1      43.602  26.501  33.994  1.00  0.00     0.064 A 
ATOM     97  C   UNL A   1      42.640  25.766  34.696  1.00  0.00     0.173 A 
ATOM     98  C   UNL A   1      44.899  25.929  33.935  1.00  0.00     0.173 A 
ATOM     99  F   UNL A   1      41.356  26.151  34.722  1.00  0.00    -0.203 F 
ATOM    100  C   UNL A   1      42.960  24.574  35.347  1.00  0.00     0.198 A 
ATOM    101  C   UNL A   1      45.199  24.711  34.536  1.00  0.00     0.198 A 
ATOM    102  F   UNL A   1      45.901  26.525  33.271  1.00  0.00    -0.203 F 
ATOM    103  F   UNL A   1      42.015  23.928  36.044  1.00  0.00    -0.200 F 
ATOM    104  C   UNL A   1      44.234  24.041  35.257  1.00  0.00     0.200 A 
ATOM    105  F   UNL A   1      46.425  24.183  34.397  1.00  0.00    -0.200 F 
ATOM    106  F   UNL A   1      44.524  22.877  35.851  1.00  0.00    -0.200 F 
ENDBRANCH  73  96
ENDBRANCH  47  48
ENDBRANCH  40  42
ENDBRANCH  39  40
ENDBRANCH  38  39
ENDBRANCH  37  38
ENDBRANCH  36  37
ENDBRANCH  35  36
ENDBRANCH  34  35
ENDBRANCH  33  34
ENDBRANCH   1  33
TORSDOF 23
ENDMDL
MODEL 3
REMARK VINA RESULT:     -11.3      2.910      4.577
REMARK SMILES Cc1cc(C(=O)OCCOCCOCCOC(=O)c2ccc(-c3c4nc(c(-c5c(F)c(F)c(F)c(F)c5F)c5ccc([nH]5)c(-c5c(F)c(F)c(F)c(F)c5F)c5nc(c(-c6c(F)c(F)c(F)c(F)c6F)c6ccc3[nH]6)C=C5)C=C4)cc2)ccc1NC(=O)c1ccc(=O)n(CCOc2ccccc2)n1
REMARK SMILES IDX 9 1 8 2 7 3 5 4 6 5 4 6 1 7 2 8 3 9 84 10 83 11 82 12 85 13
REMARK SMILES IDX 86 14 87 16 88 17 89 18 103 19 90 20 93 21 91 22 92 23 94 24
REMARK SMILES IDX 95 25 96 26 97 27 98 28 102 29 99 30 101 31 100 32 10 33
REMARK SMILES IDX 11 34 12 35 13 36 14 37 15 38 16 39 17 40 18 41 19 42 20 43
REMARK SMILES IDX 81 44 21 45 80 46 22 47 23 48 24 49 74 50 25 51 79 52 73 53
REMARK SMILES IDX 75 54 26 55 78 56 72 57 71 58 27 60 59 61 39 62 58 63 40 64
REMARK SMILES IDX 43 65 57 66 76 67 41 68 42 69 56 71 77 72 44 73 28 74 29 75
REMARK SMILES IDX 37 76 30 77 31 78 35 79 38 80 32 81 33 82 36 83 34 84 60 85
REMARK SMILES IDX 61 86 69 87 62 88 63 89 67 90 70 91 64 92 65 93 68 94 66 95
REMARK SMILES IDX 45 96 46 97 54 98 47 99 48 100 52 101 55 102 49 103 50 104
REMARK SMILES IDX 53 105 51 106
REMARK H PARENT 85 15 75 59 43 70
REMARK Flexibility Score: inf
ROOT
ATOM      1  C   UNL A   1      36.047  33.340  28.146  1.00  0.00     0.202 C 
ENDROOT
BRANCH   1   2
ATOM      2  C   UNL A   1      35.228  31.915  28.154  1.00  0.00     0.261 C 
BRANCH   2   3
ATOM      3  O   UNL A   1      33.803  31.625  27.507  1.00  0.00    -0.460 OA
BRANCH   3   4
ATOM      4  C   UNL A   1      32.830  30.786  26.949  1.00  0.00     0.338 C 
ATOM      5  O   UNL A   1      31.722  31.274  26.712  1.00  0.00    -0.246 OA
BRANCH   4   6
ATOM      6  C   UNL A   1      32.854  29.304  26.565  1.00  0.00     0.060 A 
ATOM      7  C   UNL A   1      33.962  26.779  23.801  1.00  0.00     0.046 C 
ATOM      8  C   UNL A   1      33.175  27.470  24.890  1.00  0.00    -0.027 A 
ATOM      9  C   UNL A   1      33.482  28.771  25.386  1.00  0.00     0.021 A 
ATOM     10  C   UNL A   1      32.111  26.815  25.505  1.00  0.00     0.044 A 
ATOM     11  C   UNL A   1      31.750  27.174  26.805  1.00  0.00     0.027 A 
ATOM     12  C   UNL A   1      32.090  28.427  27.323  1.00  0.00     0.018 A 
BRANCH  10  13
ATOM     13  N   UNL A   1      31.207  26.054  24.722  1.00  0.00    -0.320 N 
ATOM     14  C   UNL A   1      31.191  24.654  24.726  1.00  0.00     0.276 C 
ATOM     15  H   UNL A   1      30.562  26.531  24.150  1.00  0.00     0.170 HD
ATOM     16  O   UNL A   1      30.379  23.989  24.094  1.00  0.00    -0.267 OA
BRANCH  14  17
ATOM     17  C   UNL A   1      32.218  23.936  25.603  1.00  0.00     0.149 A 
ATOM     18  C   UNL A   1      31.818  23.731  27.008  1.00  0.00     0.042 A 
ATOM     19  N   UNL A   1      33.312  23.484  25.066  1.00  0.00    -0.164 NA
ATOM     20  C   UNL A   1      32.432  22.730  27.640  1.00  0.00     0.076 A 
ATOM     21  N   UNL A   1      34.041  22.573  25.831  1.00  0.00    -0.226 N 
ATOM     22  C   UNL A   1      33.545  21.991  26.995  1.00  0.00     0.266 A 
ATOM     23  O   UNL A   1      33.957  20.970  27.540  1.00  0.00    -0.268 OA
BRANCH  21  24
ATOM     24  C   UNL A   1      35.335  22.142  25.302  1.00  0.00     0.190 C 
BRANCH  24  25
ATOM     25  C   UNL A   1      35.371  20.637  25.009  1.00  0.00     0.253 C 
BRANCH  25  26
ATOM     26  O   UNL A   1      34.136  20.127  24.490  1.00  0.00    -0.492 OA
BRANCH  26  27
ATOM     27  C   UNL A   1      33.871  18.789  24.543  1.00  0.00     0.119 A 
ATOM     28  C   UNL A   1      32.711  18.451  25.244  1.00  0.00     0.046 A 
ATOM     29  C   UNL A   1      34.648  17.767  24.001  1.00  0.00     0.046 A 
ATOM     30  C   UNL A   1      32.358  17.113  25.443  1.00  0.00     0.004 A 
ATOM     31  C   UNL A   1      34.323  16.426  24.236  1.00  0.00     0.004 A 
ATOM     32  C   UNL A   1      33.181  16.099  24.959  1.00  0.00     0.000 A 
ENDBRANCH  26  27
ENDBRANCH  25  26
ENDBRANCH  24  25
ENDBRANCH  21  24
ENDBRANCH  14  17
ENDBRANCH  10  13
ENDBRANCH   4   6
ENDBRANCH   3   4
ENDBRANCH   2   3
ENDBRANCH   1   2
BRANCH   1  33
ATOM     33  O   UNL A   1      35.311  34.534  28.362  1.00  0.00    -0.376 OA
BRANCH  33  34
ATOM     34  C   UNL A   1      34.033  34.577  29.008  1.00  0.00     0.188 C 
BRANCH  34  35
ATOM     35  C   UNL A   1      34.005  34.679  30.531  1.00  0.00     0.188 C 
BRANCH  35  36
ATOM     36  O   UNL A   1      34.026  33.374  31.078  1.00  0.00    -0.376 OA
BRANCH  36  37
ATOM     37  C   UNL A   1      34.922  33.187  32.157  1.00  0.00     0.202 C 
BRANCH  37  38
ATOM     38  C   UNL A   1      36.370  33.418  31.716  1.00  0.00     0.261 C 
BRANCH  38  39
ATOM     39  O   UNL A   1      37.154  32.249  32.053  1.00  0.00    -0.460 OA
BRANCH  39  40
ATOM     40  C   UNL A   1      36.645  31.050  31.602  1.00  0.00     0.338 C 
ATOM     41  O   UNL A   1      35.844  30.381  32.171  1.00  0.00    -0.246 OA
BRANCH  40  42
ATOM     42  C   UNL A   1      37.460  30.585  30.428  1.00  0.00     0.060 A 
ATOM     43  C   UNL A   1      37.368  29.299  29.899  1.00  0.00     0.016 A 
ATOM     44  C   UNL A   1      38.536  31.312  30.014  1.00  0.00     0.016 A 
ATOM     45  C   UNL A   1      38.462  28.712  29.167  1.00  0.00     0.010 A 
ATOM     46  C   UNL A   1      39.600  30.631  29.395  1.00  0.00     0.010 A 
ATOM     47  C   UNL A   1      39.722  29.299  29.001  1.00  0.00    -0.014 A 
BRANCH  47  48
ATOM     48  C   UNL A   1      41.085  28.492  28.707  1.00  0.00     0.031 A 
ATOM     49  C   UNL A   1      41.411  27.026  28.267  1.00  0.00     0.074 A 
ATOM     50  C   UNL A   1      42.258  29.169  28.765  1.00  0.00     0.049 A 
ATOM     51  N   UNL A   1      41.793  26.029  29.038  1.00  0.00    -0.248 NA
ATOM     52  C   UNL A   1      41.558  26.625  26.844  1.00  0.00     0.031 C 
ATOM     53  C   UNL A   1      43.612  28.665  28.512  1.00  0.00     0.029 A 
ATOM     54  N   UNL A   1      42.476  30.453  29.271  1.00  0.00    -0.354 N 
ATOM     55  C   UNL A   1      42.061  24.917  28.205  1.00  0.00     0.074 A 
ATOM     56  C   UNL A   1      41.731  25.306  26.863  1.00  0.00     0.031 C 
ATOM     57  C   UNL A   1      44.476  29.441  29.189  1.00  0.00     0.029 A 
ATOM     58  C   UNL A   1      43.691  30.391  29.960  1.00  0.00     0.049 A 
ATOM     59  H   UNL A   1      41.894  31.240  29.164  1.00  0.00     0.167 HD
ATOM     60  C   UNL A   1      42.968  23.911  28.402  1.00  0.00     0.037 A 
ATOM     61  C   UNL A   1      43.712  30.551  31.312  1.00  0.00     0.037 A 
ATOM     62  C   UNL A   1      44.080  24.413  29.156  1.00  0.00     0.049 A 
ATOM     63  C   UNL A   1      44.284  29.358  32.033  1.00  0.00     0.074 A 
ATOM     64  C   UNL A   1      45.275  24.968  28.730  1.00  0.00     0.029 A 
ATOM     65  N   UNL A   1      43.916  24.742  30.481  1.00  0.00    -0.354 N 
ATOM     66  N   UNL A   1      44.342  28.154  31.535  1.00  0.00    -0.248 NA
ATOM     67  C   UNL A   1      44.812  29.438  33.391  1.00  0.00     0.031 C 
ATOM     68  C   UNL A   1      45.792  25.730  29.799  1.00  0.00     0.029 A 
ATOM     69  C   UNL A   1      44.951  25.556  30.882  1.00  0.00     0.049 A 
ATOM     70  H   UNL A   1      43.173  24.443  31.054  1.00  0.00     0.167 HD
ATOM     71  C   UNL A   1      44.880  27.313  32.474  1.00  0.00     0.074 A 
ATOM     72  C   UNL A   1      45.169  28.162  33.610  1.00  0.00     0.031 C 
ATOM     73  C   UNL A   1      45.049  25.980  32.256  1.00  0.00     0.037 A 
BRANCH  60  74
ATOM     74  C   UNL A   1      43.020  22.692  27.486  1.00  0.00     0.064 A 
ATOM     75  C   UNL A   1      42.199  21.553  27.615  1.00  0.00     0.173 A 
ATOM     76  C   UNL A   1      43.911  22.664  26.387  1.00  0.00     0.173 A 
ATOM     77  F   UNL A   1      41.269  21.467  28.576  1.00  0.00    -0.203 F 
ATOM     78  C   UNL A   1      42.314  20.445  26.761  1.00  0.00     0.198 A 
ATOM     79  C   UNL A   1      44.036  21.552  25.544  1.00  0.00     0.198 A 
ATOM     80  F   UNL A   1      44.677  23.729  26.113  1.00  0.00    -0.203 F 
ATOM     81  F   UNL A   1      41.524  19.375  26.939  1.00  0.00    -0.200 F 
ATOM     82  C   UNL A   1      43.244  20.437  25.738  1.00  0.00     0.200 A 
ATOM     83  F   UNL A   1      44.930  21.562  24.544  1.00  0.00    -0.200 F 
ATOM     84  F   UNL A   1      43.371  19.365  24.942  1.00  0.00    -0.200 F 
ENDBRANCH  60  74
BRANCH  61  85
ATOM     85  C   UNL A   1      42.661  31.466  31.862  1.00  0.00     0.064 A 
ATOM     86  C   UNL A   1      41.465  30.896  32.356  1.00  0.00     0.173 A 
ATOM     87  C   UNL A   1      42.899  32.812  32.180  1.00  0.00     0.173 A 
ATOM     88  F   UNL A   1      41.184  29.606  32.109  1.00  0.00    -0.203 F 
ATOM     89  C   UNL A   1      40.609  31.598  33.204  1.00  0.00     0.198 A 
ATOM     90  C   UNL A   1      42.022  33.523  33.014  1.00  0.00     0.198 A 
ATOM     91  F   UNL A   1      44.033  33.412  31.795  1.00  0.00    -0.203 F 
ATOM     92  F   UNL A   1      39.561  30.974  33.761  1.00  0.00    -0.200 F 
ATOM     93  C   UNL A   1      40.893  32.909  33.541  1.00  0.00     0.200 A 
ATOM     94  F   UNL A   1      42.331  34.770  33.400  1.00  0.00    -0.200 F 
ATOM     95  F   UNL A   1      40.130  33.550  34.437  1.00  0.00    -0.200 F 
ENDBRANCH  61  85
BRANCH  73  96
ATOM     96  C   UNL A   1      45.404  24.945  33.284  1.00  0.00     0.064 A 
ATOM     97  C   UNL A   1      44.444  24.195  33.975  1.00  0.00     0.173 A 
ATOM     98  C   UNL A   1      46.753  24.554  33.476  1.00  0.00     0.173 A 
ATOM     99  F   UNL A   1      43.134  24.402  33.783  1.00  0.00    -0.203 F 
ATOM    100  C   UNL A   1      44.806  23.165  34.844  1.00  0.00     0.198 A 
ATOM    101  C   UNL A   1      47.106  23.488  34.297  1.00  0.00     0.198 A 
ATOM    102  F   UNL A   1      47.762  25.178  32.849  1.00  0.00    -0.203 F 
ATOM    103  F   UNL A   1      43.854  22.504  35.517  1.00  0.00    -0.200 F 
ATOM    104  C   UNL A   1      46.133  22.804  34.995  1.00  0.00     0.200 A 
ATOM    105  F   UNL A   1      48.391  23.118  34.393  1.00  0.00    -0.200 F 
ATOM    106  F   UNL A   1      46.471  21.789  35.800  1.00  0.00    -0.200 F 
ENDBRANCH  73  96
ENDBRANCH  47  48
ENDBRANCH  40  42
ENDBRANCH  39  40
ENDBRANCH  38  39
ENDBRANCH  37  38
ENDBRANCH  36  37
ENDBRANCH  35  36
ENDBRANCH  34  35
ENDBRANCH  33  34
ENDBRANCH   1  33
TORSDOF 23
ENDMDL
