MODEL 1
REMARK VINA RESULT:     -11.8      0.000      0.000
REMARK SMILES Nc1ccc(-c2cc3ccccc3s2)c(C(=O)OCCOCCOCCOC(=O)c2ccc(-c3c4nc(c(-c5c(F)c(F)c(F)c(F)c5F)c5ccc([nH]5)c(-c5c(F)c(F)c(F)c(F)c5F)c5nc(c(-c6c(F)c(F)c(F)c(F)c6F)c6ccc3[nH]6)C=C5)C=C4)cc2)n1
REMARK SMILES IDX 23 1 22 2 21 3 20 4 19 5 18 6 16 7 17 8 15 9 2 10 3 11 93 12
REMARK SMILES IDX 4 13 5 14 1 15 6 18 7 19 14 20 8 21 13 22 9 23 12 24 10 25
REMARK SMILES IDX 11 26 24 27 25 28 26 29 27 30 28 31 29 32 30 33 31 34 92 35
REMARK SMILES IDX 32 36 91 37 33 38 34 39 35 40 85 41 36 42 90 43 84 44 86 45
REMARK SMILES IDX 37 46 89 47 83 48 82 49 38 51 70 52 50 53 69 54 51 55 54 56
REMARK SMILES IDX 68 57 87 58 52 59 53 60 67 62 88 63 55 64 39 65 40 66 48 67
REMARK SMILES IDX 41 68 42 69 46 70 49 71 43 72 44 73 47 74 45 75 71 76 72 77
REMARK SMILES IDX 80 78 73 79 74 80 78 81 81 82 75 83 76 84 79 85 77 86 56 87
REMARK SMILES IDX 57 88 65 89 58 90 59 91 63 92 66 93 60 94 61 95 64 96 62 97
REMARK H PARENT 1 16 1 17 86 50 54 61
REMARK Flexibility Score: inf
ROOT
ATOM      1  C   UNL A   1      39.973  20.474  25.976  1.00  0.00     0.188 C 
ENDROOT
BRANCH   1   2
ATOM      2  C   UNL A   1      39.699  21.858  26.607  1.00  0.00     0.188 C 
BRANCH   2   3
ATOM      3  O   UNL A   1      38.587  22.625  26.156  1.00  0.00    -0.376 OA
BRANCH   3   4
ATOM      4  C   UNL A   1      37.787  22.125  25.087  1.00  0.00     0.202 C 
BRANCH   4   5
ATOM      5  C   UNL A   1      36.996  23.113  24.219  1.00  0.00     0.261 C 
BRANCH   5   6
ATOM      6  O   UNL A   1      35.892  23.706  24.918  1.00  0.00    -0.458 OA
BRANCH   6   7
ATOM      7  C   UNL A   1      34.799  24.029  24.179  1.00  0.00     0.357 C 
ATOM      8  O   UNL A   1      34.763  24.174  22.967  1.00  0.00    -0.244 OA
BRANCH   7   9
ATOM      9  C   UNL A   1      33.590  24.058  25.060  1.00  0.00     0.159 A 
ATOM     10  C   UNL A   1      32.203  25.466  26.275  1.00  0.00     0.124 A 
ATOM     11  C   UNL A   1      31.379  24.404  26.607  1.00  0.00     0.047 A 
ATOM     12  N   UNL A   1      33.294  25.314  25.516  1.00  0.00    -0.224 NA
ATOM     13  C   UNL A   1      31.689  23.127  26.135  1.00  0.00     0.016 A 
ATOM     14  C   UNL A   1      32.811  22.922  25.321  1.00  0.00     0.025 A 
BRANCH  10  15
ATOM     15  N   UNL A   1      31.880  26.755  26.643  1.00  0.00    -0.384 N 
ATOM     16  H   UNL A   1      31.352  26.918  27.458  1.00  0.00     0.158 HD
ATOM     17  H   UNL A   1      32.179  27.514  26.091  1.00  0.00     0.158 HD
ENDBRANCH  10  15
BRANCH  14  18
ATOM     18  C   UNL A   1      33.099  21.600  24.748  1.00  0.00     0.038 A 
ATOM     19  C   UNL A   1      32.454  20.934  23.725  1.00  0.00     0.029 A 
ATOM     20  S   UNL A   1      34.329  20.618  25.428  1.00  0.00    -0.135 S 
ATOM     21  C   UNL A   1      32.855  19.563  23.597  1.00  0.00    -0.007 A 
ATOM     22  C   UNL A   1      33.903  19.259  24.467  1.00  0.00     0.035 A 
ATOM     23  C   UNL A   1      32.346  18.534  22.771  1.00  0.00     0.009 A 
ATOM     24  C   UNL A   1      34.476  17.974  24.507  1.00  0.00     0.019 A 
ATOM     25  C   UNL A   1      32.895  17.251  22.825  1.00  0.00     0.001 A 
ATOM     26  C   UNL A   1      33.955  16.977  23.678  1.00  0.00     0.001 A 
ENDBRANCH  14  18
ENDBRANCH   7   9
ENDBRANCH   6   7
ENDBRANCH   5   6
ENDBRANCH   4   5
ENDBRANCH   3   4
ENDBRANCH   2   3
ENDBRANCH   1   2
BRANCH   1  27
ATOM     27  O   UNL A   1      41.324  20.081  25.993  1.00  0.00    -0.376 OA
BRANCH  27  28
ATOM     28  C   UNL A   1      42.324  20.996  26.401  1.00  0.00     0.202 C 
BRANCH  28  29
ATOM     29  C   UNL A   1      43.278  21.750  25.451  1.00  0.00     0.261 C 
BRANCH  29  30
ATOM     30  O   UNL A   1      42.835  22.984  24.879  1.00  0.00    -0.460 OA
BRANCH  30  31
ATOM     31  C   UNL A   1      43.665  24.046  25.011  1.00  0.00     0.338 C 
ATOM     32  O   UNL A   1      44.677  24.280  24.381  1.00  0.00    -0.246 OA
BRANCH  31  33
ATOM     33  C   UNL A   1      43.038  24.997  25.953  1.00  0.00     0.060 A 
ATOM     34  C   UNL A   1      43.587  26.280  26.083  1.00  0.00     0.016 A 
ATOM     35  C   UNL A   1      41.925  24.621  26.705  1.00  0.00     0.016 A 
ATOM     36  C   UNL A   1      43.032  27.187  26.986  1.00  0.00     0.010 A 
ATOM     37  C   UNL A   1      41.384  25.523  27.624  1.00  0.00     0.010 A 
ATOM     38  C   UNL A   1      41.952  26.799  27.789  1.00  0.00    -0.014 A 
BRANCH  38  39
ATOM     39  C   UNL A   1      41.525  27.656  28.921  1.00  0.00     0.031 A 
ATOM     40  C   UNL A   1      42.292  27.575  30.212  1.00  0.00     0.074 A 
ATOM     41  C   UNL A   1      40.478  28.493  28.810  1.00  0.00     0.049 A 
ATOM     42  N   UNL A   1      42.073  28.176  31.353  1.00  0.00    -0.248 NA
ATOM     43  C   UNL A   1      43.467  26.689  30.213  1.00  0.00     0.031 C 
ATOM     44  C   UNL A   1      39.681  28.693  27.604  1.00  0.00     0.029 A 
ATOM     45  N   UNL A   1      39.902  29.322  29.740  1.00  0.00    -0.354 N 
ATOM     46  C   UNL A   1      43.072  27.733  32.210  1.00  0.00     0.074 A 
ATOM     47  C   UNL A   1      43.882  26.792  31.466  1.00  0.00     0.031 C 
ATOM     48  C   UNL A   1      38.706  29.581  27.869  1.00  0.00     0.029 A 
ATOM     49  C   UNL A   1      38.792  29.983  29.273  1.00  0.00     0.049 A 
ATOM     50  H   UNL A   1      40.250  29.433  30.655  1.00  0.00     0.167 HD
ATOM     51  C   UNL A   1      43.296  28.082  33.499  1.00  0.00     0.037 A 
ATOM     52  C   UNL A   1      37.935  30.800  29.916  1.00  0.00     0.037 A 
ATOM     53  C   UNL A   1      42.486  29.016  34.236  1.00  0.00     0.049 A 
ATOM     54  C   UNL A   1      38.159  31.112  31.375  1.00  0.00     0.074 A 
ATOM     55  C   UNL A   1      42.649  29.459  35.537  1.00  0.00     0.029 A 
ATOM     56  N   UNL A   1      41.350  29.639  33.741  1.00  0.00    -0.354 N 
ATOM     57  N   UNL A   1      39.125  30.720  32.169  1.00  0.00    -0.248 NA
ATOM     58  C   UNL A   1      37.170  31.985  32.025  1.00  0.00     0.031 C 
ATOM     59  C   UNL A   1      41.577  30.302  35.848  1.00  0.00     0.029 A 
ATOM     60  C   UNL A   1      40.782  30.437  34.721  1.00  0.00     0.049 A 
ATOM     61  H   UNL A   1      40.999  29.530  32.827  1.00  0.00     0.167 HD
ATOM     62  C   UNL A   1      38.881  31.322  33.398  1.00  0.00     0.074 A 
ATOM     63  C   UNL A   1      37.679  32.115  33.241  1.00  0.00     0.031 C 
ATOM     64  C   UNL A   1      39.590  31.229  34.551  1.00  0.00     0.037 A 
BRANCH  51  65
ATOM     65  C   UNL A   1      44.444  27.421  34.203  1.00  0.00     0.064 A 
ATOM     66  C   UNL A   1      44.302  26.190  34.862  1.00  0.00     0.173 A 
ATOM     67  C   UNL A   1      45.713  28.021  34.204  1.00  0.00     0.173 A 
ATOM     68  F   UNL A   1      43.107  25.581  34.903  1.00  0.00    -0.203 F 
ATOM     69  C   UNL A   1      45.378  25.601  35.520  1.00  0.00     0.198 A 
ATOM     70  C   UNL A   1      46.795  27.412  34.835  1.00  0.00     0.198 A 
ATOM     71  F   UNL A   1      45.906  29.197  33.587  1.00  0.00    -0.203 F 
ATOM     72  F   UNL A   1      45.205  24.452  36.188  1.00  0.00    -0.200 F 
ATOM     73  C   UNL A   1      46.625  26.209  35.501  1.00  0.00     0.200 A 
ATOM     74  F   UNL A   1      48.001  27.996  34.805  1.00  0.00    -0.200 F 
ATOM     75  F   UNL A   1      47.660  25.638  36.132  1.00  0.00    -0.200 F 
ENDBRANCH  51  65
BRANCH  52  76
ATOM     76  C   UNL A   1      36.775  31.381  29.188  1.00  0.00     0.064 A 
ATOM     77  C   UNL A   1      36.741  32.742  28.857  1.00  0.00     0.173 A 
ATOM     78  C   UNL A   1      35.671  30.594  28.829  1.00  0.00     0.173 A 
ATOM     79  F   UNL A   1      37.760  33.542  29.206  1.00  0.00    -0.203 F 
ATOM     80  C   UNL A   1      35.639  33.299  28.209  1.00  0.00     0.198 A 
ATOM     81  C   UNL A   1      34.582  31.146  28.155  1.00  0.00     0.198 A 
ATOM     82  F   UNL A   1      35.650  29.288  29.130  1.00  0.00    -0.203 F 
ATOM     83  F   UNL A   1      35.612  34.613  27.950  1.00  0.00    -0.200 F 
ATOM     84  C   UNL A   1      34.564  32.499  27.852  1.00  0.00     0.200 A 
ATOM     85  F   UNL A   1      33.548  30.368  27.807  1.00  0.00    -0.200 F 
ATOM     86  F   UNL A   1      33.506  33.034  27.229  1.00  0.00    -0.200 F 
ENDBRANCH  52  76
BRANCH  64  87
ATOM     87  C   UNL A   1      39.116  32.039  35.725  1.00  0.00     0.064 A 
ATOM     88  C   UNL A   1      38.305  31.487  36.728  1.00  0.00     0.173 A 
ATOM     89  C   UNL A   1      39.520  33.376  35.872  1.00  0.00     0.173 A 
ATOM     90  F   UNL A   1      37.881  30.219  36.630  1.00  0.00    -0.203 F 
ATOM     91  C   UNL A   1      37.894  32.250  37.819  1.00  0.00     0.198 A 
ATOM     92  C   UNL A   1      39.136  34.125  36.981  1.00  0.00     0.198 A 
ATOM     93  F   UNL A   1      40.303  33.952  34.947  1.00  0.00    -0.203 F 
ATOM     94  F   UNL A   1      37.079  31.716  38.738  1.00  0.00    -0.200 F 
ATOM     95  C   UNL A   1      38.317  33.565  37.949  1.00  0.00     0.200 A 
ATOM     96  F   UNL A   1      39.559  35.391  37.112  1.00  0.00    -0.200 F 
ATOM     97  F   UNL A   1      37.929  34.295  39.003  1.00  0.00    -0.200 F 
ENDBRANCH  64  87
ENDBRANCH  38  39
ENDBRANCH  31  33
ENDBRANCH  30  31
ENDBRANCH  29  30
ENDBRANCH  28  29
ENDBRANCH  27  28
ENDBRANCH   1  27
TORSDOF 19
ENDMDL
MODEL 2
REMARK VINA RESULT:     -11.6      5.416     10.639
REMARK SMILES Nc1ccc(-c2cc3ccccc3s2)c(C(=O)OCCOCCOCCOC(=O)c2ccc(-c3c4nc(c(-c5c(F)c(F)c(F)c(F)c5F)c5ccc([nH]5)c(-c5c(F)c(F)c(F)c(F)c5F)c5nc(c(-c6c(F)c(F)c(F)c(F)c6F)c6ccc3[nH]6)C=C5)C=C4)cc2)n1
REMARK SMILES IDX 23 1 22 2 21 3 20 4 19 5 18 6 16 7 17 8 15 9 2 10 3 11 93 12
REMARK SMILES IDX 4 13 5 14 1 15 6 18 7 19 14 20 8 21 13 22 9 23 12 24 10 25
REMARK SMILES IDX 11 26 24 27 25 28 26 29 27 30 28 31 29 32 30 33 31 34 92 35
REMARK SMILES IDX 32 36 91 37 33 38 34 39 35 40 85 41 36 42 90 43 84 44 86 45
REMARK SMILES IDX 37 46 89 47 83 48 82 49 38 51 70 52 50 53 69 54 51 55 54 56
REMARK SMILES IDX 68 57 87 58 52 59 53 60 67 62 88 63 55 64 39 65 40 66 48 67
REMARK SMILES IDX 41 68 42 69 46 70 49 71 43 72 44 73 47 74 45 75 71 76 72 77
REMARK SMILES IDX 80 78 73 79 74 80 78 81 81 82 75 83 76 84 79 85 77 86 56 87
REMARK SMILES IDX 57 88 65 89 58 90 59 91 63 92 66 93 60 94 61 95 64 96 62 97
REMARK H PARENT 1 16 1 17 86 50 54 61
REMARK Flexibility Score: inf
ROOT
ATOM      1  C   UNL A   1      32.973  33.645  27.985  1.00  0.00     0.188 C 
ENDROOT
BRANCH   1   2
ATOM      2  C   UNL A   1      33.928  32.432  28.059  1.00  0.00     0.188 C 
BRANCH   2   3
ATOM      3  O   UNL A   1      33.655  31.277  27.272  1.00  0.00    -0.376 OA
BRANCH   3   4
ATOM      4  C   UNL A   1      34.572  30.186  27.301  1.00  0.00     0.202 C 
BRANCH   4   5
ATOM      5  C   UNL A   1      34.027  28.752  27.345  1.00  0.00     0.261 C 
BRANCH   5   6
ATOM      6  O   UNL A   1      33.062  28.492  26.315  1.00  0.00    -0.458 OA
BRANCH   6   7
ATOM      7  C   UNL A   1      32.438  27.286  26.347  1.00  0.00     0.357 C 
ATOM      8  O   UNL A   1      31.457  26.996  27.014  1.00  0.00    -0.244 OA
BRANCH   7   9
ATOM      9  C   UNL A   1      33.055  26.377  25.331  1.00  0.00     0.159 A 
ATOM     10  C   UNL A   1      34.661  24.728  25.037  1.00  0.00     0.124 A 
ATOM     11  C   UNL A   1      34.285  24.567  23.715  1.00  0.00     0.047 A 
ATOM     12  N   UNL A   1      34.068  25.613  25.846  1.00  0.00    -0.224 NA
ATOM     13  C   UNL A   1      33.249  25.349  23.200  1.00  0.00     0.016 A 
ATOM     14  C   UNL A   1      32.585  26.276  24.014  1.00  0.00     0.025 A 
BRANCH  10  15
ATOM     15  N   UNL A   1      35.615  23.911  25.607  1.00  0.00    -0.384 N 
ATOM     16  H   UNL A   1      35.637  23.787  26.583  1.00  0.00     0.158 HD
ATOM     17  H   UNL A   1      36.272  23.449  25.037  1.00  0.00     0.158 HD
ENDBRANCH  10  15
BRANCH  14  18
ATOM     18  C   UNL A   1      31.439  27.043  23.509  1.00  0.00     0.038 A 
ATOM     19  C   UNL A   1      31.426  28.239  22.818  1.00  0.00     0.029 A 
ATOM     20  S   UNL A   1      29.841  26.525  23.848  1.00  0.00    -0.135 S 
ATOM     21  C   UNL A   1      30.118  28.814  22.700  1.00  0.00    -0.007 A 
ATOM     22  C   UNL A   1      29.141  27.959  23.211  1.00  0.00     0.035 A 
ATOM     23  C   UNL A   1      29.712  30.067  22.185  1.00  0.00     0.009 A 
ATOM     24  C   UNL A   1      27.776  28.304  23.188  1.00  0.00     0.019 A 
ATOM     25  C   UNL A   1      28.362  30.425  22.183  1.00  0.00     0.001 A 
ATOM     26  C   UNL A   1      27.404  29.547  22.672  1.00  0.00     0.001 A 
ENDBRANCH  14  18
ENDBRANCH   7   9
ENDBRANCH   6   7
ENDBRANCH   5   6
ENDBRANCH   4   5
ENDBRANCH   3   4
ENDBRANCH   2   3
ENDBRANCH   1   2
BRANCH   1  27
ATOM     27  O   UNL A   1      32.947  34.441  29.144  1.00  0.00    -0.376 OA
BRANCH  27  28
ATOM     28  C   UNL A   1      34.112  34.573  29.940  1.00  0.00     0.202 C 
BRANCH  28  29
ATOM     29  C   UNL A   1      34.265  34.045  31.382  1.00  0.00     0.261 C 
BRANCH  29  30
ATOM     30  O   UNL A   1      34.537  32.654  31.572  1.00  0.00    -0.460 OA
BRANCH  30  31
ATOM     31  C   UNL A   1      35.454  32.339  32.517  1.00  0.00     0.338 C 
ATOM     32  O   UNL A   1      35.358  32.477  33.720  1.00  0.00    -0.246 OA
BRANCH  31  33
ATOM     33  C   UNL A   1      36.560  31.616  31.854  1.00  0.00     0.060 A 
ATOM     34  C   UNL A   1      37.533  30.994  32.647  1.00  0.00     0.016 A 
ATOM     35  C   UNL A   1      36.637  31.563  30.462  1.00  0.00     0.016 A 
ATOM     36  C   UNL A   1      38.603  30.330  32.046  1.00  0.00     0.010 A 
ATOM     37  C   UNL A   1      37.721  30.917  29.862  1.00  0.00     0.010 A 
ATOM     38  C   UNL A   1      38.723  30.323  30.650  1.00  0.00    -0.014 A 
BRANCH  38  39
ATOM     39  C   UNL A   1      39.977  29.849  30.017  1.00  0.00     0.031 A 
ATOM     40  C   UNL A   1      41.115  30.820  29.868  1.00  0.00     0.074 A 
ATOM     41  C   UNL A   1      40.107  28.584  29.583  1.00  0.00     0.049 A 
ATOM     42  N   UNL A   1      42.281  30.658  29.295  1.00  0.00    -0.248 NA
ATOM     43  C   UNL A   1      40.906  32.158  30.442  1.00  0.00     0.031 C 
ATOM     44  C   UNL A   1      39.095  27.539  29.706  1.00  0.00     0.029 A 
ATOM     45  N   UNL A   1      41.152  27.970  28.937  1.00  0.00    -0.354 N 
ATOM     46  C   UNL A   1      42.938  31.875  29.429  1.00  0.00     0.074 A 
ATOM     47  C   UNL A   1      42.031  32.773  30.112  1.00  0.00     0.031 C 
ATOM     48  C   UNL A   1      39.563  26.412  29.140  1.00  0.00     0.029 A 
ATOM     49  C   UNL A   1      40.891  26.668  28.586  1.00  0.00     0.049 A 
ATOM     50  H   UNL A   1      42.007  28.420  28.743  1.00  0.00     0.167 HD
ATOM     51  C   UNL A   1      44.185  32.210  29.023  1.00  0.00     0.037 A 
ATOM     52  C   UNL A   1      41.635  25.796  27.877  1.00  0.00     0.037 A 
ATOM     53  C   UNL A   1      45.082  31.315  28.341  1.00  0.00     0.049 A 
ATOM     54  C   UNL A   1      42.990  26.219  27.366  1.00  0.00     0.074 A 
ATOM     55  C   UNL A   1      46.377  31.551  27.916  1.00  0.00     0.029 A 
ATOM     56  N   UNL A   1      44.771  30.015  27.972  1.00  0.00    -0.354 N 
ATOM     57  N   UNL A   1      43.620  27.357  27.526  1.00  0.00    -0.248 NA
ATOM     58  C   UNL A   1      43.737  25.230  26.573  1.00  0.00     0.031 C 
ATOM     59  C   UNL A   1      46.826  30.415  27.234  1.00  0.00     0.029 A 
ATOM     60  C   UNL A   1      45.837  29.447  27.293  1.00  0.00     0.049 A 
ATOM     61  H   UNL A   1      43.917  29.563  28.164  1.00  0.00     0.167 HD
ATOM     62  C   UNL A   1      44.846  27.210  26.887  1.00  0.00     0.074 A 
ATOM     63  C   UNL A   1      44.875  25.868  26.344  1.00  0.00     0.031 C 
ATOM     64  C   UNL A   1      45.858  28.106  26.764  1.00  0.00     0.037 A 
BRANCH  51  65
ATOM     65  C   UNL A   1      44.637  33.620  29.274  1.00  0.00     0.064 A 
ATOM     66  C   UNL A   1      44.383  34.655  28.361  1.00  0.00     0.173 A 
ATOM     67  C   UNL A   1      45.318  33.943  30.457  1.00  0.00     0.173 A 
ATOM     68  F   UNL A   1      43.748  34.397  27.208  1.00  0.00    -0.203 F 
ATOM     69  C   UNL A   1      44.823  35.952  28.608  1.00  0.00     0.198 A 
ATOM     70  C   UNL A   1      45.727  35.249  30.717  1.00  0.00     0.198 A 
ATOM     71  F   UNL A   1      45.583  32.993  31.367  1.00  0.00    -0.203 F 
ATOM     72  F   UNL A   1      44.618  36.913  27.697  1.00  0.00    -0.200 F 
ATOM     73  C   UNL A   1      45.488  36.250  29.788  1.00  0.00     0.200 A 
ATOM     74  F   UNL A   1      46.358  35.536  31.863  1.00  0.00    -0.200 F 
ATOM     75  F   UNL A   1      45.907  37.500  30.026  1.00  0.00    -0.200 F 
ENDBRANCH  51  65
BRANCH  52  76
ATOM     76  C   UNL A   1      41.115  24.430  27.601  1.00  0.00     0.064 A 
ATOM     77  C   UNL A   1      41.667  23.308  28.234  1.00  0.00     0.173 A 
ATOM     78  C   UNL A   1      40.075  24.216  26.686  1.00  0.00     0.173 A 
ATOM     79  F   UNL A   1      42.685  23.458  29.095  1.00  0.00    -0.203 F 
ATOM     80  C   UNL A   1      41.209  22.022  27.949  1.00  0.00     0.198 A 
ATOM     81  C   UNL A   1      39.597  22.933  26.424  1.00  0.00     0.198 A 
ATOM     82  F   UNL A   1      39.518  25.256  26.047  1.00  0.00    -0.203 F 
ATOM     83  F   UNL A   1      41.789  20.964  28.531  1.00  0.00    -0.200 F 
ATOM     84  C   UNL A   1      40.170  21.836  27.051  1.00  0.00     0.200 A 
ATOM     85  F   UNL A   1      38.589  22.759  25.559  1.00  0.00    -0.200 F 
ATOM     86  F   UNL A   1      39.730  20.601  26.778  1.00  0.00    -0.200 F 
ENDBRANCH  52  76
BRANCH  64  87
ATOM     87  C   UNL A   1      47.104  27.655  26.056  1.00  0.00     0.064 A 
ATOM     88  C   UNL A   1      48.190  27.096  26.747  1.00  0.00     0.173 A 
ATOM     89  C   UNL A   1      47.194  27.740  24.657  1.00  0.00     0.173 A 
ATOM     90  F   UNL A   1      48.162  27.004  28.085  1.00  0.00    -0.203 F 
ATOM     91  C   UNL A   1      49.328  26.667  26.068  1.00  0.00     0.198 A 
ATOM     92  C   UNL A   1      48.318  27.278  23.978  1.00  0.00     0.198 A 
ATOM     93  F   UNL A   1      46.180  28.257  23.945  1.00  0.00    -0.203 F 
ATOM     94  F   UNL A   1      50.372  26.183  26.754  1.00  0.00    -0.200 F 
ATOM     95  C   UNL A   1      49.387  26.749  24.685  1.00  0.00     0.200 A 
ATOM     96  F   UNL A   1      48.365  27.343  22.640  1.00  0.00    -0.200 F 
ATOM     97  F   UNL A   1      50.478  26.327  24.032  1.00  0.00    -0.200 F 
ENDBRANCH  64  87
ENDBRANCH  38  39
ENDBRANCH  31  33
ENDBRANCH  30  31
ENDBRANCH  29  30
ENDBRANCH  28  29
ENDBRANCH  27  28
ENDBRANCH   1  27
TORSDOF 19
ENDMDL
MODEL 3
REMARK VINA RESULT:     -11.5      5.600     10.871
REMARK SMILES Nc1ccc(-c2cc3ccccc3s2)c(C(=O)OCCOCCOCCOC(=O)c2ccc(-c3c4nc(c(-c5c(F)c(F)c(F)c(F)c5F)c5ccc([nH]5)c(-c5c(F)c(F)c(F)c(F)c5F)c5nc(c(-c6c(F)c(F)c(F)c(F)c6F)c6ccc3[nH]6)C=C5)C=C4)cc2)n1
REMARK SMILES IDX 23 1 22 2 21 3 20 4 19 5 18 6 16 7 17 8 15 9 2 10 3 11 93 12
REMARK SMILES IDX 4 13 5 14 1 15 6 18 7 19 14 20 8 21 13 22 9 23 12 24 10 25
REMARK SMILES IDX 11 26 24 27 25 28 26 29 27 30 28 31 29 32 30 33 31 34 92 35
REMARK SMILES IDX 32 36 91 37 33 38 34 39 35 40 85 41 36 42 90 43 84 44 86 45
REMARK SMILES IDX 37 46 89 47 83 48 82 49 38 51 70 52 50 53 69 54 51 55 54 56
REMARK SMILES IDX 68 57 87 58 52 59 53 60 67 62 88 63 55 64 39 65 40 66 48 67
REMARK SMILES IDX 41 68 42 69 46 70 49 71 43 72 44 73 47 74 45 75 71 76 72 77
REMARK SMILES IDX 80 78 73 79 74 80 78 81 81 82 75 83 76 84 79 85 77 86 56 87
REMARK SMILES IDX 57 88 65 89 58 90 59 91 63 92 66 93 60 94 61 95 64 96 62 97
REMARK H PARENT 1 16 1 17 86 50 54 61
REMARK Flexibility Score: inf
ROOT
ATOM      1  C   UNL A   1      33.268  33.757  28.009  1.00  0.00     0.188 C 
ENDROOT
BRANCH   1   2
ATOM      2  C   UNL A   1      34.348  32.652  28.006  1.00  0.00     0.188 C 
BRANCH   2   3
ATOM      3  O   UNL A   1      34.004  31.338  27.577  1.00  0.00    -0.376 OA
BRANCH   3   4
ATOM      4  C   UNL A   1      35.019  30.338  27.525  1.00  0.00     0.202 C 
BRANCH   4   5
ATOM      5  C   UNL A   1      34.681  28.960  26.938  1.00  0.00     0.261 C 
BRANCH   5   6
ATOM      6  O   UNL A   1      33.383  28.920  26.326  1.00  0.00    -0.458 OA
BRANCH   6   7
ATOM      7  C   UNL A   1      33.290  28.298  25.122  1.00  0.00     0.357 C 
ATOM      8  O   UNL A   1      33.981  28.518  24.140  1.00  0.00    -0.244 OA
BRANCH   7   9
ATOM      9  C   UNL A   1      32.288  27.191  25.207  1.00  0.00     0.159 A 
ATOM     10  C   UNL A   1      31.907  25.088  26.111  1.00  0.00     0.124 A 
ATOM     11  C   UNL A   1      30.622  25.076  25.598  1.00  0.00     0.047 A 
ATOM     12  N   UNL A   1      32.740  26.119  25.929  1.00  0.00    -0.224 NA
ATOM     13  C   UNL A   1      30.169  26.175  24.866  1.00  0.00     0.016 A 
ATOM     14  C   UNL A   1      30.999  27.286  24.664  1.00  0.00     0.025 A 
BRANCH  10  15
ATOM     15  N   UNL A   1      32.358  24.063  26.917  1.00  0.00    -0.384 N 
ATOM     16  H   UNL A   1      33.256  23.685  26.777  1.00  0.00     0.158 HD
ATOM     17  H   UNL A   1      31.781  23.711  27.634  1.00  0.00     0.158 HD
ENDBRANCH  10  15
BRANCH  14  18
ATOM     18  C   UNL A   1      30.506  28.483  23.970  1.00  0.00     0.038 A 
ATOM     19  C   UNL A   1      30.355  29.769  24.450  1.00  0.00     0.029 A 
ATOM     20  S   UNL A   1      29.921  28.366  22.363  1.00  0.00    -0.135 S 
ATOM     21  C   UNL A   1      29.618  30.624  23.566  1.00  0.00    -0.007 A 
ATOM     22  C   UNL A   1      29.332  29.980  22.361  1.00  0.00     0.035 A 
ATOM     23  C   UNL A   1      29.153  31.947  23.748  1.00  0.00     0.009 A 
ATOM     24  C   UNL A   1      28.630  30.629  21.328  1.00  0.00     0.019 A 
ATOM     25  C   UNL A   1      28.434  32.587  22.735  1.00  0.00     0.001 A 
ATOM     26  C   UNL A   1      28.184  31.937  21.535  1.00  0.00     0.001 A 
ENDBRANCH  14  18
ENDBRANCH   7   9
ENDBRANCH   6   7
ENDBRANCH   5   6
ENDBRANCH   4   5
ENDBRANCH   3   4
ENDBRANCH   2   3
ENDBRANCH   1   2
BRANCH   1  27
ATOM     27  O   UNL A   1      33.133  34.439  29.233  1.00  0.00    -0.376 OA
BRANCH  27  28
ATOM     28  C   UNL A   1      34.224  34.506  30.132  1.00  0.00     0.202 C 
BRANCH  28  29
ATOM     29  C   UNL A   1      34.238  33.912  31.556  1.00  0.00     0.261 C 
BRANCH  29  30
ATOM     30  O   UNL A   1      34.668  32.558  31.725  1.00  0.00    -0.460 OA
BRANCH  30  31
ATOM     31  C   UNL A   1      35.674  32.347  32.607  1.00  0.00     0.338 C 
ATOM     32  O   UNL A   1      35.675  32.572  33.801  1.00  0.00    -0.246 OA
BRANCH  31  33
ATOM     33  C   UNL A   1      36.749  31.617  31.903  1.00  0.00     0.060 A 
ATOM     34  C   UNL A   1      37.709  30.931  32.659  1.00  0.00     0.016 A 
ATOM     35  C   UNL A   1      36.811  31.617  30.509  1.00  0.00     0.016 A 
ATOM     36  C   UNL A   1      38.750  30.258  32.020  1.00  0.00     0.010 A 
ATOM     37  C   UNL A   1      37.867  30.961  29.871  1.00  0.00     0.010 A 
ATOM     38  C   UNL A   1      38.856  30.303  30.624  1.00  0.00    -0.014 A 
BRANCH  38  39
ATOM     39  C   UNL A   1      40.088  29.815  29.958  1.00  0.00     0.031 A 
ATOM     40  C   UNL A   1      41.229  30.776  29.768  1.00  0.00     0.074 A 
ATOM     41  C   UNL A   1      40.196  28.546  29.530  1.00  0.00     0.049 A 
ATOM     42  N   UNL A   1      42.376  30.601  29.163  1.00  0.00    -0.248 NA
ATOM     43  C   UNL A   1      41.046  32.120  30.337  1.00  0.00     0.031 C 
ATOM     44  C   UNL A   1      39.180  27.510  29.691  1.00  0.00     0.029 A 
ATOM     45  N   UNL A   1      41.217  27.919  28.858  1.00  0.00    -0.354 N 
ATOM     46  C   UNL A   1      43.045  31.813  29.268  1.00  0.00     0.074 A 
ATOM     47  C   UNL A   1      42.166  32.723  29.970  1.00  0.00     0.031 C 
ATOM     48  C   UNL A   1      39.622  26.375  29.120  1.00  0.00     0.029 A 
ATOM     49  C   UNL A   1      40.936  26.617  28.525  1.00  0.00     0.049 A 
ATOM     50  H   UNL A   1      42.069  28.361  28.636  1.00  0.00     0.167 HD
ATOM     51  C   UNL A   1      44.282  32.136  28.823  1.00  0.00     0.037 A 
ATOM     52  C   UNL A   1      41.652  25.733  27.803  1.00  0.00     0.037 A 
ATOM     53  C   UNL A   1      45.153  31.229  28.122  1.00  0.00     0.049 A 
ATOM     54  C   UNL A   1      42.995  26.141  27.248  1.00  0.00     0.074 A 
ATOM     55  C   UNL A   1      46.436  31.452  27.658  1.00  0.00     0.029 A 
ATOM     56  N   UNL A   1      44.821  29.929  27.772  1.00  0.00    -0.354 N 
ATOM     57  N   UNL A   1      43.638  27.276  27.381  1.00  0.00    -0.248 NA
ATOM     58  C   UNL A   1      43.710  25.141  26.442  1.00  0.00     0.031 C 
ATOM     59  C   UNL A   1      46.857  30.307  26.972  1.00  0.00     0.029 A 
ATOM     60  C   UNL A   1      45.862  29.347  27.067  1.00  0.00     0.049 A 
ATOM     61  H   UNL A   1      43.970  29.484  27.993  1.00  0.00     0.167 HD
ATOM     62  C   UNL A   1      44.843  27.115  26.708  1.00  0.00     0.074 A 
ATOM     63  C   UNL A   1      44.847  25.769  26.175  1.00  0.00     0.031 C 
ATOM     64  C   UNL A   1      45.858  28.002  26.549  1.00  0.00     0.037 A 
BRANCH  51  65
ATOM     65  C   UNL A   1      44.752  33.544  29.050  1.00  0.00     0.064 A 
ATOM     66  C   UNL A   1      45.430  33.921  30.219  1.00  0.00     0.173 A 
ATOM     67  C   UNL A   1      44.535  34.527  28.072  1.00  0.00     0.173 A 
ATOM     68  F   UNL A   1      45.651  33.023  31.191  1.00  0.00    -0.203 F 
ATOM     69  C   UNL A   1      45.845  35.236  30.414  1.00  0.00     0.198 A 
ATOM     70  C   UNL A   1      44.981  35.833  28.257  1.00  0.00     0.198 A 
ATOM     71  F   UNL A   1      43.895  34.220  26.934  1.00  0.00    -0.203 F 
ATOM     72  F   UNL A   1      46.442  35.585  31.562  1.00  0.00    -0.200 F 
ATOM     73  C   UNL A   1      45.627  36.189  29.431  1.00  0.00     0.200 A 
ATOM     74  F   UNL A   1      44.780  36.749  27.300  1.00  0.00    -0.200 F 
ATOM     75  F   UNL A   1      46.030  37.452  29.619  1.00  0.00    -0.200 F 
ENDBRANCH  51  65
BRANCH  52  76
ATOM     76  C   UNL A   1      41.114  24.369  27.552  1.00  0.00     0.064 A 
ATOM     77  C   UNL A   1      41.693  23.245  28.157  1.00  0.00     0.173 A 
ATOM     78  C   UNL A   1      40.028  24.160  26.690  1.00  0.00     0.173 A 
ATOM     79  F   UNL A   1      42.753  23.391  28.965  1.00  0.00    -0.203 F 
ATOM     80  C   UNL A   1      41.217  21.961  27.895  1.00  0.00     0.198 A 
ATOM     81  C   UNL A   1      39.534  22.878  26.452  1.00  0.00     0.198 A 
ATOM     82  F   UNL A   1      39.444  25.201  26.080  1.00  0.00    -0.203 F 
ATOM     83  F   UNL A   1      41.821  20.900  28.447  1.00  0.00    -0.200 F 
ATOM     84  C   UNL A   1      40.133  21.779  27.049  1.00  0.00     0.200 A 
ATOM     85  F   UNL A   1      38.483  22.709  25.638  1.00  0.00    -0.200 F 
ATOM     86  F   UNL A   1      39.675  20.546  26.798  1.00  0.00    -0.200 F 
ENDBRANCH  52  76
BRANCH  64  87
ATOM     87  C   UNL A   1      47.079  27.535  25.808  1.00  0.00     0.064 A 
ATOM     88  C   UNL A   1      47.207  27.685  24.419  1.00  0.00     0.173 A 
ATOM     89  C   UNL A   1      48.159  26.972  26.507  1.00  0.00     0.173 A 
ATOM     90  F   UNL A   1      46.200  28.204  23.701  1.00  0.00    -0.203 F 
ATOM     91  C   UNL A   1      48.357  27.263  23.755  1.00  0.00     0.198 A 
ATOM     92  C   UNL A   1      49.321  26.584  25.845  1.00  0.00     0.198 A 
ATOM     93  F   UNL A   1      48.095  26.814  27.838  1.00  0.00    -0.203 F 
ATOM     94  F   UNL A   1      48.435  27.370  22.422  1.00  0.00    -0.200 F 
ATOM     95  C   UNL A   1      49.415  26.722  24.469  1.00  0.00     0.200 A 
ATOM     96  F   UNL A   1      50.349  26.076  26.540  1.00  0.00    -0.200 F 
ATOM     97  F   UNL A   1      50.524  26.326  23.830  1.00  0.00    -0.200 F 
ENDBRANCH  64  87
ENDBRANCH  38  39
ENDBRANCH  31  33
ENDBRANCH  30  31
ENDBRANCH  29  30
ENDBRANCH  28  29
ENDBRANCH  27  28
ENDBRANCH   1  27
TORSDOF 19
ENDMDL
