MODEL 1
REMARK VINA RESULT:     -10.6      0.000      0.000
REMARK SMILES C[C@@H]([NH2+][C@H]1CCOC2(CCOCC2)C1)C(=O)OCCOCCOCCOC(=O)c1ccc(-c2c3nc(c(-c4c(F)c(F)c(F)c(F)c4F)c4ccc([nH]4)c(-c4c(F)c(F)c(F)c(F)c4F)c4nc(c(-c5c(F)c(F)c(F)c(F)c5F)c5ccc2[nH]5)C=C4)C=C3)cc1
REMARK SMILES IDX 21 1 20 2 19 3 18 4 17 5 15 6 16 7 2 8 1 9 3 10 4 13 5 14
REMARK SMILES IDX 14 15 6 16 8 17 7 18 9 19 13 20 10 21 12 22 11 23 22 24
REMARK SMILES IDX 23 25 24 26 25 27 26 28 27 29 28 30 29 31 30 32 91 33 31 34
REMARK SMILES IDX 90 35 32 36 33 37 34 38 84 39 35 40 89 41 83 42 85 43 36 44
REMARK SMILES IDX 88 45 82 46 81 47 37 49 69 50 49 51 68 52 50 53 53 54 67 55
REMARK SMILES IDX 86 56 51 57 52 58 66 60 87 61 54 62 38 63 39 64 47 65 40 66
REMARK SMILES IDX 41 67 45 68 48 69 42 70 43 71 46 72 44 73 70 74 71 75 79 76
REMARK SMILES IDX 72 77 73 78 77 79 80 80 74 81 75 82 78 83 76 84 55 85 56 86
REMARK SMILES IDX 64 87 57 88 58 89 62 90 65 91 59 92 60 93 63 94 61 95
REMARK H PARENT 3 11 3 12 85 48 53 59
REMARK Flexibility Score: inf
ROOT
ATOM      1  C   UNL A   1      36.655  22.987  23.856  1.00  0.00     0.188 C 
ENDROOT
BRANCH   1   2
ATOM      2  O   UNL A   1      35.660  23.441  22.977  1.00  0.00    -0.376 OA
BRANCH   2   3
ATOM      3  C   UNL A   1      34.316  23.072  23.154  1.00  0.00     0.202 C 
BRANCH   3   4
ATOM      4  C   UNL A   1      33.197  23.126  22.092  1.00  0.00     0.261 C 
BRANCH   4   5
ATOM      5  O   UNL A   1      32.202  24.154  22.032  1.00  0.00    -0.459 OA
BRANCH   5   6
ATOM      6  C   UNL A   1      32.640  25.375  21.631  1.00  0.00     0.364 C 
ATOM      7  O   UNL A   1      33.274  25.555  20.593  1.00  0.00    -0.245 OA
BRANCH   6   8
ATOM      8  C   UNL A   1      32.355  26.535  22.592  1.00  0.00     0.290 C 
ATOM      9  C   UNL A   1      31.030  27.230  22.264  1.00  0.00     0.088 C 
BRANCH   8  10
ATOM     10  N   UNL A   1      32.380  26.119  24.009  1.00  0.00    -0.332 N 
ATOM     11  H   UNL A   1      33.248  25.602  24.148  1.00  0.00     0.347 HD
ATOM     12  H   UNL A   1      31.506  25.605  24.118  1.00  0.00     0.347 HD
BRANCH  10  13
ATOM     13  C   UNL A   1      32.312  27.138  25.079  1.00  0.00     0.188 C 
ATOM     14  C   UNL A   1      31.532  26.819  26.359  1.00  0.00     0.093 C 
ATOM     15  C   UNL A   1      33.700  27.674  25.479  1.00  0.00     0.100 C 
ATOM     16  C   UNL A   1      31.568  27.855  27.451  1.00  0.00     0.167 C 
ATOM     17  C   UNL A   1      33.545  28.818  26.507  1.00  0.00     0.078 C 
ATOM     18  O   UNL A   1      32.887  28.300  27.676  1.00  0.00    -0.374 OA
ATOM     19  C   UNL A   1      32.793  30.029  25.913  1.00  0.00     0.064 C 
ATOM     20  C   UNL A   1      34.903  29.310  27.022  1.00  0.00     0.064 C 
ATOM     21  C   UNL A   1      32.681  31.142  26.940  1.00  0.00     0.163 C 
ATOM     22  C   UNL A   1      34.684  30.466  28.001  1.00  0.00     0.163 C 
ATOM     23  O   UNL A   1      33.978  31.539  27.374  1.00  0.00    -0.381 OA
ENDBRANCH  10  13
ENDBRANCH   8  10
ENDBRANCH   6   8
ENDBRANCH   5   6
ENDBRANCH   4   5
ENDBRANCH   3   4
ENDBRANCH   2   3
ENDBRANCH   1   2
BRANCH   1  24
ATOM     24  C   UNL A   1      36.102  22.711  25.267  1.00  0.00     0.188 C 
BRANCH  24  25
ATOM     25  O   UNL A   1      36.241  21.415  25.830  1.00  0.00    -0.376 OA
BRANCH  25  26
ATOM     26  C   UNL A   1      36.780  20.397  25.001  1.00  0.00     0.202 C 
BRANCH  26  27
ATOM     27  C   UNL A   1      38.217  19.888  25.256  1.00  0.00     0.261 C 
BRANCH  27  28
ATOM     28  O   UNL A   1      39.264  20.879  25.372  1.00  0.00    -0.460 OA
BRANCH  28  29
ATOM     29  C   UNL A   1      40.024  20.846  26.501  1.00  0.00     0.338 C 
ATOM     30  O   UNL A   1      40.603  19.879  26.958  1.00  0.00    -0.246 OA
BRANCH  29  31
ATOM     31  C   UNL A   1      40.260  22.232  27.011  1.00  0.00     0.060 A 
ATOM     32  C   UNL A   1      39.483  23.289  26.498  1.00  0.00     0.016 A 
ATOM     33  C   UNL A   1      41.267  22.508  27.933  1.00  0.00     0.016 A 
ATOM     34  C   UNL A   1      39.721  24.613  26.884  1.00  0.00     0.010 A 
ATOM     35  C   UNL A   1      41.536  23.842  28.283  1.00  0.00     0.010 A 
ATOM     36  C   UNL A   1      40.788  24.906  27.736  1.00  0.00    -0.014 A 
BRANCH  36  37
ATOM     37  C   UNL A   1      41.278  26.305  27.875  1.00  0.00     0.031 A 
ATOM     38  C   UNL A   1      42.662  26.627  27.371  1.00  0.00     0.074 A 
ATOM     39  C   UNL A   1      40.538  27.279  28.436  1.00  0.00     0.049 A 
ATOM     40  N   UNL A   1      43.372  27.717  27.508  1.00  0.00    -0.248 NA
ATOM     41  C   UNL A   1      43.337  25.559  26.616  1.00  0.00     0.031 C 
ATOM     42  C   UNL A   1      39.163  27.136  28.903  1.00  0.00     0.029 A 
ATOM     43  N   UNL A   1      40.861  28.584  28.731  1.00  0.00    -0.354 N 
ATOM     44  C   UNL A   1      44.586  27.457  26.883  1.00  0.00     0.074 A 
ATOM     45  C   UNL A   1      44.521  26.101  26.383  1.00  0.00     0.031 C 
ATOM     46  C   UNL A   1      38.771  28.294  29.462  1.00  0.00     0.029 A 
ATOM     47  C   UNL A   1      39.882  29.247  29.429  1.00  0.00     0.049 A 
ATOM     48  H   UNL A   1      41.713  29.001  28.467  1.00  0.00     0.167 HD
ATOM     49  C   UNL A   1      45.658  28.272  26.739  1.00  0.00     0.037 A 
ATOM     50  C   UNL A   1      39.897  30.465  30.011  1.00  0.00     0.037 A 
ATOM     51  C   UNL A   1      45.722  29.623  27.234  1.00  0.00     0.049 A 
ATOM     52  C   UNL A   1      41.132  31.329  29.913  1.00  0.00     0.074 A 
ATOM     53  C   UNL A   1      46.756  30.536  27.113  1.00  0.00     0.029 A 
ATOM     54  N   UNL A   1      44.717  30.250  27.953  1.00  0.00    -0.354 N 
ATOM     55  N   UNL A   1      42.271  31.086  29.311  1.00  0.00    -0.248 NA
ATOM     56  C   UNL A   1      41.083  32.640  30.581  1.00  0.00     0.031 C 
ATOM     57  C   UNL A   1      46.403  31.691  27.819  1.00  0.00     0.029 A 
ATOM     58  C   UNL A   1      45.120  31.526  28.315  1.00  0.00     0.049 A 
ATOM     59  H   UNL A   1      43.845  29.849  28.174  1.00  0.00     0.167 HD
ATOM     60  C   UNL A   1      43.056  32.219  29.496  1.00  0.00     0.074 A 
ATOM     61  C   UNL A   1      42.261  33.155  30.260  1.00  0.00     0.031 C 
ATOM     62  C   UNL A   1      44.320  32.459  29.068  1.00  0.00     0.037 A 
BRANCH  49  63
ATOM     63  C   UNL A   1      46.873  27.708  26.059  1.00  0.00     0.064 A 
ATOM     64  C   UNL A   1      47.014  27.714  24.662  1.00  0.00     0.173 A 
ATOM     65  C   UNL A   1      47.923  27.173  26.819  1.00  0.00     0.173 A 
ATOM     66  F   UNL A   1      46.035  28.202  23.886  1.00  0.00    -0.203 F 
ATOM     67  C   UNL A   1      48.145  27.174  24.054  1.00  0.00     0.198 A 
ATOM     68  C   UNL A   1      49.068  26.667  26.210  1.00  0.00     0.198 A 
ATOM     69  F   UNL A   1      47.844  27.147  28.159  1.00  0.00    -0.203 F 
ATOM     70  F   UNL A   1      48.231  27.139  22.717  1.00  0.00    -0.200 F 
ATOM     71  C   UNL A   1      49.173  26.658  24.828  1.00  0.00     0.200 A 
ATOM     72  F   UNL A   1      50.068  26.185  26.961  1.00  0.00    -0.200 F 
ATOM     73  F   UNL A   1      50.264  26.145  24.241  1.00  0.00    -0.200 F 
ENDBRANCH  49  63
BRANCH  50  74
ATOM     74  C   UNL A   1      38.710  30.935  30.779  1.00  0.00     0.064 A 
ATOM     75  C   UNL A   1      37.658  31.615  30.147  1.00  0.00     0.173 A 
ATOM     76  C   UNL A   1      38.615  30.738  32.165  1.00  0.00     0.173 A 
ATOM     77  F   UNL A   1      37.716  31.860  28.829  1.00  0.00    -0.203 F 
ATOM     78  C   UNL A   1      36.568  32.093  30.873  1.00  0.00     0.198 A 
ATOM     79  C   UNL A   1      37.509  31.187  32.884  1.00  0.00     0.198 A 
ATOM     80  F   UNL A   1      39.597  30.104  32.822  1.00  0.00    -0.203 F 
ATOM     81  F   UNL A   1      35.605  32.786  30.252  1.00  0.00    -0.200 F 
ATOM     82  C   UNL A   1      36.491  31.871  32.240  1.00  0.00     0.200 A 
ATOM     83  F   UNL A   1      37.435  30.962  34.203  1.00  0.00    -0.200 F 
ATOM     84  F   UNL A   1      35.441  32.327  32.937  1.00  0.00    -0.200 F 
ENDBRANCH  50  74
BRANCH  62  85
ATOM     85  C   UNL A   1      44.918  33.808  29.366  1.00  0.00     0.064 A 
ATOM     86  C   UNL A   1      45.698  34.038  30.509  1.00  0.00     0.173 A 
ATOM     87  C   UNL A   1      44.756  34.869  28.461  1.00  0.00     0.173 A 
ATOM     88  F   UNL A   1      45.875  33.063  31.413  1.00  0.00    -0.203 F 
ATOM     89  C   UNL A   1      46.275  35.285  30.745  1.00  0.00     0.198 A 
ATOM     90  C   UNL A   1      45.362  36.103  28.682  1.00  0.00     0.198 A 
ATOM     91  F   UNL A   1      44.028  34.702  27.346  1.00  0.00    -0.203 F 
ATOM     92  F   UNL A   1      46.979  35.494  31.866  1.00  0.00    -0.200 F 
ATOM     93  C   UNL A   1      46.114  36.313  29.828  1.00  0.00     0.200 A 
ATOM     94  F   UNL A   1      45.220  37.088  27.785  1.00  0.00    -0.200 F 
ATOM     95  F   UNL A   1      46.681  37.507  30.050  1.00  0.00    -0.200 F 
ENDBRANCH  62  85
ENDBRANCH  36  37
ENDBRANCH  29  31
ENDBRANCH  28  29
ENDBRANCH  27  28
ENDBRANCH  26  27
ENDBRANCH  25  26
ENDBRANCH  24  25
ENDBRANCH   1  24
TORSDOF 19
ENDMDL
MODEL 2
REMARK VINA RESULT:     -10.6      4.360      6.395
REMARK SMILES C[C@@H]([NH2+][C@H]1CCOC2(CCOCC2)C1)C(=O)OCCOCCOCCOC(=O)c1ccc(-c2c3nc(c(-c4c(F)c(F)c(F)c(F)c4F)c4ccc([nH]4)c(-c4c(F)c(F)c(F)c(F)c4F)c4nc(c(-c5c(F)c(F)c(F)c(F)c5F)c5ccc2[nH]5)C=C4)C=C3)cc1
REMARK SMILES IDX 21 1 20 2 19 3 18 4 17 5 15 6 16 7 2 8 1 9 3 10 4 13 5 14
REMARK SMILES IDX 14 15 6 16 8 17 7 18 9 19 13 20 10 21 12 22 11 23 22 24
REMARK SMILES IDX 23 25 24 26 25 27 26 28 27 29 28 30 29 31 30 32 91 33 31 34
REMARK SMILES IDX 90 35 32 36 33 37 34 38 84 39 35 40 89 41 83 42 85 43 36 44
REMARK SMILES IDX 88 45 82 46 81 47 37 49 69 50 49 51 68 52 50 53 53 54 67 55
REMARK SMILES IDX 86 56 51 57 52 58 66 60 87 61 54 62 38 63 39 64 47 65 40 66
REMARK SMILES IDX 41 67 45 68 48 69 42 70 43 71 46 72 44 73 70 74 71 75 79 76
REMARK SMILES IDX 72 77 73 78 77 79 80 80 74 81 75 82 78 83 76 84 55 85 56 86
REMARK SMILES IDX 64 87 57 88 58 89 62 90 65 91 59 92 60 93 63 94 61 95
REMARK H PARENT 3 11 3 12 85 48 53 59
REMARK Flexibility Score: inf
ROOT
ATOM      1  C   UNL A   1      38.957  21.492  25.754  1.00  0.00     0.188 C 
ENDROOT
BRANCH   1   2
ATOM      2  O   UNL A   1      37.579  21.683  25.566  1.00  0.00    -0.376 OA
BRANCH   2   3
ATOM      3  C   UNL A   1      37.096  22.784  24.841  1.00  0.00     0.202 C 
BRANCH   3   4
ATOM      4  C   UNL A   1      35.924  23.707  25.237  1.00  0.00     0.261 C 
BRANCH   4   5
ATOM      5  O   UNL A   1      34.944  23.375  26.228  1.00  0.00    -0.459 OA
BRANCH   5   6
ATOM      6  C   UNL A   1      33.810  22.793  25.761  1.00  0.00     0.364 C 
ATOM      7  O   UNL A   1      33.726  22.276  24.649  1.00  0.00    -0.245 OA
BRANCH   6   8
ATOM      8  C   UNL A   1      32.589  22.872  26.687  1.00  0.00     0.290 C 
ATOM      9  C   UNL A   1      32.902  22.326  28.083  1.00  0.00     0.088 C 
BRANCH   8  10
ATOM     10  N   UNL A   1      32.035  24.238  26.781  1.00  0.00    -0.332 N 
ATOM     11  H   UNL A   1      32.610  24.742  27.455  1.00  0.00     0.347 HD
ATOM     12  H   UNL A   1      31.058  24.078  27.026  1.00  0.00     0.347 HD
BRANCH  10  13
ATOM     13  C   UNL A   1      31.950  25.085  25.571  1.00  0.00     0.188 C 
ATOM     14  C   UNL A   1      30.587  25.651  25.157  1.00  0.00     0.093 C 
ATOM     15  C   UNL A   1      32.971  26.238  25.580  1.00  0.00     0.100 C 
ATOM     16  C   UNL A   1      30.571  26.578  23.970  1.00  0.00     0.167 C 
ATOM     17  C   UNL A   1      32.910  27.003  24.238  1.00  0.00     0.078 C 
ATOM     18  O   UNL A   1      31.590  27.547  24.078  1.00  0.00    -0.374 OA
ATOM     19  C   UNL A   1      33.313  26.107  23.045  1.00  0.00     0.064 C 
ATOM     20  C   UNL A   1      33.830  28.230  24.239  1.00  0.00     0.064 C 
ATOM     21  C   UNL A   1      33.266  26.897  21.749  1.00  0.00     0.163 C 
ATOM     22  C   UNL A   1      33.757  28.919  22.874  1.00  0.00     0.163 C 
ATOM     23  O   UNL A   1      34.137  28.020  21.829  1.00  0.00    -0.381 OA
ENDBRANCH  10  13
ENDBRANCH   8  10
ENDBRANCH   6   8
ENDBRANCH   5   6
ENDBRANCH   4   5
ENDBRANCH   3   4
ENDBRANCH   2   3
ENDBRANCH   1   2
BRANCH   1  24
ATOM     24  C   UNL A   1      39.371  20.021  25.563  1.00  0.00     0.188 C 
BRANCH  24  25
ATOM     25  O   UNL A   1      40.548  19.539  26.193  1.00  0.00    -0.376 OA
BRANCH  25  26
ATOM     26  C   UNL A   1      41.435  20.501  26.742  1.00  0.00     0.202 C 
BRANCH  26  27
ATOM     27  C   UNL A   1      42.778  20.790  26.033  1.00  0.00     0.261 C 
BRANCH  27  28
ATOM     28  O   UNL A   1      43.403  22.069  26.288  1.00  0.00    -0.460 OA
BRANCH  28  29
ATOM     29  C   UNL A   1      43.110  23.084  25.428  1.00  0.00     0.338 C 
ATOM     30  O   UNL A   1      43.125  23.032  24.214  1.00  0.00    -0.246 OA
BRANCH  29  31
ATOM     31  C   UNL A   1      42.529  24.244  26.171  1.00  0.00     0.060 A 
ATOM     32  C   UNL A   1      43.206  25.479  26.145  1.00  0.00     0.016 A 
ATOM     33  C   UNL A   1      41.370  24.116  26.933  1.00  0.00     0.016 A 
ATOM     34  C   UNL A   1      42.746  26.571  26.889  1.00  0.00     0.010 A 
ATOM     35  C   UNL A   1      40.935  25.198  27.717  1.00  0.00     0.010 A 
ATOM     36  C   UNL A   1      41.638  26.421  27.727  1.00  0.00    -0.014 A 
BRANCH  36  37
ATOM     37  C   UNL A   1      41.348  27.435  28.779  1.00  0.00     0.031 A 
ATOM     38  C   UNL A   1      42.186  27.417  30.032  1.00  0.00     0.074 A 
ATOM     39  C   UNL A   1      40.369  28.349  28.654  1.00  0.00     0.049 A 
ATOM     40  N   UNL A   1      42.041  28.085  31.148  1.00  0.00    -0.248 NA
ATOM     41  C   UNL A   1      43.344  26.508  30.021  1.00  0.00     0.031 C 
ATOM     42  C   UNL A   1      39.527  28.532  27.477  1.00  0.00     0.029 A 
ATOM     43  N   UNL A   1      39.904  29.283  29.551  1.00  0.00    -0.354 N 
ATOM     44  C   UNL A   1      43.068  27.657  31.980  1.00  0.00     0.074 A 
ATOM     45  C   UNL A   1      43.818  26.660  31.247  1.00  0.00     0.031 C 
ATOM     46  C   UNL A   1      38.621  29.491  27.736  1.00  0.00     0.029 A 
ATOM     47  C   UNL A   1      38.792  29.960  29.111  1.00  0.00     0.049 A 
ATOM     48  H   UNL A   1      40.327  29.449  30.424  1.00  0.00     0.167 HD
ATOM     49  C   UNL A   1      43.361  28.056  33.240  1.00  0.00     0.037 A 
ATOM     50  C   UNL A   1      37.983  30.824  29.759  1.00  0.00     0.037 A 
ATOM     51  C   UNL A   1      42.618  29.051  33.970  1.00  0.00     0.049 A 
ATOM     52  C   UNL A   1      38.276  31.196  31.194  1.00  0.00     0.074 A 
ATOM     53  C   UNL A   1      42.855  29.541  35.243  1.00  0.00     0.029 A 
ATOM     54  N   UNL A   1      41.487  29.698  33.497  1.00  0.00    -0.354 N 
ATOM     55  N   UNL A   1      39.255  30.800  31.972  1.00  0.00    -0.248 NA
ATOM     56  C   UNL A   1      37.346  32.134  31.843  1.00  0.00     0.031 C 
ATOM     57  C   UNL A   1      41.827  30.433  35.565  1.00  0.00     0.029 A 
ATOM     58  C   UNL A   1      40.993  30.556  34.466  1.00  0.00     0.049 A 
ATOM     59  H   UNL A   1      41.094  29.567  32.603  1.00  0.00     0.167 HD
ATOM     60  C   UNL A   1      39.079  31.463  33.181  1.00  0.00     0.074 A 
ATOM     61  C   UNL A   1      37.905  32.295  33.033  1.00  0.00     0.031 C 
ATOM     62  C   UNL A   1      39.828  31.391  34.310  1.00  0.00     0.037 A 
BRANCH  49  63
ATOM     63  C   UNL A   1      44.510  27.380  33.934  1.00  0.00     0.064 A 
ATOM     64  C   UNL A   1      45.812  27.904  33.900  1.00  0.00     0.173 A 
ATOM     65  C   UNL A   1      44.299  26.200  34.663  1.00  0.00     0.173 A 
ATOM     66  F   UNL A   1      46.073  29.023  33.208  1.00  0.00    -0.203 F 
ATOM     67  C   UNL A   1      46.863  27.252  34.541  1.00  0.00     0.198 A 
ATOM     68  C   UNL A   1      45.345  25.571  35.333  1.00  0.00     0.198 A 
ATOM     69  F   UNL A   1      43.073  25.659  34.734  1.00  0.00    -0.203 F 
ATOM     70  F   UNL A   1      48.108  27.740  34.447  1.00  0.00    -0.200 F 
ATOM     71  C   UNL A   1      46.628  26.091  35.262  1.00  0.00     0.200 A 
ATOM     72  F   UNL A   1      45.111  24.459  36.043  1.00  0.00    -0.200 F 
ATOM     73  F   UNL A   1      47.639  25.469  35.884  1.00  0.00    -0.200 F 
ENDBRANCH  49  63
BRANCH  50  74
ATOM     74  C   UNL A   1      36.785  31.379  29.069  1.00  0.00     0.064 A 
ATOM     75  C   UNL A   1      36.737  32.720  28.661  1.00  0.00     0.173 A 
ATOM     76  C   UNL A   1      35.653  30.587  28.826  1.00  0.00     0.173 A 
ATOM     77  F   UNL A   1      37.779  33.530  28.901  1.00  0.00    -0.203 F 
ATOM     78  C   UNL A   1      35.599  33.250  28.055  1.00  0.00     0.198 A 
ATOM     79  C   UNL A   1      34.529  31.108  28.190  1.00  0.00     0.198 A 
ATOM     80  F   UNL A   1      35.641  29.300  29.205  1.00  0.00    -0.203 F 
ATOM     81  F   UNL A   1      35.561  34.548  27.725  1.00  0.00    -0.200 F 
ATOM     82  C   UNL A   1      34.499  32.441  27.812  1.00  0.00     0.200 A 
ATOM     83  F   UNL A   1      33.472  30.320  27.950  1.00  0.00    -0.200 F 
ATOM     84  F   UNL A   1      33.407  32.949  27.225  1.00  0.00    -0.200 F 
ENDBRANCH  50  74
BRANCH  62  85
ATOM     85  C   UNL A   1      39.439  32.268  35.469  1.00  0.00     0.064 A 
ATOM     86  C   UNL A   1      38.588  31.817  36.489  1.00  0.00     0.173 A 
ATOM     87  C   UNL A   1      39.975  33.560  35.589  1.00  0.00     0.173 A 
ATOM     88  F   UNL A   1      38.037  30.595  36.419  1.00  0.00    -0.203 F 
ATOM     89  C   UNL A   1      38.272  32.634  37.573  1.00  0.00     0.198 A 
ATOM     90  C   UNL A   1      39.685  34.360  36.691  1.00  0.00     0.198 A 
ATOM     91  F   UNL A   1      40.802  34.039  34.648  1.00  0.00    -0.203 F 
ATOM     92  F   UNL A   1      37.422  32.198  38.513  1.00  0.00    -0.200 F 
ATOM     93  C   UNL A   1      38.828  33.900  37.678  1.00  0.00     0.200 A 
ATOM     94  F   UNL A   1      40.239  35.576  36.799  1.00  0.00    -0.200 F 
ATOM     95  F   UNL A   1      38.534  34.679  38.729  1.00  0.00    -0.200 F 
ENDBRANCH  62  85
ENDBRANCH  36  37
ENDBRANCH  29  31
ENDBRANCH  28  29
ENDBRANCH  27  28
ENDBRANCH  26  27
ENDBRANCH  25  26
ENDBRANCH  24  25
ENDBRANCH   1  24
TORSDOF 19
ENDMDL
MODEL 3
REMARK VINA RESULT:     -10.3      0.671      7.409
REMARK SMILES C[C@@H]([NH2+][C@H]1CCOC2(CCOCC2)C1)C(=O)OCCOCCOCCOC(=O)c1ccc(-c2c3nc(c(-c4c(F)c(F)c(F)c(F)c4F)c4ccc([nH]4)c(-c4c(F)c(F)c(F)c(F)c4F)c4nc(c(-c5c(F)c(F)c(F)c(F)c5F)c5ccc2[nH]5)C=C4)C=C3)cc1
REMARK SMILES IDX 21 1 20 2 19 3 18 4 17 5 15 6 16 7 2 8 1 9 3 10 4 13 5 14
REMARK SMILES IDX 14 15 6 16 8 17 7 18 9 19 13 20 10 21 12 22 11 23 22 24
REMARK SMILES IDX 23 25 24 26 25 27 26 28 27 29 28 30 29 31 30 32 91 33 31 34
REMARK SMILES IDX 90 35 32 36 33 37 34 38 84 39 35 40 89 41 83 42 85 43 36 44
REMARK SMILES IDX 88 45 82 46 81 47 37 49 69 50 49 51 68 52 50 53 53 54 67 55
REMARK SMILES IDX 86 56 51 57 52 58 66 60 87 61 54 62 38 63 39 64 47 65 40 66
REMARK SMILES IDX 41 67 45 68 48 69 42 70 43 71 46 72 44 73 70 74 71 75 79 76
REMARK SMILES IDX 72 77 73 78 77 79 80 80 74 81 75 82 78 83 76 84 55 85 56 86
REMARK SMILES IDX 64 87 57 88 58 89 62 90 65 91 59 92 60 93 63 94 61 95
REMARK H PARENT 3 11 3 12 85 48 53 59
REMARK Flexibility Score: inf
ROOT
ATOM      1  C   UNL A   1      36.167  23.215  24.154  1.00  0.00     0.188 C 
ENDROOT
BRANCH   1   2
ATOM      2  O   UNL A   1      35.170  23.375  23.179  1.00  0.00    -0.376 OA
BRANCH   2   3
ATOM      3  C   UNL A   1      33.849  23.686  23.541  1.00  0.00     0.202 C 
BRANCH   3   4
ATOM      4  C   UNL A   1      32.580  23.441  22.698  1.00  0.00     0.261 C 
BRANCH   4   5
ATOM      5  O   UNL A   1      31.786  24.486  22.125  1.00  0.00    -0.459 OA
BRANCH   5   6
ATOM      6  C   UNL A   1      32.447  25.639  21.843  1.00  0.00     0.364 C 
ATOM      7  O   UNL A   1      33.278  25.735  20.942  1.00  0.00    -0.245 OA
BRANCH   6   8
ATOM      8  C   UNL A   1      32.146  26.825  22.767  1.00  0.00     0.290 C 
ATOM      9  C   UNL A   1      30.947  27.638  22.272  1.00  0.00     0.088 C 
BRANCH   8  10
ATOM     10  N   UNL A   1      31.944  26.414  24.171  1.00  0.00    -0.332 N 
ATOM     11  H   UNL A   1      32.608  25.662  24.356  1.00  0.00     0.347 HD
ATOM     12  H   UNL A   1      30.951  26.181  24.207  1.00  0.00     0.347 HD
BRANCH  10  13
ATOM     13  C   UNL A   1      32.101  27.403  25.260  1.00  0.00     0.188 C 
ATOM     14  C   UNL A   1      31.312  27.209  26.559  1.00  0.00     0.093 C 
ATOM     15  C   UNL A   1      33.576  27.657  25.623  1.00  0.00     0.100 C 
ATOM     16  C   UNL A   1      31.576  28.194  27.667  1.00  0.00     0.167 C 
ATOM     17  C   UNL A   1      33.671  28.786  26.675  1.00  0.00     0.078 C 
ATOM     18  O   UNL A   1      32.961  28.376  27.855  1.00  0.00    -0.374 OA
ATOM     19  C   UNL A   1      33.146  30.131  26.125  1.00  0.00     0.064 C 
ATOM     20  C   UNL A   1      35.112  29.000  27.153  1.00  0.00     0.064 C 
ATOM     21  C   UNL A   1      33.278  31.221  27.175  1.00  0.00     0.163 C 
ATOM     22  C   UNL A   1      35.146  30.154  28.159  1.00  0.00     0.163 C 
ATOM     23  O   UNL A   1      34.639  31.355  27.572  1.00  0.00    -0.381 OA
ENDBRANCH  10  13
ENDBRANCH   8  10
ENDBRANCH   6   8
ENDBRANCH   5   6
ENDBRANCH   4   5
ENDBRANCH   3   4
ENDBRANCH   2   3
ENDBRANCH   1   2
BRANCH   1  24
ATOM     24  C   UNL A   1      35.589  22.765  25.509  1.00  0.00     0.188 C 
BRANCH  24  25
ATOM     25  O   UNL A   1      35.776  21.425  25.937  1.00  0.00    -0.376 OA
BRANCH  25  26
ATOM     26  C   UNL A   1      36.327  20.512  25.001  1.00  0.00     0.202 C 
BRANCH  26  27
ATOM     27  C   UNL A   1      37.839  20.192  25.049  1.00  0.00     0.261 C 
BRANCH  27  28
ATOM     28  O   UNL A   1      38.739  21.276  25.376  1.00  0.00    -0.460 OA
BRANCH  28  29
ATOM     29  C   UNL A   1      39.636  21.054  26.376  1.00  0.00     0.338 C 
ATOM     30  O   UNL A   1      40.141  19.989  26.674  1.00  0.00    -0.246 OA
BRANCH  29  31
ATOM     31  C   UNL A   1      40.118  22.352  26.941  1.00  0.00     0.060 A 
ATOM     32  C   UNL A   1      39.606  23.556  26.417  1.00  0.00     0.016 A 
ATOM     33  C   UNL A   1      41.102  22.399  27.926  1.00  0.00     0.016 A 
ATOM     34  C   UNL A   1      40.085  24.796  26.856  1.00  0.00     0.010 A 
ATOM     35  C   UNL A   1      41.615  23.642  28.331  1.00  0.00     0.010 A 
ATOM     36  C   UNL A   1      41.135  24.847  27.776  1.00  0.00    -0.014 A 
BRANCH  36  37
ATOM     37  C   UNL A   1      41.890  26.113  27.985  1.00  0.00     0.031 A 
ATOM     38  C   UNL A   1      41.216  27.225  28.748  1.00  0.00     0.074 A 
ATOM     39  C   UNL A   1      43.137  26.299  27.514  1.00  0.00     0.049 A 
ATOM     40  N   UNL A   1      41.594  28.464  28.935  1.00  0.00    -0.248 NA
ATOM     41  C   UNL A   1      39.931  26.885  29.379  1.00  0.00     0.031 C 
ATOM     42  C   UNL A   1      43.939  25.296  26.822  1.00  0.00     0.029 A 
ATOM     43  N   UNL A   1      43.935  27.420  27.529  1.00  0.00    -0.354 N 
ATOM     44  C   UNL A   1      40.581  29.059  29.677  1.00  0.00     0.074 A 
ATOM     45  C   UNL A   1      39.566  28.050  29.892  1.00  0.00     0.031 C 
ATOM     46  C   UNL A   1      45.101  25.856  26.442  1.00  0.00     0.029 A 
ATOM     47  C   UNL A   1      45.107  27.268  26.828  1.00  0.00     0.049 A 
ATOM     48  H   UNL A   1      43.690  28.250  27.996  1.00  0.00     0.167 HD
ATOM     49  C   UNL A   1      40.502  30.329  30.138  1.00  0.00     0.037 A 
ATOM     50  C   UNL A   1      46.053  28.173  26.500  1.00  0.00     0.037 A 
ATOM     51  C   UNL A   1      41.512  31.334  29.928  1.00  0.00     0.049 A 
ATOM     52  C   UNL A   1      45.908  29.607  26.951  1.00  0.00     0.074 A 
ATOM     53  C   UNL A   1      41.533  32.643  30.380  1.00  0.00     0.029 A 
ATOM     54  N   UNL A   1      42.674  31.145  29.197  1.00  0.00    -0.354 N 
ATOM     55  N   UNL A   1      44.957  30.162  27.664  1.00  0.00    -0.248 NA
ATOM     56  C   UNL A   1      46.969  30.544  26.548  1.00  0.00     0.031 C 
ATOM     57  C   UNL A   1      42.675  33.264  29.863  1.00  0.00     0.029 A 
ATOM     58  C   UNL A   1      43.402  32.323  29.153  1.00  0.00     0.049 A 
ATOM     59  H   UNL A   1      42.943  30.298  28.771  1.00  0.00     0.167 HD
ATOM     60  C   UNL A   1      45.321  31.495  27.823  1.00  0.00     0.074 A 
ATOM     61  C   UNL A   1      46.585  31.666  27.140  1.00  0.00     0.031 C 
ATOM     62  C   UNL A   1      44.667  32.485  28.479  1.00  0.00     0.037 A 
BRANCH  49  63
ATOM     63  C   UNL A   1      39.254  30.724  30.877  1.00  0.00     0.064 A 
ATOM     64  C   UNL A   1      39.096  30.486  32.252  1.00  0.00     0.173 A 
ATOM     65  C   UNL A   1      38.208  31.371  30.201  1.00  0.00     0.173 A 
ATOM     66  F   UNL A   1      40.059  29.860  32.944  1.00  0.00    -0.203 F 
ATOM     67  C   UNL A   1      37.925  30.850  32.912  1.00  0.00     0.198 A 
ATOM     68  C   UNL A   1      37.054  31.766  30.872  1.00  0.00     0.198 A 
ATOM     69  F   UNL A   1      38.309  31.629  28.889  1.00  0.00    -0.203 F 
ATOM     70  F   UNL A   1      37.773  30.560  34.211  1.00  0.00    -0.200 F 
ATOM     71  C   UNL A   1      36.908  31.496  32.223  1.00  0.00     0.200 A 
ATOM     72  F   UNL A   1      36.081  32.406  30.208  1.00  0.00    -0.200 F 
ATOM     73  F   UNL A   1      35.785  31.851  32.862  1.00  0.00    -0.200 F 
ENDBRANCH  49  63
BRANCH  50  74
ATOM     74  C   UNL A   1      47.215  27.763  25.663  1.00  0.00     0.064 A 
ATOM     75  C   UNL A   1      48.420  27.347  26.248  1.00  0.00     0.173 A 
ATOM     76  C   UNL A   1      47.153  27.803  24.262  1.00  0.00     0.173 A 
ATOM     77  F   UNL A   1      48.544  27.325  27.583  1.00  0.00    -0.203 F 
ATOM     78  C   UNL A   1      49.522  27.005  25.464  1.00  0.00     0.198 A 
ATOM     79  C   UNL A   1      48.243  27.429  23.480  1.00  0.00     0.198 A 
ATOM     80  F   UNL A   1      46.028  28.204  23.651  1.00  0.00    -0.203 F 
ATOM     81  F   UNL A   1      50.678  26.665  26.050  1.00  0.00    -0.200 F 
ATOM     82  C   UNL A   1      49.430  27.039  24.081  1.00  0.00     0.200 A 
ATOM     83  F   UNL A   1      48.146  27.454  22.144  1.00  0.00    -0.200 F 
ATOM     84  F   UNL A   1      50.487  26.705  23.328  1.00  0.00    -0.200 F 
ENDBRANCH  50  74
BRANCH  62  85
ATOM     85  C   UNL A   1      45.321  33.839  28.541  1.00  0.00     0.064 A 
ATOM     86  C   UNL A   1      45.030  34.848  27.610  1.00  0.00     0.173 A 
ATOM     87  C   UNL A   1      46.207  34.149  29.586  1.00  0.00     0.173 A 
ATOM     88  F   UNL A   1      44.200  34.602  26.585  1.00  0.00    -0.203 F 
ATOM     89  C   UNL A   1      45.619  36.107  27.710  1.00  0.00     0.198 A 
ATOM     90  C   UNL A   1      46.766  35.419  29.702  1.00  0.00     0.198 A 
ATOM     91  F   UNL A   1      46.513  33.226  30.509  1.00  0.00    -0.203 F 
ATOM     92  F   UNL A   1      45.361  37.040  26.784  1.00  0.00    -0.200 F 
ATOM     93  C   UNL A   1      46.478  36.394  28.760  1.00  0.00     0.200 A 
ATOM     94  F   UNL A   1      47.581  35.699  30.728  1.00  0.00    -0.200 F 
ATOM     95  F   UNL A   1      47.032  37.611  28.862  1.00  0.00    -0.200 F 
ENDBRANCH  62  85
ENDBRANCH  36  37
ENDBRANCH  29  31
ENDBRANCH  28  29
ENDBRANCH  27  28
ENDBRANCH  26  27
ENDBRANCH  25  26
ENDBRANCH  24  25
ENDBRANCH   1  24
TORSDOF 19
ENDMDL
