MODEL 1
REMARK VINA RESULT:     -10.3      0.000      0.000
REMARK SMILES CC[C@@H](C)[C@H](NC(=O)CCc1ccc(F)c(F)c1)C(=O)OCCOCCOCCOC(=O)c1ccc(-c2c3nc(c(-c4c(F)c(F)c(F)c(F)c4F)c4ccc([nH]4)c(-c4c(F)c(F)c(F)c(F)c4F)c4nc(c(-c5c(F)c(F)c(F)c(F)c5F)c5ccc2[nH]5)C=C4)C=C3)cc1
REMARK SMILES IDX 25 1 24 2 23 3 22 4 21 5 19 6 20 7 5 8 3 9 4 10 2 11 1 12
REMARK SMILES IDX 6 13 7 14 8 16 9 17 10 18 11 19 12 20 18 21 13 22 16 23
REMARK SMILES IDX 14 24 17 25 15 26 26 27 27 28 28 29 29 30 30 31 31 32 32 33
REMARK SMILES IDX 33 34 34 35 95 36 35 37 94 38 36 39 37 40 38 41 88 42 39 43
REMARK SMILES IDX 93 44 87 45 89 46 40 47 92 48 86 49 85 50 41 52 73 53 53 54
REMARK SMILES IDX 72 55 54 56 57 57 71 58 90 59 55 60 56 61 70 63 91 64 58 65
REMARK SMILES IDX 42 66 43 67 51 68 44 69 45 70 49 71 52 72 46 73 47 74 50 75
REMARK SMILES IDX 48 76 74 77 75 78 83 79 76 80 77 81 81 82 84 83 78 84 79 85
REMARK SMILES IDX 82 86 80 87 59 88 60 89 68 90 61 91 62 92 66 93 69 94 63 95
REMARK SMILES IDX 64 96 67 97 65 98
REMARK H PARENT 6 15 89 51 57 62
REMARK Flexibility Score: inf
ROOT
ATOM      1  C   UNL A   1      40.079  21.505  26.448  1.00  0.00     0.188 C 
ENDROOT
BRANCH   1   2
ATOM      2  O   UNL A   1      39.070  22.494  26.622  1.00  0.00    -0.376 OA
BRANCH   2   3
ATOM      3  C   UNL A   1      37.968  22.524  25.721  1.00  0.00     0.202 C 
BRANCH   3   4
ATOM      4  C   UNL A   1      37.025  23.718  25.852  1.00  0.00     0.261 C 
BRANCH   4   5
ATOM      5  O   UNL A   1      36.392  24.088  24.608  1.00  0.00    -0.462 OA
BRANCH   5   6
ATOM      6  C   UNL A   1      35.261  23.401  24.308  1.00  0.00     0.328 C 
ATOM      7  O   UNL A   1      35.224  22.423  23.567  1.00  0.00    -0.250 OA
BRANCH   6   8
ATOM      8  C   UNL A   1      33.969  24.036  24.860  1.00  0.00     0.195 C 
BRANCH   8   9
ATOM      9  C   UNL A   1      34.019  25.558  24.542  1.00  0.00     0.019 C 
ATOM     10  C   UNL A   1      33.853  26.423  25.800  1.00  0.00     0.010 C 
BRANCH   9  11
ATOM     11  C   UNL A   1      32.974  25.940  23.476  1.00  0.00     0.002 C 
ATOM     12  C   UNL A   1      32.058  27.060  23.945  1.00  0.00     0.004 C 
ENDBRANCH   9  11
ENDBRANCH   8   9
BRANCH   8  13
ATOM     13  N   UNL A   1      33.497  23.811  26.232  1.00  0.00    -0.343 N 
ATOM     14  C   UNL A   1      32.724  22.772  26.673  1.00  0.00     0.221 C 
ATOM     15  H   UNL A   1      33.765  24.479  26.905  1.00  0.00     0.164 HD
ATOM     16  O   UNL A   1      31.892  22.985  27.555  1.00  0.00    -0.275 OA
BRANCH  14  17
ATOM     17  C   UNL A   1      32.988  21.359  26.187  1.00  0.00     0.105 C 
BRANCH  17  18
ATOM     18  C   UNL A   1      32.205  20.882  24.960  1.00  0.00     0.045 C 
BRANCH  18  19
ATOM     19  C   UNL A   1      32.853  19.702  24.276  1.00  0.00    -0.044 A 
ATOM     20  C   UNL A   1      32.203  19.038  23.218  1.00  0.00     0.007 A 
ATOM     21  C   UNL A   1      34.064  19.189  24.758  1.00  0.00     0.046 A 
ATOM     22  C   UNL A   1      32.693  17.823  22.739  1.00  0.00     0.043 A 
ATOM     23  C   UNL A   1      34.546  17.976  24.273  1.00  0.00     0.159 A 
ATOM     24  C   UNL A   1      33.853  17.287  23.287  1.00  0.00     0.158 A 
ATOM     25  F   UNL A   1      35.656  17.452  24.812  1.00  0.00    -0.204 F 
ATOM     26  F   UNL A   1      34.288  16.092  22.867  1.00  0.00    -0.204 F 
ENDBRANCH  18  19
ENDBRANCH  17  18
ENDBRANCH  14  17
ENDBRANCH   8  13
ENDBRANCH   6   8
ENDBRANCH   5   6
ENDBRANCH   4   5
ENDBRANCH   3   4
ENDBRANCH   2   3
ENDBRANCH   1   2
BRANCH   1  27
ATOM     27  C   UNL A   1      41.550  21.885  26.698  1.00  0.00     0.188 C 
BRANCH  27  28
ATOM     28  O   UNL A   1      42.321  20.795  27.171  1.00  0.00    -0.376 OA
BRANCH  28  29
ATOM     29  C   UNL A   1      41.870  19.510  26.784  1.00  0.00     0.202 C 
BRANCH  29  30
ATOM     30  C   UNL A   1      42.886  18.768  25.911  1.00  0.00     0.261 C 
BRANCH  30  31
ATOM     31  O   UNL A   1      43.175  19.401  24.650  1.00  0.00    -0.460 OA
BRANCH  31  32
ATOM     32  C   UNL A   1      44.481  19.542  24.335  1.00  0.00     0.338 C 
ATOM     33  O   UNL A   1      45.201  18.727  23.789  1.00  0.00    -0.246 OA
BRANCH  32  34
ATOM     34  C   UNL A   1      44.880  20.933  24.630  1.00  0.00     0.060 A 
ATOM     35  C   UNL A   1      45.514  21.205  25.846  1.00  0.00     0.016 A 
ATOM     36  C   UNL A   1      44.578  21.968  23.747  1.00  0.00     0.016 A 
ATOM     37  C   UNL A   1      45.831  22.518  26.198  1.00  0.00     0.010 A 
ATOM     38  C   UNL A   1      44.877  23.288  24.106  1.00  0.00     0.010 A 
ATOM     39  C   UNL A   1      45.481  23.572  25.345  1.00  0.00    -0.014 A 
BRANCH  39  40
ATOM     40  C   UNL A   1      45.584  24.976  25.817  1.00  0.00     0.031 A 
ATOM     41  C   UNL A   1      46.909  25.679  25.701  1.00  0.00     0.074 A 
ATOM     42  C   UNL A   1      44.517  25.639  26.298  1.00  0.00     0.049 A 
ATOM     43  N   UNL A   1      47.274  26.850  26.160  1.00  0.00    -0.248 NA
ATOM     44  C   UNL A   1      47.962  24.966  24.960  1.00  0.00     0.031 C 
ATOM     45  C   UNL A   1      43.158  25.109  26.373  1.00  0.00     0.029 A 
ATOM     46  N   UNL A   1      44.413  26.908  26.814  1.00  0.00    -0.354 N 
ATOM     47  C   UNL A   1      48.603  27.002  25.782  1.00  0.00     0.074 A 
ATOM     48  C   UNL A   1      48.982  25.806  25.063  1.00  0.00     0.031 C 
ATOM     49  C   UNL A   1      42.355  26.047  26.903  1.00  0.00     0.029 A 
ATOM     50  C   UNL A   1      43.152  27.221  27.256  1.00  0.00     0.049 A 
ATOM     51  H   UNL A   1      45.173  27.534  26.862  1.00  0.00     0.167 HD
ATOM     52  C   UNL A   1      49.430  28.048  26.017  1.00  0.00     0.037 A 
ATOM     53  C   UNL A   1      42.703  28.315  27.906  1.00  0.00     0.037 A 
ATOM     54  C   UNL A   1      49.048  29.241  26.722  1.00  0.00     0.049 A 
ATOM     55  C   UNL A   1      43.665  29.425  28.243  1.00  0.00     0.074 A 
ATOM     56  C   UNL A   1      49.825  30.341  27.040  1.00  0.00     0.029 A 
ATOM     57  N   UNL A   1      47.777  29.492  27.215  1.00  0.00    -0.354 N 
ATOM     58  N   UNL A   1      44.937  29.535  27.947  1.00  0.00    -0.248 NA
ATOM     59  C   UNL A   1      43.134  30.554  29.023  1.00  0.00     0.031 C 
ATOM     60  C   UNL A   1      49.032  31.243  27.756  1.00  0.00     0.029 A 
ATOM     61  C   UNL A   1      47.750  30.723  27.847  1.00  0.00     0.049 A 
ATOM     62  H   UNL A   1      47.007  28.884  27.128  1.00  0.00     0.167 HD
ATOM     63  C   UNL A   1      45.355  30.744  28.490  1.00  0.00     0.074 A 
ATOM     64  C   UNL A   1      44.197  31.340  29.122  1.00  0.00     0.031 C 
ATOM     65  C   UNL A   1      46.589  31.306  28.469  1.00  0.00     0.037 A 
BRANCH  52  66
ATOM     66  C   UNL A   1      50.845  27.933  25.535  1.00  0.00     0.064 A 
ATOM     67  C   UNL A   1      51.147  28.116  24.177  1.00  0.00     0.173 A 
ATOM     68  C   UNL A   1      51.894  27.603  26.404  1.00  0.00     0.173 A 
ATOM     69  F   UNL A   1      50.177  28.432  23.306  1.00  0.00    -0.203 F 
ATOM     70  C   UNL A   1      52.447  27.964  23.706  1.00  0.00     0.198 A 
ATOM     71  C   UNL A   1      53.199  27.477  25.932  1.00  0.00     0.198 A 
ATOM     72  F   UNL A   1      51.659  27.436  27.714  1.00  0.00    -0.203 F 
ATOM     73  F   UNL A   1      52.708  28.123  22.400  1.00  0.00    -0.200 F 
ATOM     74  C   UNL A   1      53.472  27.649  24.583  1.00  0.00     0.200 A 
ATOM     75  F   UNL A   1      54.194  27.197  26.786  1.00  0.00    -0.200 F 
ATOM     76  F   UNL A   1      54.727  27.518  24.131  1.00  0.00    -0.200 F 
ENDBRANCH  52  66
BRANCH  53  77
ATOM     77  C   UNL A   1      41.274  28.397  28.309  1.00  0.00     0.064 A 
ATOM     78  C   UNL A   1      40.307  28.947  27.453  1.00  0.00     0.173 A 
ATOM     79  C   UNL A   1      40.848  27.935  29.560  1.00  0.00     0.173 A 
ATOM     80  F   UNL A   1      40.660  29.394  26.239  1.00  0.00    -0.203 F 
ATOM     81  C   UNL A   1      38.976  29.058  27.847  1.00  0.00     0.198 A 
ATOM     82  C   UNL A   1      39.511  28.023  29.944  1.00  0.00     0.198 A 
ATOM     83  F   UNL A   1      41.729  27.371  30.401  1.00  0.00    -0.203 F 
ATOM     84  F   UNL A   1      38.080  29.619  27.023  1.00  0.00    -0.200 F 
ATOM     85  C   UNL A   1      38.577  28.594  29.092  1.00  0.00     0.200 A 
ATOM     86  F   UNL A   1      39.124  27.546  31.135  1.00  0.00    -0.200 F 
ATOM     87  F   UNL A   1      37.294  28.689  29.465  1.00  0.00    -0.200 F 
ENDBRANCH  53  77
BRANCH  65  88
ATOM     88  C   UNL A   1      46.762  32.639  29.132  1.00  0.00     0.064 A 
ATOM     89  C   UNL A   1      46.602  33.825  28.400  1.00  0.00     0.173 A 
ATOM     90  C   UNL A   1      47.179  32.742  30.467  1.00  0.00     0.173 A 
ATOM     91  F   UNL A   1      46.215  33.779  27.116  1.00  0.00    -0.203 F 
ATOM     92  C   UNL A   1      46.870  35.064  28.974  1.00  0.00     0.198 A 
ATOM     93  C   UNL A   1      47.422  33.984  31.046  1.00  0.00     0.198 A 
ATOM     94  F   UNL A   1      47.335  31.637  31.212  1.00  0.00    -0.203 F 
ATOM     95  F   UNL A   1      46.745  36.181  28.245  1.00  0.00    -0.200 F 
ATOM     96  C   UNL A   1      47.278  35.143  30.298  1.00  0.00     0.200 A 
ATOM     97  F   UNL A   1      47.798  34.061  32.330  1.00  0.00    -0.200 F 
ATOM     98  F   UNL A   1      47.532  36.337  30.851  1.00  0.00    -0.200 F 
ENDBRANCH  65  88
ENDBRANCH  39  40
ENDBRANCH  32  34
ENDBRANCH  31  32
ENDBRANCH  30  31
ENDBRANCH  29  30
ENDBRANCH  28  29
ENDBRANCH  27  28
ENDBRANCH   1  27
TORSDOF 23
ENDMDL
MODEL 2
REMARK VINA RESULT:     -10.2      5.408      8.442
REMARK SMILES CC[C@@H](C)[C@H](NC(=O)CCc1ccc(F)c(F)c1)C(=O)OCCOCCOCCOC(=O)c1ccc(-c2c3nc(c(-c4c(F)c(F)c(F)c(F)c4F)c4ccc([nH]4)c(-c4c(F)c(F)c(F)c(F)c4F)c4nc(c(-c5c(F)c(F)c(F)c(F)c5F)c5ccc2[nH]5)C=C4)C=C3)cc1
REMARK SMILES IDX 25 1 24 2 23 3 22 4 21 5 19 6 20 7 5 8 3 9 4 10 2 11 1 12
REMARK SMILES IDX 6 13 7 14 8 16 9 17 10 18 11 19 12 20 18 21 13 22 16 23
REMARK SMILES IDX 14 24 17 25 15 26 26 27 27 28 28 29 29 30 30 31 31 32 32 33
REMARK SMILES IDX 33 34 34 35 95 36 35 37 94 38 36 39 37 40 38 41 88 42 39 43
REMARK SMILES IDX 93 44 87 45 89 46 40 47 92 48 86 49 85 50 41 52 73 53 53 54
REMARK SMILES IDX 72 55 54 56 57 57 71 58 90 59 55 60 56 61 70 63 91 64 58 65
REMARK SMILES IDX 42 66 43 67 51 68 44 69 45 70 49 71 52 72 46 73 47 74 50 75
REMARK SMILES IDX 48 76 74 77 75 78 83 79 76 80 77 81 81 82 84 83 78 84 79 85
REMARK SMILES IDX 82 86 80 87 59 88 60 89 68 90 61 91 62 92 66 93 69 94 63 95
REMARK SMILES IDX 64 96 67 97 65 98
REMARK H PARENT 6 15 89 51 57 62
REMARK Flexibility Score: inf
ROOT
ATOM      1  C   UNL A   1      41.317  21.186  27.294  1.00  0.00     0.188 C 
ENDROOT
BRANCH   1   2
ATOM      2  O   UNL A   1      40.096  21.892  27.097  1.00  0.00    -0.376 OA
BRANCH   2   3
ATOM      3  C   UNL A   1      39.306  21.603  25.949  1.00  0.00     0.202 C 
BRANCH   3   4
ATOM      4  C   UNL A   1      38.113  22.523  25.704  1.00  0.00     0.261 C 
BRANCH   4   5
ATOM      5  O   UNL A   1      36.868  21.994  26.209  1.00  0.00    -0.462 OA
BRANCH   5   6
ATOM      6  C   UNL A   1      36.039  21.470  25.270  1.00  0.00     0.328 C 
ATOM      7  O   UNL A   1      36.200  20.372  24.745  1.00  0.00    -0.250 OA
BRANCH   6   8
ATOM      8  C   UNL A   1      34.935  22.432  24.791  1.00  0.00     0.195 C 
BRANCH   8   9
ATOM      9  C   UNL A   1      33.634  22.081  25.570  1.00  0.00     0.019 C 
ATOM     10  C   UNL A   1      33.578  22.758  26.947  1.00  0.00     0.010 C 
BRANCH   9  11
ATOM     11  C   UNL A   1      33.457  20.556  25.704  1.00  0.00     0.002 C 
ATOM     12  C   UNL A   1      32.424  20.010  24.731  1.00  0.00     0.004 C 
ENDBRANCH   9  11
ENDBRANCH   8   9
BRANCH   8  13
ATOM     13  N   UNL A   1      34.640  22.660  23.371  1.00  0.00    -0.343 N 
ATOM     14  C   UNL A   1      33.611  23.400  22.855  1.00  0.00     0.221 C 
ATOM     15  H   UNL A   1      35.247  22.235  22.722  1.00  0.00     0.164 HD
ATOM     16  O   UNL A   1      33.077  23.025  21.811  1.00  0.00    -0.275 OA
BRANCH  14  17
ATOM     17  C   UNL A   1      33.234  24.730  23.481  1.00  0.00     0.105 C 
BRANCH  17  18
ATOM     18  C   UNL A   1      33.668  26.000  22.743  1.00  0.00     0.045 C 
BRANCH  18  19
ATOM     19  C   UNL A   1      33.040  27.250  23.314  1.00  0.00    -0.044 A 
ATOM     20  C   UNL A   1      33.798  28.142  24.095  1.00  0.00     0.007 A 
ATOM     21  C   UNL A   1      31.667  27.480  23.157  1.00  0.00     0.046 A 
ATOM     22  C   UNL A   1      33.171  29.169  24.802  1.00  0.00     0.043 A 
ATOM     23  C   UNL A   1      31.052  28.508  23.865  1.00  0.00     0.159 A 
ATOM     24  C   UNL A   1      31.794  29.333  24.699  1.00  0.00     0.158 A 
ATOM     25  F   UNL A   1      29.722  28.656  23.778  1.00  0.00    -0.204 F 
ATOM     26  F   UNL A   1      31.188  30.281  25.425  1.00  0.00    -0.204 F 
ENDBRANCH  18  19
ENDBRANCH  17  18
ENDBRANCH  14  17
ENDBRANCH   8  13
ENDBRANCH   6   8
ENDBRANCH   5   6
ENDBRANCH   4   5
ENDBRANCH   3   4
ENDBRANCH   2   3
ENDBRANCH   1   2
BRANCH   1  27
ATOM     27  C   UNL A   1      41.628  19.966  26.409  1.00  0.00     0.188 C 
BRANCH  27  28
ATOM     28  O   UNL A   1      42.643  20.228  25.457  1.00  0.00    -0.376 OA
BRANCH  28  29
ATOM     29  C   UNL A   1      43.571  21.237  25.811  1.00  0.00     0.202 C 
BRANCH  29  30
ATOM     30  C   UNL A   1      43.762  22.276  24.702  1.00  0.00     0.261 C 
BRANCH  30  31
ATOM     31  O   UNL A   1      43.047  23.510  24.901  1.00  0.00    -0.460 OA
BRANCH  31  32
ATOM     32  C   UNL A   1      43.799  24.613  25.104  1.00  0.00     0.338 C 
ATOM     33  O   UNL A   1      44.833  24.916  24.540  1.00  0.00    -0.246 OA
BRANCH  32  34
ATOM     34  C   UNL A   1      43.078  25.499  26.041  1.00  0.00     0.060 A 
ATOM     35  C   UNL A   1      43.362  26.867  26.023  1.00  0.00     0.016 A 
ATOM     36  C   UNL A   1      42.179  24.978  26.971  1.00  0.00     0.016 A 
ATOM     37  C   UNL A   1      42.764  27.724  26.949  1.00  0.00     0.010 A 
ATOM     38  C   UNL A   1      41.593  25.833  27.913  1.00  0.00     0.010 A 
ATOM     39  C   UNL A   1      41.903  27.205  27.924  1.00  0.00    -0.014 A 
BRANCH  39  40
ATOM     40  C   UNL A   1      41.464  28.058  29.058  1.00  0.00     0.031 A 
ATOM     41  C   UNL A   1      42.283  28.058  30.319  1.00  0.00     0.074 A 
ATOM     42  C   UNL A   1      40.385  28.857  28.962  1.00  0.00     0.049 A 
ATOM     43  N   UNL A   1      42.030  28.614  31.477  1.00  0.00    -0.248 NA
ATOM     44  C   UNL A   1      43.564  27.336  30.263  1.00  0.00     0.031 C 
ATOM     45  C   UNL A   1      39.564  29.025  27.767  1.00  0.00     0.029 A 
ATOM     46  N   UNL A   1      39.799  29.679  29.894  1.00  0.00    -0.354 N 
ATOM     47  C   UNL A   1      43.109  28.292  32.290  1.00  0.00     0.074 A 
ATOM     48  C   UNL A   1      44.015  27.488  31.500  1.00  0.00     0.031 C 
ATOM     49  C   UNL A   1      38.579  29.900  28.036  1.00  0.00     0.029 A 
ATOM     50  C   UNL A   1      38.668  30.309  29.438  1.00  0.00     0.049 A 
ATOM     51  H   UNL A   1      40.158  29.805  30.802  1.00  0.00     0.167 HD
ATOM     52  C   UNL A   1      43.322  28.637  33.582  1.00  0.00     0.037 A 
ATOM     53  C   UNL A   1      37.785  31.093  30.090  1.00  0.00     0.037 A 
ATOM     54  C   UNL A   1      42.426  29.446  34.363  1.00  0.00     0.049 A 
ATOM     55  C   UNL A   1      37.990  31.384  31.554  1.00  0.00     0.074 A 
ATOM     56  C   UNL A   1      42.538  29.821  35.690  1.00  0.00     0.029 A 
ATOM     57  N   UNL A   1      41.254  30.009  33.885  1.00  0.00    -0.354 N 
ATOM     58  N   UNL A   1      38.974  31.020  32.340  1.00  0.00    -0.248 NA
ATOM     59  C   UNL A   1      36.952  32.178  32.229  1.00  0.00     0.031 C 
ATOM     60  C   UNL A   1      41.414  30.583  36.025  1.00  0.00     0.029 A 
ATOM     61  C   UNL A   1      40.625  30.718  34.894  1.00  0.00     0.049 A 
ATOM     62  H   UNL A   1      40.918  29.919  32.963  1.00  0.00     0.167 HD
ATOM     63  C   UNL A   1      38.683  31.547  33.591  1.00  0.00     0.074 A 
ATOM     64  C   UNL A   1      37.436  32.270  33.460  1.00  0.00     0.031 C 
ATOM     65  C   UNL A   1      39.385  31.437  34.747  1.00  0.00     0.037 A 
BRANCH  52  66
ATOM     66  C   UNL A   1      44.560  28.110  34.245  1.00  0.00     0.064 A 
ATOM     67  C   UNL A   1      44.538  26.870  34.899  1.00  0.00     0.173 A 
ATOM     68  C   UNL A   1      45.753  28.846  34.267  1.00  0.00     0.173 A 
ATOM     69  F   UNL A   1      43.420  26.129  34.907  1.00  0.00    -0.203 F 
ATOM     70  C   UNL A   1      45.664  26.390  35.561  1.00  0.00     0.198 A 
ATOM     71  C   UNL A   1      46.886  28.351  34.909  1.00  0.00     0.198 A 
ATOM     72  F   UNL A   1      45.829  30.029  33.639  1.00  0.00    -0.203 F 
ATOM     73  F   UNL A   1      45.614  25.212  36.199  1.00  0.00    -0.200 F 
ATOM     74  C   UNL A   1      46.838  27.127  35.562  1.00  0.00     0.200 A 
ATOM     75  F   UNL A   1      48.027  29.053  34.887  1.00  0.00    -0.200 F 
ATOM     76  F   UNL A   1      47.926  26.657  36.186  1.00  0.00    -0.200 F 
ENDBRANCH  52  66
BRANCH  53  77
ATOM     77  C   UNL A   1      36.605  31.635  29.364  1.00  0.00     0.064 A 
ATOM     78  C   UNL A   1      35.552  30.799  28.962  1.00  0.00     0.173 A 
ATOM     79  C   UNL A   1      36.511  32.997  29.052  1.00  0.00     0.173 A 
ATOM     80  F   UNL A   1      35.588  29.489  29.246  1.00  0.00    -0.203 F 
ATOM     81  C   UNL A   1      34.465  31.301  28.249  1.00  0.00     0.198 A 
ATOM     82  C   UNL A   1      35.411  33.503  28.362  1.00  0.00     0.198 A 
ATOM     83  F   UNL A   1      37.477  33.842  29.443  1.00  0.00    -0.203 F 
ATOM     84  F   UNL A   1      33.490  30.474  27.848  1.00  0.00    -0.200 F 
ATOM     85  C   UNL A   1      34.394  32.654  27.951  1.00  0.00     0.200 A 
ATOM     86  F   UNL A   1      35.331  34.815  28.101  1.00  0.00    -0.200 F 
ATOM     87  F   UNL A   1      33.343  33.138  27.277  1.00  0.00    -0.200 F 
ENDBRANCH  53  77
BRANCH  65  88
ATOM     88  C   UNL A   1      38.840  32.122  35.964  1.00  0.00     0.064 A 
ATOM     89  C   UNL A   1      39.160  33.461  36.231  1.00  0.00     0.173 A 
ATOM     90  C   UNL A   1      38.081  31.425  36.916  1.00  0.00     0.173 A 
ATOM     91  F   UNL A   1      39.893  34.167  35.356  1.00  0.00    -0.203 F 
ATOM     92  C   UNL A   1      38.754  34.074  37.413  1.00  0.00     0.198 A 
ATOM     93  C   UNL A   1      37.656  32.048  38.086  1.00  0.00     0.198 A 
ATOM     94  F   UNL A   1      37.741  30.145  36.701  1.00  0.00    -0.203 F 
ATOM     95  F   UNL A   1      39.102  35.344  37.662  1.00  0.00    -0.200 F 
ATOM     96  C   UNL A   1      38.001  33.367  38.338  1.00  0.00     0.200 A 
ATOM     97  F   UNL A   1      36.912  31.371  38.972  1.00  0.00    -0.200 F 
ATOM     98  F   UNL A   1      37.608  33.959  39.475  1.00  0.00    -0.200 F 
ENDBRANCH  65  88
ENDBRANCH  39  40
ENDBRANCH  32  34
ENDBRANCH  31  32
ENDBRANCH  30  31
ENDBRANCH  29  30
ENDBRANCH  28  29
ENDBRANCH  27  28
ENDBRANCH   1  27
TORSDOF 23
ENDMDL
MODEL 3
REMARK VINA RESULT:     -10.1      2.235      3.950
REMARK SMILES CC[C@@H](C)[C@H](NC(=O)CCc1ccc(F)c(F)c1)C(=O)OCCOCCOCCOC(=O)c1ccc(-c2c3nc(c(-c4c(F)c(F)c(F)c(F)c4F)c4ccc([nH]4)c(-c4c(F)c(F)c(F)c(F)c4F)c4nc(c(-c5c(F)c(F)c(F)c(F)c5F)c5ccc2[nH]5)C=C4)C=C3)cc1
REMARK SMILES IDX 25 1 24 2 23 3 22 4 21 5 19 6 20 7 5 8 3 9 4 10 2 11 1 12
REMARK SMILES IDX 6 13 7 14 8 16 9 17 10 18 11 19 12 20 18 21 13 22 16 23
REMARK SMILES IDX 14 24 17 25 15 26 26 27 27 28 28 29 29 30 30 31 31 32 32 33
REMARK SMILES IDX 33 34 34 35 95 36 35 37 94 38 36 39 37 40 38 41 88 42 39 43
REMARK SMILES IDX 93 44 87 45 89 46 40 47 92 48 86 49 85 50 41 52 73 53 53 54
REMARK SMILES IDX 72 55 54 56 57 57 71 58 90 59 55 60 56 61 70 63 91 64 58 65
REMARK SMILES IDX 42 66 43 67 51 68 44 69 45 70 49 71 52 72 46 73 47 74 50 75
REMARK SMILES IDX 48 76 74 77 75 78 83 79 76 80 77 81 81 82 84 83 78 84 79 85
REMARK SMILES IDX 82 86 80 87 59 88 60 89 68 90 61 91 62 92 66 93 69 94 63 95
REMARK SMILES IDX 64 96 67 97 65 98
REMARK H PARENT 6 15 89 51 57 62
REMARK Flexibility Score: inf
ROOT
ATOM      1  C   UNL A   1      39.787  21.118  26.107  1.00  0.00     0.188 C 
ENDROOT
BRANCH   1   2
ATOM      2  O   UNL A   1      38.798  22.142  26.074  1.00  0.00    -0.376 OA
BRANCH   2   3
ATOM      3  C   UNL A   1      37.465  21.806  25.703  1.00  0.00     0.202 C 
BRANCH   3   4
ATOM      4  C   UNL A   1      36.421  22.904  25.880  1.00  0.00     0.261 C 
BRANCH   4   5
ATOM      5  O   UNL A   1      35.105  22.523  25.424  1.00  0.00    -0.462 OA
BRANCH   5   6
ATOM      6  C   UNL A   1      34.226  22.192  26.404  1.00  0.00     0.328 C 
ATOM      7  O   UNL A   1      34.475  22.257  27.604  1.00  0.00    -0.250 OA
BRANCH   6   8
ATOM      8  C   UNL A   1      32.909  21.575  25.892  1.00  0.00     0.195 C 
BRANCH   8   9
ATOM      9  C   UNL A   1      33.105  21.230  24.388  1.00  0.00     0.019 C 
ATOM     10  C   UNL A   1      32.307  22.164  23.466  1.00  0.00     0.010 C 
BRANCH   9  11
ATOM     11  C   UNL A   1      32.757  19.756  24.103  1.00  0.00     0.002 C 
ATOM     12  C   UNL A   1      32.899  18.883  25.339  1.00  0.00     0.004 C 
ENDBRANCH   9  11
ENDBRANCH   8   9
BRANCH   8  13
ATOM     13  N   UNL A   1      31.600  22.202  26.112  1.00  0.00    -0.343 N 
ATOM     14  C   UNL A   1      31.363  23.453  26.611  1.00  0.00     0.221 C 
ATOM     15  H   UNL A   1      30.809  21.665  25.875  1.00  0.00     0.164 HD
ATOM     16  O   UNL A   1      30.380  23.628  27.332  1.00  0.00    -0.275 OA
BRANCH  14  17
ATOM     17  C   UNL A   1      32.215  24.630  26.170  1.00  0.00     0.105 C 
BRANCH  17  18
ATOM     18  C   UNL A   1      31.503  25.780  25.453  1.00  0.00     0.045 C 
BRANCH  18  19
ATOM     19  C   UNL A   1      32.199  27.107  25.643  1.00  0.00    -0.044 A 
ATOM     20  C   UNL A   1      33.522  27.162  26.122  1.00  0.00     0.007 A 
ATOM     21  C   UNL A   1      31.498  28.304  25.444  1.00  0.00     0.046 A 
ATOM     22  C   UNL A   1      34.083  28.380  26.508  1.00  0.00     0.043 A 
ATOM     23  C   UNL A   1      32.067  29.513  25.831  1.00  0.00     0.159 A 
ATOM     24  C   UNL A   1      33.341  29.549  26.379  1.00  0.00     0.158 A 
ATOM     25  F   UNL A   1      31.346  30.638  25.721  1.00  0.00    -0.204 F 
ATOM     26  F   UNL A   1      33.861  30.708  26.806  1.00  0.00    -0.204 F 
ENDBRANCH  18  19
ENDBRANCH  17  18
ENDBRANCH  14  17
ENDBRANCH   8  13
ENDBRANCH   6   8
ENDBRANCH   5   6
ENDBRANCH   4   5
ENDBRANCH   3   4
ENDBRANCH   2   3
ENDBRANCH   1   2
BRANCH   1  27
ATOM     27  C   UNL A   1      41.202  21.458  26.611  1.00  0.00     0.188 C 
BRANCH  27  28
ATOM     28  O   UNL A   1      41.970  20.304  26.898  1.00  0.00    -0.376 OA
BRANCH  28  29
ATOM     29  C   UNL A   1      41.872  19.252  25.957  1.00  0.00     0.202 C 
BRANCH  29  30
ATOM     30  C   UNL A   1      43.225  18.598  25.663  1.00  0.00     0.261 C 
BRANCH  30  31
ATOM     31  O   UNL A   1      43.722  18.811  24.328  1.00  0.00    -0.460 OA
BRANCH  31  32
ATOM     32  C   UNL A   1      44.914  19.437  24.225  1.00  0.00     0.338 C 
ATOM     33  O   UNL A   1      45.915  19.030  23.666  1.00  0.00    -0.246 OA
BRANCH  32  34
ATOM     34  C   UNL A   1      44.773  20.797  24.782  1.00  0.00     0.060 A 
ATOM     35  C   UNL A   1      44.234  21.801  23.971  1.00  0.00     0.016 A 
ATOM     36  C   UNL A   1      45.225  21.097  26.066  1.00  0.00     0.016 A 
ATOM     37  C   UNL A   1      44.162  23.117  24.432  1.00  0.00     0.010 A 
ATOM     38  C   UNL A   1      45.171  22.419  26.523  1.00  0.00     0.010 A 
ATOM     39  C   UNL A   1      44.664  23.441  25.698  1.00  0.00    -0.014 A 
BRANCH  39  40
ATOM     40  C   UNL A   1      44.822  24.863  26.094  1.00  0.00     0.031 A 
ATOM     41  C   UNL A   1      46.166  25.514  25.922  1.00  0.00     0.074 A 
ATOM     42  C   UNL A   1      43.784  25.585  26.555  1.00  0.00     0.049 A 
ATOM     43  N   UNL A   1      46.577  26.694  26.313  1.00  0.00    -0.248 NA
ATOM     44  C   UNL A   1      47.183  24.729  25.204  1.00  0.00     0.031 C 
ATOM     45  C   UNL A   1      42.411  25.105  26.678  1.00  0.00     0.029 A 
ATOM     46  N   UNL A   1      43.731  26.882  27.006  1.00  0.00    -0.354 N 
ATOM     47  C   UNL A   1      47.903  26.782  25.909  1.00  0.00     0.074 A 
ATOM     48  C   UNL A   1      48.231  25.538  25.248  1.00  0.00     0.031 C 
ATOM     49  C   UNL A   1      41.647  26.096  27.170  1.00  0.00     0.029 A 
ATOM     50  C   UNL A   1      42.488  27.260  27.449  1.00  0.00     0.049 A 
ATOM     51  H   UNL A   1      44.511  27.484  27.009  1.00  0.00     0.167 HD
ATOM     52  C   UNL A   1      48.768  27.811  26.076  1.00  0.00     0.037 A 
ATOM     53  C   UNL A   1      42.086  28.400  28.047  1.00  0.00     0.037 A 
ATOM     54  C   UNL A   1      48.437  29.051  26.723  1.00  0.00     0.049 A 
ATOM     55  C   UNL A   1      43.088  29.494  28.311  1.00  0.00     0.074 A 
ATOM     56  C   UNL A   1      49.254  30.139  26.970  1.00  0.00     0.029 A 
ATOM     57  N   UNL A   1      47.183  29.369  27.220  1.00  0.00    -0.354 N 
ATOM     58  N   UNL A   1      44.358  29.546  27.991  1.00  0.00    -0.248 NA
ATOM     59  C   UNL A   1      42.608  30.679  29.039  1.00  0.00     0.031 C 
ATOM     60  C   UNL A   1      48.504  31.103  27.650  1.00  0.00     0.029 A 
ATOM     61  C   UNL A   1      47.207  30.632  27.787  1.00  0.00     0.049 A 
ATOM     62  H   UNL A   1      46.392  28.784  27.177  1.00  0.00     0.167 HD
ATOM     63  C   UNL A   1      44.825  30.766  28.463  1.00  0.00     0.074 A 
ATOM     64  C   UNL A   1      43.698  31.434  29.080  1.00  0.00     0.031 C 
ATOM     65  C   UNL A   1      46.076  31.285  28.394  1.00  0.00     0.037 A 
BRANCH  52  66
ATOM     66  C   UNL A   1      50.170  27.623  25.579  1.00  0.00     0.064 A 
ATOM     67  C   UNL A   1      51.203  27.317  26.477  1.00  0.00     0.173 A 
ATOM     68  C   UNL A   1      50.501  27.786  24.226  1.00  0.00     0.173 A 
ATOM     69  F   UNL A   1      50.938  27.153  27.782  1.00  0.00    -0.203 F 
ATOM     70  C   UNL A   1      52.518  27.189  26.040  1.00  0.00     0.198 A 
ATOM     71  C   UNL A   1      51.814  27.632  23.788  1.00  0.00     0.198 A 
ATOM     72  F   UNL A   1      49.545  28.061  23.326  1.00  0.00    -0.203 F 
ATOM     73  F   UNL A   1      53.492  26.917  26.920  1.00  0.00    -0.200 F 
ATOM     74  C   UNL A   1      52.822  27.342  24.697  1.00  0.00     0.200 A 
ATOM     75  F   UNL A   1      52.103  27.755  22.486  1.00  0.00    -0.200 F 
ATOM     76  F   UNL A   1      54.086  27.203  24.274  1.00  0.00    -0.200 F 
ENDBRANCH  52  66
BRANCH  53  77
ATOM     77  C   UNL A   1      40.667  28.551  28.466  1.00  0.00     0.064 A 
ATOM     78  C   UNL A   1      39.703  29.082  27.595  1.00  0.00     0.173 A 
ATOM     79  C   UNL A   1      40.248  28.175  29.749  1.00  0.00     0.173 A 
ATOM     80  F   UNL A   1      40.050  29.448  26.352  1.00  0.00    -0.203 F 
ATOM     81  C   UNL A   1      38.383  29.259  28.002  1.00  0.00     0.198 A 
ATOM     82  C   UNL A   1      38.921  28.327  30.147  1.00  0.00     0.198 A 
ATOM     83  F   UNL A   1      41.125  27.632  30.607  1.00  0.00    -0.203 F 
ATOM     84  F   UNL A   1      37.491  29.800  27.161  1.00  0.00    -0.200 F 
ATOM     85  C   UNL A   1      37.991  28.879  29.277  1.00  0.00     0.200 A 
ATOM     86  F   UNL A   1      38.540  27.932  31.369  1.00  0.00    -0.200 F 
ATOM     87  F   UNL A   1      36.718  29.037  29.664  1.00  0.00    -0.200 F 
ENDBRANCH  53  77
BRANCH  65  88
ATOM     88  C   UNL A   1      46.303  32.645  28.984  1.00  0.00     0.064 A 
ATOM     89  C   UNL A   1      46.172  33.795  28.192  1.00  0.00     0.173 A 
ATOM     90  C   UNL A   1      46.744  32.803  30.306  1.00  0.00     0.173 A 
ATOM     91  F   UNL A   1      45.763  33.695  26.918  1.00  0.00    -0.203 F 
ATOM     92  C   UNL A   1      46.489  35.053  28.697  1.00  0.00     0.198 A 
ATOM     93  C   UNL A   1      47.037  34.065  30.815  1.00  0.00     0.198 A 
ATOM     94  F   UNL A   1      46.875  31.733  31.106  1.00  0.00    -0.203 F 
ATOM     95  F   UNL A   1      46.389  36.134  27.912  1.00  0.00    -0.200 F 
ATOM     96  C   UNL A   1      46.920  35.187  30.009  1.00  0.00     0.200 A 
ATOM     97  F   UNL A   1      47.436  34.196  32.088  1.00  0.00    -0.200 F 
ATOM     98  F   UNL A   1      47.222  36.399  30.495  1.00  0.00    -0.200 F 
ENDBRANCH  65  88
ENDBRANCH  39  40
ENDBRANCH  32  34
ENDBRANCH  31  32
ENDBRANCH  30  31
ENDBRANCH  29  30
ENDBRANCH  28  29
ENDBRANCH  27  28
ENDBRANCH   1  27
TORSDOF 23
ENDMDL
