MODEL 1
REMARK VINA RESULT:     -10.0      0.000      0.000
REMARK SMILES CC[N@@H+]1CC[C@H](C[NH2+]Cc2cc(C(=O)OCCOCCOCCOC(=O)c3ccc(-c4c5nc(c(-c6c(F)c(F)c(F)c(F)c6F)c6ccc([nH]6)c(-c6c(F)c(F)c(F)c(F)c6F)c6nc(c(-c7c(F)c(F)c(F)c(F)c7F)c7ccc4[nH]7)C=C6)C=C5)cc3)cs2)C1
REMARK SMILES IDX 18 1 17 2 16 3 15 4 13 5 14 6 12 7 10 8 11 9 91 10 90 11
REMARK SMILES IDX 9 12 8 13 7 16 6 17 3 18 4 19 92 20 5 22 2 23 1 24 19 25
REMARK SMILES IDX 20 26 21 27 22 28 23 29 24 30 25 31 26 32 27 33 28 34 89 35
REMARK SMILES IDX 29 36 88 37 30 38 31 39 32 40 82 41 33 42 87 43 81 44 83 45
REMARK SMILES IDX 34 46 86 47 80 48 79 49 35 51 67 52 47 53 66 54 48 55 51 56
REMARK SMILES IDX 65 57 84 58 49 59 50 60 64 62 85 63 52 64 36 65 37 66 45 67
REMARK SMILES IDX 38 68 39 69 43 70 46 71 40 72 41 73 44 74 42 75 68 76 69 77
REMARK SMILES IDX 77 78 70 79 71 80 75 81 78 82 72 83 73 84 76 85 74 86 53 87
REMARK SMILES IDX 54 88 62 89 55 90 56 91 60 92 63 93 57 94 58 95 61 96 59 97
REMARK H PARENT 8 14 8 15 3 21 83 50 51 61
REMARK Flexibility Score: inf
ROOT
ATOM      1  O   UNL A   1      33.838  28.293  25.964  1.00  0.00    -0.376 OA
ENDROOT
BRANCH   1   2
ATOM      2  C   UNL A   1      33.634  28.489  24.570  1.00  0.00     0.202 C 
BRANCH   2   3
ATOM      3  C   UNL A   1      32.258  28.109  24.020  1.00  0.00     0.261 C 
BRANCH   3   4
ATOM      4  O   UNL A   1      32.247  26.798  23.432  1.00  0.00    -0.460 OA
BRANCH   4   5
ATOM      5  C   UNL A   1      31.676  25.817  24.188  1.00  0.00     0.339 C 
ATOM      6  O   UNL A   1      30.471  25.649  24.331  1.00  0.00    -0.246 OA
BRANCH   5   7
ATOM      7  C   UNL A   1      32.662  24.853  24.664  1.00  0.00     0.071 A 
ATOM      8  C   UNL A   1      33.767  23.268  25.996  1.00  0.00     0.059 A 
ATOM      9  C   UNL A   1      32.648  24.078  25.871  1.00  0.00     0.037 A 
ATOM     10  S   UNL A   1      34.922  23.632  24.777  1.00  0.00    -0.142 S 
ATOM     11  C   UNL A   1      33.811  24.608  23.936  1.00  0.00     0.081 A 
BRANCH   8  12
ATOM     12  C   UNL A   1      34.065  22.208  27.027  1.00  0.00     0.308 C 
BRANCH  12  13
ATOM     13  N   UNL A   1      33.292  20.975  26.808  1.00  0.00    -0.341 N 
ATOM     14  H   UNL A   1      33.431  20.354  27.605  1.00  0.00     0.346 HD
ATOM     15  H   UNL A   1      32.311  21.237  26.706  1.00  0.00     0.346 HD
BRANCH  13  16
ATOM     16  C   UNL A   1      33.695  20.270  25.586  1.00  0.00     0.270 C 
BRANCH  16  17
ATOM     17  C   UNL A   1      32.548  19.521  24.897  1.00  0.00     0.105 C 
ATOM     18  N   UNL A   1      32.599  17.266  24.002  1.00  0.00    -0.335 N 
ATOM     19  C   UNL A   1      32.170  18.176  22.942  1.00  0.00     0.262 C 
ATOM     20  C   UNL A   1      32.561  18.023  25.257  1.00  0.00     0.271 C 
ATOM     21  H   UNL A   1      31.953  16.478  24.069  1.00  0.00     0.348 HD
ATOM     22  C   UNL A   1      32.623  19.555  23.372  1.00  0.00     0.076 C 
BRANCH  18  23
ATOM     23  C   UNL A   1      33.849  16.550  23.731  1.00  0.00     0.258 C 
ATOM     24  C   UNL A   1      34.824  16.318  24.881  1.00  0.00     0.071 C 
ENDBRANCH  18  23
ENDBRANCH  16  17
ENDBRANCH  13  16
ENDBRANCH  12  13
ENDBRANCH   8  12
ENDBRANCH   5   7
ENDBRANCH   4   5
ENDBRANCH   3   4
ENDBRANCH   2   3
ENDBRANCH   1   2
BRANCH   1  25
ATOM     25  C   UNL A   1      33.525  29.338  26.879  1.00  0.00     0.188 C 
BRANCH  25  26
ATOM     26  C   UNL A   1      34.653  30.139  27.556  1.00  0.00     0.188 C 
BRANCH  26  27
ATOM     27  O   UNL A   1      34.272  31.454  27.934  1.00  0.00    -0.376 OA
BRANCH  27  28
ATOM     28  C   UNL A   1      32.958  31.850  27.568  1.00  0.00     0.202 C 
BRANCH  28  29
ATOM     29  C   UNL A   1      32.856  33.350  27.282  1.00  0.00     0.261 C 
BRANCH  29  30
ATOM     30  O   UNL A   1      32.317  34.127  28.363  1.00  0.00    -0.460 OA
BRANCH  30  31
ATOM     31  C   UNL A   1      33.071  35.157  28.809  1.00  0.00     0.338 C 
ATOM     32  O   UNL A   1      32.813  36.344  28.742  1.00  0.00    -0.246 OA
BRANCH  31  33
ATOM     33  C   UNL A   1      34.228  34.597  29.531  1.00  0.00     0.060 A 
ATOM     34  C   UNL A   1      35.491  34.638  28.928  1.00  0.00     0.016 A 
ATOM     35  C   UNL A   1      34.060  34.010  30.789  1.00  0.00     0.016 A 
ATOM     36  C   UNL A   1      36.586  34.059  29.572  1.00  0.00     0.010 A 
ATOM     37  C   UNL A   1      35.153  33.420  31.425  1.00  0.00     0.010 A 
ATOM     38  C   UNL A   1      36.416  33.415  30.807  1.00  0.00    -0.014 A 
BRANCH  38  39
ATOM     39  C   UNL A   1      37.504  32.586  31.380  1.00  0.00     0.031 A 
ATOM     40  C   UNL A   1      38.029  32.935  32.744  1.00  0.00     0.074 A 
ATOM     41  C   UNL A   1      38.033  31.557  30.698  1.00  0.00     0.049 A 
ATOM     42  N   UNL A   1      39.013  32.399  33.420  1.00  0.00    -0.248 NA
ATOM     43  C   UNL A   1      37.355  34.044  33.438  1.00  0.00     0.031 C 
ATOM     44  C   UNL A   1      37.600  31.103  29.378  1.00  0.00     0.029 A 
ATOM     45  N   UNL A   1      39.066  30.713  31.023  1.00  0.00    -0.354 N 
ATOM     46  C   UNL A   1      39.074  33.101  34.616  1.00  0.00     0.074 A 
ATOM     47  C   UNL A   1      38.047  34.120  34.565  1.00  0.00     0.031 C 
ATOM     48  C   UNL A   1      38.373  30.071  28.999  1.00  0.00     0.029 A 
ATOM     49  C   UNL A   1      39.371  29.810  30.036  1.00  0.00     0.049 A 
ATOM     50  H   UNL A   1      39.543  30.752  31.885  1.00  0.00     0.167 HD
ATOM     51  C   UNL A   1      39.906  32.911  35.666  1.00  0.00     0.037 A 
ATOM     52  C   UNL A   1      40.357  28.894  29.972  1.00  0.00     0.037 A 
ATOM     53  C   UNL A   1      40.936  31.908  35.720  1.00  0.00     0.049 A 
ATOM     54  C   UNL A   1      41.316  28.747  31.127  1.00  0.00     0.074 A 
ATOM     55  C   UNL A   1      41.819  31.631  36.748  1.00  0.00     0.029 A 
ATOM     56  N   UNL A   1      41.225  31.025  34.692  1.00  0.00    -0.354 N 
ATOM     57  N   UNL A   1      41.345  29.392  32.267  1.00  0.00    -0.248 NA
ATOM     58  C   UNL A   1      42.380  27.742  30.982  1.00  0.00     0.031 C 
ATOM     59  C   UNL A   1      42.672  30.605  36.326  1.00  0.00     0.029 A 
ATOM     60  C   UNL A   1      42.290  30.214  35.053  1.00  0.00     0.049 A 
ATOM     61  H   UNL A   1      40.746  30.979  33.833  1.00  0.00     0.167 HD
ATOM     62  C   UNL A   1      42.408  28.855  32.984  1.00  0.00     0.074 A 
ATOM     63  C   UNL A   1      42.995  27.825  32.154  1.00  0.00     0.031 C 
ATOM     64  C   UNL A   1      42.855  29.185  34.220  1.00  0.00     0.037 A 
BRANCH  51  65
ATOM     65  C   UNL A   1      39.746  33.827  36.842  1.00  0.00     0.064 A 
ATOM     66  C   UNL A   1      40.404  35.064  36.901  1.00  0.00     0.173 A 
ATOM     67  C   UNL A   1      38.909  33.473  37.910  1.00  0.00     0.173 A 
ATOM     68  F   UNL A   1      41.229  35.439  35.911  1.00  0.00    -0.203 F 
ATOM     69  C   UNL A   1      40.246  35.905  37.999  1.00  0.00     0.198 A 
ATOM     70  C   UNL A   1      38.735  34.327  38.996  1.00  0.00     0.198 A 
ATOM     71  F   UNL A   1      38.258  32.300  37.898  1.00  0.00    -0.203 F 
ATOM     72  F   UNL A   1      40.917  37.064  38.055  1.00  0.00    -0.200 F 
ATOM     73  C   UNL A   1      39.408  35.538  39.042  1.00  0.00     0.200 A 
ATOM     74  F   UNL A   1      37.920  33.975  40.000  1.00  0.00    -0.200 F 
ATOM     75  F   UNL A   1      39.256  36.350  40.097  1.00  0.00    -0.200 F 
ENDBRANCH  51  65
BRANCH  52  76
ATOM     76  C   UNL A   1      40.502  28.042  28.764  1.00  0.00     0.064 A 
ATOM     77  C   UNL A   1      41.270  28.463  27.670  1.00  0.00     0.173 A 
ATOM     78  C   UNL A   1      39.849  26.804  28.667  1.00  0.00     0.173 A 
ATOM     79  F   UNL A   1      41.886  29.654  27.706  1.00  0.00    -0.203 F 
ATOM     80  C   UNL A   1      41.369  27.686  26.519  1.00  0.00     0.198 A 
ATOM     81  C   UNL A   1      39.968  26.017  27.524  1.00  0.00     0.198 A 
ATOM     82  F   UNL A   1      39.096  26.361  29.683  1.00  0.00    -0.203 F 
ATOM     83  F   UNL A   1      42.072  28.133  25.469  1.00  0.00    -0.200 F 
ATOM     84  C   UNL A   1      40.722  26.461  26.448  1.00  0.00     0.200 A 
ATOM     85  F   UNL A   1      39.344  24.832  27.461  1.00  0.00    -0.200 F 
ATOM     86  F   UNL A   1      40.814  25.715  25.339  1.00  0.00    -0.200 F 
ENDBRANCH  52  76
BRANCH  64  87
ATOM     87  C   UNL A   1      44.012  28.404  34.770  1.00  0.00     0.064 A 
ATOM     88  C   UNL A   1      43.824  27.190  35.448  1.00  0.00     0.173 A 
ATOM     89  C   UNL A   1      45.328  28.849  34.569  1.00  0.00     0.173 A 
ATOM     90  F   UNL A   1      42.585  26.731  35.677  1.00  0.00    -0.203 F 
ATOM     91  C   UNL A   1      44.911  26.460  35.922  1.00  0.00     0.198 A 
ATOM     92  C   UNL A   1      46.413  28.105  35.023  1.00  0.00     0.198 A 
ATOM     93  F   UNL A   1      45.560  30.001  33.922  1.00  0.00    -0.203 F 
ATOM     94  F   UNL A   1      44.707  25.322  36.598  1.00  0.00    -0.200 F 
ATOM     95  C   UNL A   1      46.204  26.914  35.702  1.00  0.00     0.200 A 
ATOM     96  F   UNL A   1      47.661  28.538  34.801  1.00  0.00    -0.200 F 
ATOM     97  F   UNL A   1      47.249  26.205  36.151  1.00  0.00    -0.200 F 
ENDBRANCH  64  87
ENDBRANCH  38  39
ENDBRANCH  31  33
ENDBRANCH  30  31
ENDBRANCH  29  30
ENDBRANCH  28  29
ENDBRANCH  27  28
ENDBRANCH  26  27
ENDBRANCH  25  26
ENDBRANCH   1  25
TORSDOF 22
ENDMDL
MODEL 2
REMARK VINA RESULT:     -10.0      5.154     10.952
REMARK SMILES CC[N@@H+]1CC[C@H](C[NH2+]Cc2cc(C(=O)OCCOCCOCCOC(=O)c3ccc(-c4c5nc(c(-c6c(F)c(F)c(F)c(F)c6F)c6ccc([nH]6)c(-c6c(F)c(F)c(F)c(F)c6F)c6nc(c(-c7c(F)c(F)c(F)c(F)c7F)c7ccc4[nH]7)C=C6)C=C5)cc3)cs2)C1
REMARK SMILES IDX 18 1 17 2 16 3 15 4 13 5 14 6 12 7 10 8 11 9 91 10 90 11
REMARK SMILES IDX 9 12 8 13 7 16 6 17 3 18 4 19 92 20 5 22 2 23 1 24 19 25
REMARK SMILES IDX 20 26 21 27 22 28 23 29 24 30 25 31 26 32 27 33 28 34 89 35
REMARK SMILES IDX 29 36 88 37 30 38 31 39 32 40 82 41 33 42 87 43 81 44 83 45
REMARK SMILES IDX 34 46 86 47 80 48 79 49 35 51 67 52 47 53 66 54 48 55 51 56
REMARK SMILES IDX 65 57 84 58 49 59 50 60 64 62 85 63 52 64 36 65 37 66 45 67
REMARK SMILES IDX 38 68 39 69 43 70 46 71 40 72 41 73 44 74 42 75 68 76 69 77
REMARK SMILES IDX 77 78 70 79 71 80 75 81 78 82 72 83 73 84 76 85 74 86 53 87
REMARK SMILES IDX 54 88 62 89 55 90 56 91 60 92 63 93 57 94 58 95 61 96 59 97
REMARK H PARENT 8 14 8 15 3 21 83 50 51 61
REMARK Flexibility Score: inf
ROOT
ATOM      1  O   UNL A   1      34.666  21.876  24.196  1.00  0.00    -0.376 OA
ENDROOT
BRANCH   1   2
ATOM      2  C   UNL A   1      34.296  20.733  24.956  1.00  0.00     0.202 C 
BRANCH   2   3
ATOM      3  C   UNL A   1      33.338  20.968  26.126  1.00  0.00     0.261 C 
BRANCH   3   4
ATOM      4  O   UNL A   1      33.441  22.301  26.656  1.00  0.00    -0.460 OA
BRANCH   4   5
ATOM      5  C   UNL A   1      32.275  23.006  26.708  1.00  0.00     0.339 C 
ATOM      6  O   UNL A   1      31.531  23.066  27.679  1.00  0.00    -0.246 OA
BRANCH   5   7
ATOM      7  C   UNL A   1      32.098  23.853  25.534  1.00  0.00     0.071 A 
ATOM      8  C   UNL A   1      32.495  25.438  23.849  1.00  0.00     0.059 A 
ATOM      9  C   UNL A   1      33.011  24.806  24.970  1.00  0.00     0.037 A 
ATOM     10  S   UNL A   1      30.835  25.045  23.638  1.00  0.00    -0.142 S 
ATOM     11  C   UNL A   1      30.915  23.825  24.821  1.00  0.00     0.081 A 
BRANCH   8  12
ATOM     12  C   UNL A   1      33.174  26.383  22.891  1.00  0.00     0.308 C 
BRANCH  12  13
ATOM     13  N   UNL A   1      33.706  27.581  23.562  1.00  0.00    -0.341 N 
ATOM     14  H   UNL A   1      34.513  27.310  24.125  1.00  0.00     0.346 HD
ATOM     15  H   UNL A   1      33.964  28.253  22.840  1.00  0.00     0.346 HD
BRANCH  13  16
ATOM     16  C   UNL A   1      32.716  28.219  24.435  1.00  0.00     0.270 C 
BRANCH  16  17
ATOM     17  C   UNL A   1      33.070  28.151  25.926  1.00  0.00     0.105 C 
ATOM     18  N   UNL A   1      32.872  29.932  27.562  1.00  0.00    -0.335 N 
ATOM     19  C   UNL A   1      34.248  29.442  27.576  1.00  0.00     0.262 C 
ATOM     20  C   UNL A   1      32.085  28.979  26.774  1.00  0.00     0.271 C 
ATOM     21  H   UNL A   1      32.503  29.963  28.513  1.00  0.00     0.348 HD
ATOM     22  C   UNL A   1      34.446  28.726  26.256  1.00  0.00     0.076 C 
BRANCH  18  23
ATOM     23  C   UNL A   1      32.725  31.341  27.185  1.00  0.00     0.258 C 
ATOM     24  C   UNL A   1      31.412  31.797  26.556  1.00  0.00     0.071 C 
ENDBRANCH  18  23
ENDBRANCH  16  17
ENDBRANCH  13  16
ENDBRANCH  12  13
ENDBRANCH   8  12
ENDBRANCH   5   7
ENDBRANCH   4   5
ENDBRANCH   3   4
ENDBRANCH   2   3
ENDBRANCH   1   2
BRANCH   1  25
ATOM     25  C   UNL A   1      36.019  22.320  24.197  1.00  0.00     0.188 C 
BRANCH  25  26
ATOM     26  C   UNL A   1      36.889  22.152  25.457  1.00  0.00     0.188 C 
BRANCH  26  27
ATOM     27  O   UNL A   1      38.117  21.481  25.217  1.00  0.00    -0.376 OA
BRANCH  27  28
ATOM     28  C   UNL A   1      38.053  20.064  25.166  1.00  0.00     0.202 C 
BRANCH  28  29
ATOM     29  C   UNL A   1      39.344  19.401  25.653  1.00  0.00     0.261 C 
BRANCH  29  30
ATOM     30  O   UNL A   1      40.440  20.307  25.855  1.00  0.00    -0.460 OA
BRANCH  30  31
ATOM     31  C   UNL A   1      40.928  20.404  27.111  1.00  0.00     0.338 C 
ATOM     32  O   UNL A   1      41.273  19.495  27.842  1.00  0.00    -0.246 OA
BRANCH  31  33
ATOM     33  C   UNL A   1      41.109  21.835  27.420  1.00  0.00     0.060 A 
ATOM     34  C   UNL A   1      40.471  22.789  26.620  1.00  0.00     0.016 A 
ATOM     35  C   UNL A   1      41.928  22.230  28.483  1.00  0.00     0.016 A 
ATOM     36  C   UNL A   1      40.680  24.149  26.862  1.00  0.00     0.010 A 
ATOM     37  C   UNL A   1      42.146  23.589  28.715  1.00  0.00     0.010 A 
ATOM     38  C   UNL A   1      41.547  24.555  27.887  1.00  0.00    -0.014 A 
BRANCH  38  39
ATOM     39  C   UNL A   1      41.971  25.972  27.996  1.00  0.00     0.031 A 
ATOM     40  C   UNL A   1      43.310  26.365  27.436  1.00  0.00     0.074 A 
ATOM     41  C   UNL A   1      41.198  26.890  28.598  1.00  0.00     0.049 A 
ATOM     42  N   UNL A   1      43.919  27.523  27.469  1.00  0.00    -0.248 NA
ATOM     43  C   UNL A   1      44.065  25.305  26.748  1.00  0.00     0.031 C 
ATOM     44  C   UNL A   1      39.873  26.643  29.163  1.00  0.00     0.029 A 
ATOM     45  N   UNL A   1      41.428  28.221  28.846  1.00  0.00    -0.354 N 
ATOM     46  C   UNL A   1      45.124  27.331  26.808  1.00  0.00     0.074 A 
ATOM     47  C   UNL A   1      45.175  25.942  26.406  1.00  0.00     0.031 C 
ATOM     48  C   UNL A   1      39.413  27.784  29.706  1.00  0.00     0.029 A 
ATOM     49  C   UNL A   1      40.421  28.831  29.551  1.00  0.00     0.049 A 
ATOM     50  H   UNL A   1      42.240  28.693  28.546  1.00  0.00     0.167 HD
ATOM     51  C   UNL A   1      46.100  28.234  26.551  1.00  0.00     0.037 A 
ATOM     52  C   UNL A   1      40.337  30.088  30.032  1.00  0.00     0.037 A 
ATOM     53  C   UNL A   1      46.062  29.614  26.956  1.00  0.00     0.049 A 
ATOM     54  C   UNL A   1      41.467  31.056  29.793  1.00  0.00     0.074 A 
ATOM     55  C   UNL A   1      46.998  30.606  26.729  1.00  0.00     0.029 A 
ATOM     56  N   UNL A   1      45.033  30.190  27.684  1.00  0.00    -0.354 N 
ATOM     57  N   UNL A   1      42.589  30.877  29.137  1.00  0.00    -0.248 NA
ATOM     58  C   UNL A   1      41.319  32.404  30.363  1.00  0.00     0.031 C 
ATOM     59  C   UNL A   1      46.553  31.776  27.356  1.00  0.00     0.029 A 
ATOM     60  C   UNL A   1      45.321  31.522  27.935  1.00  0.00     0.049 A 
ATOM     61  H   UNL A   1      44.218  29.722  27.980  1.00  0.00     0.167 HD
ATOM     62  C   UNL A   1      43.262  32.091  29.192  1.00  0.00     0.074 A 
ATOM     63  C   UNL A   1      42.423  33.003  29.939  1.00  0.00     0.031 C 
ATOM     64  C   UNL A   1      44.469  32.420  28.669  1.00  0.00     0.037 A 
BRANCH  51  65
ATOM     65  C   UNL A   1      47.307  27.746  25.808  1.00  0.00     0.064 A 
ATOM     66  C   UNL A   1      47.352  27.742  24.406  1.00  0.00     0.173 A 
ATOM     67  C   UNL A   1      48.438  27.298  26.505  1.00  0.00     0.173 A 
ATOM     68  F   UNL A   1      46.287  28.146  23.695  1.00  0.00    -0.203 F 
ATOM     69  C   UNL A   1      48.479  27.287  23.729  1.00  0.00     0.198 A 
ATOM     70  C   UNL A   1      49.573  26.864  25.825  1.00  0.00     0.198 A 
ATOM     71  F   UNL A   1      48.443  27.283  27.847  1.00  0.00    -0.203 F 
ATOM     72  F   UNL A   1      48.485  27.252  22.389  1.00  0.00    -0.200 F 
ATOM     73  C   UNL A   1      49.589  26.853  24.438  1.00  0.00     0.200 A 
ATOM     74  F   UNL A   1      50.647  26.453  26.511  1.00  0.00    -0.200 F 
ATOM     75  F   UNL A   1      50.675  26.417  23.785  1.00  0.00    -0.200 F 
ENDBRANCH  51  65
BRANCH  52  76
ATOM     76  C   UNL A   1      39.139  30.509  30.802  1.00  0.00     0.064 A 
ATOM     77  C   UNL A   1      39.087  30.361  32.195  1.00  0.00     0.173 A 
ATOM     78  C   UNL A   1      38.011  31.037  30.158  1.00  0.00     0.173 A 
ATOM     79  F   UNL A   1      40.131  29.832  32.850  1.00  0.00    -0.203 F 
ATOM     80  C   UNL A   1      37.947  30.713  32.914  1.00  0.00     0.198 A 
ATOM     81  C   UNL A   1      36.879  31.410  30.880  1.00  0.00     0.198 A 
ATOM     82  F   UNL A   1      38.008  31.189  28.826  1.00  0.00    -0.203 F 
ATOM     83  F   UNL A   1      37.906  30.519  34.239  1.00  0.00    -0.200 F 
ATOM     84  C   UNL A   1      36.845  31.241  32.257  1.00  0.00     0.200 A 
ATOM     85  F   UNL A   1      35.819  31.923  30.242  1.00  0.00    -0.200 F 
ATOM     86  F   UNL A   1      35.748  31.576  32.947  1.00  0.00    -0.200 F 
ENDBRANCH  52  76
BRANCH  64  87
ATOM     87  C   UNL A   1      44.941  33.833  28.850  1.00  0.00     0.064 A 
ATOM     88  C   UNL A   1      45.758  34.203  29.928  1.00  0.00     0.173 A 
ATOM     89  C   UNL A   1      44.614  34.816  27.903  1.00  0.00     0.173 A 
ATOM     90  F   UNL A   1      46.086  33.302  30.866  1.00  0.00    -0.203 F 
ATOM     91  C   UNL A   1      46.216  35.512  30.061  1.00  0.00     0.198 A 
ATOM     92  C   UNL A   1      45.093  36.117  28.027  1.00  0.00     0.198 A 
ATOM     93  F   UNL A   1      43.840  34.510  26.851  1.00  0.00    -0.203 F 
ATOM     94  F   UNL A   1      46.966  35.852  31.118  1.00  0.00    -0.200 F 
ATOM     95  C   UNL A   1      45.890  36.465  29.107  1.00  0.00     0.200 A 
ATOM     96  F   UNL A   1      44.787  37.034  27.099  1.00  0.00    -0.200 F 
ATOM     97  F   UNL A   1      46.338  37.721  29.233  1.00  0.00    -0.200 F 
ENDBRANCH  64  87
ENDBRANCH  38  39
ENDBRANCH  31  33
ENDBRANCH  30  31
ENDBRANCH  29  30
ENDBRANCH  28  29
ENDBRANCH  27  28
ENDBRANCH  26  27
ENDBRANCH  25  26
ENDBRANCH   1  25
TORSDOF 22
ENDMDL
MODEL 3
REMARK VINA RESULT:      -9.9      0.939      7.179
REMARK SMILES CC[N@@H+]1CC[C@H](C[NH2+]Cc2cc(C(=O)OCCOCCOCCOC(=O)c3ccc(-c4c5nc(c(-c6c(F)c(F)c(F)c(F)c6F)c6ccc([nH]6)c(-c6c(F)c(F)c(F)c(F)c6F)c6nc(c(-c7c(F)c(F)c(F)c(F)c7F)c7ccc4[nH]7)C=C6)C=C5)cc3)cs2)C1
REMARK SMILES IDX 18 1 17 2 16 3 15 4 13 5 14 6 12 7 10 8 11 9 91 10 90 11
REMARK SMILES IDX 9 12 8 13 7 16 6 17 3 18 4 19 92 20 5 22 2 23 1 24 19 25
REMARK SMILES IDX 20 26 21 27 22 28 23 29 24 30 25 31 26 32 27 33 28 34 89 35
REMARK SMILES IDX 29 36 88 37 30 38 31 39 32 40 82 41 33 42 87 43 81 44 83 45
REMARK SMILES IDX 34 46 86 47 80 48 79 49 35 51 67 52 47 53 66 54 48 55 51 56
REMARK SMILES IDX 65 57 84 58 49 59 50 60 64 62 85 63 52 64 36 65 37 66 45 67
REMARK SMILES IDX 38 68 39 69 43 70 46 71 40 72 41 73 44 74 42 75 68 76 69 77
REMARK SMILES IDX 77 78 70 79 71 80 75 81 78 82 72 83 73 84 76 85 74 86 53 87
REMARK SMILES IDX 54 88 62 89 55 90 56 91 60 92 63 93 57 94 58 95 61 96 59 97
REMARK H PARENT 8 14 8 15 3 21 83 50 51 61
REMARK Flexibility Score: inf
ROOT
ATOM      1  O   UNL A   1      32.429  27.027  26.447  1.00  0.00    -0.376 OA
ENDROOT
BRANCH   1   2
ATOM      2  C   UNL A   1      31.464  26.411  25.603  1.00  0.00     0.202 C 
BRANCH   2   3
ATOM      3  C   UNL A   1      31.799  26.347  24.111  1.00  0.00     0.261 C 
BRANCH   3   4
ATOM      4  O   UNL A   1      33.216  26.330  23.871  1.00  0.00    -0.460 OA
BRANCH   4   5
ATOM      5  C   UNL A   1      33.693  25.222  23.233  1.00  0.00     0.339 C 
ATOM      6  O   UNL A   1      33.677  25.046  22.021  1.00  0.00    -0.246 OA
BRANCH   5   7
ATOM      7  C   UNL A   1      34.410  24.337  24.142  1.00  0.00     0.071 A 
ATOM      8  C   UNL A   1      35.373  22.416  25.087  1.00  0.00     0.059 A 
ATOM      9  C   UNL A   1      34.660  22.930  24.014  1.00  0.00     0.037 A 
ATOM     10  S   UNL A   1      35.522  23.586  26.337  1.00  0.00    -0.142 S 
ATOM     11  C   UNL A   1      34.932  24.822  25.328  1.00  0.00     0.081 A 
BRANCH   8  12
ATOM     12  C   UNL A   1      35.957  21.038  25.270  1.00  0.00     0.308 C 
BRANCH  12  13
ATOM     13  N   UNL A   1      34.979  19.971  25.002  1.00  0.00    -0.341 N 
ATOM     14  H   UNL A   1      34.935  19.811  23.995  1.00  0.00     0.346 HD
ATOM     15  H   UNL A   1      35.286  19.135  25.499  1.00  0.00     0.346 HD
BRANCH  13  16
ATOM     16  C   UNL A   1      33.635  20.309  25.483  1.00  0.00     0.270 C 
BRANCH  16  17
ATOM     17  C   UNL A   1      32.529  19.418  24.905  1.00  0.00     0.105 C 
ATOM     18  N   UNL A   1      32.739  17.119  24.157  1.00  0.00    -0.335 N 
ATOM     19  C   UNL A   1      32.181  17.913  23.064  1.00  0.00     0.262 C 
ATOM     20  C   UNL A   1      32.692  17.956  25.360  1.00  0.00     0.271 C 
ATOM     21  H   UNL A   1      32.170  16.286  24.308  1.00  0.00     0.348 HD
ATOM     22  C   UNL A   1      32.529  19.353  23.379  1.00  0.00     0.076 C 
BRANCH  18  23
ATOM     23  C   UNL A   1      34.034  16.497  23.867  1.00  0.00     0.258 C 
ATOM     24  C   UNL A   1      34.799  15.833  25.008  1.00  0.00     0.071 C 
ENDBRANCH  18  23
ENDBRANCH  16  17
ENDBRANCH  13  16
ENDBRANCH  12  13
ENDBRANCH   8  12
ENDBRANCH   5   7
ENDBRANCH   4   5
ENDBRANCH   3   4
ENDBRANCH   2   3
ENDBRANCH   1   2
BRANCH   1  25
ATOM     25  C   UNL A   1      32.231  28.364  26.892  1.00  0.00     0.188 C 
BRANCH  25  26
ATOM     26  C   UNL A   1      31.781  29.453  25.898  1.00  0.00     0.188 C 
BRANCH  26  27
ATOM     27  O   UNL A   1      32.365  30.724  26.143  1.00  0.00    -0.376 OA
BRANCH  27  28
ATOM     28  C   UNL A   1      33.161  30.828  27.314  1.00  0.00     0.202 C 
BRANCH  28  29
ATOM     29  C   UNL A   1      33.723  32.238  27.517  1.00  0.00     0.261 C 
BRANCH  29  30
ATOM     30  O   UNL A   1      32.726  33.258  27.688  1.00  0.00    -0.460 OA
BRANCH  30  31
ATOM     31  C   UNL A   1      33.094  34.361  28.376  1.00  0.00     0.338 C 
ATOM     32  O   UNL A   1      32.536  35.442  28.393  1.00  0.00    -0.246 OA
BRANCH  31  33
ATOM     33  C   UNL A   1      34.238  34.003  29.235  1.00  0.00     0.060 A 
ATOM     34  C   UNL A   1      35.530  34.361  28.832  1.00  0.00     0.016 A 
ATOM     35  C   UNL A   1      34.035  33.293  30.422  1.00  0.00     0.016 A 
ATOM     36  C   UNL A   1      36.629  33.978  29.603  1.00  0.00     0.010 A 
ATOM     37  C   UNL A   1      35.136  32.899  31.185  1.00  0.00     0.010 A 
ATOM     38  C   UNL A   1      36.440  33.213  30.765  1.00  0.00    -0.014 A 
BRANCH  38  39
ATOM     39  C   UNL A   1      37.597  32.591  31.452  1.00  0.00     0.031 A 
ATOM     40  C   UNL A   1      38.328  31.475  30.759  1.00  0.00     0.074 A 
ATOM     41  C   UNL A   1      37.983  32.992  32.675  1.00  0.00     0.049 A 
ATOM     42  N   UNL A   1      39.323  30.739  31.186  1.00  0.00    -0.248 NA
ATOM     43  C   UNL A   1      37.869  31.139  29.402  1.00  0.00     0.031 C 
ATOM     44  C   UNL A   1      37.374  34.075  33.443  1.00  0.00     0.029 A 
ATOM     45  N   UNL A   1      38.979  32.516  33.492  1.00  0.00    -0.354 N 
ATOM     46  C   UNL A   1      39.609  29.859  30.152  1.00  0.00     0.074 A 
ATOM     47  C   UNL A   1      38.667  30.130  29.087  1.00  0.00     0.031 C 
ATOM     48  C   UNL A   1      38.001  34.171  34.629  1.00  0.00     0.029 A 
ATOM     49  C   UNL A   1      39.035  33.141  34.712  1.00  0.00     0.049 A 
ATOM     50  H   UNL A   1      39.596  31.794  33.226  1.00  0.00     0.167 HD
ATOM     51  C   UNL A   1      40.574  28.912  30.092  1.00  0.00     0.037 A 
ATOM     52  C   UNL A   1      39.819  32.892  35.780  1.00  0.00     0.037 A 
ATOM     53  C   UNL A   1      41.506  28.629  31.150  1.00  0.00     0.049 A 
ATOM     54  C   UNL A   1      40.842  31.786  35.713  1.00  0.00     0.074 A 
ATOM     55  C   UNL A   1      42.528  27.697  31.174  1.00  0.00     0.029 A 
ATOM     56  N   UNL A   1      41.519  29.271  32.377  1.00  0.00    -0.354 N 
ATOM     57  N   UNL A   1      41.129  30.980  34.720  1.00  0.00    -0.248 NA
ATOM     58  C   UNL A   1      41.650  31.555  36.921  1.00  0.00     0.031 C 
ATOM     59  C   UNL A   1      43.135  27.747  32.434  1.00  0.00     0.029 A 
ATOM     60  C   UNL A   1      42.518  28.741  33.177  1.00  0.00     0.049 A 
ATOM     61  H   UNL A   1      40.908  29.997  32.643  1.00  0.00     0.167 HD
ATOM     62  C   UNL A   1      42.164  30.170  35.171  1.00  0.00     0.074 A 
ATOM     63  C   UNL A   1      42.461  30.584  36.525  1.00  0.00     0.031 C 
ATOM     64  C   UNL A   1      42.810  29.172  34.519  1.00  0.00     0.037 A 
BRANCH  51  65
ATOM     65  C   UNL A   1      40.656  28.096  28.836  1.00  0.00     0.064 A 
ATOM     66  C   UNL A   1      41.448  28.500  27.751  1.00  0.00     0.173 A 
ATOM     67  C   UNL A   1      39.953  26.888  28.727  1.00  0.00     0.173 A 
ATOM     68  F   UNL A   1      42.125  29.658  27.804  1.00  0.00    -0.203 F 
ATOM     69  C   UNL A   1      41.515  27.733  26.592  1.00  0.00     0.198 A 
ATOM     70  C   UNL A   1      40.041  26.112  27.574  1.00  0.00     0.198 A 
ATOM     71  F   UNL A   1      39.183  26.459  29.738  1.00  0.00    -0.203 F 
ATOM     72  F   UNL A   1      42.244  28.158  25.551  1.00  0.00    -0.200 F 
ATOM     73  C   UNL A   1      40.817  26.538  26.507  1.00  0.00     0.200 A 
ATOM     74  F   UNL A   1      39.371  24.954  27.496  1.00  0.00    -0.200 F 
ATOM     75  F   UNL A   1      40.885  25.799  25.391  1.00  0.00    -0.200 F 
ENDBRANCH  51  65
BRANCH  52  76
ATOM     76  C   UNL A   1      39.667  33.699  37.017  1.00  0.00     0.064 A 
ATOM     77  C   UNL A   1      40.438  34.850  37.228  1.00  0.00     0.173 A 
ATOM     78  C   UNL A   1      38.771  33.318  38.027  1.00  0.00     0.173 A 
ATOM     79  F   UNL A   1      41.331  35.235  36.304  1.00  0.00    -0.203 F 
ATOM     80  C   UNL A   1      40.330  35.582  38.408  1.00  0.00     0.198 A 
ATOM     81  C   UNL A   1      38.647  34.064  39.197  1.00  0.00     0.198 A 
ATOM     82  F   UNL A   1      38.018  32.219  37.876  1.00  0.00    -0.203 F 
ATOM     83  F   UNL A   1      41.112  36.653  38.604  1.00  0.00    -0.200 F 
ATOM     84  C   UNL A   1      39.431  35.192  39.390  1.00  0.00     0.200 A 
ATOM     85  F   UNL A   1      37.774  33.685  40.141  1.00  0.00    -0.200 F 
ATOM     86  F   UNL A   1      39.330  35.894  40.526  1.00  0.00    -0.200 F 
ENDBRANCH  52  76
BRANCH  64  87
ATOM     87  C   UNL A   1      43.929  28.483  35.243  1.00  0.00     0.064 A 
ATOM     88  C   UNL A   1      43.708  27.329  36.010  1.00  0.00     0.173 A 
ATOM     89  C   UNL A   1      45.246  28.952  35.124  1.00  0.00     0.173 A 
ATOM     90  F   UNL A   1      42.464  26.851  36.166  1.00  0.00    -0.203 F 
ATOM     91  C   UNL A   1      44.763  26.682  36.647  1.00  0.00     0.198 A 
ATOM     92  C   UNL A   1      46.302  28.288  35.742  1.00  0.00     0.198 A 
ATOM     93  F   UNL A   1      45.510  30.048  34.396  1.00  0.00    -0.203 F 
ATOM     94  F   UNL A   1      44.525  25.603  37.405  1.00  0.00    -0.200 F 
ATOM     95  C   UNL A   1      46.060  27.156  36.507  1.00  0.00     0.200 A 
ATOM     96  F   UNL A   1      47.555  28.741  35.596  1.00  0.00    -0.200 F 
ATOM     97  F   UNL A   1      47.075  26.527  37.113  1.00  0.00    -0.200 F 
ENDBRANCH  64  87
ENDBRANCH  38  39
ENDBRANCH  31  33
ENDBRANCH  30  31
ENDBRANCH  29  30
ENDBRANCH  28  29
ENDBRANCH  27  28
ENDBRANCH  26  27
ENDBRANCH  25  26
ENDBRANCH   1  25
TORSDOF 22
ENDMDL
