MODEL 1
REMARK VINA RESULT:      -9.6      0.000      0.000
REMARK SMILES C[C@@H](CC[NH+](C)C)NC(=O)Cn1cccc1C(=O)OCCOCCOCCOC(=O)c1ccc(-c2c3nc(c(-c4c(F)c(F)c(F)c(F)c4F)c4ccc([nH]4)c(-c4c(F)c(F)c(F)c(F)c4F)c4nc(c(-c5c(F)c(F)c(F)c(F)c5F)c5ccc2[nH]5)C=C4)C=C3)cc1
REMARK SMILES IDX 21 1 20 2 19 3 17 4 18 5 16 6 12 7 13 8 14 9 15 10 11 11
REMARK SMILES IDX 9 12 8 13 10 15 2 16 1 17 3 18 4 19 5 20 6 21 7 22 22 24
REMARK SMILES IDX 23 25 24 26 25 27 26 28 27 29 28 30 29 31 30 32 31 33 32 34
REMARK SMILES IDX 93 35 33 36 92 37 34 38 35 39 36 40 86 41 37 42 91 43 85 44
REMARK SMILES IDX 87 45 38 46 90 47 84 48 83 49 39 51 71 52 51 53 70 54 52 55
REMARK SMILES IDX 55 56 69 57 88 58 53 59 54 60 68 62 89 63 56 64 40 65 41 66
REMARK SMILES IDX 49 67 42 68 43 69 47 70 50 71 44 72 45 73 48 74 46 75 72 76
REMARK SMILES IDX 73 77 81 78 74 79 75 80 79 81 82 82 76 83 77 84 80 85 78 86
REMARK SMILES IDX 57 87 58 88 66 89 59 90 60 91 64 92 67 93 61 94 62 95 65 96
REMARK SMILES IDX 63 97
REMARK H PARENT 8 14 5 23 87 50 55 61
REMARK Flexibility Score: inf
ROOT
ATOM      1  C   UNL A   1      44.248  41.420  26.137  1.00  0.00     0.202 C 
ENDROOT
BRANCH   1   2
ATOM      2  C   UNL A   1      42.973  41.730  25.316  1.00  0.00     0.261 C 
BRANCH   2   3
ATOM      3  O   UNL A   1      43.048  41.718  23.886  1.00  0.00    -0.459 OA
BRANCH   3   4
ATOM      4  C   UNL A   1      42.420  42.714  23.215  1.00  0.00     0.355 C 
ATOM      5  O   UNL A   1      41.229  42.959  23.300  1.00  0.00    -0.244 OA
BRANCH   4   6
ATOM      6  C   UNL A   1      43.400  43.558  22.547  1.00  0.00     0.128 A 
ATOM      7  N   UNL A   1      43.729  43.649  21.200  1.00  0.00    -0.333 N 
ATOM      8  C   UNL A   1      44.634  44.678  21.026  1.00  0.00     0.087 A 
ATOM      9  C   UNL A   1      45.014  45.142  22.259  1.00  0.00     0.020 A 
ATOM     10  C   UNL A   1      44.234  44.454  23.209  1.00  0.00     0.035 A 
BRANCH   7  11
ATOM     11  C   UNL A   1      43.122  42.960  20.066  1.00  0.00     0.222 C 
BRANCH  11  12
ATOM     12  C   UNL A   1      41.843  43.566  19.541  1.00  0.00     0.240 C 
ATOM     13  N   UNL A   1      41.819  44.451  18.507  1.00  0.00    -0.352 N 
ATOM     14  H   UNL A   1      40.907  44.674  18.209  1.00  0.00     0.163 HD
ATOM     15  O   UNL A   1      40.775  43.327  20.116  1.00  0.00    -0.273 OA
BRANCH  13  16
ATOM     16  C   UNL A   1      42.858  45.140  17.745  1.00  0.00     0.084 C 
ATOM     17  C   UNL A   1      43.250  44.432  16.446  1.00  0.00     0.031 C 
BRANCH  16  18
ATOM     18  C   UNL A   1      42.480  46.620  17.498  1.00  0.00     0.086 C 
BRANCH  18  19
ATOM     19  C   UNL A   1      43.453  47.566  16.747  1.00  0.00     0.263 C 
BRANCH  19  20
ATOM     20  N   UNL A   1      44.197  48.512  17.596  1.00  0.00    -0.340 N 
ATOM     21  C   UNL A   1      45.182  49.258  16.800  1.00  0.00     0.332 C 
ATOM     22  C   UNL A   1      43.334  49.493  18.249  1.00  0.00     0.332 C 
ATOM     23  H   UNL A   1      44.650  47.941  18.310  1.00  0.00     0.347 HD
ENDBRANCH  19  20
ENDBRANCH  18  19
ENDBRANCH  16  18
ENDBRANCH  13  16
ENDBRANCH  11  12
ENDBRANCH   7  11
ENDBRANCH   4   6
ENDBRANCH   3   4
ENDBRANCH   2   3
ENDBRANCH   1   2
BRANCH   1  24
ATOM     24  O   UNL A   1      44.405  40.339  27.042  1.00  0.00    -0.376 OA
BRANCH  24  25
ATOM     25  C   UNL A   1      43.823  40.409  28.318  1.00  0.00     0.188 C 
BRANCH  25  26
ATOM     26  C   UNL A   1      42.336  40.034  28.368  1.00  0.00     0.188 C 
BRANCH  26  27
ATOM     27  O   UNL A   1      41.863  38.718  28.124  1.00  0.00    -0.376 OA
BRANCH  27  28
ATOM     28  C   UNL A   1      42.054  38.016  26.907  1.00  0.00     0.202 C 
BRANCH  28  29
ATOM     29  C   UNL A   1      42.868  36.733  26.886  1.00  0.00     0.261 C 
BRANCH  29  30
ATOM     30  O   UNL A   1      43.785  36.662  27.962  1.00  0.00    -0.460 OA
BRANCH  30  31
ATOM     31  C   UNL A   1      44.810  35.842  27.682  1.00  0.00     0.338 C 
ATOM     32  O   UNL A   1      45.603  35.889  26.756  1.00  0.00    -0.246 OA
BRANCH  31  33
ATOM     33  C   UNL A   1      44.810  34.717  28.600  1.00  0.00     0.060 A 
ATOM     34  C   UNL A   1      44.325  33.535  28.027  1.00  0.00     0.016 A 
ATOM     35  C   UNL A   1      44.542  35.119  29.909  1.00  0.00     0.016 A 
ATOM     36  C   UNL A   1      43.304  32.898  28.681  1.00  0.00     0.010 A 
ATOM     37  C   UNL A   1      43.480  34.524  30.531  1.00  0.00     0.010 A 
ATOM     38  C   UNL A   1      42.853  33.451  29.885  1.00  0.00    -0.014 A 
BRANCH  38  39
ATOM     39  C   UNL A   1      41.807  32.733  30.594  1.00  0.00     0.031 A 
ATOM     40  C   UNL A   1      42.416  31.475  31.236  1.00  0.00     0.074 A 
ATOM     41  C   UNL A   1      40.568  33.308  30.522  1.00  0.00     0.049 A 
ATOM     42  N   UNL A   1      41.836  30.428  31.724  1.00  0.00    -0.248 NA
ATOM     43  C   UNL A   1      43.906  31.343  31.327  1.00  0.00     0.031 C 
ATOM     44  C   UNL A   1      40.241  34.582  29.832  1.00  0.00     0.029 A 
ATOM     45  N   UNL A   1      39.331  32.942  30.998  1.00  0.00    -0.354 N 
ATOM     46  C   UNL A   1      42.830  29.665  32.371  1.00  0.00     0.074 A 
ATOM     47  C   UNL A   1      44.093  30.216  32.009  1.00  0.00     0.031 C 
ATOM     48  C   UNL A   1      38.910  34.824  29.862  1.00  0.00     0.029 A 
ATOM     49  C   UNL A   1      38.244  33.762  30.589  1.00  0.00     0.049 A 
ATOM     50  H   UNL A   1      39.206  32.160  31.583  1.00  0.00     0.167 HD
ATOM     51  C   UNL A   1      42.537  28.697  33.281  1.00  0.00     0.037 A 
ATOM     52  C   UNL A   1      36.906  33.558  30.802  1.00  0.00     0.037 A 
ATOM     53  C   UNL A   1      41.129  28.501  33.344  1.00  0.00     0.049 A 
ATOM     54  C   UNL A   1      36.869  32.424  31.733  1.00  0.00     0.074 A 
ATOM     55  C   UNL A   1      40.269  27.920  32.450  1.00  0.00     0.029 A 
ATOM     56  N   UNL A   1      40.419  29.298  34.207  1.00  0.00    -0.354 N 
ATOM     57  N   UNL A   1      37.203  32.501  32.986  1.00  0.00    -0.248 NA
ATOM     58  C   UNL A   1      36.542  31.092  31.216  1.00  0.00     0.031 C 
ATOM     59  C   UNL A   1      39.133  28.750  32.505  1.00  0.00     0.029 A 
ATOM     60  C   UNL A   1      39.251  29.650  33.571  1.00  0.00     0.049 A 
ATOM     61  H   UNL A   1      40.694  29.569  35.113  1.00  0.00     0.167 HD
ATOM     62  C   UNL A   1      37.451  31.188  33.301  1.00  0.00     0.074 A 
ATOM     63  C   UNL A   1      36.741  30.387  32.326  1.00  0.00     0.031 C 
ATOM     64  C   UNL A   1      38.587  30.867  33.972  1.00  0.00     0.037 A 
BRANCH  51  65
ATOM     65  C   UNL A   1      43.392  27.999  34.287  1.00  0.00     0.064 A 
ATOM     66  C   UNL A   1      43.672  26.630  34.080  1.00  0.00     0.173 A 
ATOM     67  C   UNL A   1      43.637  28.505  35.569  1.00  0.00     0.173 A 
ATOM     68  F   UNL A   1      43.512  26.072  32.869  1.00  0.00    -0.203 F 
ATOM     69  C   UNL A   1      44.041  25.790  35.125  1.00  0.00     0.198 A 
ATOM     70  C   UNL A   1      44.055  27.666  36.607  1.00  0.00     0.198 A 
ATOM     71  F   UNL A   1      43.386  29.786  35.870  1.00  0.00    -0.203 F 
ATOM     72  F   UNL A   1      44.160  24.472  34.911  1.00  0.00    -0.200 F 
ATOM     73  C   UNL A   1      44.213  26.306  36.394  1.00  0.00     0.200 A 
ATOM     74  F   UNL A   1      44.228  28.170  37.837  1.00  0.00    -0.200 F 
ATOM     75  F   UNL A   1      44.498  25.490  37.419  1.00  0.00    -0.200 F 
ENDBRANCH  51  65
BRANCH  52  76
ATOM     76  C   UNL A   1      35.559  34.083  30.356  1.00  0.00     0.064 A 
ATOM     77  C   UNL A   1      34.581  34.664  31.171  1.00  0.00     0.173 A 
ATOM     78  C   UNL A   1      35.248  34.119  28.962  1.00  0.00     0.173 A 
ATOM     79  F   UNL A   1      34.679  34.619  32.503  1.00  0.00    -0.203 F 
ATOM     80  C   UNL A   1      33.457  35.322  30.631  1.00  0.00     0.198 A 
ATOM     81  C   UNL A   1      34.168  34.819  28.425  1.00  0.00     0.198 A 
ATOM     82  F   UNL A   1      36.001  33.484  28.054  1.00  0.00    -0.203 F 
ATOM     83  F   UNL A   1      32.551  35.873  31.452  1.00  0.00    -0.200 F 
ATOM     84  C   UNL A   1      33.276  35.438  29.263  1.00  0.00     0.200 A 
ATOM     85  F   UNL A   1      34.028  34.904  27.094  1.00  0.00    -0.200 F 
ATOM     86  F   UNL A   1      32.249  36.133  28.754  1.00  0.00    -0.200 F 
ENDBRANCH  52  76
BRANCH  64  87
ATOM     87  C   UNL A   1      39.193  32.032  34.744  1.00  0.00     0.064 A 
ATOM     88  C   UNL A   1      38.499  32.586  35.833  1.00  0.00     0.173 A 
ATOM     89  C   UNL A   1      40.360  32.715  34.360  1.00  0.00     0.173 A 
ATOM     90  F   UNL A   1      37.392  31.984  36.294  1.00  0.00    -0.203 F 
ATOM     91  C   UNL A   1      38.922  33.764  36.459  1.00  0.00     0.198 A 
ATOM     92  C   UNL A   1      40.787  33.893  34.981  1.00  0.00     0.198 A 
ATOM     93  F   UNL A   1      41.129  32.252  33.380  1.00  0.00    -0.203 F 
ATOM     94  F   UNL A   1      38.220  34.261  37.487  1.00  0.00    -0.200 F 
ATOM     95  C   UNL A   1      40.060  34.422  36.027  1.00  0.00     0.200 A 
ATOM     96  F   UNL A   1      41.906  34.504  34.562  1.00  0.00    -0.200 F 
ATOM     97  F   UNL A   1      40.468  35.549  36.629  1.00  0.00    -0.200 F 
ENDBRANCH  64  87
ENDBRANCH  38  39
ENDBRANCH  31  33
ENDBRANCH  30  31
ENDBRANCH  29  30
ENDBRANCH  28  29
ENDBRANCH  27  28
ENDBRANCH  26  27
ENDBRANCH  25  26
ENDBRANCH  24  25
ENDBRANCH   1  24
TORSDOF 23
ENDMDL
MODEL 2
REMARK VINA RESULT:      -9.3      7.956     13.308
REMARK SMILES C[C@@H](CC[NH+](C)C)NC(=O)Cn1cccc1C(=O)OCCOCCOCCOC(=O)c1ccc(-c2c3nc(c(-c4c(F)c(F)c(F)c(F)c4F)c4ccc([nH]4)c(-c4c(F)c(F)c(F)c(F)c4F)c4nc(c(-c5c(F)c(F)c(F)c(F)c5F)c5ccc2[nH]5)C=C4)C=C3)cc1
REMARK SMILES IDX 21 1 20 2 19 3 17 4 18 5 16 6 12 7 13 8 14 9 15 10 11 11
REMARK SMILES IDX 9 12 8 13 10 15 2 16 1 17 3 18 4 19 5 20 6 21 7 22 22 24
REMARK SMILES IDX 23 25 24 26 25 27 26 28 27 29 28 30 29 31 30 32 31 33 32 34
REMARK SMILES IDX 93 35 33 36 92 37 34 38 35 39 36 40 86 41 37 42 91 43 85 44
REMARK SMILES IDX 87 45 38 46 90 47 84 48 83 49 39 51 71 52 51 53 70 54 52 55
REMARK SMILES IDX 55 56 69 57 88 58 53 59 54 60 68 62 89 63 56 64 40 65 41 66
REMARK SMILES IDX 49 67 42 68 43 69 47 70 50 71 44 72 45 73 48 74 46 75 72 76
REMARK SMILES IDX 73 77 81 78 74 79 75 80 79 81 82 82 76 83 77 84 80 85 78 86
REMARK SMILES IDX 57 87 58 88 66 89 59 90 60 91 64 92 67 93 61 94 62 95 65 96
REMARK SMILES IDX 63 97
REMARK H PARENT 8 14 5 23 87 50 55 61
REMARK Flexibility Score: inf
ROOT
ATOM      1  C   UNL A   1      33.952  30.247  27.222  1.00  0.00     0.202 C 
ENDROOT
BRANCH   1   2
ATOM      2  C   UNL A   1      33.616  29.219  26.115  1.00  0.00     0.261 C 
BRANCH   2   3
ATOM      3  O   UNL A   1      32.634  29.557  25.129  1.00  0.00    -0.459 OA
BRANCH   3   4
ATOM      4  C   UNL A   1      32.732  28.962  23.914  1.00  0.00     0.355 C 
ATOM      5  O   UNL A   1      33.598  29.209  23.093  1.00  0.00    -0.244 OA
BRANCH   4   6
ATOM      6  C   UNL A   1      31.786  27.859  23.824  1.00  0.00     0.128 A 
ATOM      7  N   UNL A   1      32.009  26.509  23.587  1.00  0.00    -0.333 N 
ATOM      8  C   UNL A   1      30.815  25.826  23.712  1.00  0.00     0.087 A 
ATOM      9  C   UNL A   1      29.802  26.737  23.865  1.00  0.00     0.020 A 
ATOM     10  C   UNL A   1      30.407  28.006  23.950  1.00  0.00     0.035 A 
BRANCH   7  11
ATOM     11  C   UNL A   1      33.280  25.810  23.429  1.00  0.00     0.222 C 
BRANCH  11  12
ATOM     12  C   UNL A   1      33.228  24.530  22.630  1.00  0.00     0.240 C 
ATOM     13  N   UNL A   1      33.222  23.299  23.211  1.00  0.00    -0.352 N 
ATOM     14  H   UNL A   1      33.076  22.568  22.569  1.00  0.00     0.163 HD
ATOM     15  O   UNL A   1      33.277  24.580  21.395  1.00  0.00    -0.273 OA
BRANCH  13  16
ATOM     16  C   UNL A   1      33.386  22.833  24.586  1.00  0.00     0.084 C 
ATOM     17  C   UNL A   1      32.145  22.147  25.163  1.00  0.00     0.031 C 
BRANCH  16  18
ATOM     18  C   UNL A   1      34.646  21.947  24.728  1.00  0.00     0.086 C 
BRANCH  18  19
ATOM     19  C   UNL A   1      35.360  21.807  26.098  1.00  0.00     0.263 C 
BRANCH  19  20
ATOM     20  N   UNL A   1      36.771  22.229  26.123  1.00  0.00    -0.340 N 
ATOM     21  C   UNL A   1      37.530  21.560  25.057  1.00  0.00     0.332 C 
ATOM     22  C   UNL A   1      36.939  23.667  25.940  1.00  0.00     0.332 C 
ATOM     23  H   UNL A   1      37.117  21.969  27.047  1.00  0.00     0.347 HD
ENDBRANCH  19  20
ENDBRANCH  18  19
ENDBRANCH  16  18
ENDBRANCH  13  16
ENDBRANCH  11  12
ENDBRANCH   7  11
ENDBRANCH   4   6
ENDBRANCH   3   4
ENDBRANCH   2   3
ENDBRANCH   1   2
BRANCH   1  24
ATOM     24  O   UNL A   1      33.239  31.447  27.480  1.00  0.00    -0.376 OA
BRANCH  24  25
ATOM     25  C   UNL A   1      33.920  32.565  27.988  1.00  0.00     0.188 C 
BRANCH  25  26
ATOM     26  C   UNL A   1      33.107  33.866  27.991  1.00  0.00     0.188 C 
BRANCH  26  27
ATOM     27  O   UNL A   1      33.607  35.086  28.518  1.00  0.00    -0.376 OA
BRANCH  27  28
ATOM     28  C   UNL A   1      32.798  36.084  29.120  1.00  0.00     0.202 C 
BRANCH  28  29
ATOM     29  C   UNL A   1      32.795  36.254  30.630  1.00  0.00     0.261 C 
BRANCH  29  30
ATOM     30  O   UNL A   1      34.038  35.909  31.211  1.00  0.00    -0.460 OA
BRANCH  30  31
ATOM     31  C   UNL A   1      33.916  34.873  32.056  1.00  0.00     0.338 C 
ATOM     32  O   UNL A   1      33.424  34.845  33.172  1.00  0.00    -0.246 OA
BRANCH  31  33
ATOM     33  C   UNL A   1      34.602  33.712  31.519  1.00  0.00     0.060 A 
ATOM     34  C   UNL A   1      34.786  32.692  32.462  1.00  0.00     0.016 A 
ATOM     35  C   UNL A   1      35.549  34.070  30.559  1.00  0.00     0.016 A 
ATOM     36  C   UNL A   1      36.062  32.229  32.639  1.00  0.00     0.010 A 
ATOM     37  C   UNL A   1      36.835  33.658  30.779  1.00  0.00     0.010 A 
ATOM     38  C   UNL A   1      37.074  32.779  31.843  1.00  0.00    -0.014 A 
BRANCH  38  39
ATOM     39  C   UNL A   1      38.413  32.238  32.005  1.00  0.00     0.031 A 
ATOM     40  C   UNL A   1      38.570  31.018  31.083  1.00  0.00     0.074 A 
ATOM     41  C   UNL A   1      39.192  32.902  32.913  1.00  0.00     0.049 A 
ATOM     42  N   UNL A   1      39.467  30.087  31.083  1.00  0.00    -0.248 NA
ATOM     43  C   UNL A   1      37.558  30.774  30.006  1.00  0.00     0.031 C 
ATOM     44  C   UNL A   1      38.793  34.110  33.680  1.00  0.00     0.029 A 
ATOM     45  N   UNL A   1      40.467  32.698  33.387  1.00  0.00    -0.354 N 
ATOM     46  C   UNL A   1      39.277  29.325  29.912  1.00  0.00     0.074 A 
ATOM     47  C   UNL A   1      38.033  29.722  29.343  1.00  0.00     0.031 C 
ATOM     48  C   UNL A   1      39.754  34.463  34.565  1.00  0.00     0.029 A 
ATOM     49  C   UNL A   1      40.876  33.553  34.446  1.00  0.00     0.049 A 
ATOM     50  H   UNL A   1      41.058  32.004  33.016  1.00  0.00     0.167 HD
ATOM     51  C   UNL A   1      40.234  28.497  29.411  1.00  0.00     0.037 A 
ATOM     52  C   UNL A   1      42.027  33.488  35.187  1.00  0.00     0.037 A 
ATOM     53  C   UNL A   1      41.335  28.429  30.309  1.00  0.00     0.049 A 
ATOM     54  C   UNL A   1      42.833  32.477  34.492  1.00  0.00     0.074 A 
ATOM     55  C   UNL A   1      41.452  27.820  31.531  1.00  0.00     0.029 A 
ATOM     56  N   UNL A   1      42.318  29.377  30.177  1.00  0.00    -0.354 N 
ATOM     57  N   UNL A   1      43.412  32.672  33.346  1.00  0.00    -0.248 NA
ATOM     58  C   UNL A   1      42.915  31.126  35.053  1.00  0.00     0.031 C 
ATOM     59  C   UNL A   1      42.204  28.743  32.283  1.00  0.00     0.029 A 
ATOM     60  C   UNL A   1      42.701  29.748  31.445  1.00  0.00     0.049 A 
ATOM     61  H   UNL A   1      42.682  29.728  29.332  1.00  0.00     0.167 HD
ATOM     62  C   UNL A   1      43.624  31.389  32.907  1.00  0.00     0.074 A 
ATOM     63  C   UNL A   1      43.607  30.541  34.080  1.00  0.00     0.031 C 
ATOM     64  C   UNL A   1      43.284  31.055  31.635  1.00  0.00     0.037 A 
BRANCH  51  65
ATOM     65  C   UNL A   1      40.375  27.854  28.071  1.00  0.00     0.064 A 
ATOM     66  C   UNL A   1      40.058  26.481  27.961  1.00  0.00     0.173 A 
ATOM     67  C   UNL A   1      41.115  28.414  27.023  1.00  0.00     0.173 A 
ATOM     68  F   UNL A   1      39.311  25.872  28.896  1.00  0.00    -0.203 F 
ATOM     69  C   UNL A   1      40.569  25.689  26.938  1.00  0.00     0.198 A 
ATOM     70  C   UNL A   1      41.587  27.625  25.970  1.00  0.00     0.198 A 
ATOM     71  F   UNL A   1      41.481  29.703  27.044  1.00  0.00    -0.203 F 
ATOM     72  F   UNL A   1      40.358  24.366  26.951  1.00  0.00    -0.200 F 
ATOM     73  C   UNL A   1      41.350  26.259  25.952  1.00  0.00     0.200 A 
ATOM     74  F   UNL A   1      42.339  28.181  25.010  1.00  0.00    -0.200 F 
ATOM     75  F   UNL A   1      41.904  25.490  25.005  1.00  0.00    -0.200 F 
ENDBRANCH  51  65
BRANCH  52  76
ATOM     76  C   UNL A   1      42.643  34.067  36.442  1.00  0.00     0.064 A 
ATOM     77  C   UNL A   1      43.693  34.990  36.503  1.00  0.00     0.173 A 
ATOM     78  C   UNL A   1      42.061  33.766  37.711  1.00  0.00     0.173 A 
ATOM     79  F   UNL A   1      44.404  35.298  35.413  1.00  0.00    -0.203 F 
ATOM     80  C   UNL A   1      44.047  35.637  37.705  1.00  0.00     0.198 A 
ATOM     81  C   UNL A   1      42.370  34.447  38.889  1.00  0.00     0.198 A 
ATOM     82  F   UNL A   1      41.144  32.800  37.856  1.00  0.00    -0.203 F 
ATOM     83  F   UNL A   1      45.054  36.522  37.713  1.00  0.00    -0.200 F 
ATOM     84  C   UNL A   1      43.358  35.399  38.883  1.00  0.00     0.200 A 
ATOM     85  F   UNL A   1      41.681  34.184  40.008  1.00  0.00    -0.200 F 
ATOM     86  F   UNL A   1      43.644  36.074  40.004  1.00  0.00    -0.200 F 
ENDBRANCH  52  76
BRANCH  64  87
ATOM     87  C   UNL A   1      43.190  32.248  30.692  1.00  0.00     0.064 A 
ATOM     88  C   UNL A   1      44.351  32.961  30.349  1.00  0.00     0.173 A 
ATOM     89  C   UNL A   1      41.983  32.801  30.232  1.00  0.00     0.173 A 
ATOM     90  F   UNL A   1      45.554  32.492  30.714  1.00  0.00    -0.203 F 
ATOM     91  C   UNL A   1      44.299  34.164  29.637  1.00  0.00     0.198 A 
ATOM     92  C   UNL A   1      41.923  34.004  29.522  1.00  0.00     0.198 A 
ATOM     93  F   UNL A   1      40.825  32.185  30.448  1.00  0.00    -0.203 F 
ATOM     94  F   UNL A   1      45.432  34.815  29.343  1.00  0.00    -0.200 F 
ATOM     95  C   UNL A   1      43.084  34.690  29.231  1.00  0.00     0.200 A 
ATOM     96  F   UNL A   1      40.737  34.486  29.117  1.00  0.00    -0.200 F 
ATOM     97  F   UNL A   1      43.033  35.841  28.546  1.00  0.00    -0.200 F 
ENDBRANCH  64  87
ENDBRANCH  38  39
ENDBRANCH  31  33
ENDBRANCH  30  31
ENDBRANCH  29  30
ENDBRANCH  28  29
ENDBRANCH  27  28
ENDBRANCH  26  27
ENDBRANCH  25  26
ENDBRANCH  24  25
ENDBRANCH   1  24
TORSDOF 23
ENDMDL
MODEL 3
REMARK VINA RESULT:      -9.1      8.044     14.453
REMARK SMILES C[C@@H](CC[NH+](C)C)NC(=O)Cn1cccc1C(=O)OCCOCCOCCOC(=O)c1ccc(-c2c3nc(c(-c4c(F)c(F)c(F)c(F)c4F)c4ccc([nH]4)c(-c4c(F)c(F)c(F)c(F)c4F)c4nc(c(-c5c(F)c(F)c(F)c(F)c5F)c5ccc2[nH]5)C=C4)C=C3)cc1
REMARK SMILES IDX 21 1 20 2 19 3 17 4 18 5 16 6 12 7 13 8 14 9 15 10 11 11
REMARK SMILES IDX 9 12 8 13 10 15 2 16 1 17 3 18 4 19 5 20 6 21 7 22 22 24
REMARK SMILES IDX 23 25 24 26 25 27 26 28 27 29 28 30 29 31 30 32 31 33 32 34
REMARK SMILES IDX 93 35 33 36 92 37 34 38 35 39 36 40 86 41 37 42 91 43 85 44
REMARK SMILES IDX 87 45 38 46 90 47 84 48 83 49 39 51 71 52 51 53 70 54 52 55
REMARK SMILES IDX 55 56 69 57 88 58 53 59 54 60 68 62 89 63 56 64 40 65 41 66
REMARK SMILES IDX 49 67 42 68 43 69 47 70 50 71 44 72 45 73 48 74 46 75 72 76
REMARK SMILES IDX 73 77 81 78 74 79 75 80 79 81 82 82 76 83 77 84 80 85 78 86
REMARK SMILES IDX 57 87 58 88 66 89 59 90 60 91 64 92 67 93 61 94 62 95 65 96
REMARK SMILES IDX 63 97
REMARK H PARENT 8 14 5 23 87 50 55 61
REMARK Flexibility Score: inf
ROOT
ATOM      1  C   UNL A   1      41.877  28.162  36.249  1.00  0.00     0.202 C 
ENDROOT
BRANCH   1   2
ATOM      2  C   UNL A   1      41.232  29.229  35.333  1.00  0.00     0.261 C 
BRANCH   2   3
ATOM      3  O   UNL A   1      42.041  29.878  34.345  1.00  0.00    -0.459 OA
BRANCH   3   4
ATOM      4  C   UNL A   1      41.430  30.750  33.506  1.00  0.00     0.355 C 
ATOM      5  O   UNL A   1      41.496  31.963  33.603  1.00  0.00    -0.244 OA
BRANCH   4   6
ATOM      6  C   UNL A   1      40.861  30.033  32.374  1.00  0.00     0.128 A 
ATOM      7  N   UNL A   1      39.615  30.159  31.774  1.00  0.00    -0.333 N 
ATOM      8  C   UNL A   1      39.570  29.351  30.653  1.00  0.00     0.087 A 
ATOM      9  C   UNL A   1      40.708  28.587  30.618  1.00  0.00     0.020 A 
ATOM     10  C   UNL A   1      41.522  29.022  31.683  1.00  0.00     0.035 A 
BRANCH   7  11
ATOM     11  C   UNL A   1      38.548  31.107  32.079  1.00  0.00     0.222 C 
BRANCH  11  12
ATOM     12  C   UNL A   1      37.662  30.742  33.245  1.00  0.00     0.240 C 
ATOM     13  N   UNL A   1      36.480  31.367  33.495  1.00  0.00    -0.352 N 
ATOM     14  H   UNL A   1      35.966  30.948  34.223  1.00  0.00     0.163 HD
ATOM     15  O   UNL A   1      38.051  29.901  34.065  1.00  0.00    -0.273 OA
BRANCH  13  16
ATOM     16  C   UNL A   1      35.811  32.529  32.914  1.00  0.00     0.084 C 
ATOM     17  C   UNL A   1      36.683  33.785  32.859  1.00  0.00     0.031 C 
BRANCH  16  18
ATOM     18  C   UNL A   1      35.209  32.190  31.530  1.00  0.00     0.086 C 
BRANCH  18  19
ATOM     19  C   UNL A   1      35.490  33.100  30.305  1.00  0.00     0.263 C 
BRANCH  19  20
ATOM     20  N   UNL A   1      36.156  32.442  29.167  1.00  0.00    -0.340 N 
ATOM     21  C   UNL A   1      35.315  32.514  27.964  1.00  0.00     0.332 C 
ATOM     22  C   UNL A   1      37.444  33.045  28.835  1.00  0.00     0.332 C 
ATOM     23  H   UNL A   1      36.306  31.477  29.460  1.00  0.00     0.347 HD
ENDBRANCH  19  20
ENDBRANCH  18  19
ENDBRANCH  16  18
ENDBRANCH  13  16
ENDBRANCH  11  12
ENDBRANCH   7  11
ENDBRANCH   4   6
ENDBRANCH   3   4
ENDBRANCH   2   3
ENDBRANCH   1   2
BRANCH   1  24
ATOM     24  O   UNL A   1      41.181  27.146  36.953  1.00  0.00    -0.376 OA
BRANCH  24  25
ATOM     25  C   UNL A   1      40.851  25.949  36.298  1.00  0.00     0.188 C 
BRANCH  25  26
ATOM     26  C   UNL A   1      41.941  24.870  36.342  1.00  0.00     0.188 C 
BRANCH  26  27
ATOM     27  O   UNL A   1      41.960  23.755  35.462  1.00  0.00    -0.376 OA
BRANCH  27  28
ATOM     28  C   UNL A   1      43.102  23.336  34.734  1.00  0.00     0.202 C 
BRANCH  28  29
ATOM     29  C   UNL A   1      44.433  23.151  35.443  1.00  0.00     0.261 C 
BRANCH  29  30
ATOM     30  O   UNL A   1      45.444  23.986  34.912  1.00  0.00    -0.460 OA
BRANCH  30  31
ATOM     31  C   UNL A   1      45.568  25.121  35.618  1.00  0.00     0.338 C 
ATOM     32  O   UNL A   1      45.576  25.277  36.828  1.00  0.00    -0.246 OA
BRANCH  31  33
ATOM     33  C   UNL A   1      45.565  26.264  34.724  1.00  0.00     0.060 A 
ATOM     34  C   UNL A   1      44.278  26.669  34.347  1.00  0.00     0.016 A 
ATOM     35  C   UNL A   1      46.663  26.249  33.862  1.00  0.00     0.016 A 
ATOM     36  C   UNL A   1      44.022  26.770  33.006  1.00  0.00     0.010 A 
ATOM     37  C   UNL A   1      46.395  26.284  32.522  1.00  0.00     0.010 A 
ATOM     38  C   UNL A   1      45.070  26.501  32.118  1.00  0.00    -0.014 A 
BRANCH  38  39
ATOM     39  C   UNL A   1      44.798  26.667  30.700  1.00  0.00     0.031 A 
ATOM     40  C   UNL A   1      44.720  28.169  30.382  1.00  0.00     0.074 A 
ATOM     41  C   UNL A   1      44.666  25.498  30.003  1.00  0.00     0.049 A 
ATOM     42  N   UNL A   1      44.251  28.774  29.341  1.00  0.00    -0.248 NA
ATOM     43  C   UNL A   1      45.217  29.162  31.389  1.00  0.00     0.031 C 
ATOM     44  C   UNL A   1      44.816  24.130  30.564  1.00  0.00     0.029 A 
ATOM     45  N   UNL A   1      44.369  25.212  28.691  1.00  0.00    -0.354 N 
ATOM     46  C   UNL A   1      44.604  30.134  29.455  1.00  0.00     0.074 A 
ATOM     47  C   UNL A   1      45.102  30.336  30.774  1.00  0.00     0.031 C 
ATOM     48  C   UNL A   1      44.526  23.189  29.636  1.00  0.00     0.029 A 
ATOM     49  C   UNL A   1      44.192  23.836  28.383  1.00  0.00     0.049 A 
ATOM     50  H   UNL A   1      44.284  25.917  28.009  1.00  0.00     0.167 HD
ATOM     51  C   UNL A   1      44.585  30.989  28.396  1.00  0.00     0.037 A 
ATOM     52  C   UNL A   1      43.767  23.283  27.203  1.00  0.00     0.037 A 
ATOM     53  C   UNL A   1      44.032  30.339  27.257  1.00  0.00     0.049 A 
ATOM     54  C   UNL A   1      43.751  24.417  26.272  1.00  0.00     0.074 A 
ATOM     55  C   UNL A   1      42.743  29.970  26.981  1.00  0.00     0.029 A 
ATOM     56  N   UNL A   1      44.892  29.628  26.458  1.00  0.00    -0.354 N 
ATOM     57  N   UNL A   1      44.820  24.976  25.790  1.00  0.00    -0.248 NA
ATOM     58  C   UNL A   1      42.469  25.040  25.933  1.00  0.00     0.031 C 
ATOM     59  C   UNL A   1      42.890  28.714  26.361  1.00  0.00     0.029 A 
ATOM     60  C   UNL A   1      44.242  28.476  26.083  1.00  0.00     0.049 A 
ATOM     61  H   UNL A   1      45.805  29.893  26.201  1.00  0.00     0.167 HD
ATOM     62  C   UNL A   1      44.349  26.199  25.384  1.00  0.00     0.074 A 
ATOM     63  C   UNL A   1      42.921  26.053  25.199  1.00  0.00     0.031 C 
ATOM     64  C   UNL A   1      45.033  27.323  25.723  1.00  0.00     0.037 A 
BRANCH  51  65
ATOM     65  C   UNL A   1      45.190  32.342  28.212  1.00  0.00     0.064 A 
ATOM     66  C   UNL A   1      44.319  33.454  28.161  1.00  0.00     0.173 A 
ATOM     67  C   UNL A   1      46.495  32.543  27.747  1.00  0.00     0.173 A 
ATOM     68  F   UNL A   1      43.064  33.365  28.630  1.00  0.00    -0.203 F 
ATOM     69  C   UNL A   1      44.690  34.649  27.554  1.00  0.00     0.198 A 
ATOM     70  C   UNL A   1      46.879  33.762  27.181  1.00  0.00     0.198 A 
ATOM     71  F   UNL A   1      47.390  31.546  27.737  1.00  0.00    -0.203 F 
ATOM     72  F   UNL A   1      43.787  35.628  27.403  1.00  0.00    -0.200 F 
ATOM     73  C   UNL A   1      45.966  34.796  27.046  1.00  0.00     0.200 A 
ATOM     74  F   UNL A   1      48.120  33.905  26.695  1.00  0.00    -0.200 F 
ATOM     75  F   UNL A   1      46.306  35.918  26.397  1.00  0.00    -0.200 F 
ENDBRANCH  51  65
BRANCH  52  76
ATOM     76  C   UNL A   1      43.296  21.962  26.635  1.00  0.00     0.064 A 
ATOM     77  C   UNL A   1      43.978  21.164  25.711  1.00  0.00     0.173 A 
ATOM     78  C   UNL A   1      42.100  21.367  27.142  1.00  0.00     0.173 A 
ATOM     79  F   UNL A   1      45.060  21.621  25.072  1.00  0.00    -0.203 F 
ATOM     80  C   UNL A   1      43.564  19.849  25.412  1.00  0.00     0.198 A 
ATOM     81  C   UNL A   1      41.722  20.049  26.893  1.00  0.00     0.198 A 
ATOM     82  F   UNL A   1      41.251  22.047  27.925  1.00  0.00    -0.203 F 
ATOM     83  F   UNL A   1      44.256  19.118  24.526  1.00  0.00    -0.200 F 
ATOM     84  C   UNL A   1      42.467  19.279  26.036  1.00  0.00     0.200 A 
ATOM     85  F   UNL A   1      40.650  19.536  27.516  1.00  0.00    -0.200 F 
ATOM     86  F   UNL A   1      42.124  18.004  25.810  1.00  0.00    -0.200 F 
ENDBRANCH  52  76
BRANCH  64  87
ATOM     87  C   UNL A   1      46.496  27.071  26.064  1.00  0.00     0.064 A 
ATOM     88  C   UNL A   1      47.382  26.637  25.064  1.00  0.00     0.173 A 
ATOM     89  C   UNL A   1      47.022  27.100  27.366  1.00  0.00     0.173 A 
ATOM     90  F   UNL A   1      46.981  26.609  23.784  1.00  0.00    -0.203 F 
ATOM     91  C   UNL A   1      48.685  26.221  25.357  1.00  0.00     0.198 A 
ATOM     92  C   UNL A   1      48.322  26.684  27.667  1.00  0.00     0.198 A 
ATOM     93  F   UNL A   1      46.294  27.546  28.386  1.00  0.00    -0.203 F 
ATOM     94  F   UNL A   1      49.491  25.804  24.371  1.00  0.00    -0.200 F 
ATOM     95  C   UNL A   1      49.152  26.235  26.660  1.00  0.00     0.200 A 
ATOM     96  F   UNL A   1      48.764  26.727  28.934  1.00  0.00    -0.200 F 
ATOM     97  F   UNL A   1      50.402  25.839  26.943  1.00  0.00    -0.200 F 
ENDBRANCH  64  87
ENDBRANCH  38  39
ENDBRANCH  31  33
ENDBRANCH  30  31
ENDBRANCH  29  30
ENDBRANCH  28  29
ENDBRANCH  27  28
ENDBRANCH  26  27
ENDBRANCH  25  26
ENDBRANCH  24  25
ENDBRANCH   1  24
TORSDOF 23
ENDMDL
