MODEL 1
REMARK VINA RESULT:     -11.6      0.000      0.000
REMARK SMILES COc1ccc2c(c1)c(CC(=O)OCCOCCOCCOC(=O)c1ccc(-c3c4nc(c(-c5c(F)c(F)c(F)c(F)c5F)c5ccc([nH]5)c(-c5c(F)c(F)c(F)c(F)c5F)c5nc(c(-c6c(F)c(F)c(F)c(F)c6F)c6ccc3[nH]6)C=C5)C=C4)cc1)c(C)n2C(=O)c1ccc(Cl)cc1
REMARK SMILES IDX 17 1 16 2 15 3 14 4 13 5 11 6 12 7 10 8 9 9 3 10 4 11 8 12
REMARK SMILES IDX 5 13 7 14 6 15 90 16 88 17 89 18 2 19 1 20 91 21 92 22 93 23
REMARK SMILES IDX 94 24 99 25 95 26 98 27 96 28 97 29 18 30 19 31 20 32 21 33
REMARK SMILES IDX 22 34 23 35 24 36 25 37 26 38 87 39 27 40 86 41 28 42 29 43
REMARK SMILES IDX 30 44 80 45 31 46 85 47 79 48 81 49 32 50 84 51 78 52 77 53
REMARK SMILES IDX 33 55 65 56 45 57 64 58 46 59 49 60 63 61 82 62 47 63 48 64
REMARK SMILES IDX 62 66 83 67 50 68 34 69 35 70 43 71 36 72 37 73 41 74 44 75
REMARK SMILES IDX 38 76 39 77 42 78 40 79 66 80 67 81 75 82 68 83 69 84 73 85
REMARK SMILES IDX 76 86 70 87 71 88 74 89 72 90 51 91 52 92 60 93 53 94 54 95
REMARK SMILES IDX 58 96 61 97 55 98 56 99 59 100 57 101
REMARK H PARENT 81 54 49 65
REMARK Flexibility Score: inf
ROOT
ATOM      1  C   UNL A   1      33.921  21.750  25.086  1.00  0.00     0.188 C 
ENDROOT
BRANCH   1   2
ATOM      2  O   UNL A   1      33.335  23.014  24.879  1.00  0.00    -0.376 OA
BRANCH   2   3
ATOM      3  C   UNL A   1      33.731  23.708  23.708  1.00  0.00     0.202 C 
BRANCH   3   4
ATOM      4  C   UNL A   1      32.665  23.810  22.607  1.00  0.00     0.261 C 
BRANCH   4   5
ATOM      5  O   UNL A   1      33.164  24.476  21.409  1.00  0.00    -0.463 OA
BRANCH   5   6
ATOM      6  C   UNL A   1      32.612  25.684  21.126  1.00  0.00     0.310 C 
ATOM      7  O   UNL A   1      31.631  25.783  20.389  1.00  0.00    -0.252 OA
BRANCH   6   8
ATOM      8  C   UNL A   1      33.079  26.882  21.966  1.00  0.00     0.160 C 
BRANCH   8   9
ATOM      9  C   UNL A   1      32.355  27.518  23.137  1.00  0.00    -0.008 A 
ATOM     10  C   UNL A   1      29.377  29.879  22.275  1.00  0.00     0.119 A 
ATOM     11  C   UNL A   1      29.401  30.618  23.420  1.00  0.00     0.048 A 
ATOM     12  C   UNL A   1      30.204  28.746  22.216  1.00  0.00     0.057 A 
ATOM     13  C   UNL A   1      30.260  30.214  24.458  1.00  0.00     0.031 A 
ATOM     14  C   UNL A   1      31.209  28.399  23.129  1.00  0.00     0.008 A 
ATOM     15  C   UNL A   1      31.175  29.120  24.314  1.00  0.00     0.057 A 
ATOM     16  N   UNL A   1      32.099  28.491  25.168  1.00  0.00    -0.280 N 
ATOM     17  C   UNL A   1      32.944  27.703  24.380  1.00  0.00     0.028 A 
ATOM     18  C   UNL A   1      34.290  27.191  24.780  1.00  0.00     0.065 C 
BRANCH  10  19
ATOM     19  O   UNL A   1      28.672  30.106  21.138  1.00  0.00    -0.497 OA
ATOM     20  C   UNL A   1      28.151  31.380  20.805  1.00  0.00     0.278 C 
ENDBRANCH  10  19
BRANCH  16  21
ATOM     21  C   UNL A   1      32.120  28.636  26.573  1.00  0.00     0.262 C 
ATOM     22  O   UNL A   1      31.343  27.990  27.274  1.00  0.00    -0.268 OA
BRANCH  21  23
ATOM     23  C   UNL A   1      33.024  29.583  27.233  1.00  0.00     0.040 A 
ATOM     24  C   UNL A   1      32.670  30.939  27.270  1.00  0.00     0.015 A 
ATOM     25  C   UNL A   1      34.311  29.150  27.562  1.00  0.00     0.015 A 
ATOM     26  C   UNL A   1      33.645  31.883  27.582  1.00  0.00     0.021 A 
ATOM     27  C   UNL A   1      35.282  30.104  27.862  1.00  0.00     0.021 A 
ATOM     28  C   UNL A   1      34.949  31.463  27.856  1.00  0.00     0.041 A 
ATOM     29  Cl  UNL A   1      36.179  32.637  28.112  1.00  0.00    -0.084 Cl
ENDBRANCH  21  23
ENDBRANCH  16  21
ENDBRANCH   8   9
ENDBRANCH   6   8
ENDBRANCH   5   6
ENDBRANCH   4   5
ENDBRANCH   3   4
ENDBRANCH   2   3
ENDBRANCH   1   2
BRANCH   1  30
ATOM     30  C   UNL A   1      35.129  21.643  26.024  1.00  0.00     0.188 C 
BRANCH  30  31
ATOM     31  O   UNL A   1      36.360  22.207  25.665  1.00  0.00    -0.376 OA
BRANCH  31  32
ATOM     32  C   UNL A   1      37.261  21.365  24.970  1.00  0.00     0.202 C 
BRANCH  32  33
ATOM     33  C   UNL A   1      38.732  21.197  25.460  1.00  0.00     0.261 C 
BRANCH  33  34
ATOM     34  O   UNL A   1      39.147  22.117  26.519  1.00  0.00    -0.460 OA
BRANCH  34  35
ATOM     35  C   UNL A   1      40.464  22.508  26.530  1.00  0.00     0.338 C 
ATOM     36  O   UNL A   1      41.323  22.056  25.788  1.00  0.00    -0.246 OA
BRANCH  35  37
ATOM     37  C   UNL A   1      40.645  23.826  27.261  1.00  0.00     0.060 A 
ATOM     38  C   UNL A   1      41.784  24.328  27.872  1.00  0.00     0.016 A 
ATOM     39  C   UNL A   1      39.482  24.580  27.420  1.00  0.00     0.016 A 
ATOM     40  C   UNL A   1      41.676  25.474  28.719  1.00  0.00     0.010 A 
ATOM     41  C   UNL A   1      39.349  25.697  28.245  1.00  0.00     0.010 A 
ATOM     42  C   UNL A   1      40.438  26.131  28.970  1.00  0.00    -0.014 A 
BRANCH  42  43
ATOM     43  C   UNL A   1      40.342  27.464  29.617  1.00  0.00     0.031 A 
ATOM     44  C   UNL A   1      41.287  28.377  28.971  1.00  0.00     0.074 A 
ATOM     45  C   UNL A   1      39.549  28.043  30.553  1.00  0.00     0.049 A 
ATOM     46  N   UNL A   1      42.486  28.533  29.399  1.00  0.00    -0.248 NA
ATOM     47  C   UNL A   1      41.001  28.992  27.675  1.00  0.00     0.031 C 
ATOM     48  C   UNL A   1      38.401  27.506  31.246  1.00  0.00     0.029 A 
ATOM     49  N   UNL A   1      39.627  29.305  31.107  1.00  0.00    -0.354 N 
ATOM     50  C   UNL A   1      43.065  29.445  28.553  1.00  0.00     0.074 A 
ATOM     51  C   UNL A   1      42.197  29.524  27.402  1.00  0.00     0.031 C 
ATOM     52  C   UNL A   1      37.742  28.459  31.948  1.00  0.00     0.029 A 
ATOM     53  C   UNL A   1      38.558  29.657  31.940  1.00  0.00     0.049 A 
ATOM     54  H   UNL A   1      40.381  29.914  30.930  1.00  0.00     0.167 HD
ATOM     55  C   UNL A   1      44.061  30.226  29.038  1.00  0.00     0.037 A 
ATOM     56  C   UNL A   1      38.405  30.762  32.722  1.00  0.00     0.037 A 
ATOM     57  C   UNL A   1      44.558  29.712  30.307  1.00  0.00     0.049 A 
ATOM     58  C   UNL A   1      39.769  31.235  33.052  1.00  0.00     0.074 A 
ATOM     59  C   UNL A   1      45.016  28.472  30.728  1.00  0.00     0.029 A 
ATOM     60  N   UNL A   1      44.220  30.377  31.463  1.00  0.00    -0.354 N 
ATOM     61  N   UNL A   1      40.580  30.603  33.853  1.00  0.00    -0.248 NA
ATOM     62  C   UNL A   1      40.388  32.176  32.137  1.00  0.00     0.031 C 
ATOM     63  C   UNL A   1      44.461  28.285  32.029  1.00  0.00     0.029 A 
ATOM     64  C   UNL A   1      43.771  29.447  32.369  1.00  0.00     0.049 A 
ATOM     65  H   UNL A   1      44.290  31.347  31.615  1.00  0.00     0.167 HD
ATOM     66  C   UNL A   1      41.808  30.689  33.220  1.00  0.00     0.074 A 
ATOM     67  C   UNL A   1      41.648  31.746  32.222  1.00  0.00     0.031 C 
ATOM     68  C   UNL A   1      42.749  29.711  33.358  1.00  0.00     0.037 A 
BRANCH  55  69
ATOM     69  C   UNL A   1      44.298  31.631  28.576  1.00  0.00     0.064 A 
ATOM     70  C   UNL A   1      45.573  31.966  28.093  1.00  0.00     0.173 A 
ATOM     71  C   UNL A   1      43.433  32.718  28.839  1.00  0.00     0.173 A 
ATOM     72  F   UNL A   1      46.478  31.010  27.836  1.00  0.00    -0.203 F 
ATOM     73  C   UNL A   1      45.981  33.292  27.961  1.00  0.00     0.198 A 
ATOM     74  C   UNL A   1      43.822  34.038  28.646  1.00  0.00     0.198 A 
ATOM     75  F   UNL A   1      42.229  32.563  29.401  1.00  0.00    -0.203 F 
ATOM     76  F   UNL A   1      47.250  33.562  27.631  1.00  0.00    -0.200 F 
ATOM     77  C   UNL A   1      45.107  34.326  28.240  1.00  0.00     0.200 A 
ATOM     78  F   UNL A   1      42.966  35.026  28.942  1.00  0.00    -0.200 F 
ATOM     79  F   UNL A   1      45.515  35.599  28.171  1.00  0.00    -0.200 F 
ENDBRANCH  55  69
BRANCH  56  80
ATOM     80  C   UNL A   1      37.189  31.546  33.082  1.00  0.00     0.064 A 
ATOM     81  C   UNL A   1      37.129  32.301  34.273  1.00  0.00     0.173 A 
ATOM     82  C   UNL A   1      36.191  31.825  32.130  1.00  0.00     0.173 A 
ATOM     83  F   UNL A   1      38.049  32.129  35.234  1.00  0.00    -0.203 F 
ATOM     84  C   UNL A   1      36.174  33.308  34.468  1.00  0.00     0.198 A 
ATOM     85  C   UNL A   1      35.236  32.829  32.328  1.00  0.00     0.198 A 
ATOM     86  F   UNL A   1      36.180  31.194  30.947  1.00  0.00    -0.203 F 
ATOM     87  F   UNL A   1      36.205  34.055  35.581  1.00  0.00    -0.200 F 
ATOM     88  C   UNL A   1      35.240  33.584  33.487  1.00  0.00     0.200 A 
ATOM     89  F   UNL A   1      34.352  33.106  31.358  1.00  0.00    -0.200 F 
ATOM     90  F   UNL A   1      34.376  34.597  33.637  1.00  0.00    -0.200 F 
ENDBRANCH  56  80
BRANCH  68  91
ATOM     91  C   UNL A   1      42.599  28.698  34.464  1.00  0.00     0.064 A 
ATOM     92  C   UNL A   1      41.758  27.572  34.420  1.00  0.00     0.173 A 
ATOM     93  C   UNL A   1      43.488  28.789  35.549  1.00  0.00     0.173 A 
ATOM     94  F   UNL A   1      40.932  27.363  33.387  1.00  0.00    -0.203 F 
ATOM     95  C   UNL A   1      41.803  26.596  35.419  1.00  0.00     0.198 A 
ATOM     96  C   UNL A   1      43.558  27.795  36.522  1.00  0.00     0.198 A 
ATOM     97  F   UNL A   1      44.337  29.827  35.635  1.00  0.00    -0.203 F 
ATOM     98  F   UNL A   1      40.993  25.529  35.356  1.00  0.00    -0.200 F 
ATOM     99  C   UNL A   1      42.714  26.701  36.458  1.00  0.00     0.200 A 
ATOM    100  F   UNL A   1      44.469  27.884  37.500  1.00  0.00    -0.200 F 
ATOM    101  F   UNL A   1      42.798  25.734  37.384  1.00  0.00    -0.200 F 
ENDBRANCH  68  91
ENDBRANCH  42  43
ENDBRANCH  35  37
ENDBRANCH  34  35
ENDBRANCH  33  34
ENDBRANCH  32  33
ENDBRANCH  31  32
ENDBRANCH  30  31
ENDBRANCH   1  30
TORSDOF 21
ENDMDL
MODEL 2
REMARK VINA RESULT:     -11.0      3.364      9.281
REMARK SMILES COc1ccc2c(c1)c(CC(=O)OCCOCCOCCOC(=O)c1ccc(-c3c4nc(c(-c5c(F)c(F)c(F)c(F)c5F)c5ccc([nH]5)c(-c5c(F)c(F)c(F)c(F)c5F)c5nc(c(-c6c(F)c(F)c(F)c(F)c6F)c6ccc3[nH]6)C=C5)C=C4)cc1)c(C)n2C(=O)c1ccc(Cl)cc1
REMARK SMILES IDX 17 1 16 2 15 3 14 4 13 5 11 6 12 7 10 8 9 9 3 10 4 11 8 12
REMARK SMILES IDX 5 13 7 14 6 15 90 16 88 17 89 18 2 19 1 20 91 21 92 22 93 23
REMARK SMILES IDX 94 24 99 25 95 26 98 27 96 28 97 29 18 30 19 31 20 32 21 33
REMARK SMILES IDX 22 34 23 35 24 36 25 37 26 38 87 39 27 40 86 41 28 42 29 43
REMARK SMILES IDX 30 44 80 45 31 46 85 47 79 48 81 49 32 50 84 51 78 52 77 53
REMARK SMILES IDX 33 55 65 56 45 57 64 58 46 59 49 60 63 61 82 62 47 63 48 64
REMARK SMILES IDX 62 66 83 67 50 68 34 69 35 70 43 71 36 72 37 73 41 74 44 75
REMARK SMILES IDX 38 76 39 77 42 78 40 79 66 80 67 81 75 82 68 83 69 84 73 85
REMARK SMILES IDX 76 86 70 87 71 88 74 89 72 90 51 91 52 92 60 93 53 94 54 95
REMARK SMILES IDX 58 96 61 97 55 98 56 99 59 100 57 101
REMARK H PARENT 81 54 49 65
REMARK Flexibility Score: inf
ROOT
ATOM      1  C   UNL A   1      33.080  26.978  26.281  1.00  0.00     0.188 C 
ENDROOT
BRANCH   1   2
ATOM      2  O   UNL A   1      32.760  25.639  25.987  1.00  0.00    -0.376 OA
BRANCH   2   3
ATOM      3  C   UNL A   1      31.789  25.027  26.818  1.00  0.00     0.202 C 
BRANCH   3   4
ATOM      4  C   UNL A   1      30.444  24.715  26.144  1.00  0.00     0.261 C 
BRANCH   4   5
ATOM      5  O   UNL A   1      30.554  23.659  25.143  1.00  0.00    -0.463 OA
BRANCH   5   6
ATOM      6  C   UNL A   1      30.607  24.069  23.850  1.00  0.00     0.310 C 
ATOM      7  O   UNL A   1      30.197  25.180  23.513  1.00  0.00    -0.252 OA
BRANCH   6   8
ATOM      8  C   UNL A   1      31.437  23.217  22.878  1.00  0.00     0.160 C 
BRANCH   8   9
ATOM      9  C   UNL A   1      32.802  22.607  23.130  1.00  0.00    -0.008 A 
ATOM     10  C   UNL A   1      32.856  19.027  24.667  1.00  0.00     0.119 A 
ATOM     11  C   UNL A   1      34.096  19.094  25.227  1.00  0.00     0.048 A 
ATOM     12  C   UNL A   1      32.465  20.080  23.825  1.00  0.00     0.057 A 
ATOM     13  C   UNL A   1      34.897  20.215  24.944  1.00  0.00     0.031 A 
ATOM     14  C   UNL A   1      33.132  21.300  23.653  1.00  0.00     0.008 A 
ATOM     15  C   UNL A   1      34.417  21.326  24.174  1.00  0.00     0.057 A 
ATOM     16  N   UNL A   1      34.989  22.527  23.720  1.00  0.00    -0.280 N 
ATOM     17  C   UNL A   1      33.950  23.368  23.307  1.00  0.00     0.028 A 
ATOM     18  C   UNL A   1      34.035  24.850  23.139  1.00  0.00     0.065 C 
BRANCH  10  19
ATOM     19  O   UNL A   1      31.903  18.076  24.837  1.00  0.00    -0.497 OA
ATOM     20  C   UNL A   1      32.206  16.757  25.253  1.00  0.00     0.278 C 
ENDBRANCH  10  19
BRANCH  16  21
ATOM     21  C   UNL A   1      36.376  22.792  23.679  1.00  0.00     0.262 C 
ATOM     22  O   UNL A   1      36.930  23.031  22.608  1.00  0.00    -0.268 OA
BRANCH  21  23
ATOM     23  C   UNL A   1      37.201  22.744  24.891  1.00  0.00     0.040 A 
ATOM     24  C   UNL A   1      37.310  23.898  25.678  1.00  0.00     0.015 A 
ATOM     25  C   UNL A   1      38.050  21.649  25.070  1.00  0.00     0.015 A 
ATOM     26  C   UNL A   1      38.331  23.978  26.622  1.00  0.00     0.021 A 
ATOM     27  C   UNL A   1      39.076  21.743  26.009  1.00  0.00     0.021 A 
ATOM     28  C   UNL A   1      39.220  22.910  26.768  1.00  0.00     0.041 A 
ATOM     29  Cl  UNL A   1      40.556  23.064  27.840  1.00  0.00    -0.084 Cl
ENDBRANCH  21  23
ENDBRANCH  16  21
ENDBRANCH   8   9
ENDBRANCH   6   8
ENDBRANCH   5   6
ENDBRANCH   4   5
ENDBRANCH   3   4
ENDBRANCH   2   3
ENDBRANCH   1   2
BRANCH   1  30
ATOM     30  C   UNL A   1      32.043  27.842  27.008  1.00  0.00     0.188 C 
BRANCH  30  31
ATOM     31  O   UNL A   1      31.939  29.212  26.732  1.00  0.00    -0.376 OA
BRANCH  31  32
ATOM     32  C   UNL A   1      33.111  29.983  26.919  1.00  0.00     0.202 C 
BRANCH  32  33
ATOM     33  C   UNL A   1      33.044  31.376  27.618  1.00  0.00     0.261 C 
BRANCH  33  34
ATOM     34  O   UNL A   1      34.131  31.658  28.555  1.00  0.00    -0.460 OA
BRANCH  34  35
ATOM     35  C   UNL A   1      35.249  32.277  28.051  1.00  0.00     0.338 C 
ATOM     36  O   UNL A   1      35.265  33.416  27.609  1.00  0.00    -0.246 OA
BRANCH  35  37
ATOM     37  C   UNL A   1      36.518  31.560  28.475  1.00  0.00     0.060 A 
ATOM     38  C   UNL A   1      37.384  31.872  29.512  1.00  0.00     0.016 A 
ATOM     39  C   UNL A   1      36.910  30.510  27.645  1.00  0.00     0.016 A 
ATOM     40  C   UNL A   1      38.651  31.216  29.586  1.00  0.00     0.010 A 
ATOM     41  C   UNL A   1      38.143  29.859  27.692  1.00  0.00     0.010 A 
ATOM     42  C   UNL A   1      39.074  30.249  28.631  1.00  0.00    -0.014 A 
BRANCH  42  43
ATOM     43  C   UNL A   1      40.252  29.369  28.832  1.00  0.00     0.031 A 
ATOM     44  C   UNL A   1      40.341  29.006  30.248  1.00  0.00     0.074 A 
ATOM     45  C   UNL A   1      41.168  28.761  28.037  1.00  0.00     0.049 A 
ATOM     46  N   UNL A   1      41.025  29.695  31.087  1.00  0.00    -0.248 NA
ATOM     47  C   UNL A   1      39.480  27.980  30.836  1.00  0.00     0.031 C 
ATOM     48  C   UNL A   1      41.261  28.734  26.596  1.00  0.00     0.029 A 
ATOM     49  N   UNL A   1      42.268  28.006  28.388  1.00  0.00    -0.354 N 
ATOM     50  C   UNL A   1      40.868  29.066  32.296  1.00  0.00     0.074 A 
ATOM     51  C   UNL A   1      39.752  28.165  32.133  1.00  0.00     0.031 C 
ATOM     52  C   UNL A   1      42.187  27.844  26.165  1.00  0.00     0.029 A 
ATOM     53  C   UNL A   1      42.929  27.384  27.322  1.00  0.00     0.049 A 
ATOM     54  H   UNL A   1      42.568  27.911  29.322  1.00  0.00     0.167 HD
ATOM     55  C   UNL A   1      41.864  29.177  33.210  1.00  0.00     0.037 A 
ATOM     56  C   UNL A   1      44.100  26.687  27.324  1.00  0.00     0.037 A 
ATOM     57  C   UNL A   1      42.792  30.238  32.845  1.00  0.00     0.049 A 
ATOM     58  C   UNL A   1      44.888  27.196  28.470  1.00  0.00     0.074 A 
ATOM     59  C   UNL A   1      42.640  31.576  32.511  1.00  0.00     0.029 A 
ATOM     60  N   UNL A   1      44.029  29.888  32.355  1.00  0.00    -0.354 N 
ATOM     61  N   UNL A   1      45.427  28.382  28.508  1.00  0.00    -0.248 NA
ATOM     62  C   UNL A   1      44.696  26.546  29.754  1.00  0.00     0.031 C 
ATOM     63  C   UNL A   1      43.541  31.800  31.427  1.00  0.00     0.029 A 
ATOM     64  C   UNL A   1      44.255  30.622  31.215  1.00  0.00     0.049 A 
ATOM     65  H   UNL A   1      44.645  29.229  32.750  1.00  0.00     0.167 HD
ATOM     66  C   UNL A   1      45.182  28.818  29.799  1.00  0.00     0.074 A 
ATOM     67  C   UNL A   1      44.816  27.614  30.544  1.00  0.00     0.031 C 
ATOM     68  C   UNL A   1      45.015  30.142  30.082  1.00  0.00     0.037 A 
BRANCH  55  69
ATOM     69  C   UNL A   1      42.203  28.093  34.187  1.00  0.00     0.064 A 
ATOM     70  C   UNL A   1      42.883  26.960  33.712  1.00  0.00     0.173 A 
ATOM     71  C   UNL A   1      41.659  27.986  35.486  1.00  0.00     0.173 A 
ATOM     72  F   UNL A   1      43.415  26.949  32.481  1.00  0.00    -0.203 F 
ATOM     73  C   UNL A   1      42.942  25.780  34.450  1.00  0.00     0.198 A 
ATOM     74  C   UNL A   1      41.774  26.827  36.245  1.00  0.00     0.198 A 
ATOM     75  F   UNL A   1      40.896  28.940  36.031  1.00  0.00    -0.203 F 
ATOM     76  F   UNL A   1      43.479  24.683  33.899  1.00  0.00    -0.200 F 
ATOM     77  C   UNL A   1      42.386  25.713  35.714  1.00  0.00     0.200 A 
ATOM     78  F   UNL A   1      41.210  26.778  37.460  1.00  0.00    -0.200 F 
ATOM     79  F   UNL A   1      42.390  24.564  36.400  1.00  0.00    -0.200 F 
ENDBRANCH  55  69
BRANCH  56  80
ATOM     80  C   UNL A   1      44.539  25.508  26.525  1.00  0.00     0.064 A 
ATOM     81  C   UNL A   1      43.612  24.551  26.058  1.00  0.00     0.173 A 
ATOM     82  C   UNL A   1      45.818  25.457  25.939  1.00  0.00     0.173 A 
ATOM     83  F   UNL A   1      42.358  24.531  26.533  1.00  0.00    -0.203 F 
ATOM     84  C   UNL A   1      43.926  23.651  25.030  1.00  0.00     0.198 A 
ATOM     85  C   UNL A   1      46.131  24.554  24.917  1.00  0.00     0.198 A 
ATOM     86  F   UNL A   1      46.761  26.346  26.281  1.00  0.00    -0.203 F 
ATOM     87  F   UNL A   1      42.988  22.815  24.562  1.00  0.00    -0.200 F 
ATOM     88  C   UNL A   1      45.180  23.666  24.447  1.00  0.00     0.200 A 
ATOM     89  F   UNL A   1      47.341  24.598  24.340  1.00  0.00    -0.200 F 
ATOM     90  F   UNL A   1      45.458  22.860  23.413  1.00  0.00    -0.200 F 
ENDBRANCH  56  80
BRANCH  68  91
ATOM     91  C   UNL A   1      45.431  31.170  29.062  1.00  0.00     0.064 A 
ATOM     92  C   UNL A   1      46.731  31.686  28.918  1.00  0.00     0.173 A 
ATOM     93  C   UNL A   1      44.494  31.515  28.072  1.00  0.00     0.173 A 
ATOM     94  F   UNL A   1      47.709  31.351  29.771  1.00  0.00    -0.203 F 
ATOM     95  C   UNL A   1      47.067  32.510  27.841  1.00  0.00     0.198 A 
ATOM     96  C   UNL A   1      44.842  32.305  26.980  1.00  0.00     0.198 A 
ATOM     97  F   UNL A   1      43.242  31.033  28.137  1.00  0.00    -0.203 F 
ATOM     98  F   UNL A   1      48.314  32.990  27.723  1.00  0.00    -0.200 F 
ATOM     99  C   UNL A   1      46.127  32.805  26.866  1.00  0.00     0.200 A 
ATOM    100  F   UNL A   1      43.940  32.551  26.021  1.00  0.00    -0.200 F 
ATOM    101  F   UNL A   1      46.467  33.548  25.802  1.00  0.00    -0.200 F 
ENDBRANCH  68  91
ENDBRANCH  42  43
ENDBRANCH  35  37
ENDBRANCH  34  35
ENDBRANCH  33  34
ENDBRANCH  32  33
ENDBRANCH  31  32
ENDBRANCH  30  31
ENDBRANCH   1  30
TORSDOF 21
ENDMDL
MODEL 3
REMARK VINA RESULT:     -10.9      3.182      5.674
REMARK SMILES COc1ccc2c(c1)c(CC(=O)OCCOCCOCCOC(=O)c1ccc(-c3c4nc(c(-c5c(F)c(F)c(F)c(F)c5F)c5ccc([nH]5)c(-c5c(F)c(F)c(F)c(F)c5F)c5nc(c(-c6c(F)c(F)c(F)c(F)c6F)c6ccc3[nH]6)C=C5)C=C4)cc1)c(C)n2C(=O)c1ccc(Cl)cc1
REMARK SMILES IDX 17 1 16 2 15 3 14 4 13 5 11 6 12 7 10 8 9 9 3 10 4 11 8 12
REMARK SMILES IDX 5 13 7 14 6 15 90 16 88 17 89 18 2 19 1 20 91 21 92 22 93 23
REMARK SMILES IDX 94 24 99 25 95 26 98 27 96 28 97 29 18 30 19 31 20 32 21 33
REMARK SMILES IDX 22 34 23 35 24 36 25 37 26 38 87 39 27 40 86 41 28 42 29 43
REMARK SMILES IDX 30 44 80 45 31 46 85 47 79 48 81 49 32 50 84 51 78 52 77 53
REMARK SMILES IDX 33 55 65 56 45 57 64 58 46 59 49 60 63 61 82 62 47 63 48 64
REMARK SMILES IDX 62 66 83 67 50 68 34 69 35 70 43 71 36 72 37 73 41 74 44 75
REMARK SMILES IDX 38 76 39 77 42 78 40 79 66 80 67 81 75 82 68 83 69 84 73 85
REMARK SMILES IDX 76 86 70 87 71 88 74 89 72 90 51 91 52 92 60 93 53 94 54 95
REMARK SMILES IDX 58 96 61 97 55 98 56 99 59 100 57 101
REMARK H PARENT 81 54 49 65
REMARK Flexibility Score: inf
ROOT
ATOM      1  C   UNL A   1      43.736  18.457  25.500  1.00  0.00     0.188 C 
ENDROOT
BRANCH   1   2
ATOM      2  O   UNL A   1      42.697  18.810  26.383  1.00  0.00    -0.376 OA
BRANCH   2   3
ATOM      3  C   UNL A   1      41.925  19.943  26.026  1.00  0.00     0.202 C 
BRANCH   3   4
ATOM      4  C   UNL A   1      40.521  20.009  26.643  1.00  0.00     0.261 C 
BRANCH   4   5
ATOM      5  O   UNL A   1      39.575  20.735  25.802  1.00  0.00    -0.463 OA
BRANCH   5   6
ATOM      6  C   UNL A   1      38.623  19.983  25.192  1.00  0.00     0.310 C 
ATOM      7  O   UNL A   1      38.587  18.760  25.329  1.00  0.00    -0.252 OA
BRANCH   6   8
ATOM      8  C   UNL A   1      37.442  20.729  24.554  1.00  0.00     0.160 C 
BRANCH   8   9
ATOM      9  C   UNL A   1      36.063  20.939  25.148  1.00  0.00    -0.008 A 
ATOM     10  C   UNL A   1      33.334  18.329  24.187  1.00  0.00     0.119 A 
ATOM     11  C   UNL A   1      32.247  19.122  24.402  1.00  0.00     0.048 A 
ATOM     12  C   UNL A   1      34.586  18.821  24.586  1.00  0.00     0.057 A 
ATOM     13  C   UNL A   1      32.447  20.385  24.990  1.00  0.00     0.031 A 
ATOM     14  C   UNL A   1      34.875  20.128  25.000  1.00  0.00     0.008 A 
ATOM     15  C   UNL A   1      33.755  20.899  25.275  1.00  0.00     0.057 A 
ATOM     16  N   UNL A   1      34.240  22.076  25.872  1.00  0.00    -0.280 N 
ATOM     17  C   UNL A   1      35.603  22.178  25.574  1.00  0.00     0.028 A 
ATOM     18  C   UNL A   1      36.424  23.425  25.642  1.00  0.00     0.065 C 
BRANCH  10  19
ATOM     19  O   UNL A   1      33.384  17.108  23.595  1.00  0.00    -0.497 OA
ATOM     20  C   UNL A   1      34.555  16.608  22.977  1.00  0.00     0.278 C 
ENDBRANCH  10  19
BRANCH  16  21
ATOM     21  C   UNL A   1      33.462  22.960  26.651  1.00  0.00     0.262 C 
ATOM     22  O   UNL A   1      33.363  22.795  27.866  1.00  0.00    -0.268 OA
BRANCH  21  23
ATOM     23  C   UNL A   1      32.715  24.065  26.040  1.00  0.00     0.040 A 
ATOM     24  C   UNL A   1      31.589  24.568  26.708  1.00  0.00     0.015 A 
ATOM     25  C   UNL A   1      32.989  24.393  24.710  1.00  0.00     0.015 A 
ATOM     26  C   UNL A   1      30.689  25.366  26.006  1.00  0.00     0.021 A 
ATOM     27  C   UNL A   1      32.075  25.183  24.014  1.00  0.00     0.021 A 
ATOM     28  C   UNL A   1      30.925  25.652  24.659  1.00  0.00     0.041 A 
ATOM     29  Cl  UNL A   1      29.748  26.527  23.761  1.00  0.00    -0.084 Cl
ENDBRANCH  21  23
ENDBRANCH  16  21
ENDBRANCH   8   9
ENDBRANCH   6   8
ENDBRANCH   5   6
ENDBRANCH   4   5
ENDBRANCH   3   4
ENDBRANCH   2   3
ENDBRANCH   1   2
BRANCH   1  30
ATOM     30  C   UNL A   1      44.423  19.563  24.691  1.00  0.00     0.188 C 
BRANCH  30  31
ATOM     31  O   UNL A   1      45.498  20.278  25.235  1.00  0.00    -0.376 OA
BRANCH  31  32
ATOM     32  C   UNL A   1      45.861  21.475  24.571  1.00  0.00     0.202 C 
BRANCH  32  33
ATOM     33  C   UNL A   1      44.777  22.522  24.171  1.00  0.00     0.261 C 
BRANCH  33  34
ATOM     34  O   UNL A   1      44.661  23.674  25.066  1.00  0.00    -0.460 OA
BRANCH  34  35
ATOM     35  C   UNL A   1      43.823  23.546  26.147  1.00  0.00     0.338 C 
ATOM     36  O   UNL A   1      43.611  22.495  26.733  1.00  0.00    -0.246 OA
BRANCH  35  37
ATOM     37  C   UNL A   1      43.520  24.893  26.775  1.00  0.00     0.060 A 
ATOM     38  C   UNL A   1      44.246  25.586  27.733  1.00  0.00     0.016 A 
ATOM     39  C   UNL A   1      42.298  25.457  26.409  1.00  0.00     0.016 A 
ATOM     40  C   UNL A   1      43.659  26.722  28.371  1.00  0.00     0.010 A 
ATOM     41  C   UNL A   1      41.699  26.559  27.020  1.00  0.00     0.010 A 
ATOM     42  C   UNL A   1      42.345  27.180  28.068  1.00  0.00    -0.014 A 
BRANCH  42  43
ATOM     43  C   UNL A   1      41.821  28.496  28.512  1.00  0.00     0.031 A 
ATOM     44  C   UNL A   1      42.767  29.543  28.118  1.00  0.00     0.074 A 
ATOM     45  C   UNL A   1      40.676  28.955  29.077  1.00  0.00     0.049 A 
ATOM     46  N   UNL A   1      43.709  29.937  28.895  1.00  0.00    -0.248 NA
ATOM     47  C   UNL A   1      42.839  30.040  26.745  1.00  0.00     0.031 C 
ATOM     48  C   UNL A   1      39.465  28.242  29.410  1.00  0.00     0.029 A 
ATOM     49  N   UNL A   1      40.357  30.230  29.496  1.00  0.00    -0.354 N 
ATOM     50  C   UNL A   1      44.383  30.905  28.195  1.00  0.00     0.074 A 
ATOM     51  C   UNL A   1      43.953  30.775  26.823  1.00  0.00     0.031 C 
ATOM     52  C   UNL A   1      38.463  29.082  29.761  1.00  0.00     0.029 A 
ATOM     53  C   UNL A   1      39.028  30.411  29.897  1.00  0.00     0.049 A 
ATOM     54  H   UNL A   1      41.017  30.961  29.513  1.00  0.00     0.167 HD
ATOM     55  C   UNL A   1      45.016  31.879  28.896  1.00  0.00     0.037 A 
ATOM     56  C   UNL A   1      38.442  31.498  30.472  1.00  0.00     0.037 A 
ATOM     57  C   UNL A   1      45.133  31.518  30.302  1.00  0.00     0.049 A 
ATOM     58  C   UNL A   1      39.519  32.230  31.177  1.00  0.00     0.074 A 
ATOM     59  C   UNL A   1      45.618  30.403  30.971  1.00  0.00     0.029 A 
ATOM     60  N   UNL A   1      44.322  32.155  31.213  1.00  0.00    -0.354 N 
ATOM     61  N   UNL A   1      40.104  31.794  32.257  1.00  0.00    -0.248 NA
ATOM     62  C   UNL A   1      40.249  33.233  30.423  1.00  0.00     0.031 C 
ATOM     63  C   UNL A   1      44.694  30.169  32.034  1.00  0.00     0.029 A 
ATOM     64  C   UNL A   1      43.751  31.195  32.013  1.00  0.00     0.049 A 
ATOM     65  H   UNL A   1      44.177  33.126  31.281  1.00  0.00     0.167 HD
ATOM     66  C   UNL A   1      41.442  32.082  32.052  1.00  0.00     0.074 A 
ATOM     67  C   UNL A   1      41.458  33.049  30.955  1.00  0.00     0.031 C 
ATOM     68  C   UNL A   1      42.427  31.303  32.585  1.00  0.00     0.037 A 
BRANCH  55  69
ATOM     69  C   UNL A   1      45.164  33.283  28.397  1.00  0.00     0.064 A 
ATOM     70  C   UNL A   1      46.452  33.839  28.348  1.00  0.00     0.173 A 
ATOM     71  C   UNL A   1      44.093  34.190  28.230  1.00  0.00     0.173 A 
ATOM     72  F   UNL A   1      47.535  33.067  28.520  1.00  0.00    -0.203 F 
ATOM     73  C   UNL A   1      46.652  35.212  28.223  1.00  0.00     0.198 A 
ATOM     74  C   UNL A   1      44.299  35.552  28.044  1.00  0.00     0.198 A 
ATOM     75  F   UNL A   1      42.812  33.828  28.359  1.00  0.00    -0.203 F 
ATOM     76  F   UNL A   1      47.891  35.711  28.322  1.00  0.00    -0.200 F 
ATOM     77  C   UNL A   1      45.576  36.068  28.075  1.00  0.00     0.200 A 
ATOM     78  F   UNL A   1      43.241  36.366  27.921  1.00  0.00    -0.200 F 
ATOM     79  F   UNL A   1      45.762  37.392  28.015  1.00  0.00    -0.200 F 
ENDBRANCH  55  69
BRANCH  56  80
ATOM     80  C   UNL A   1      37.067  32.055  30.337  1.00  0.00     0.064 A 
ATOM     81  C   UNL A   1      36.115  31.918  31.371  1.00  0.00     0.173 A 
ATOM     82  C   UNL A   1      36.753  32.996  29.338  1.00  0.00     0.173 A 
ATOM     83  F   UNL A   1      36.330  31.067  32.385  1.00  0.00    -0.203 F 
ATOM     84  C   UNL A   1      34.963  32.714  31.431  1.00  0.00     0.198 A 
ATOM     85  C   UNL A   1      35.599  33.786  29.398  1.00  0.00     0.198 A 
ATOM     86  F   UNL A   1      37.606  33.233  28.333  1.00  0.00    -0.203 F 
ATOM     87  F   UNL A   1      34.128  32.606  32.476  1.00  0.00    -0.200 F 
ATOM     88  C   UNL A   1      34.716  33.661  30.455  1.00  0.00     0.200 A 
ATOM     89  F   UNL A   1      35.385  34.721  28.460  1.00  0.00    -0.200 F 
ATOM     90  F   UNL A   1      33.656  34.476  30.552  1.00  0.00    -0.200 F 
ENDBRANCH  56  80
BRANCH  68  91
ATOM     91  C   UNL A   1      42.079  30.326  33.679  1.00  0.00     0.064 A 
ATOM     92  C   UNL A   1      41.643  29.005  33.473  1.00  0.00     0.173 A 
ATOM     93  C   UNL A   1      42.373  30.703  35.000  1.00  0.00     0.173 A 
ATOM     94  F   UNL A   1      41.411  28.534  32.241  1.00  0.00    -0.203 F 
ATOM     95  C   UNL A   1      41.502  28.115  34.542  1.00  0.00     0.198 A 
ATOM     96  C   UNL A   1      42.269  29.803  36.057  1.00  0.00     0.198 A 
ATOM     97  F   UNL A   1      42.820  31.943  35.260  1.00  0.00    -0.203 F 
ATOM     98  F   UNL A   1      41.086  26.859  34.323  1.00  0.00    -0.200 F 
ATOM     99  C   UNL A   1      41.831  28.511  35.829  1.00  0.00     0.200 A 
ATOM    100  F   UNL A   1      42.628  30.181  37.292  1.00  0.00    -0.200 F 
ATOM    101  F   UNL A   1      41.752  27.638  36.845  1.00  0.00    -0.200 F 
ENDBRANCH  68  91
ENDBRANCH  42  43
ENDBRANCH  35  37
ENDBRANCH  34  35
ENDBRANCH  33  34
ENDBRANCH  32  33
ENDBRANCH  31  32
ENDBRANCH  30  31
ENDBRANCH   1  30
TORSDOF 21
ENDMDL
