MODEL 1
REMARK VINA RESULT:     -11.2      0.000      0.000
REMARK SMILES O=C(OCCOCCOCCOC(=O)c1ccc(Cn2ccc3ccc(Br)cc32)nc1)c1ccc(-c2c3nc(c(-c4c(F)c(F)c(F)c(F)c4F)c4ccc([nH]4)c(-c4c(F)c(F)c(F)c(F)c4F)c4nc(c(-c5c(F)c(F)c(F)c(F)c5F)c5ccc2[nH]5)C=C4)C=C3)cc1
REMARK SMILES IDX 7 1 6 2 5 3 4 4 3 5 2 6 1 7 32 8 33 9 94 10 34 11 93 12
REMARK SMILES IDX 35 13 36 14 37 15 87 16 38 17 92 18 86 19 88 20 39 21 91 22
REMARK SMILES IDX 85 23 84 24 40 26 72 27 52 28 71 29 53 30 56 31 70 32 89 33
REMARK SMILES IDX 54 34 55 35 69 37 90 38 57 39 41 40 42 41 50 42 43 43 44 44
REMARK SMILES IDX 48 45 51 46 45 47 46 48 49 49 47 50 73 51 74 52 82 53 75 54
REMARK SMILES IDX 76 55 80 56 83 57 77 58 78 59 81 60 79 61 58 62 59 63 67 64
REMARK SMILES IDX 60 65 61 66 65 67 68 68 62 69 63 70 66 71 64 72 8 73 9 74
REMARK SMILES IDX 10 75 11 76 12 77 13 78 14 79 15 80 16 81 31 82 17 83 30 84
REMARK SMILES IDX 18 85 19 86 20 87 21 88 29 89 22 90 23 91 28 92 24 93 26 94
REMARK SMILES IDX 25 95 27 96
REMARK H PARENT 88 25 56 36
REMARK Flexibility Score: inf
ROOT
ATOM      1  C   UNL A   1      37.746  23.180  25.507  1.00  0.00     0.188 C 
ENDROOT
BRANCH   1   2
ATOM      2  O   UNL A   1      38.485  22.099  26.063  1.00  0.00    -0.376 OA
BRANCH   2   3
ATOM      3  C   UNL A   1      38.758  21.043  25.150  1.00  0.00     0.202 C 
BRANCH   3   4
ATOM      4  C   UNL A   1      39.070  19.665  25.757  1.00  0.00     0.261 C 
BRANCH   4   5
ATOM      5  O   UNL A   1      40.273  18.948  25.369  1.00  0.00    -0.460 OA
BRANCH   5   6
ATOM      6  C   UNL A   1      41.544  19.028  25.824  1.00  0.00     0.338 C 
ATOM      7  O   UNL A   1      42.306  18.071  25.748  1.00  0.00    -0.246 OA
BRANCH   6   8
ATOM      8  C   UNL A   1      41.957  20.246  26.542  1.00  0.00     0.060 A 
ATOM      9  C   UNL A   1      41.493  20.407  27.842  1.00  0.00     0.016 A 
ATOM     10  C   UNL A   1      42.681  21.271  25.929  1.00  0.00     0.016 A 
ATOM     11  C   UNL A   1      41.587  21.662  28.426  1.00  0.00     0.010 A 
ATOM     12  C   UNL A   1      42.666  22.556  26.482  1.00  0.00     0.010 A 
ATOM     13  C   UNL A   1      42.051  22.777  27.715  1.00  0.00    -0.014 A 
BRANCH  13  14
ATOM     14  C   UNL A   1      42.291  24.020  28.476  1.00  0.00     0.031 A 
ATOM     15  C   UNL A   1      41.268  25.013  28.103  1.00  0.00     0.074 A 
ATOM     16  C   UNL A   1      43.233  24.332  29.399  1.00  0.00     0.049 A 
ATOM     17  N   UNL A   1      41.503  26.115  27.470  1.00  0.00    -0.248 NA
ATOM     18  C   UNL A   1      39.842  24.663  28.225  1.00  0.00     0.031 C 
ATOM     19  C   UNL A   1      44.310  23.487  29.865  1.00  0.00     0.029 A 
ATOM     20  N   UNL A   1      43.432  25.460  30.173  1.00  0.00    -0.354 N 
ATOM     21  C   UNL A   1      40.266  26.725  27.386  1.00  0.00     0.074 A 
ATOM     22  C   UNL A   1      39.271  25.719  27.646  1.00  0.00     0.031 C 
ATOM     23  C   UNL A   1      44.836  23.921  31.024  1.00  0.00     0.029 A 
ATOM     24  C   UNL A   1      44.295  25.241  31.256  1.00  0.00     0.049 A 
ATOM     25  H   UNL A   1      43.010  26.329  29.983  1.00  0.00     0.167 HD
ATOM     26  C   UNL A   1      40.195  28.069  27.546  1.00  0.00     0.037 A 
ATOM     27  C   UNL A   1      44.776  26.083  32.202  1.00  0.00     0.037 A 
ATOM     28  C   UNL A   1      41.433  28.739  27.262  1.00  0.00     0.049 A 
ATOM     29  C   UNL A   1      44.678  27.451  31.663  1.00  0.00     0.074 A 
ATOM     30  C   UNL A   1      42.037  29.307  26.164  1.00  0.00     0.029 A 
ATOM     31  N   UNL A   1      42.397  28.609  28.223  1.00  0.00    -0.354 N 
ATOM     32  N   UNL A   1      45.460  27.908  30.724  1.00  0.00    -0.248 NA
ATOM     33  C   UNL A   1      43.460  28.215  31.904  1.00  0.00     0.031 C 
ATOM     34  C   UNL A   1      43.409  29.508  26.500  1.00  0.00     0.029 A 
ATOM     35  C   UNL A   1      43.611  29.092  27.809  1.00  0.00     0.049 A 
ATOM     36  H   UNL A   1      42.238  28.213  29.111  1.00  0.00     0.167 HD
ATOM     37  C   UNL A   1      44.644  28.744  29.994  1.00  0.00     0.074 A 
ATOM     38  C   UNL A   1      43.488  29.015  30.837  1.00  0.00     0.031 C 
ATOM     39  C   UNL A   1      44.770  28.871  28.644  1.00  0.00     0.037 A 
BRANCH  26  40
ATOM     40  C   UNL A   1      39.159  28.671  28.447  1.00  0.00     0.064 A 
ATOM     41  C   UNL A   1      39.092  28.281  29.788  1.00  0.00     0.173 A 
ATOM     42  C   UNL A   1      38.065  29.427  27.960  1.00  0.00     0.173 A 
ATOM     43  F   UNL A   1      40.047  27.501  30.315  1.00  0.00    -0.203 F 
ATOM     44  C   UNL A   1      38.006  28.635  30.593  1.00  0.00     0.198 A 
ATOM     45  C   UNL A   1      37.022  29.838  28.779  1.00  0.00     0.198 A 
ATOM     46  F   UNL A   1      37.918  29.700  26.657  1.00  0.00    -0.203 F 
ATOM     47  F   UNL A   1      37.931  28.172  31.847  1.00  0.00    -0.200 F 
ATOM     48  C   UNL A   1      36.982  29.425  30.093  1.00  0.00     0.200 A 
ATOM     49  F   UNL A   1      36.027  30.574  28.265  1.00  0.00    -0.200 F 
ATOM     50  F   UNL A   1      35.933  29.747  30.861  1.00  0.00    -0.200 F 
ENDBRANCH  26  40
BRANCH  27  51
ATOM     51  C   UNL A   1      45.255  25.761  33.572  1.00  0.00     0.064 A 
ATOM     52  C   UNL A   1      44.353  25.552  34.628  1.00  0.00     0.173 A 
ATOM     53  C   UNL A   1      46.593  25.381  33.818  1.00  0.00     0.173 A 
ATOM     54  F   UNL A   1      43.061  25.884  34.491  1.00  0.00    -0.203 F 
ATOM     55  C   UNL A   1      44.743  24.925  35.817  1.00  0.00     0.198 A 
ATOM     56  C   UNL A   1      46.983  24.768  35.009  1.00  0.00     0.198 A 
ATOM     57  F   UNL A   1      47.538  25.513  32.878  1.00  0.00    -0.203 F 
ATOM     58  F   UNL A   1      43.831  24.662  36.762  1.00  0.00    -0.200 F 
ATOM     59  C   UNL A   1      46.053  24.513  35.996  1.00  0.00     0.200 A 
ATOM     60  F   UNL A   1      48.253  24.366  35.163  1.00  0.00    -0.200 F 
ATOM     61  F   UNL A   1      46.408  23.834  37.096  1.00  0.00    -0.200 F 
ENDBRANCH  27  51
BRANCH  39  62
ATOM     62  C   UNL A   1      46.104  28.631  28.010  1.00  0.00     0.064 A 
ATOM     63  C   UNL A   1      46.519  27.411  27.453  1.00  0.00     0.173 A 
ATOM     64  C   UNL A   1      46.986  29.718  27.912  1.00  0.00     0.173 A 
ATOM     65  F   UNL A   1      45.714  26.341  27.488  1.00  0.00    -0.203 F 
ATOM     66  C   UNL A   1      47.763  27.296  26.825  1.00  0.00     0.198 A 
ATOM     67  C   UNL A   1      48.207  29.610  27.255  1.00  0.00     0.198 A 
ATOM     68  F   UNL A   1      46.647  30.907  28.438  1.00  0.00    -0.203 F 
ATOM     69  F   UNL A   1      48.164  26.120  26.320  1.00  0.00    -0.200 F 
ATOM     70  C   UNL A   1      48.595  28.400  26.710  1.00  0.00     0.200 A 
ATOM     71  F   UNL A   1      48.998  30.686  27.140  1.00  0.00    -0.200 F 
ATOM     72  F   UNL A   1      49.770  28.300  26.072  1.00  0.00    -0.200 F 
ENDBRANCH  39  62
ENDBRANCH  13  14
ENDBRANCH   6   8
ENDBRANCH   5   6
ENDBRANCH   4   5
ENDBRANCH   3   4
ENDBRANCH   2   3
ENDBRANCH   1   2
BRANCH   1  73
ATOM     73  C   UNL A   1      36.291  23.254  25.986  1.00  0.00     0.188 C 
BRANCH  73  74
ATOM     74  O   UNL A   1      35.348  22.419  25.328  1.00  0.00    -0.376 OA
BRANCH  74  75
ATOM     75  C   UNL A   1      35.148  21.143  25.894  1.00  0.00     0.202 C 
BRANCH  75  76
ATOM     76  C   UNL A   1      35.189  19.902  24.996  1.00  0.00     0.261 C 
BRANCH  76  77
ATOM     77  O   UNL A   1      34.054  19.429  24.252  1.00  0.00    -0.460 OA
BRANCH  77  78
ATOM     78  C   UNL A   1      32.846  19.708  24.809  1.00  0.00     0.339 C 
ATOM     79  O   UNL A   1      32.152  18.924  25.447  1.00  0.00    -0.246 OA
BRANCH  78  80
ATOM     80  C   UNL A   1      32.336  21.039  24.432  1.00  0.00     0.078 A 
ATOM     81  C   UNL A   1      31.691  21.840  25.385  1.00  0.00     0.019 A 
ATOM     82  C   UNL A   1      32.375  21.504  23.132  1.00  0.00     0.127 A 
ATOM     83  C   UNL A   1      31.122  23.061  25.008  1.00  0.00     0.026 A 
ATOM     84  N   UNL A   1      31.802  22.673  22.740  1.00  0.00    -0.258 NA
ATOM     85  C   UNL A   1      31.205  23.460  23.677  1.00  0.00     0.060 A 
BRANCH  85  86
ATOM     86  C   UNL A   1      30.626  24.787  23.222  1.00  0.00     0.178 C 
BRANCH  86  87
ATOM     87  N   UNL A   1      31.684  25.762  22.967  1.00  0.00    -0.341 N 
ATOM     88  C   UNL A   1      32.352  25.905  21.776  1.00  0.00     0.087 A 
ATOM     89  C   UNL A   1      32.120  26.717  23.867  1.00  0.00     0.049 A 
ATOM     90  C   UNL A   1      33.123  27.044  21.861  1.00  0.00     0.028 A 
ATOM     91  C   UNL A   1      32.954  27.588  23.164  1.00  0.00    -0.000 A 
ATOM     92  C   UNL A   1      31.798  26.923  25.220  1.00  0.00     0.042 A 
ATOM     93  C   UNL A   1      33.430  28.745  23.813  1.00  0.00     0.011 A 
ATOM     94  C   UNL A   1      32.269  28.084  25.832  1.00  0.00     0.020 A 
ATOM     95  C   UNL A   1      33.064  28.992  25.143  1.00  0.00     0.016 A 
ATOM     96  Br  UNL A   1      31.775  28.440  27.624  1.00  0.00    -0.051 Br
ENDBRANCH  86  87
ENDBRANCH  85  86
ENDBRANCH  78  80
ENDBRANCH  77  78
ENDBRANCH  76  77
ENDBRANCH  75  76
ENDBRANCH  74  75
ENDBRANCH  73  74
ENDBRANCH   1  73
TORSDOF 19
ENDMDL
MODEL 2
REMARK VINA RESULT:     -11.2      2.349      6.968
REMARK SMILES O=C(OCCOCCOCCOC(=O)c1ccc(Cn2ccc3ccc(Br)cc32)nc1)c1ccc(-c2c3nc(c(-c4c(F)c(F)c(F)c(F)c4F)c4ccc([nH]4)c(-c4c(F)c(F)c(F)c(F)c4F)c4nc(c(-c5c(F)c(F)c(F)c(F)c5F)c5ccc2[nH]5)C=C4)C=C3)cc1
REMARK SMILES IDX 7 1 6 2 5 3 4 4 3 5 2 6 1 7 32 8 33 9 94 10 34 11 93 12
REMARK SMILES IDX 35 13 36 14 37 15 87 16 38 17 92 18 86 19 88 20 39 21 91 22
REMARK SMILES IDX 85 23 84 24 40 26 72 27 52 28 71 29 53 30 56 31 70 32 89 33
REMARK SMILES IDX 54 34 55 35 69 37 90 38 57 39 41 40 42 41 50 42 43 43 44 44
REMARK SMILES IDX 48 45 51 46 45 47 46 48 49 49 47 50 73 51 74 52 82 53 75 54
REMARK SMILES IDX 76 55 80 56 83 57 77 58 78 59 81 60 79 61 58 62 59 63 67 64
REMARK SMILES IDX 60 65 61 66 65 67 68 68 62 69 63 70 66 71 64 72 8 73 9 74
REMARK SMILES IDX 10 75 11 76 12 77 13 78 14 79 15 80 16 81 31 82 17 83 30 84
REMARK SMILES IDX 18 85 19 86 20 87 21 88 29 89 22 90 23 91 28 92 24 93 26 94
REMARK SMILES IDX 25 95 27 96
REMARK H PARENT 88 25 56 36
REMARK Flexibility Score: inf
ROOT
ATOM      1  C   UNL A   1      41.370  19.589  26.612  1.00  0.00     0.188 C 
ENDROOT
BRANCH   1   2
ATOM      2  O   UNL A   1      42.119  19.407  25.417  1.00  0.00    -0.376 OA
BRANCH   2   3
ATOM      3  C   UNL A   1      43.254  18.560  25.558  1.00  0.00     0.202 C 
BRANCH   3   4
ATOM      4  C   UNL A   1      44.572  19.058  24.944  1.00  0.00     0.261 C 
BRANCH   4   5
ATOM      5  O   UNL A   1      44.658  20.390  24.373  1.00  0.00    -0.460 OA
BRANCH   5   6
ATOM      6  C   UNL A   1      45.522  21.405  24.604  1.00  0.00     0.338 C 
ATOM      7  O   UNL A   1      46.694  21.332  24.253  1.00  0.00    -0.246 OA
BRANCH   6   8
ATOM      8  C   UNL A   1      45.063  22.546  25.413  1.00  0.00     0.060 A 
ATOM      9  C   UNL A   1      44.131  23.402  24.837  1.00  0.00     0.016 A 
ATOM     10  C   UNL A   1      45.610  22.853  26.660  1.00  0.00     0.016 A 
ATOM     11  C   UNL A   1      43.920  24.641  25.424  1.00  0.00     0.010 A 
ATOM     12  C   UNL A   1      45.476  24.145  27.178  1.00  0.00     0.010 A 
ATOM     13  C   UNL A   1      44.678  25.081  26.518  1.00  0.00    -0.014 A 
BRANCH  13  14
ATOM     14  C   UNL A   1      44.252  26.327  27.186  1.00  0.00     0.031 A 
ATOM     15  C   UNL A   1      45.283  27.358  26.972  1.00  0.00     0.074 A 
ATOM     16  C   UNL A   1      43.132  26.624  27.891  1.00  0.00     0.049 A 
ATOM     17  N   UNL A   1      46.021  27.870  27.902  1.00  0.00    -0.248 NA
ATOM     18  C   UNL A   1      45.703  27.689  25.600  1.00  0.00     0.031 C 
ATOM     19  C   UNL A   1      42.038  25.732  28.203  1.00  0.00     0.029 A 
ATOM     20  N   UNL A   1      42.683  27.799  28.461  1.00  0.00    -0.354 N 
ATOM     21  C   UNL A   1      46.793  28.807  27.242  1.00  0.00     0.074 A 
ATOM     22  C   UNL A   1      46.732  28.502  25.837  1.00  0.00     0.031 C 
ATOM     23  C   UNL A   1      40.930  26.394  28.577  1.00  0.00     0.029 A 
ATOM     24  C   UNL A   1      41.318  27.771  28.781  1.00  0.00     0.049 A 
ATOM     25  H   UNL A   1      43.263  28.579  28.625  1.00  0.00     0.167 HD
ATOM     26  C   UNL A   1      47.046  29.987  27.857  1.00  0.00     0.037 A 
ATOM     27  C   UNL A   1      40.521  28.684  29.387  1.00  0.00     0.037 A 
ATOM     28  C   UNL A   1      46.932  29.916  29.287  1.00  0.00     0.049 A 
ATOM     29  C   UNL A   1      41.394  29.582  30.164  1.00  0.00     0.074 A 
ATOM     30  C   UNL A   1      47.767  29.646  30.347  1.00  0.00     0.029 A 
ATOM     31  N   UNL A   1      45.653  29.864  29.766  1.00  0.00    -0.354 N 
ATOM     32  N   UNL A   1      41.985  29.224  31.271  1.00  0.00    -0.248 NA
ATOM     33  C   UNL A   1      41.920  30.780  29.520  1.00  0.00     0.031 C 
ATOM     34  C   UNL A   1      46.937  29.422  31.485  1.00  0.00     0.029 A 
ATOM     35  C   UNL A   1      45.612  29.594  31.110  1.00  0.00     0.049 A 
ATOM     36  H   UNL A   1      44.852  30.006  29.210  1.00  0.00     0.167 HD
ATOM     37  C   UNL A   1      43.191  29.888  31.229  1.00  0.00     0.074 A 
ATOM     38  C   UNL A   1      43.040  30.935  30.228  1.00  0.00     0.031 C 
ATOM     39  C   UNL A   1      44.332  29.337  31.728  1.00  0.00     0.037 A 
BRANCH  26  40
ATOM     40  C   UNL A   1      46.882  31.279  27.115  1.00  0.00     0.064 A 
ATOM     41  C   UNL A   1      47.956  32.169  27.021  1.00  0.00     0.173 A 
ATOM     42  C   UNL A   1      45.618  31.781  26.719  1.00  0.00     0.173 A 
ATOM     43  F   UNL A   1      49.176  31.805  27.443  1.00  0.00    -0.203 F 
ATOM     44  C   UNL A   1      47.779  33.472  26.549  1.00  0.00     0.198 A 
ATOM     45  C   UNL A   1      45.457  33.052  26.185  1.00  0.00     0.198 A 
ATOM     46  F   UNL A   1      44.486  31.098  26.936  1.00  0.00    -0.203 F 
ATOM     47  F   UNL A   1      48.812  34.325  26.554  1.00  0.00    -0.200 F 
ATOM     48  C   UNL A   1      46.535  33.906  26.118  1.00  0.00     0.200 A 
ATOM     49  F   UNL A   1      44.238  33.460  25.804  1.00  0.00    -0.200 F 
ATOM     50  F   UNL A   1      46.364  35.162  25.684  1.00  0.00    -0.200 F 
ENDBRANCH  26  40
BRANCH  27  51
ATOM     51  C   UNL A   1      39.048  28.851  29.270  1.00  0.00     0.064 A 
ATOM     52  C   UNL A   1      38.225  28.863  30.407  1.00  0.00     0.173 A 
ATOM     53  C   UNL A   1      38.445  29.274  28.065  1.00  0.00     0.173 A 
ATOM     54  F   UNL A   1      38.707  28.475  31.597  1.00  0.00    -0.203 F 
ATOM     55  C   UNL A   1      36.913  29.349  30.362  1.00  0.00     0.198 A 
ATOM     56  C   UNL A   1      37.132  29.746  28.019  1.00  0.00     0.198 A 
ATOM     57  F   UNL A   1      39.137  29.325  26.920  1.00  0.00    -0.203 F 
ATOM     58  F   UNL A   1      36.192  29.428  31.488  1.00  0.00    -0.200 F 
ATOM     59  C   UNL A   1      36.377  29.811  29.172  1.00  0.00     0.200 A 
ATOM     60  F   UNL A   1      36.632  30.200  26.861  1.00  0.00    -0.200 F 
ATOM     61  F   UNL A   1      35.154  30.359  29.144  1.00  0.00    -0.200 F 
ENDBRANCH  27  51
BRANCH  39  62
ATOM     62  C   UNL A   1      44.233  28.340  32.840  1.00  0.00     0.064 A 
ATOM     63  C   UNL A   1      44.030  26.962  32.664  1.00  0.00     0.173 A 
ATOM     64  C   UNL A   1      44.415  28.803  34.152  1.00  0.00     0.173 A 
ATOM     65  F   UNL A   1      43.877  26.450  31.435  1.00  0.00    -0.203 F 
ATOM     66  C   UNL A   1      44.014  26.094  33.760  1.00  0.00     0.198 A 
ATOM     67  C   UNL A   1      44.436  27.933  35.236  1.00  0.00     0.198 A 
ATOM     68  F   UNL A   1      44.602  30.113  34.381  1.00  0.00    -0.203 F 
ATOM     69  F   UNL A   1      43.791  24.783  33.587  1.00  0.00    -0.200 F 
ATOM     70  C   UNL A   1      44.236  26.578  35.041  1.00  0.00     0.200 A 
ATOM     71  F   UNL A   1      44.662  28.411  36.468  1.00  0.00    -0.200 F 
ATOM     72  F   UNL A   1      44.261  25.741  36.088  1.00  0.00    -0.200 F 
ENDBRANCH  39  62
ENDBRANCH  13  14
ENDBRANCH   6   8
ENDBRANCH   5   6
ENDBRANCH   4   5
ENDBRANCH   3   4
ENDBRANCH   2   3
ENDBRANCH   1   2
BRANCH   1  73
ATOM     73  C   UNL A   1      41.425  21.016  27.172  1.00  0.00     0.188 C 
BRANCH  73  74
ATOM     74  O   UNL A   1      40.186  21.661  27.430  1.00  0.00    -0.376 OA
BRANCH  74  75
ATOM     75  C   UNL A   1      39.963  22.873  26.744  1.00  0.00     0.202 C 
BRANCH  75  76
ATOM     76  C   UNL A   1      38.532  23.289  26.387  1.00  0.00     0.261 C 
BRANCH  76  77
ATOM     77  O   UNL A   1      37.459  22.350  26.206  1.00  0.00    -0.460 OA
BRANCH  77  78
ATOM     78  C   UNL A   1      36.739  22.516  25.066  1.00  0.00     0.339 C 
ATOM     79  O   UNL A   1      37.146  22.323  23.926  1.00  0.00    -0.246 OA
BRANCH  78  80
ATOM     80  C   UNL A   1      35.420  23.131  25.307  1.00  0.00     0.078 A 
ATOM     81  C   UNL A   1      35.222  24.493  25.041  1.00  0.00     0.019 A 
ATOM     82  C   UNL A   1      34.376  22.438  25.887  1.00  0.00     0.127 A 
ATOM     83  C   UNL A   1      34.003  25.102  25.357  1.00  0.00     0.026 A 
ATOM     84  N   UNL A   1      33.195  23.017  26.229  1.00  0.00    -0.258 NA
ATOM     85  C   UNL A   1      32.999  24.333  25.939  1.00  0.00     0.060 A 
BRANCH  85  86
ATOM     86  C   UNL A   1      31.649  24.939  26.278  1.00  0.00     0.178 C 
BRANCH  86  87
ATOM     87  N   UNL A   1      31.166  25.787  25.190  1.00  0.00    -0.341 N 
ATOM     88  C   UNL A   1      30.456  25.343  24.102  1.00  0.00     0.087 A 
ATOM     89  C   UNL A   1      31.303  27.162  25.132  1.00  0.00     0.049 A 
ATOM     90  C   UNL A   1      30.012  26.449  23.410  1.00  0.00     0.028 A 
ATOM     91  C   UNL A   1      30.507  27.605  24.074  1.00  0.00    -0.000 A 
ATOM     92  C   UNL A   1      32.005  28.053  25.961  1.00  0.00     0.042 A 
ATOM     93  C   UNL A   1      30.351  28.992  23.876  1.00  0.00     0.011 A 
ATOM     94  C   UNL A   1      31.819  29.420  25.754  1.00  0.00     0.020 A 
ATOM     95  C   UNL A   1      30.997  29.890  24.735  1.00  0.00     0.016 A 
ATOM     96  Br  UNL A   1      32.673  30.648  26.913  1.00  0.00    -0.051 Br
ENDBRANCH  86  87
ENDBRANCH  85  86
ENDBRANCH  78  80
ENDBRANCH  77  78
ENDBRANCH  76  77
ENDBRANCH  75  76
ENDBRANCH  74  75
ENDBRANCH  73  74
ENDBRANCH   1  73
TORSDOF 19
ENDMDL
MODEL 3
REMARK VINA RESULT:     -10.9      5.929     10.967
REMARK SMILES O=C(OCCOCCOCCOC(=O)c1ccc(Cn2ccc3ccc(Br)cc32)nc1)c1ccc(-c2c3nc(c(-c4c(F)c(F)c(F)c(F)c4F)c4ccc([nH]4)c(-c4c(F)c(F)c(F)c(F)c4F)c4nc(c(-c5c(F)c(F)c(F)c(F)c5F)c5ccc2[nH]5)C=C4)C=C3)cc1
REMARK SMILES IDX 7 1 6 2 5 3 4 4 3 5 2 6 1 7 32 8 33 9 94 10 34 11 93 12
REMARK SMILES IDX 35 13 36 14 37 15 87 16 38 17 92 18 86 19 88 20 39 21 91 22
REMARK SMILES IDX 85 23 84 24 40 26 72 27 52 28 71 29 53 30 56 31 70 32 89 33
REMARK SMILES IDX 54 34 55 35 69 37 90 38 57 39 41 40 42 41 50 42 43 43 44 44
REMARK SMILES IDX 48 45 51 46 45 47 46 48 49 49 47 50 73 51 74 52 82 53 75 54
REMARK SMILES IDX 76 55 80 56 83 57 77 58 78 59 81 60 79 61 58 62 59 63 67 64
REMARK SMILES IDX 60 65 61 66 65 67 68 68 62 69 63 70 66 71 64 72 8 73 9 74
REMARK SMILES IDX 10 75 11 76 12 77 13 78 14 79 15 80 16 81 31 82 17 83 30 84
REMARK SMILES IDX 18 85 19 86 20 87 21 88 29 89 22 90 23 91 28 92 24 93 26 94
REMARK SMILES IDX 25 95 27 96
REMARK H PARENT 88 25 56 36
REMARK Flexibility Score: inf
ROOT
ATOM      1  C   UNL A   1      35.368  32.444  32.757  1.00  0.00     0.188 C 
ENDROOT
BRANCH   1   2
ATOM      2  O   UNL A   1      34.184  32.967  32.167  1.00  0.00    -0.376 OA
BRANCH   2   3
ATOM      3  C   UNL A   1      34.409  33.979  31.193  1.00  0.00     0.202 C 
BRANCH   3   4
ATOM      4  C   UNL A   1      34.428  33.534  29.722  1.00  0.00     0.261 C 
BRANCH   4   5
ATOM      5  O   UNL A   1      34.426  32.121  29.382  1.00  0.00    -0.460 OA
BRANCH   5   6
ATOM      6  C   UNL A   1      34.900  31.464  28.299  1.00  0.00     0.338 C 
ATOM      7  O   UNL A   1      34.169  31.193  27.353  1.00  0.00    -0.246 OA
BRANCH   6   8
ATOM      8  C   UNL A   1      36.281  30.955  28.335  1.00  0.00     0.060 A 
ATOM      9  C   UNL A   1      36.469  29.604  28.072  1.00  0.00     0.016 A 
ATOM     10  C   UNL A   1      37.362  31.743  28.734  1.00  0.00     0.016 A 
ATOM     11  C   UNL A   1      37.686  29.028  28.407  1.00  0.00     0.010 A 
ATOM     12  C   UNL A   1      38.541  31.132  29.173  1.00  0.00     0.010 A 
ATOM     13  C   UNL A   1      38.685  29.747  29.078  1.00  0.00    -0.014 A 
BRANCH  13  14
ATOM     14  C   UNL A   1      40.007  29.106  29.220  1.00  0.00     0.031 A 
ATOM     15  C   UNL A   1      40.398  29.128  30.641  1.00  0.00     0.074 A 
ATOM     16  C   UNL A   1      40.827  28.537  28.301  1.00  0.00     0.049 A 
ATOM     17  N   UNL A   1      41.387  29.804  31.125  1.00  0.00    -0.248 NA
ATOM     18  C   UNL A   1      39.492  28.550  31.649  1.00  0.00     0.031 C 
ATOM     19  C   UNL A   1      40.605  28.445  26.875  1.00  0.00     0.029 A 
ATOM     20  N   UNL A   1      42.031  27.871  28.422  1.00  0.00    -0.354 N 
ATOM     21  C   UNL A   1      41.388  29.482  32.469  1.00  0.00     0.074 A 
ATOM     22  C   UNL A   1      40.102  28.913  32.777  1.00  0.00     0.031 C 
ATOM     23  C   UNL A   1      41.388  27.520  26.294  1.00  0.00     0.029 A 
ATOM     24  C   UNL A   1      42.367  27.126  27.283  1.00  0.00     0.049 A 
ATOM     25  H   UNL A   1      42.596  27.914  29.228  1.00  0.00     0.167 HD
ATOM     26  C   UNL A   1      42.578  29.309  33.094  1.00  0.00     0.037 A 
ATOM     27  C   UNL A   1      43.463  26.387  26.987  1.00  0.00     0.037 A 
ATOM     28  C   UNL A   1      43.664  29.979  32.436  1.00  0.00     0.049 A 
ATOM     29  C   UNL A   1      44.560  26.866  27.846  1.00  0.00     0.074 A 
ATOM     30  C   UNL A   1      44.268  31.213  32.501  1.00  0.00     0.029 A 
ATOM     31  N   UNL A   1      44.105  29.382  31.287  1.00  0.00    -0.354 N 
ATOM     32  N   UNL A   1      45.165  28.008  27.665  1.00  0.00    -0.248 NA
ATOM     33  C   UNL A   1      44.753  26.244  29.151  1.00  0.00     0.031 C 
ATOM     34  C   UNL A   1      45.086  31.341  31.340  1.00  0.00     0.029 A 
ATOM     35  C   UNL A   1      44.996  30.168  30.602  1.00  0.00     0.049 A 
ATOM     36  H   UNL A   1      43.814  28.490  30.985  1.00  0.00     0.167 HD
ATOM     37  C   UNL A   1      45.451  28.435  28.943  1.00  0.00     0.074 A 
ATOM     38  C   UNL A   1      45.321  27.263  29.798  1.00  0.00     0.031 C 
ATOM     39  C   UNL A   1      45.419  29.752  29.284  1.00  0.00     0.037 A 
BRANCH  26  40
ATOM     40  C   UNL A   1      42.803  28.121  33.980  1.00  0.00     0.064 A 
ATOM     41  C   UNL A   1      42.933  28.299  35.361  1.00  0.00     0.173 A 
ATOM     42  C   UNL A   1      43.154  26.845  33.478  1.00  0.00     0.173 A 
ATOM     43  F   UNL A   1      42.693  29.496  35.916  1.00  0.00    -0.203 F 
ATOM     44  C   UNL A   1      43.374  27.262  36.187  1.00  0.00     0.198 A 
ATOM     45  C   UNL A   1      43.525  25.795  34.308  1.00  0.00     0.198 A 
ATOM     46  F   UNL A   1      43.254  26.604  32.163  1.00  0.00    -0.203 F 
ATOM     47  F   UNL A   1      43.571  27.491  37.492  1.00  0.00    -0.200 F 
ATOM     48  C   UNL A   1      43.654  26.009  35.662  1.00  0.00     0.200 A 
ATOM     49  F   UNL A   1      43.821  24.602  33.773  1.00  0.00    -0.200 F 
ATOM     50  F   UNL A   1      44.096  25.022  36.453  1.00  0.00    -0.200 F 
ENDBRANCH  26  40
BRANCH  27  51
ATOM     51  C   UNL A   1      43.584  25.246  26.041  1.00  0.00     0.064 A 
ATOM     52  C   UNL A   1      44.720  25.089  25.232  1.00  0.00     0.173 A 
ATOM     53  C   UNL A   1      42.712  24.137  26.106  1.00  0.00     0.173 A 
ATOM     54  F   UNL A   1      45.606  26.088  25.105  1.00  0.00    -0.203 F 
ATOM     55  C   UNL A   1      45.012  23.874  24.600  1.00  0.00     0.198 A 
ATOM     56  C   UNL A   1      42.998  22.931  25.464  1.00  0.00     0.198 A 
ATOM     57  F   UNL A   1      41.607  24.162  26.862  1.00  0.00    -0.203 F 
ATOM     58  F   UNL A   1      46.154  23.738  23.912  1.00  0.00    -0.200 F 
ATOM     59  C   UNL A   1      44.162  22.790  24.736  1.00  0.00     0.200 A 
ATOM     60  F   UNL A   1      42.170  21.887  25.616  1.00  0.00    -0.200 F 
ATOM     61  F   UNL A   1      44.484  21.601  24.206  1.00  0.00    -0.200 F 
ENDBRANCH  27  51
BRANCH  39  62
ATOM     62  C   UNL A   1      45.685  30.784  28.233  1.00  0.00     0.064 A 
ATOM     63  C   UNL A   1      44.726  31.278  27.335  1.00  0.00     0.173 A 
ATOM     64  C   UNL A   1      46.971  31.343  28.177  1.00  0.00     0.173 A 
ATOM     65  F   UNL A   1      43.471  30.807  27.354  1.00  0.00    -0.203 F 
ATOM     66  C   UNL A   1      45.050  32.289  26.425  1.00  0.00     0.198 A 
ATOM     67  C   UNL A   1      47.280  32.374  27.296  1.00  0.00     0.198 A 
ATOM     68  F   UNL A   1      47.932  30.901  29.004  1.00  0.00    -0.203 F 
ATOM     69  F   UNL A   1      44.136  32.736  25.550  1.00  0.00    -0.200 F 
ATOM     70  C   UNL A   1      46.319  32.849  26.421  1.00  0.00     0.200 A 
ATOM     71  F   UNL A   1      48.506  32.914  27.308  1.00  0.00    -0.200 F 
ATOM     72  F   UNL A   1      46.618  33.846  25.576  1.00  0.00    -0.200 F 
ENDBRANCH  39  62
ENDBRANCH  13  14
ENDBRANCH   6   8
ENDBRANCH   5   6
ENDBRANCH   4   5
ENDBRANCH   3   4
ENDBRANCH   2   3
ENDBRANCH   1   2
BRANCH   1  73
ATOM     73  C   UNL A   1      36.042  33.395  33.754  1.00  0.00     0.188 C 
BRANCH  73  74
ATOM     74  O   UNL A   1      36.530  32.829  34.962  1.00  0.00    -0.376 OA
BRANCH  74  75
ATOM     75  C   UNL A   1      37.668  33.446  35.520  1.00  0.00     0.202 C 
BRANCH  75  76
ATOM     76  C   UNL A   1      39.066  32.980  35.098  1.00  0.00     0.261 C 
BRANCH  76  77
ATOM     77  O   UNL A   1      39.876  33.683  34.142  1.00  0.00    -0.460 OA
BRANCH  77  78
ATOM     78  C   UNL A   1      39.848  33.175  32.882  1.00  0.00     0.339 C 
ATOM     79  O   UNL A   1      39.139  32.251  32.497  1.00  0.00    -0.246 OA
BRANCH  78  80
ATOM     80  C   UNL A   1      40.900  33.736  32.015  1.00  0.00     0.078 A 
ATOM     81  C   UNL A   1      41.192  33.131  30.785  1.00  0.00     0.019 A 
ATOM     82  C   UNL A   1      41.698  34.792  32.409  1.00  0.00     0.127 A 
ATOM     83  C   UNL A   1      42.253  33.602  30.003  1.00  0.00     0.026 A 
ATOM     84  N   UNL A   1      42.751  35.245  31.679  1.00  0.00    -0.258 NA
ATOM     85  C   UNL A   1      43.009  34.673  30.471  1.00  0.00     0.060 A 
BRANCH  85  86
ATOM     86  C   UNL A   1      44.153  35.238  29.650  1.00  0.00     0.178 C 
BRANCH  86  87
ATOM     87  N   UNL A   1      43.656  35.942  28.469  1.00  0.00    -0.341 N 
ATOM     88  C   UNL A   1      43.402  35.357  27.253  1.00  0.00     0.087 A 
ATOM     89  C   UNL A   1      43.316  37.281  28.425  1.00  0.00     0.049 A 
ATOM     90  C   UNL A   1      42.765  36.289  26.464  1.00  0.00     0.028 A 
ATOM     91  C   UNL A   1      42.669  37.497  27.208  1.00  0.00    -0.000 A 
ATOM     92  C   UNL A   1      43.465  38.301  29.382  1.00  0.00     0.042 A 
ATOM     93  C   UNL A   1      42.088  38.757  26.961  1.00  0.00     0.011 A 
ATOM     94  C   UNL A   1      42.866  39.533  29.119  1.00  0.00     0.020 A 
ATOM     95  C   UNL A   1      42.176  39.762  27.933  1.00  0.00     0.016 A 
ATOM     96  Br  UNL A   1      42.965  40.898  30.426  1.00  0.00    -0.051 Br
ENDBRANCH  86  87
ENDBRANCH  85  86
ENDBRANCH  78  80
ENDBRANCH  77  78
ENDBRANCH  76  77
ENDBRANCH  75  76
ENDBRANCH  74  75
ENDBRANCH  73  74
ENDBRANCH   1  73
TORSDOF 19
ENDMDL
