MODEL 1
REMARK VINA RESULT:     -10.9      0.000      0.000
REMARK SMILES Cc1ccc(OCCC(=O)N2C[C@H](O)C[C@@H]2C(=O)OCCOCCOCCOC(=O)c2ccc(-c3c4nc(c(-c5c(F)c(F)c(F)c(F)c5F)c5ccc([nH]5)c(-c5c(F)c(F)c(F)c(F)c5F)c5nc(c(-c6c(F)c(F)c(F)c(F)c6F)c6ccc3[nH]6)C=C5)C=C4)cc2)cc1
REMARK SMILES IDX 22 1 21 2 20 3 19 4 17 5 18 6 16 7 11 8 12 9 13 10 15 11
REMARK SMILES IDX 9 12 10 13 8 14 7 15 6 16 5 17 1 18 2 19 3 20 95 21 4 22
REMARK SMILES IDX 94 23 14 24 23 26 24 27 25 28 26 29 27 30 28 31 29 32 30 33
REMARK SMILES IDX 31 34 32 35 93 36 33 37 92 38 34 39 35 40 36 41 86 42 37 43
REMARK SMILES IDX 91 44 85 45 87 46 38 47 90 48 84 49 83 50 39 52 71 53 51 54
REMARK SMILES IDX 70 55 52 56 55 57 69 58 88 59 53 60 54 61 68 63 89 64 56 65
REMARK SMILES IDX 40 66 41 67 49 68 42 69 43 70 47 71 50 72 44 73 45 74 48 75
REMARK SMILES IDX 46 76 72 77 73 78 81 79 74 80 75 81 79 82 82 83 76 84 77 85
REMARK SMILES IDX 80 86 78 87 57 88 58 89 66 90 59 91 60 92 64 93 67 94 61 95
REMARK SMILES IDX 62 96 65 97 63 98
REMARK H PARENT 14 25 87 51 55 62
REMARK Flexibility Score: inf
ROOT
ATOM      1  O   UNL A   1      39.339  20.535  25.888  1.00  0.00    -0.376 OA
ENDROOT
BRANCH   1   2
ATOM      2  C   UNL A   1      38.095  20.953  25.320  1.00  0.00     0.202 C 
BRANCH   2   3
ATOM      3  C   UNL A   1      37.640  22.484  25.398  1.00  0.00     0.261 C 
BRANCH   3   4
ATOM      4  O   UNL A   1      36.213  22.946  25.620  1.00  0.00    -0.462 OA
BRANCH   4   5
ATOM      5  C   UNL A   1      35.515  22.862  24.464  1.00  0.00     0.329 C 
ATOM      6  O   UNL A   1      36.216  23.113  23.495  1.00  0.00    -0.250 OA
BRANCH   5   7
ATOM      7  C   UNL A   1      33.976  22.444  24.237  1.00  0.00     0.197 C 
ATOM      8  N   UNL A   1      32.775  23.081  24.764  1.00  0.00    -0.326 N 
ATOM      9  C   UNL A   1      32.061  22.136  25.608  1.00  0.00     0.152 C 
ATOM     10  C   UNL A   1      32.644  20.761  25.429  1.00  0.00     0.136 C 
ATOM     11  C   UNL A   1      33.418  20.982  24.152  1.00  0.00     0.070 C 
BRANCH   8  12
ATOM     12  C   UNL A   1      31.886  23.611  23.790  1.00  0.00     0.226 C 
ATOM     13  O   UNL A   1      30.660  23.552  23.846  1.00  0.00    -0.275 OA
BRANCH  12  14
ATOM     14  C   UNL A   1      32.578  24.406  22.725  1.00  0.00     0.141 C 
BRANCH  14  15
ATOM     15  C   UNL A   1      31.742  25.574  22.169  1.00  0.00     0.239 C 
BRANCH  15  16
ATOM     16  O   UNL A   1      32.214  26.911  22.445  1.00  0.00    -0.493 OA
BRANCH  16  17
ATOM     17  C   UNL A   1      32.540  27.299  23.730  1.00  0.00     0.119 A 
ATOM     18  C   UNL A   1      32.821  29.696  27.312  1.00  0.00     0.044 C 
ATOM     19  C   UNL A   1      32.766  28.718  26.171  1.00  0.00    -0.051 A 
ATOM     20  C   UNL A   1      31.555  28.110  25.818  1.00  0.00     0.007 A 
ATOM     21  C   UNL A   1      33.883  28.506  25.355  1.00  0.00     0.007 A 
ATOM     22  C   UNL A   1      31.447  27.401  24.612  1.00  0.00     0.046 A 
ATOM     23  C   UNL A   1      33.773  27.800  24.144  1.00  0.00     0.046 A 
ENDBRANCH  16  17
ENDBRANCH  15  16
ENDBRANCH  14  15
ENDBRANCH  12  14
ENDBRANCH   8  12
BRANCH  10  24
ATOM     24  O   UNL A   1      33.361  20.395  26.573  1.00  0.00    -0.391 OA
ATOM     25  H   UNL A   1      33.728  19.506  26.453  1.00  0.00     0.211 HD
ENDBRANCH  10  24
ENDBRANCH   5   7
ENDBRANCH   4   5
ENDBRANCH   3   4
ENDBRANCH   2   3
ENDBRANCH   1   2
BRANCH   1  26
ATOM     26  C   UNL A   1      40.245  21.457  26.507  1.00  0.00     0.188 C 
BRANCH  26  27
ATOM     27  C   UNL A   1      41.737  21.177  26.657  1.00  0.00     0.188 C 
BRANCH  27  28
ATOM     28  O   UNL A   1      42.230  20.569  25.478  1.00  0.00    -0.376 OA
BRANCH  28  29
ATOM     29  C   UNL A   1      42.865  19.313  25.616  1.00  0.00     0.202 C 
BRANCH  29  30
ATOM     30  C   UNL A   1      44.195  19.182  24.844  1.00  0.00     0.261 C 
BRANCH  30  31
ATOM     31  O   UNL A   1      45.333  19.683  25.606  1.00  0.00    -0.460 OA
BRANCH  31  32
ATOM     32  C   UNL A   1      46.263  20.500  24.985  1.00  0.00     0.338 C 
ATOM     33  O   UNL A   1      47.179  20.077  24.324  1.00  0.00    -0.246 OA
BRANCH  32  34
ATOM     34  C   UNL A   1      45.951  21.968  25.177  1.00  0.00     0.060 A 
ATOM     35  C   UNL A   1      46.462  23.093  24.518  1.00  0.00     0.016 A 
ATOM     36  C   UNL A   1      45.086  22.263  26.177  1.00  0.00     0.016 A 
ATOM     37  C   UNL A   1      46.141  24.464  24.958  1.00  0.00     0.010 A 
ATOM     38  C   UNL A   1      45.005  23.552  26.699  1.00  0.00     0.010 A 
ATOM     39  C   UNL A   1      45.441  24.753  26.141  1.00  0.00    -0.014 A 
BRANCH  39  40
ATOM     40  C   UNL A   1      45.142  26.122  26.923  1.00  0.00     0.031 A 
ATOM     41  C   UNL A   1      43.854  27.122  26.951  1.00  0.00     0.074 A 
ATOM     42  C   UNL A   1      45.777  26.095  28.118  1.00  0.00     0.049 A 
ATOM     43  N   UNL A   1      43.066  27.316  27.991  1.00  0.00    -0.248 NA
ATOM     44  C   UNL A   1      43.347  27.967  25.846  1.00  0.00     0.031 C 
ATOM     45  C   UNL A   1      45.508  26.814  29.359  1.00  0.00     0.029 A 
ATOM     46  N   UNL A   1      47.077  25.624  28.316  1.00  0.00    -0.354 N 
ATOM     47  C   UNL A   1      41.887  27.975  27.668  1.00  0.00     0.074 A 
ATOM     48  C   UNL A   1      42.160  28.434  26.308  1.00  0.00     0.031 C 
ATOM     49  C   UNL A   1      46.691  27.130  29.919  1.00  0.00     0.029 A 
ATOM     50  C   UNL A   1      47.709  26.708  28.969  1.00  0.00     0.049 A 
ATOM     51  H   UNL A   1      47.459  24.753  28.066  1.00  0.00     0.167 HD
ATOM     52  C   UNL A   1      41.216  28.680  28.643  1.00  0.00     0.037 A 
ATOM     53  C   UNL A   1      48.465  27.507  28.155  1.00  0.00     0.037 A 
ATOM     54  C   UNL A   1      42.212  29.339  29.455  1.00  0.00     0.049 A 
ATOM     55  C   UNL A   1      47.799  28.871  27.942  1.00  0.00     0.074 A 
ATOM     56  C   UNL A   1      42.846  29.155  30.661  1.00  0.00     0.029 A 
ATOM     57  N   UNL A   1      42.972  30.238  28.756  1.00  0.00    -0.354 N 
ATOM     58  N   UNL A   1      46.617  29.207  28.401  1.00  0.00    -0.248 NA
ATOM     59  C   UNL A   1      48.393  29.956  27.169  1.00  0.00     0.031 C 
ATOM     60  C   UNL A   1      44.131  29.801  30.544  1.00  0.00     0.029 A 
ATOM     61  C   UNL A   1      44.213  30.419  29.303  1.00  0.00     0.049 A 
ATOM     62  H   UNL A   1      42.661  30.704  27.946  1.00  0.00     0.167 HD
ATOM     63  C   UNL A   1      46.305  30.489  28.057  1.00  0.00     0.074 A 
ATOM     64  C   UNL A   1      47.427  30.891  27.221  1.00  0.00     0.031 C 
ATOM     65  C   UNL A   1      45.179  31.143  28.487  1.00  0.00     0.037 A 
BRANCH  52  66
ATOM     66  C   UNL A   1      39.710  28.857  28.832  1.00  0.00     0.064 A 
ATOM     67  C   UNL A   1      38.887  29.324  27.771  1.00  0.00     0.173 A 
ATOM     68  C   UNL A   1      39.031  28.694  30.058  1.00  0.00     0.173 A 
ATOM     69  F   UNL A   1      39.401  29.563  26.556  1.00  0.00    -0.203 F 
ATOM     70  C   UNL A   1      37.512  29.584  27.917  1.00  0.00     0.198 A 
ATOM     71  C   UNL A   1      37.647  28.946  30.201  1.00  0.00     0.198 A 
ATOM     72  F   UNL A   1      39.693  28.311  31.158  1.00  0.00    -0.203 F 
ATOM     73  F   UNL A   1      36.797  30.034  26.874  1.00  0.00    -0.200 F 
ATOM     74  C   UNL A   1      36.890  29.390  29.132  1.00  0.00     0.200 A 
ATOM     75  F   UNL A   1      37.049  28.767  31.390  1.00  0.00    -0.200 F 
ATOM     76  F   UNL A   1      35.577  29.636  29.273  1.00  0.00    -0.200 F 
ENDBRANCH  52  66
BRANCH  53  77
ATOM     77  C   UNL A   1      49.227  26.650  27.152  1.00  0.00     0.064 A 
ATOM     78  C   UNL A   1      48.911  26.814  25.769  1.00  0.00     0.173 A 
ATOM     79  C   UNL A   1      50.446  26.024  27.425  1.00  0.00     0.173 A 
ATOM     80  F   UNL A   1      47.752  27.392  25.406  1.00  0.00    -0.203 F 
ATOM     81  C   UNL A   1      49.843  26.577  24.757  1.00  0.00     0.198 A 
ATOM     82  C   UNL A   1      51.332  25.677  26.390  1.00  0.00     0.198 A 
ATOM     83  F   UNL A   1      50.863  25.855  28.688  1.00  0.00    -0.203 F 
ATOM     84  F   UNL A   1      49.594  26.990  23.504  1.00  0.00    -0.200 F 
ATOM     85  C   UNL A   1      51.058  26.012  25.070  1.00  0.00     0.200 A 
ATOM     86  F   UNL A   1      52.538  25.171  26.692  1.00  0.00    -0.200 F 
ATOM     87  F   UNL A   1      51.997  25.863  24.122  1.00  0.00    -0.200 F 
ENDBRANCH  53  77
BRANCH  65  88
ATOM     88  C   UNL A   1      44.889  32.577  28.112  1.00  0.00     0.064 A 
ATOM     89  C   UNL A   1      44.274  32.883  26.892  1.00  0.00     0.173 A 
ATOM     90  C   UNL A   1      45.285  33.693  28.890  1.00  0.00     0.173 A 
ATOM     91  F   UNL A   1      43.979  31.917  26.011  1.00  0.00    -0.203 F 
ATOM     92  C   UNL A   1      43.953  34.193  26.539  1.00  0.00     0.198 A 
ATOM     93  C   UNL A   1      45.051  35.005  28.489  1.00  0.00     0.198 A 
ATOM     94  F   UNL A   1      45.874  33.567  30.088  1.00  0.00    -0.203 F 
ATOM     95  F   UNL A   1      43.251  34.419  25.422  1.00  0.00    -0.200 F 
ATOM     96  C   UNL A   1      44.348  35.253  27.333  1.00  0.00     0.200 A 
ATOM     97  F   UNL A   1      45.492  36.018  29.249  1.00  0.00    -0.200 F 
ATOM     98  F   UNL A   1      44.049  36.510  26.986  1.00  0.00    -0.200 F 
ENDBRANCH  65  88
ENDBRANCH  39  40
ENDBRANCH  32  34
ENDBRANCH  31  32
ENDBRANCH  30  31
ENDBRANCH  29  30
ENDBRANCH  28  29
ENDBRANCH  27  28
ENDBRANCH  26  27
ENDBRANCH   1  26
TORSDOF 23
ENDMDL
MODEL 2
REMARK VINA RESULT:     -10.8      4.704      7.078
REMARK SMILES Cc1ccc(OCCC(=O)N2C[C@H](O)C[C@@H]2C(=O)OCCOCCOCCOC(=O)c2ccc(-c3c4nc(c(-c5c(F)c(F)c(F)c(F)c5F)c5ccc([nH]5)c(-c5c(F)c(F)c(F)c(F)c5F)c5nc(c(-c6c(F)c(F)c(F)c(F)c6F)c6ccc3[nH]6)C=C5)C=C4)cc2)cc1
REMARK SMILES IDX 22 1 21 2 20 3 19 4 17 5 18 6 16 7 11 8 12 9 13 10 15 11
REMARK SMILES IDX 9 12 10 13 8 14 7 15 6 16 5 17 1 18 2 19 3 20 95 21 4 22
REMARK SMILES IDX 94 23 14 24 23 26 24 27 25 28 26 29 27 30 28 31 29 32 30 33
REMARK SMILES IDX 31 34 32 35 93 36 33 37 92 38 34 39 35 40 36 41 86 42 37 43
REMARK SMILES IDX 91 44 85 45 87 46 38 47 90 48 84 49 83 50 39 52 71 53 51 54
REMARK SMILES IDX 70 55 52 56 55 57 69 58 88 59 53 60 54 61 68 63 89 64 56 65
REMARK SMILES IDX 40 66 41 67 49 68 42 69 43 70 47 71 50 72 44 73 45 74 48 75
REMARK SMILES IDX 46 76 72 77 73 78 81 79 74 80 75 81 79 82 82 83 76 84 77 85
REMARK SMILES IDX 80 86 78 87 57 88 58 89 66 90 59 91 60 92 64 93 67 94 61 95
REMARK SMILES IDX 62 96 65 97 63 98
REMARK H PARENT 14 25 87 51 55 62
REMARK Flexibility Score: inf
ROOT
ATOM      1  O   UNL A   1      38.519  22.201  26.501  1.00  0.00    -0.376 OA
ENDROOT
BRANCH   1   2
ATOM      2  C   UNL A   1      37.783  21.982  25.295  1.00  0.00     0.202 C 
BRANCH   2   3
ATOM      3  C   UNL A   1      36.354  21.265  25.334  1.00  0.00     0.261 C 
BRANCH   3   4
ATOM      4  O   UNL A   1      35.341  21.430  26.450  1.00  0.00    -0.462 OA
BRANCH   4   5
ATOM      5  C   UNL A   1      34.096  21.543  25.931  1.00  0.00     0.329 C 
ATOM      6  O   UNL A   1      33.449  20.519  26.086  1.00  0.00    -0.250 OA
BRANCH   5   7
ATOM      7  C   UNL A   1      33.404  22.815  25.225  1.00  0.00     0.197 C 
ATOM      8  N   UNL A   1      32.370  22.831  24.198  1.00  0.00    -0.326 N 
ATOM      9  C   UNL A   1      32.891  23.475  23.003  1.00  0.00     0.152 C 
ATOM     10  C   UNL A   1      34.201  24.142  23.320  1.00  0.00     0.136 C 
ATOM     11  C   UNL A   1      34.118  24.152  24.827  1.00  0.00     0.070 C 
BRANCH   8  12
ATOM     12  C   UNL A   1      31.146  23.448  24.572  1.00  0.00     0.226 C 
ATOM     13  O   UNL A   1      30.669  23.443  25.705  1.00  0.00    -0.275 OA
BRANCH  12  14
ATOM     14  C   UNL A   1      30.531  24.262  23.475  1.00  0.00     0.141 C 
BRANCH  14  15
ATOM     15  C   UNL A   1      29.995  25.632  23.932  1.00  0.00     0.239 C 
BRANCH  15  16
ATOM     16  O   UNL A   1      30.814  26.787  23.646  1.00  0.00    -0.493 OA
BRANCH  16  17
ATOM     17  C   UNL A   1      31.918  27.085  24.420  1.00  0.00     0.119 A 
ATOM     18  C   UNL A   1      34.526  29.167  27.163  1.00  0.00     0.044 C 
ATOM     19  C   UNL A   1      33.722  28.294  26.240  1.00  0.00    -0.051 A 
ATOM     20  C   UNL A   1      32.591  27.617  26.713  1.00  0.00     0.007 A 
ATOM     21  C   UNL A   1      33.999  28.253  24.869  1.00  0.00     0.007 A 
ATOM     22  C   UNL A   1      31.702  27.012  25.811  1.00  0.00     0.046 A 
ATOM     23  C   UNL A   1      33.107  27.652  23.965  1.00  0.00     0.046 A 
ENDBRANCH  16  17
ENDBRANCH  15  16
ENDBRANCH  14  15
ENDBRANCH  12  14
ENDBRANCH   8  12
BRANCH  10  24
ATOM     24  O   UNL A   1      35.252  23.435  22.728  1.00  0.00    -0.391 OA
ATOM     25  H   UNL A   1      34.985  23.138  21.845  1.00  0.00     0.211 HD
ENDBRANCH  10  24
ENDBRANCH   5   7
ENDBRANCH   4   5
ENDBRANCH   3   4
ENDBRANCH   2   3
ENDBRANCH   1   2
BRANCH   1  26
ATOM     26  C   UNL A   1      39.505  23.235  26.618  1.00  0.00     0.188 C 
BRANCH  26  27
ATOM     27  C   UNL A   1      39.488  24.274  27.735  1.00  0.00     0.188 C 
BRANCH  27  28
ATOM     28  O   UNL A   1      40.555  25.185  27.555  1.00  0.00    -0.376 OA
BRANCH  28  29
ATOM     29  C   UNL A   1      41.834  24.640  27.295  1.00  0.00     0.202 C 
BRANCH  29  30
ATOM     30  C   UNL A   1      42.553  25.252  26.074  1.00  0.00     0.261 C 
BRANCH  30  31
ATOM     31  O   UNL A   1      41.749  26.271  25.408  1.00  0.00    -0.460 OA
BRANCH  31  32
ATOM     32  C   UNL A   1      42.292  27.523  25.174  1.00  0.00     0.338 C 
ATOM     33  O   UNL A   1      42.811  27.836  24.131  1.00  0.00    -0.246 OA
BRANCH  32  34
ATOM     34  C   UNL A   1      42.096  28.457  26.348  1.00  0.00     0.060 A 
ATOM     35  C   UNL A   1      43.041  29.115  27.146  1.00  0.00     0.016 A 
ATOM     36  C   UNL A   1      40.814  28.656  26.738  1.00  0.00     0.016 A 
ATOM     37  C   UNL A   1      42.649  29.871  28.351  1.00  0.00     0.010 A 
ATOM     38  C   UNL A   1      40.519  29.171  27.998  1.00  0.00     0.010 A 
ATOM     39  C   UNL A   1      41.347  29.867  28.877  1.00  0.00    -0.014 A 
BRANCH  39  40
ATOM     40  C   UNL A   1      40.724  30.430  30.244  1.00  0.00     0.031 A 
ATOM     41  C   UNL A   1      39.836  31.754  30.593  1.00  0.00     0.074 A 
ATOM     42  C   UNL A   1      40.397  29.388  31.043  1.00  0.00     0.049 A 
ATOM     43  N   UNL A   1      38.577  31.741  30.985  1.00  0.00    -0.248 NA
ATOM     44  C   UNL A   1      40.269  33.169  30.532  1.00  0.00     0.031 C 
ATOM     45  C   UNL A   1      39.434  29.285  32.135  1.00  0.00     0.029 A 
ATOM     46  N   UNL A   1      41.188  28.252  31.230  1.00  0.00    -0.354 N 
ATOM     47  C   UNL A   1      37.974  32.991  30.928  1.00  0.00     0.074 A 
ATOM     48  C   UNL A   1      39.122  33.871  30.712  1.00  0.00     0.031 C 
ATOM     49  C   UNL A   1      39.966  28.491  33.082  1.00  0.00     0.029 A 
ATOM     50  C   UNL A   1      41.316  28.184  32.637  1.00  0.00     0.049 A 
ATOM     51  H   UNL A   1      41.563  27.646  30.551  1.00  0.00     0.167 HD
ATOM     52  C   UNL A   1      36.889  33.257  31.734  1.00  0.00     0.037 A 
ATOM     53  C   UNL A   1      42.487  28.689  33.132  1.00  0.00     0.037 A 
ATOM     54  C   UNL A   1      37.144  32.638  33.013  1.00  0.00     0.049 A 
ATOM     55  C   UNL A   1      42.253  30.013  33.869  1.00  0.00     0.074 A 
ATOM     56  C   UNL A   1      36.796  31.494  33.692  1.00  0.00     0.029 A 
ATOM     57  N   UNL A   1      38.251  33.137  33.645  1.00  0.00    -0.354 N 
ATOM     58  N   UNL A   1      41.100  30.635  33.945  1.00  0.00    -0.248 NA
ATOM     59  C   UNL A   1      43.301  30.761  34.553  1.00  0.00     0.031 C 
ATOM     60  C   UNL A   1      37.883  31.218  34.600  1.00  0.00     0.029 A 
ATOM     61  C   UNL A   1      38.822  32.235  34.501  1.00  0.00     0.049 A 
ATOM     62  H   UNL A   1      38.599  34.047  33.501  1.00  0.00     0.167 HD
ATOM     63  C   UNL A   1      41.209  31.779  34.678  1.00  0.00     0.074 A 
ATOM     64  C   UNL A   1      42.632  31.848  34.978  1.00  0.00     0.031 C 
ATOM     65  C   UNL A   1      40.144  32.576  35.010  1.00  0.00     0.037 A 
BRANCH  52  66
ATOM     66  C   UNL A   1      35.662  34.118  31.435  1.00  0.00     0.064 A 
ATOM     67  C   UNL A   1      35.180  35.063  32.381  1.00  0.00     0.173 A 
ATOM     68  C   UNL A   1      34.851  33.987  30.288  1.00  0.00     0.173 A 
ATOM     69  F   UNL A   1      35.825  35.269  33.538  1.00  0.00    -0.203 F 
ATOM     70  C   UNL A   1      34.008  35.818  32.190  1.00  0.00     0.198 A 
ATOM     71  C   UNL A   1      33.679  34.753  30.092  1.00  0.00     0.198 A 
ATOM     72  F   UNL A   1      35.155  33.093  29.337  1.00  0.00    -0.203 F 
ATOM     73  F   UNL A   1      33.605  36.686  33.131  1.00  0.00    -0.200 F 
ATOM     74  C   UNL A   1      33.259  35.667  31.042  1.00  0.00     0.200 A 
ATOM     75  F   UNL A   1      32.947  34.593  28.978  1.00  0.00    -0.200 F 
ATOM     76  F   UNL A   1      32.142  36.389  30.857  1.00  0.00    -0.200 F 
ENDBRANCH  52  66
BRANCH  53  77
ATOM     77  C   UNL A   1      43.645  28.295  32.225  1.00  0.00     0.064 A 
ATOM     78  C   UNL A   1      44.317  29.339  31.518  1.00  0.00     0.173 A 
ATOM     79  C   UNL A   1      44.341  27.086  32.324  1.00  0.00     0.173 A 
ATOM     80  F   UNL A   1      43.721  30.534  31.356  1.00  0.00    -0.203 F 
ATOM     81  C   UNL A   1      45.659  29.247  31.147  1.00  0.00     0.198 A 
ATOM     82  C   UNL A   1      45.655  26.963  31.840  1.00  0.00     0.198 A 
ATOM     83  F   UNL A   1      43.824  26.051  33.000  1.00  0.00    -0.203 F 
ATOM     84  F   UNL A   1      46.317  30.339  30.726  1.00  0.00    -0.200 F 
ATOM     85  C   UNL A   1      46.331  28.057  31.313  1.00  0.00     0.200 A 
ATOM     86  F   UNL A   1      46.332  25.822  32.043  1.00  0.00    -0.200 F 
ATOM     87  F   UNL A   1      47.644  27.981  31.046  1.00  0.00    -0.200 F 
ENDBRANCH  53  77
BRANCH  65  88
ATOM     88  C   UNL A   1      40.303  33.818  35.856  1.00  0.00     0.064 A 
ATOM     89  C   UNL A   1      40.793  35.004  35.295  1.00  0.00     0.173 A 
ATOM     90  C   UNL A   1      40.067  33.858  37.253  1.00  0.00     0.173 A 
ATOM     91  F   UNL A   1      41.181  35.046  34.013  1.00  0.00    -0.203 F 
ATOM     92  C   UNL A   1      40.907  36.176  36.040  1.00  0.00     0.198 A 
ATOM     93  C   UNL A   1      40.276  35.005  38.013  1.00  0.00     0.198 A 
ATOM     94  F   UNL A   1      39.585  32.810  37.935  1.00  0.00    -0.203 F 
ATOM     95  F   UNL A   1      41.259  37.313  35.426  1.00  0.00    -0.200 F 
ATOM     96  C   UNL A   1      40.657  36.175  37.399  1.00  0.00     0.200 A 
ATOM     97  F   UNL A   1      40.078  34.965  39.339  1.00  0.00    -0.200 F 
ATOM     98  F   UNL A   1      40.778  37.300  38.114  1.00  0.00    -0.200 F 
ENDBRANCH  65  88
ENDBRANCH  39  40
ENDBRANCH  32  34
ENDBRANCH  31  32
ENDBRANCH  30  31
ENDBRANCH  29  30
ENDBRANCH  28  29
ENDBRANCH  27  28
ENDBRANCH  26  27
ENDBRANCH   1  26
TORSDOF 23
ENDMDL
MODEL 3
REMARK VINA RESULT:     -10.5      4.646      7.056
REMARK SMILES Cc1ccc(OCCC(=O)N2C[C@H](O)C[C@@H]2C(=O)OCCOCCOCCOC(=O)c2ccc(-c3c4nc(c(-c5c(F)c(F)c(F)c(F)c5F)c5ccc([nH]5)c(-c5c(F)c(F)c(F)c(F)c5F)c5nc(c(-c6c(F)c(F)c(F)c(F)c6F)c6ccc3[nH]6)C=C5)C=C4)cc2)cc1
REMARK SMILES IDX 22 1 21 2 20 3 19 4 17 5 18 6 16 7 11 8 12 9 13 10 15 11
REMARK SMILES IDX 9 12 10 13 8 14 7 15 6 16 5 17 1 18 2 19 3 20 95 21 4 22
REMARK SMILES IDX 94 23 14 24 23 26 24 27 25 28 26 29 27 30 28 31 29 32 30 33
REMARK SMILES IDX 31 34 32 35 93 36 33 37 92 38 34 39 35 40 36 41 86 42 37 43
REMARK SMILES IDX 91 44 85 45 87 46 38 47 90 48 84 49 83 50 39 52 71 53 51 54
REMARK SMILES IDX 70 55 52 56 55 57 69 58 88 59 53 60 54 61 68 63 89 64 56 65
REMARK SMILES IDX 40 66 41 67 49 68 42 69 43 70 47 71 50 72 44 73 45 74 48 75
REMARK SMILES IDX 46 76 72 77 73 78 81 79 74 80 75 81 79 82 82 83 76 84 77 85
REMARK SMILES IDX 80 86 78 87 57 88 58 89 66 90 59 91 60 92 64 93 67 94 61 95
REMARK SMILES IDX 62 96 65 97 63 98
REMARK H PARENT 14 25 87 51 55 62
REMARK Flexibility Score: inf
ROOT
ATOM      1  O   UNL A   1      39.472  22.948  27.081  1.00  0.00    -0.376 OA
ENDROOT
BRANCH   1   2
ATOM      2  C   UNL A   1      39.043  21.979  26.121  1.00  0.00     0.202 C 
BRANCH   2   3
ATOM      3  C   UNL A   1      37.674  22.181  25.320  1.00  0.00     0.261 C 
BRANCH   3   4
ATOM      4  O   UNL A   1      37.081  21.164  24.364  1.00  0.00    -0.462 OA
BRANCH   4   5
ATOM      5  C   UNL A   1      35.804  20.890  24.715  1.00  0.00     0.329 C 
ATOM      6  O   UNL A   1      35.668  19.721  25.041  1.00  0.00    -0.250 OA
BRANCH   5   7
ATOM      7  C   UNL A   1      34.538  21.884  24.794  1.00  0.00     0.197 C 
ATOM      8  N   UNL A   1      34.029  22.615  25.948  1.00  0.00    -0.326 N 
ATOM      9  C   UNL A   1      32.673  22.176  26.235  1.00  0.00     0.152 C 
ATOM     10  C   UNL A   1      32.164  21.335  25.096  1.00  0.00     0.136 C 
ATOM     11  C   UNL A   1      33.176  21.707  24.039  1.00  0.00     0.070 C 
BRANCH   8  12
ATOM     12  C   UNL A   1      34.054  24.032  25.833  1.00  0.00     0.226 C 
ATOM     13  O   UNL A   1      34.995  24.689  25.394  1.00  0.00    -0.275 OA
BRANCH  12  14
ATOM     14  C   UNL A   1      32.743  24.677  26.161  1.00  0.00     0.141 C 
BRANCH  14  15
ATOM     15  C   UNL A   1      32.182  25.569  25.038  1.00  0.00     0.239 C 
BRANCH  15  16
ATOM     16  O   UNL A   1      31.193  26.554  25.413  1.00  0.00    -0.493 OA
BRANCH  16  17
ATOM     17  C   UNL A   1      31.516  27.895  25.482  1.00  0.00     0.119 A 
ATOM     18  C   UNL A   1      31.498  32.027  26.740  1.00  0.00     0.044 C 
ATOM     19  C   UNL A   1      31.669  30.623  26.229  1.00  0.00    -0.051 A 
ATOM     20  C   UNL A   1      32.234  29.636  27.045  1.00  0.00     0.007 A 
ATOM     21  C   UNL A   1      31.140  30.243  24.989  1.00  0.00     0.007 A 
ATOM     22  C   UNL A   1      32.165  28.285  26.670  1.00  0.00     0.046 A 
ATOM     23  C   UNL A   1      31.066  28.890  24.617  1.00  0.00     0.046 A 
ENDBRANCH  16  17
ENDBRANCH  15  16
ENDBRANCH  14  15
ENDBRANCH  12  14
ENDBRANCH   8  12
BRANCH  10  24
ATOM     24  O   UNL A   1      32.092  19.995  25.489  1.00  0.00    -0.391 OA
ATOM     25  H   UNL A   1      32.719  19.472  24.966  1.00  0.00     0.211 HD
ENDBRANCH  10  24
ENDBRANCH   5   7
ENDBRANCH   4   5
ENDBRANCH   3   4
ENDBRANCH   2   3
ENDBRANCH   1   2
BRANCH   1  26
ATOM     26  C   UNL A   1      40.651  23.742  26.892  1.00  0.00     0.188 C 
BRANCH  26  27
ATOM     27  C   UNL A   1      41.725  23.899  27.964  1.00  0.00     0.188 C 
BRANCH  27  28
ATOM     28  O   UNL A   1      43.003  23.684  27.394  1.00  0.00    -0.376 OA
BRANCH  28  29
ATOM     29  C   UNL A   1      43.399  24.553  26.351  1.00  0.00     0.202 C 
BRANCH  29  30
ATOM     30  C   UNL A   1      44.139  25.822  26.823  1.00  0.00     0.261 C 
BRANCH  30  31
ATOM     31  O   UNL A   1      44.314  26.796  25.751  1.00  0.00    -0.460 OA
BRANCH  31  32
ATOM     32  C   UNL A   1      43.243  27.583  25.364  1.00  0.00     0.338 C 
ATOM     33  O   UNL A   1      42.683  27.465  24.302  1.00  0.00    -0.246 OA
BRANCH  32  34
ATOM     34  C   UNL A   1      42.823  28.549  26.450  1.00  0.00     0.060 A 
ATOM     35  C   UNL A   1      43.581  29.482  27.170  1.00  0.00     0.016 A 
ATOM     36  C   UNL A   1      41.529  28.475  26.842  1.00  0.00     0.016 A 
ATOM     37  C   UNL A   1      43.014  30.232  28.307  1.00  0.00     0.010 A 
ATOM     38  C   UNL A   1      41.112  29.019  28.054  1.00  0.00     0.010 A 
ATOM     39  C   UNL A   1      41.747  29.969  28.853  1.00  0.00    -0.014 A 
BRANCH  39  40
ATOM     40  C   UNL A   1      40.999  30.492  30.172  1.00  0.00     0.031 A 
ATOM     41  C   UNL A   1      40.033  31.775  30.462  1.00  0.00     0.074 A 
ATOM     42  C   UNL A   1      40.658  29.430  30.937  1.00  0.00     0.049 A 
ATOM     43  N   UNL A   1      38.749  31.705  30.758  1.00  0.00    -0.248 NA
ATOM     44  C   UNL A   1      40.408  33.207  30.443  1.00  0.00     0.031 C 
ATOM     45  C   UNL A   1      39.621  29.277  31.953  1.00  0.00     0.029 A 
ATOM     46  N   UNL A   1      41.480  28.326  31.176  1.00  0.00    -0.354 N 
ATOM     47  C   UNL A   1      38.100  32.930  30.664  1.00  0.00     0.074 A 
ATOM     48  C   UNL A   1      39.222  33.859  30.540  1.00  0.00     0.031 C 
ATOM     49  C   UNL A   1      40.113  28.496  32.933  1.00  0.00     0.029 A 
ATOM     50  C   UNL A   1      41.505  28.250  32.589  1.00  0.00     0.049 A 
ATOM     51  H   UNL A   1      41.930  27.743  30.523  1.00  0.00     0.167 HD
ATOM     52  C   UNL A   1      36.947  33.143  31.387  1.00  0.00     0.037 A 
ATOM     53  C   UNL A   1      42.613  28.798  33.174  1.00  0.00     0.037 A 
ATOM     54  C   UNL A   1      37.132  32.522  32.678  1.00  0.00     0.049 A 
ATOM     55  C   UNL A   1      42.268  30.104  33.900  1.00  0.00     0.074 A 
ATOM     56  C   UNL A   1      36.782  31.358  33.322  1.00  0.00     0.029 A 
ATOM     57  N   UNL A   1      38.166  33.061  33.395  1.00  0.00    -0.354 N 
ATOM     58  N   UNL A   1      41.088  30.676  33.892  1.00  0.00    -0.248 NA
ATOM     59  C   UNL A   1      43.230  30.888  34.666  1.00  0.00     0.031 C 
ATOM     60  C   UNL A   1      37.809  31.119  34.307  1.00  0.00     0.029 A 
ATOM     61  C   UNL A   1      38.709  32.175  34.285  1.00  0.00     0.049 A 
ATOM     62  H   UNL A   1      38.485  33.986  33.284  1.00  0.00     0.167 HD
ATOM     63  C   UNL A   1      41.093  31.817  34.639  1.00  0.00     0.074 A 
ATOM     64  C   UNL A   1      42.485  31.942  35.045  1.00  0.00     0.031 C 
ATOM     65  C   UNL A   1      39.974  32.566  34.895  1.00  0.00     0.037 A 
BRANCH  52  66
ATOM     66  C   UNL A   1      35.711  33.955  31.002  1.00  0.00     0.064 A 
ATOM     67  C   UNL A   1      35.081  34.821  31.937  1.00  0.00     0.173 A 
ATOM     68  C   UNL A   1      35.031  33.845  29.771  1.00  0.00     0.173 A 
ATOM     69  F   UNL A   1      35.591  34.996  33.165  1.00  0.00    -0.203 F 
ATOM     70  C   UNL A   1      33.895  35.524  31.660  1.00  0.00     0.198 A 
ATOM     71  C   UNL A   1      33.844  34.560  29.490  1.00  0.00     0.198 A 
ATOM     72  F   UNL A   1      35.482  33.021  28.815  1.00  0.00    -0.203 F 
ATOM     73  F   UNL A   1      33.348  36.318  32.594  1.00  0.00    -0.200 F 
ATOM     74  C   UNL A   1      33.278  35.398  30.433  1.00  0.00     0.200 A 
ATOM     75  F   UNL A   1      33.241  34.423  28.298  1.00  0.00    -0.200 F 
ATOM     76  F   UNL A   1      32.147  36.070  30.167  1.00  0.00    -0.200 F 
ENDBRANCH  52  66
BRANCH  53  77
ATOM     77  C   UNL A   1      43.851  28.461  32.353  1.00  0.00     0.064 A 
ATOM     78  C   UNL A   1      44.150  27.080  32.145  1.00  0.00     0.173 A 
ATOM     79  C   UNL A   1      44.479  29.355  31.482  1.00  0.00     0.173 A 
ATOM     80  F   UNL A   1      43.606  26.145  32.944  1.00  0.00    -0.203 F 
ATOM     81  C   UNL A   1      44.836  26.626  31.017  1.00  0.00     0.198 A 
ATOM     82  C   UNL A   1      45.270  28.894  30.414  1.00  0.00     0.198 A 
ATOM     83  F   UNL A   1      44.240  30.672  31.559  1.00  0.00    -0.203 F 
ATOM     84  F   UNL A   1      44.865  25.315  30.730  1.00  0.00    -0.200 F 
ATOM     85  C   UNL A   1      45.393  27.536  30.147  1.00  0.00     0.200 A 
ATOM     86  F   UNL A   1      45.774  29.774  29.535  1.00  0.00    -0.200 F 
ATOM     87  F   UNL A   1      45.975  27.116  29.013  1.00  0.00    -0.200 F 
ENDBRANCH  53  77
BRANCH  65  88
ATOM     88  C   UNL A   1      40.016  33.805  35.759  1.00  0.00     0.064 A 
ATOM     89  C   UNL A   1      39.401  33.818  37.016  1.00  0.00     0.173 A 
ATOM     90  C   UNL A   1      40.578  35.038  35.344  1.00  0.00     0.173 A 
ATOM     91  F   UNL A   1      38.716  32.752  37.455  1.00  0.00    -0.203 F 
ATOM     92  C   UNL A   1      39.462  34.931  37.853  1.00  0.00     0.198 A 
ATOM     93  C   UNL A   1      40.553  36.177  36.143  1.00  0.00     0.198 A 
ATOM     94  F   UNL A   1      41.215  35.186  34.174  1.00  0.00    -0.203 F 
ATOM     95  F   UNL A   1      38.969  34.847  39.095  1.00  0.00    -0.200 F 
ATOM     96  C   UNL A   1      40.030  36.111  37.414  1.00  0.00     0.200 A 
ATOM     97  F   UNL A   1      41.061  37.326  35.675  1.00  0.00    -0.200 F 
ATOM     98  F   UNL A   1      40.078  37.182  38.216  1.00  0.00    -0.200 F 
ENDBRANCH  65  88
ENDBRANCH  39  40
ENDBRANCH  32  34
ENDBRANCH  31  32
ENDBRANCH  30  31
ENDBRANCH  29  30
ENDBRANCH  28  29
ENDBRANCH  27  28
ENDBRANCH  26  27
ENDBRANCH   1  26
TORSDOF 23
ENDMDL
