MODEL 1
REMARK VINA RESULT:     -10.3      0.000      0.000
REMARK SMILES CC(C)C[C@H](C)NS(=O)(=O)c1cc(C(=O)OCCOCCOCCOC(=O)c2ccc(-c3c4nc(c(-c5c(F)c(F)c(F)c(F)c5F)c5ccc([nH]5)c(-c5c(F)c(F)c(F)c(F)c5F)c5nc(c(-c6c(F)c(F)c(F)c(F)c6F)c6ccc3[nH]6)C=C5)C=C4)cc2)ccc1Cl
REMARK SMILES IDX 19 1 18 2 17 3 16 4 14 5 15 6 13 7 11 8 12 9 93 10 92 11
REMARK SMILES IDX 94 12 91 13 8 14 9 15 10 16 7 17 5 19 6 20 4 21 2 22 1 23
REMARK SMILES IDX 3 24 20 25 21 26 22 27 23 28 24 29 25 30 26 31 27 32 28 33
REMARK SMILES IDX 29 34 90 35 30 36 89 37 31 38 32 39 33 40 83 41 34 42 88 43
REMARK SMILES IDX 82 44 84 45 35 46 87 47 81 48 80 49 36 51 68 52 48 53 67 54
REMARK SMILES IDX 49 55 52 56 66 57 85 58 50 59 51 60 65 62 86 63 53 64 37 65
REMARK SMILES IDX 38 66 46 67 39 68 40 69 44 70 47 71 41 72 42 73 45 74 43 75
REMARK SMILES IDX 69 76 70 77 78 78 71 79 72 80 76 81 79 82 73 83 74 84 77 85
REMARK SMILES IDX 75 86 54 87 55 88 63 89 56 90 57 91 61 92 64 93 58 94 59 95
REMARK SMILES IDX 62 96 60 97
REMARK H PARENT 7 18 84 50 52 61
REMARK Flexibility Score: inf
ROOT
ATOM      1  O   UNL A   1      36.138  33.406  28.546  1.00  0.00    -0.376 OA
ENDROOT
BRANCH   1   2
ATOM      2  C   UNL A   1      35.101  32.744  27.837  1.00  0.00     0.202 C 
BRANCH   2   3
ATOM      3  C   UNL A   1      34.541  31.435  28.404  1.00  0.00     0.261 C 
BRANCH   3   4
ATOM      4  O   UNL A   1      33.854  30.607  27.450  1.00  0.00    -0.460 OA
BRANCH   4   5
ATOM      5  C   UNL A   1      34.425  29.399  27.228  1.00  0.00     0.338 C 
ATOM      6  O   UNL A   1      35.606  29.114  27.350  1.00  0.00    -0.246 OA
BRANCH   5   7
ATOM      7  C   UNL A   1      33.406  28.371  26.910  1.00  0.00     0.061 A 
ATOM      8  C   UNL A   1      32.828  26.411  25.560  1.00  0.00     0.101 A 
ATOM      9  C   UNL A   1      33.773  27.340  26.037  1.00  0.00     0.039 A 
ATOM     10  C   UNL A   1      31.494  26.562  25.924  1.00  0.00     0.061 A 
ATOM     11  C   UNL A   1      31.150  27.532  26.885  1.00  0.00     0.023 A 
ATOM     12  Cl  UNL A   1      30.166  25.761  25.175  1.00  0.00    -0.083 Cl
ATOM     13  C   UNL A   1      32.101  28.428  27.389  1.00  0.00     0.017 A 
BRANCH   8  14
ATOM     14  S   UNL A   1      33.511  25.158  24.516  1.00  0.00     0.242 S 
ATOM     15  O   UNL A   1      34.903  25.044  24.869  1.00  0.00    -0.207 OA
ATOM     16  O   UNL A   1      33.127  25.528  23.164  1.00  0.00    -0.207 OA
BRANCH  14  17
ATOM     17  N   UNL A   1      32.800  23.686  24.770  1.00  0.00    -0.208 NA
ATOM     18  H   UNL A   1      31.842  23.808  24.441  1.00  0.00     0.141 HD
BRANCH  17  19
ATOM     19  C   UNL A   1      32.661  22.929  26.018  1.00  0.00     0.067 C 
ATOM     20  C   UNL A   1      31.190  22.477  26.065  1.00  0.00     0.025 C 
BRANCH  19  21
ATOM     21  C   UNL A   1      33.553  21.682  26.116  1.00  0.00     0.022 C 
BRANCH  21  22
ATOM     22  C   UNL A   1      34.200  21.175  24.809  1.00  0.00    -0.016 C 
ATOM     23  C   UNL A   1      35.670  21.564  24.638  1.00  0.00     0.007 C 
ATOM     24  C   UNL A   1      34.071  19.647  24.754  1.00  0.00     0.007 C 
ENDBRANCH  21  22
ENDBRANCH  19  21
ENDBRANCH  17  19
ENDBRANCH  14  17
ENDBRANCH   8  14
ENDBRANCH   5   7
ENDBRANCH   4   5
ENDBRANCH   3   4
ENDBRANCH   2   3
ENDBRANCH   1   2
BRANCH   1  25
ATOM     25  C   UNL A   1      35.836  34.173  29.708  1.00  0.00     0.188 C 
BRANCH  25  26
ATOM     26  C   UNL A   1      34.375  34.539  30.045  1.00  0.00     0.188 C 
BRANCH  26  27
ATOM     27  O   UNL A   1      33.847  33.835  31.151  1.00  0.00    -0.376 OA
BRANCH  27  28
ATOM     28  C   UNL A   1      33.998  34.427  32.430  1.00  0.00     0.202 C 
BRANCH  28  29
ATOM     29  C   UNL A   1      35.021  33.816  33.403  1.00  0.00     0.261 C 
BRANCH  29  30
ATOM     30  O   UNL A   1      35.579  32.547  33.025  1.00  0.00    -0.460 OA
BRANCH  30  31
ATOM     31  C   UNL A   1      36.683  32.135  33.678  1.00  0.00     0.338 C 
ATOM     32  O   UNL A   1      36.899  32.201  34.880  1.00  0.00    -0.246 OA
BRANCH  31  33
ATOM     33  C   UNL A   1      37.551  31.427  32.717  1.00  0.00     0.060 A 
ATOM     34  C   UNL A   1      38.642  30.707  33.209  1.00  0.00     0.016 A 
ATOM     35  C   UNL A   1      37.310  31.484  31.341  1.00  0.00     0.016 A 
ATOM     36  C   UNL A   1      39.514  30.079  32.322  1.00  0.00     0.010 A 
ATOM     37  C   UNL A   1      38.212  30.877  30.452  1.00  0.00     0.010 A 
ATOM     38  C   UNL A   1      39.348  30.210  30.938  1.00  0.00    -0.014 A 
BRANCH  38  39
ATOM     39  C   UNL A   1      40.466  29.795  30.045  1.00  0.00     0.031 A 
ATOM     40  C   UNL A   1      41.590  30.764  29.778  1.00  0.00     0.074 A 
ATOM     41  C   UNL A   1      40.550  28.539  29.568  1.00  0.00     0.049 A 
ATOM     42  N   UNL A   1      42.678  30.608  29.065  1.00  0.00    -0.248 NA
ATOM     43  C   UNL A   1      41.476  32.088  30.410  1.00  0.00     0.031 C 
ATOM     44  C   UNL A   1      39.577  27.477  29.810  1.00  0.00     0.029 A 
ATOM     45  N   UNL A   1      41.514  27.943  28.790  1.00  0.00    -0.354 N 
ATOM     46  C   UNL A   1      43.367  31.811  29.152  1.00  0.00     0.074 A 
ATOM     47  C   UNL A   1      42.563  32.699  29.963  1.00  0.00     0.031 C 
ATOM     48  C   UNL A   1      39.996  26.355  29.201  1.00  0.00     0.029 A 
ATOM     49  C   UNL A   1      41.248  26.627  28.498  1.00  0.00     0.049 A 
ATOM     50  H   UNL A   1      42.319  28.413  28.473  1.00  0.00     0.167 HD
ATOM     51  C   UNL A   1      44.565  32.146  28.615  1.00  0.00     0.037 A 
ATOM     52  C   UNL A   1      41.931  25.746  27.741  1.00  0.00     0.037 A 
ATOM     53  C   UNL A   1      45.380  31.263  27.822  1.00  0.00     0.049 A 
ATOM     54  C   UNL A   1      43.230  26.162  27.102  1.00  0.00     0.074 A 
ATOM     55  C   UNL A   1      46.611  31.514  27.239  1.00  0.00     0.029 A 
ATOM     56  N   UNL A   1      45.048  29.956  27.502  1.00  0.00    -0.354 N 
ATOM     57  N   UNL A   1      43.870  27.304  27.185  1.00  0.00    -0.248 NA
ATOM     58  C   UNL A   1      43.909  25.159  26.267  1.00  0.00     0.031 C 
ATOM     59  C   UNL A   1      47.001  30.375  26.528  1.00  0.00     0.029 A 
ATOM     60  C   UNL A   1      46.040  29.394  26.713  1.00  0.00     0.049 A 
ATOM     61  H   UNL A   1      44.228  29.494  27.791  1.00  0.00     0.167 HD
ATOM     62  C   UNL A   1      45.033  27.147  26.443  1.00  0.00     0.074 A 
ATOM     63  C   UNL A   1      45.021  25.795  25.927  1.00  0.00     0.031 C 
ATOM     64  C   UNL A   1      46.024  28.045  26.210  1.00  0.00     0.037 A 
BRANCH  51  65
ATOM     65  C   UNL A   1      45.058  33.546  28.844  1.00  0.00     0.064 A 
ATOM     66  C   UNL A   1      45.893  33.868  29.924  1.00  0.00     0.173 A 
ATOM     67  C   UNL A   1      44.715  34.571  27.950  1.00  0.00     0.173 A 
ATOM     68  F   UNL A   1      46.238  32.927  30.816  1.00  0.00    -0.203 F 
ATOM     69  C   UNL A   1      46.347  35.172  30.114  1.00  0.00     0.198 A 
ATOM     70  C   UNL A   1      45.194  35.867  28.127  1.00  0.00     0.198 A 
ATOM     71  F   UNL A   1      43.923  34.315  26.898  1.00  0.00    -0.203 F 
ATOM     72  F   UNL A   1      47.106  35.468  31.178  1.00  0.00    -0.200 F 
ATOM     73  C   UNL A   1      46.002  36.168  29.213  1.00  0.00     0.200 A 
ATOM     74  F   UNL A   1      44.869  36.825  27.247  1.00  0.00    -0.200 F 
ATOM     75  F   UNL A   1      46.444  37.420  29.392  1.00  0.00    -0.200 F 
ENDBRANCH  51  65
BRANCH  52  76
ATOM     76  C   UNL A   1      41.394  24.376  27.534  1.00  0.00     0.064 A 
ATOM     77  C   UNL A   1      42.006  23.257  28.118  1.00  0.00     0.173 A 
ATOM     78  C   UNL A   1      40.273  24.154  26.719  1.00  0.00     0.173 A 
ATOM     79  F   UNL A   1      43.103  23.413  28.874  1.00  0.00    -0.203 F 
ATOM     80  C   UNL A   1      41.527  21.969  27.883  1.00  0.00     0.198 A 
ATOM     81  C   UNL A   1      39.778  22.871  26.508  1.00  0.00     0.198 A 
ATOM     82  F   UNL A   1      39.661  25.189  26.125  1.00  0.00    -0.203 F 
ATOM     83  F   UNL A   1      42.163  20.914  28.406  1.00  0.00    -0.200 F 
ATOM     84  C   UNL A   1      40.410  21.778  27.082  1.00  0.00     0.200 A 
ATOM     85  F   UNL A   1      38.698  22.689  25.736  1.00  0.00    -0.200 F 
ATOM     86  F   UNL A   1      39.953  20.540  26.852  1.00  0.00    -0.200 F 
ENDBRANCH  52  76
BRANCH  64  87
ATOM     87  C   UNL A   1      47.198  27.581  25.397  1.00  0.00     0.064 A 
ATOM     88  C   UNL A   1      47.271  27.794  24.013  1.00  0.00     0.173 A 
ATOM     89  C   UNL A   1      48.278  26.930  26.016  1.00  0.00     0.173 A 
ATOM     90  F   UNL A   1      46.261  28.400  23.370  1.00  0.00    -0.203 F 
ATOM     91  C   UNL A   1      48.362  27.343  23.274  1.00  0.00     0.198 A 
ATOM     92  C   UNL A   1      49.381  26.509  25.280  1.00  0.00     0.198 A 
ATOM     93  F   UNL A   1      48.266  26.710  27.340  1.00  0.00    -0.203 F 
ATOM     94  F   UNL A   1      48.383  27.509  21.944  1.00  0.00    -0.200 F 
ATOM     95  C   UNL A   1      49.418  26.706  23.908  1.00  0.00     0.200 A 
ATOM     96  F   UNL A   1      50.407  25.906  25.897  1.00  0.00    -0.200 F 
ATOM     97  F   UNL A   1      50.467  26.274  23.195  1.00  0.00    -0.200 F 
ENDBRANCH  64  87
ENDBRANCH  38  39
ENDBRANCH  31  33
ENDBRANCH  30  31
ENDBRANCH  29  30
ENDBRANCH  28  29
ENDBRANCH  27  28
ENDBRANCH  26  27
ENDBRANCH  25  26
ENDBRANCH   1  25
TORSDOF 22
ENDMDL
MODEL 2
REMARK VINA RESULT:     -10.2      1.096      2.016
REMARK SMILES CC(C)C[C@H](C)NS(=O)(=O)c1cc(C(=O)OCCOCCOCCOC(=O)c2ccc(-c3c4nc(c(-c5c(F)c(F)c(F)c(F)c5F)c5ccc([nH]5)c(-c5c(F)c(F)c(F)c(F)c5F)c5nc(c(-c6c(F)c(F)c(F)c(F)c6F)c6ccc3[nH]6)C=C5)C=C4)cc2)ccc1Cl
REMARK SMILES IDX 19 1 18 2 17 3 16 4 14 5 15 6 13 7 11 8 12 9 93 10 92 11
REMARK SMILES IDX 94 12 91 13 8 14 9 15 10 16 7 17 5 19 6 20 4 21 2 22 1 23
REMARK SMILES IDX 3 24 20 25 21 26 22 27 23 28 24 29 25 30 26 31 27 32 28 33
REMARK SMILES IDX 29 34 90 35 30 36 89 37 31 38 32 39 33 40 83 41 34 42 88 43
REMARK SMILES IDX 82 44 84 45 35 46 87 47 81 48 80 49 36 51 68 52 48 53 67 54
REMARK SMILES IDX 49 55 52 56 66 57 85 58 50 59 51 60 65 62 86 63 53 64 37 65
REMARK SMILES IDX 38 66 46 67 39 68 40 69 44 70 47 71 41 72 42 73 45 74 43 75
REMARK SMILES IDX 69 76 70 77 78 78 71 79 72 80 76 81 79 82 73 83 74 84 77 85
REMARK SMILES IDX 75 86 54 87 55 88 63 89 56 90 57 91 61 92 64 93 58 94 59 95
REMARK SMILES IDX 62 96 60 97
REMARK H PARENT 7 18 84 50 52 61
REMARK Flexibility Score: inf
ROOT
ATOM      1  O   UNL A   1      33.978  32.972  29.690  1.00  0.00    -0.376 OA
ENDROOT
BRANCH   1   2
ATOM      2  C   UNL A   1      34.949  32.121  29.097  1.00  0.00     0.202 C 
BRANCH   2   3
ATOM      3  C   UNL A   1      34.729  31.645  27.657  1.00  0.00     0.261 C 
BRANCH   3   4
ATOM      4  O   UNL A   1      33.670  30.686  27.492  1.00  0.00    -0.460 OA
BRANCH   4   5
ATOM      5  C   UNL A   1      34.015  29.568  26.810  1.00  0.00     0.338 C 
ATOM      6  O   UNL A   1      34.982  28.853  27.018  1.00  0.00    -0.246 OA
BRANCH   5   7
ATOM      7  C   UNL A   1      32.991  29.216  25.799  1.00  0.00     0.061 A 
ATOM      8  C   UNL A   1      32.460  27.928  23.784  1.00  0.00     0.101 A 
ATOM      9  C   UNL A   1      33.310  28.218  24.869  1.00  0.00     0.039 A 
ATOM     10  C   UNL A   1      31.311  28.690  23.606  1.00  0.00     0.061 A 
ATOM     11  C   UNL A   1      30.941  29.616  24.602  1.00  0.00     0.023 A 
ATOM     12  Cl  UNL A   1      30.356  28.724  22.174  1.00  0.00    -0.083 Cl
ATOM     13  C   UNL A   1      31.768  29.873  25.702  1.00  0.00     0.017 A 
BRANCH   8  14
ATOM     14  S   UNL A   1      33.023  26.597  22.764  1.00  0.00     0.242 S 
ATOM     15  O   UNL A   1      33.768  27.194  21.686  1.00  0.00    -0.207 OA
ATOM     16  O   UNL A   1      31.841  25.798  22.483  1.00  0.00    -0.207 OA
BRANCH  14  17
ATOM     17  N   UNL A   1      34.038  25.579  23.581  1.00  0.00    -0.208 NA
ATOM     18  H   UNL A   1      34.905  25.602  23.045  1.00  0.00     0.141 HD
BRANCH  17  19
ATOM     19  C   UNL A   1      33.856  24.163  23.917  1.00  0.00     0.067 C 
ATOM     20  C   UNL A   1      34.087  23.394  22.602  1.00  0.00     0.025 C 
BRANCH  19  21
ATOM     21  C   UNL A   1      34.833  23.622  24.970  1.00  0.00     0.022 C 
BRANCH  21  22
ATOM     22  C   UNL A   1      34.395  22.369  25.759  1.00  0.00    -0.016 C 
ATOM     23  C   UNL A   1      35.528  21.389  26.071  1.00  0.00     0.007 C 
ATOM     24  C   UNL A   1      33.736  22.815  27.071  1.00  0.00     0.007 C 
ENDBRANCH  21  22
ENDBRANCH  19  21
ENDBRANCH  17  19
ENDBRANCH  14  17
ENDBRANCH   8  14
ENDBRANCH   5   7
ENDBRANCH   4   5
ENDBRANCH   3   4
ENDBRANCH   2   3
ENDBRANCH   1   2
BRANCH   1  25
ATOM     25  C   UNL A   1      34.149  34.385  29.659  1.00  0.00     0.188 C 
BRANCH  25  26
ATOM     26  C   UNL A   1      33.382  35.287  30.648  1.00  0.00     0.188 C 
BRANCH  26  27
ATOM     27  O   UNL A   1      33.084  34.664  31.881  1.00  0.00    -0.376 OA
BRANCH  27  28
ATOM     28  C   UNL A   1      34.048  34.774  32.915  1.00  0.00     0.202 C 
BRANCH  28  29
ATOM     29  C   UNL A   1      34.548  33.486  33.589  1.00  0.00     0.261 C 
BRANCH  29  30
ATOM     30  O   UNL A   1      35.538  32.733  32.869  1.00  0.00    -0.460 OA
BRANCH  30  31
ATOM     31  C   UNL A   1      36.593  32.268  33.566  1.00  0.00     0.338 C 
ATOM     32  O   UNL A   1      36.753  32.307  34.778  1.00  0.00    -0.246 OA
BRANCH  31  33
ATOM     33  C   UNL A   1      37.477  31.541  32.635  1.00  0.00     0.060 A 
ATOM     34  C   UNL A   1      38.566  30.841  33.159  1.00  0.00     0.016 A 
ATOM     35  C   UNL A   1      37.255  31.561  31.254  1.00  0.00     0.016 A 
ATOM     36  C   UNL A   1      39.453  30.196  32.300  1.00  0.00     0.010 A 
ATOM     37  C   UNL A   1      38.171  30.937  30.393  1.00  0.00     0.010 A 
ATOM     38  C   UNL A   1      39.305  30.290  30.911  1.00  0.00    -0.014 A 
BRANCH  38  39
ATOM     39  C   UNL A   1      40.437  29.859  30.044  1.00  0.00     0.031 A 
ATOM     40  C   UNL A   1      41.581  30.812  29.804  1.00  0.00     0.074 A 
ATOM     41  C   UNL A   1      40.514  28.603  29.568  1.00  0.00     0.049 A 
ATOM     42  N   UNL A   1      42.683  30.641  29.116  1.00  0.00    -0.248 NA
ATOM     43  C   UNL A   1      41.471  32.137  30.433  1.00  0.00     0.031 C 
ATOM     44  C   UNL A   1      39.521  27.555  29.787  1.00  0.00     0.029 A 
ATOM     45  N   UNL A   1      41.487  27.993  28.812  1.00  0.00    -0.354 N 
ATOM     46  C   UNL A   1      43.386  31.834  29.219  1.00  0.00     0.074 A 
ATOM     47  C   UNL A   1      42.576  32.734  30.013  1.00  0.00     0.031 C 
ATOM     48  C   UNL A   1      39.937  26.427  29.187  1.00  0.00     0.029 A 
ATOM     49  C   UNL A   1      41.209  26.681  28.514  1.00  0.00     0.049 A 
ATOM     50  H   UNL A   1      42.306  28.452  28.514  1.00  0.00     0.167 HD
ATOM     51  C   UNL A   1      44.601  32.152  28.710  1.00  0.00     0.037 A 
ATOM     52  C   UNL A   1      41.897  25.791  27.772  1.00  0.00     0.037 A 
ATOM     53  C   UNL A   1      45.422  31.258  27.936  1.00  0.00     0.049 A 
ATOM     54  C   UNL A   1      43.217  26.188  27.163  1.00  0.00     0.074 A 
ATOM     55  C   UNL A   1      46.669  31.491  27.381  1.00  0.00     0.029 A 
ATOM     56  N   UNL A   1      45.078  29.956  27.607  1.00  0.00    -0.354 N 
ATOM     57  N   UNL A   1      43.870  27.321  27.262  1.00  0.00    -0.248 NA
ATOM     58  C   UNL A   1      43.900  25.176  26.343  1.00  0.00     0.031 C 
ATOM     59  C   UNL A   1      47.059  30.347  26.678  1.00  0.00     0.029 A 
ATOM     60  C   UNL A   1      46.080  29.380  26.840  1.00  0.00     0.049 A 
ATOM     61  H   UNL A   1      44.245  29.506  27.877  1.00  0.00     0.167 HD
ATOM     62  C   UNL A   1      45.048  27.148  26.546  1.00  0.00     0.074 A 
ATOM     63  C   UNL A   1      45.028  25.796  26.030  1.00  0.00     0.031 C 
ATOM     64  C   UNL A   1      46.056  28.031  26.337  1.00  0.00     0.037 A 
BRANCH  51  65
ATOM     65  C   UNL A   1      45.109  33.545  28.952  1.00  0.00     0.064 A 
ATOM     66  C   UNL A   1      44.806  34.604  28.083  1.00  0.00     0.173 A 
ATOM     67  C   UNL A   1      45.881  33.827  30.089  1.00  0.00     0.173 A 
ATOM     68  F   UNL A   1      44.084  34.384  26.974  1.00  0.00    -0.203 F 
ATOM     69  C   UNL A   1      45.281  35.890  28.330  1.00  0.00     0.198 A 
ATOM     70  C   UNL A   1      46.329  35.120  30.348  1.00  0.00     0.198 A 
ATOM     71  F   UNL A   1      46.193  32.851  30.954  1.00  0.00    -0.203 F 
ATOM     72  F   UNL A   1      45.020  36.878  27.463  1.00  0.00    -0.200 F 
ATOM     73  C   UNL A   1      46.036  36.148  29.465  1.00  0.00     0.200 A 
ATOM     74  F   UNL A   1      47.047  35.369  31.452  1.00  0.00    -0.200 F 
ATOM     75  F   UNL A   1      46.486  37.387  29.706  1.00  0.00    -0.200 F 
ENDBRANCH  51  65
BRANCH  52  76
ATOM     76  C   UNL A   1      41.346  24.428  27.552  1.00  0.00     0.064 A 
ATOM     77  C   UNL A   1      41.918  23.303  28.161  1.00  0.00     0.173 A 
ATOM     78  C   UNL A   1      40.250  24.221  26.700  1.00  0.00     0.173 A 
ATOM     79  F   UNL A   1      42.991  23.444  28.953  1.00  0.00    -0.203 F 
ATOM     80  C   UNL A   1      41.427  22.022  27.914  1.00  0.00     0.198 A 
ATOM     81  C   UNL A   1      39.741  22.945  26.476  1.00  0.00     0.198 A 
ATOM     82  F   UNL A   1      39.675  25.263  26.081  1.00  0.00    -0.203 F 
ATOM     83  F   UNL A   1      42.028  20.958  28.463  1.00  0.00    -0.200 F 
ATOM     84  C   UNL A   1      40.335  21.845  27.077  1.00  0.00     0.200 A 
ATOM     85  F   UNL A   1      38.686  22.777  25.668  1.00  0.00    -0.200 F 
ATOM     86  F   UNL A   1      39.867  20.613  26.835  1.00  0.00    -0.200 F 
ENDBRANCH  52  76
BRANCH  64  87
ATOM     87  C   UNL A   1      47.242  27.550  25.551  1.00  0.00     0.064 A 
ATOM     88  C   UNL A   1      48.317  26.887  26.162  1.00  0.00     0.173 A 
ATOM     89  C   UNL A   1      47.295  27.738  24.161  1.00  0.00     0.173 A 
ATOM     90  F   UNL A   1      48.322  26.692  27.490  1.00  0.00    -0.203 F 
ATOM     91  C   UNL A   1      49.413  26.462  25.418  1.00  0.00     0.198 A 
ATOM     92  C   UNL A   1      48.378  27.284  23.415  1.00  0.00     0.198 A 
ATOM     93  F   UNL A   1      46.290  28.358  23.523  1.00  0.00    -0.203 F 
ATOM     94  F   UNL A   1      50.453  25.880  26.032  1.00  0.00    -0.200 F 
ATOM     95  C   UNL A   1      49.442  26.656  24.044  1.00  0.00     0.200 A 
ATOM     96  F   UNL A   1      48.397  27.460  22.086  1.00  0.00    -0.200 F 
ATOM     97  F   UNL A   1      50.499  26.245  23.330  1.00  0.00    -0.200 F 
ENDBRANCH  64  87
ENDBRANCH  38  39
ENDBRANCH  31  33
ENDBRANCH  30  31
ENDBRANCH  29  30
ENDBRANCH  28  29
ENDBRANCH  27  28
ENDBRANCH  26  27
ENDBRANCH  25  26
ENDBRANCH   1  25
TORSDOF 22
ENDMDL
MODEL 3
REMARK VINA RESULT:      -9.7     10.181     15.130
REMARK SMILES CC(C)C[C@H](C)NS(=O)(=O)c1cc(C(=O)OCCOCCOCCOC(=O)c2ccc(-c3c4nc(c(-c5c(F)c(F)c(F)c(F)c5F)c5ccc([nH]5)c(-c5c(F)c(F)c(F)c(F)c5F)c5nc(c(-c6c(F)c(F)c(F)c(F)c6F)c6ccc3[nH]6)C=C5)C=C4)cc2)ccc1Cl
REMARK SMILES IDX 19 1 18 2 17 3 16 4 14 5 15 6 13 7 11 8 12 9 93 10 92 11
REMARK SMILES IDX 94 12 91 13 8 14 9 15 10 16 7 17 5 19 6 20 4 21 2 22 1 23
REMARK SMILES IDX 3 24 20 25 21 26 22 27 23 28 24 29 25 30 26 31 27 32 28 33
REMARK SMILES IDX 29 34 90 35 30 36 89 37 31 38 32 39 33 40 83 41 34 42 88 43
REMARK SMILES IDX 82 44 84 45 35 46 87 47 81 48 80 49 36 51 68 52 48 53 67 54
REMARK SMILES IDX 49 55 52 56 66 57 85 58 50 59 51 60 65 62 86 63 53 64 37 65
REMARK SMILES IDX 38 66 46 67 39 68 40 69 44 70 47 71 41 72 42 73 45 74 43 75
REMARK SMILES IDX 69 76 70 77 78 78 71 79 72 80 76 81 79 82 73 83 74 84 77 85
REMARK SMILES IDX 75 86 54 87 55 88 63 89 56 90 57 91 61 92 64 93 58 94 59 95
REMARK SMILES IDX 62 96 60 97
REMARK H PARENT 7 18 84 50 52 61
REMARK Flexibility Score: inf
ROOT
ATOM      1  O   UNL A   1      47.928  21.206  37.020  1.00  0.00    -0.376 OA
ENDROOT
BRANCH   1   2
ATOM      2  C   UNL A   1      47.603  20.286  38.052  1.00  0.00     0.202 C 
BRANCH   2   3
ATOM      3  C   UNL A   1      46.548  19.210  37.773  1.00  0.00     0.261 C 
BRANCH   3   4
ATOM      4  O   UNL A   1      45.681  18.912  38.881  1.00  0.00    -0.460 OA
BRANCH   4   5
ATOM      5  C   UNL A   1      45.992  17.782  39.560  1.00  0.00     0.338 C 
ATOM      6  O   UNL A   1      47.087  17.472  40.002  1.00  0.00    -0.246 OA
BRANCH   5   7
ATOM      7  C   UNL A   1      44.786  16.963  39.825  1.00  0.00     0.061 A 
ATOM      8  C   UNL A   1      43.458  15.754  41.492  1.00  0.00     0.101 A 
ATOM      9  C   UNL A   1      44.493  16.651  41.159  1.00  0.00     0.039 A 
ATOM     10  C   UNL A   1      42.756  15.127  40.468  1.00  0.00     0.061 A 
ATOM     11  C   UNL A   1      42.983  15.526  39.135  1.00  0.00     0.023 A 
ATOM     12  Cl  UNL A   1      41.724  13.763  40.665  1.00  0.00    -0.083 Cl
ATOM     13  C   UNL A   1      43.984  16.449  38.811  1.00  0.00     0.017 A 
BRANCH   8  14
ATOM     14  S   UNL A   1      43.218  15.544  43.231  1.00  0.00     0.242 S 
ATOM     15  O   UNL A   1      41.842  15.157  43.410  1.00  0.00    -0.207 OA
ATOM     16  O   UNL A   1      43.722  16.762  43.842  1.00  0.00    -0.207 OA
BRANCH  14  17
ATOM     17  N   UNL A   1      44.169  14.337  43.844  1.00  0.00    -0.208 NA
ATOM     18  H   UNL A   1      44.584  13.900  43.022  1.00  0.00     0.141 HD
BRANCH  17  19
ATOM     19  C   UNL A   1      43.794  13.210  44.704  1.00  0.00     0.067 C 
ATOM     20  C   UNL A   1      43.535  13.821  46.095  1.00  0.00     0.025 C 
BRANCH  19  21
ATOM     21  C   UNL A   1      42.531  12.458  44.264  1.00  0.00     0.022 C 
BRANCH  21  22
ATOM     22  C   UNL A   1      42.604  10.916  44.234  1.00  0.00    -0.016 C 
ATOM     23  C   UNL A   1      42.784  10.318  42.837  1.00  0.00     0.007 C 
ATOM     24  C   UNL A   1      43.759  10.458  45.134  1.00  0.00     0.007 C 
ENDBRANCH  21  22
ENDBRANCH  19  21
ENDBRANCH  17  19
ENDBRANCH  14  17
ENDBRANCH   8  14
ENDBRANCH   5   7
ENDBRANCH   4   5
ENDBRANCH   3   4
ENDBRANCH   2   3
ENDBRANCH   1   2
BRANCH   1  25
ATOM     25  C   UNL A   1      48.492  20.742  35.797  1.00  0.00     0.188 C 
BRANCH  25  26
ATOM     26  C   UNL A   1      50.020  20.587  35.649  1.00  0.00     0.188 C 
BRANCH  26  27
ATOM     27  O   UNL A   1      50.665  21.732  35.127  1.00  0.00    -0.376 OA
BRANCH  27  28
ATOM     28  C   UNL A   1      50.007  22.427  34.081  1.00  0.00     0.202 C 
BRANCH  28  29
ATOM     29  C   UNL A   1      49.511  23.857  34.352  1.00  0.00     0.261 C 
BRANCH  29  30
ATOM     30  O   UNL A   1      48.089  24.024  34.481  1.00  0.00    -0.460 OA
BRANCH  30  31
ATOM     31  C   UNL A   1      47.634  24.638  35.590  1.00  0.00     0.338 C 
ATOM     32  O   UNL A   1      48.096  24.561  36.720  1.00  0.00    -0.246 OA
BRANCH  31  33
ATOM     33  C   UNL A   1      46.561  25.571  35.194  1.00  0.00     0.060 A 
ATOM     34  C   UNL A   1      45.236  25.138  35.280  1.00  0.00     0.016 A 
ATOM     35  C   UNL A   1      46.850  26.854  34.720  1.00  0.00     0.016 A 
ATOM     36  C   UNL A   1      44.205  25.973  34.855  1.00  0.00     0.010 A 
ATOM     37  C   UNL A   1      45.809  27.678  34.264  1.00  0.00     0.010 A 
ATOM     38  C   UNL A   1      44.481  27.221  34.284  1.00  0.00    -0.014 A 
BRANCH  38  39
ATOM     39  C   UNL A   1      43.387  27.932  33.565  1.00  0.00     0.031 A 
ATOM     40  C   UNL A   1      43.123  27.600  32.119  1.00  0.00     0.074 A 
ATOM     41  C   UNL A   1      42.560  28.776  34.210  1.00  0.00     0.049 A 
ATOM     42  N   UNL A   1      42.206  28.066  31.307  1.00  0.00    -0.248 NA
ATOM     43  C   UNL A   1      44.010  26.600  31.505  1.00  0.00     0.031 C 
ATOM     44  C   UNL A   1      42.649  29.128  35.625  1.00  0.00     0.029 A 
ATOM     45  N   UNL A   1      41.469  29.477  33.756  1.00  0.00    -0.354 N 
ATOM     46  C   UNL A   1      42.414  27.427  30.091  1.00  0.00     0.074 A 
ATOM     47  C   UNL A   1      43.560  26.561  30.260  1.00  0.00     0.031 C 
ATOM     48  C   UNL A   1      41.649  29.974  35.928  1.00  0.00     0.029 A 
ATOM     49  C   UNL A   1      40.870  30.248  34.722  1.00  0.00     0.049 A 
ATOM     50  H   UNL A   1      41.146  29.430  32.827  1.00  0.00     0.167 HD
ATOM     51  C   UNL A   1      41.709  27.542  28.939  1.00  0.00     0.037 A 
ATOM     52  C   UNL A   1      39.819  31.089  34.641  1.00  0.00     0.037 A 
ATOM     53  C   UNL A   1      40.555  28.386  28.767  1.00  0.00     0.049 A 
ATOM     54  C   UNL A   1      39.090  31.247  33.332  1.00  0.00     0.074 A 
ATOM     55  C   UNL A   1      39.775  28.564  27.637  1.00  0.00     0.029 A 
ATOM     56  N   UNL A   1      40.015  29.195  29.755  1.00  0.00    -0.354 N 
ATOM     57  N   UNL A   1      39.298  30.642  32.186  1.00  0.00    -0.248 NA
ATOM     58  C   UNL A   1      37.971  32.201  33.308  1.00  0.00     0.031 C 
ATOM     59  C   UNL A   1      38.791  29.514  27.928  1.00  0.00     0.029 A 
ATOM     60  C   UNL A   1      38.924  29.889  29.255  1.00  0.00     0.049 A 
ATOM     61  H   UNL A   1      40.356  29.267  30.676  1.00  0.00     0.167 HD
ATOM     62  C   UNL A   1      38.323  31.119  31.319  1.00  0.00     0.074 A 
ATOM     63  C   UNL A   1      37.513  32.051  32.073  1.00  0.00     0.031 C 
ATOM     64  C   UNL A   1      38.117  30.809  30.014  1.00  0.00     0.037 A 
BRANCH  51  65
ATOM     65  C   UNL A   1      42.185  26.749  27.756  1.00  0.00     0.064 A 
ATOM     66  C   UNL A   1      41.719  25.451  27.499  1.00  0.00     0.173 A 
ATOM     67  C   UNL A   1      43.097  27.312  26.849  1.00  0.00     0.173 A 
ATOM     68  F   UNL A   1      40.858  24.863  28.343  1.00  0.00    -0.203 F 
ATOM     69  C   UNL A   1      42.167  24.736  26.390  1.00  0.00     0.198 A 
ATOM     70  C   UNL A   1      43.520  26.605  25.727  1.00  0.00     0.198 A 
ATOM     71  F   UNL A   1      43.569  28.551  27.046  1.00  0.00    -0.203 F 
ATOM     72  F   UNL A   1      41.745  23.480  26.188  1.00  0.00    -0.200 F 
ATOM     73  C   UNL A   1      43.062  25.315  25.503  1.00  0.00     0.200 A 
ATOM     74  F   UNL A   1      44.375  27.171  24.864  1.00  0.00    -0.200 F 
ATOM     75  F   UNL A   1      43.487  24.629  24.433  1.00  0.00    -0.200 F 
ENDBRANCH  51  65
BRANCH  52  76
ATOM     76  C   UNL A   1      39.394  31.861  35.837  1.00  0.00     0.064 A 
ATOM     77  C   UNL A   1      38.373  31.397  36.679  1.00  0.00     0.173 A 
ATOM     78  C   UNL A   1      39.983  33.096  36.147  1.00  0.00     0.173 A 
ATOM     79  F   UNL A   1      37.752  30.241  36.404  1.00  0.00    -0.203 F 
ATOM     80  C   UNL A   1      37.945  32.148  37.773  1.00  0.00     0.198 A 
ATOM     81  C   UNL A   1      39.576  33.831  37.257  1.00  0.00     0.198 A 
ATOM     82  F   UNL A   1      40.955  33.591  35.366  1.00  0.00    -0.203 F 
ATOM     83  F   UNL A   1      36.929  31.710  38.527  1.00  0.00    -0.200 F 
ATOM     84  C   UNL A   1      38.552  33.361  38.064  1.00  0.00     0.200 A 
ATOM     85  F   UNL A   1      40.164  35.002  37.536  1.00  0.00    -0.200 F 
ATOM     86  F   UNL A   1      38.137  34.084  39.113  1.00  0.00    -0.200 F 
ENDBRANCH  52  76
BRANCH  64  87
ATOM     87  C   UNL A   1      36.945  31.452  29.329  1.00  0.00     0.064 A 
ATOM     88  C   UNL A   1      36.944  32.811  28.982  1.00  0.00     0.173 A 
ATOM     89  C   UNL A   1      35.813  30.690  28.996  1.00  0.00     0.173 A 
ATOM     90  F   UNL A   1      37.996  33.586  29.288  1.00  0.00    -0.203 F 
ATOM     91  C   UNL A   1      35.842  33.391  28.360  1.00  0.00     0.198 A 
ATOM     92  C   UNL A   1      34.726  31.266  28.346  1.00  0.00     0.198 A 
ATOM     93  F   UNL A   1      35.765  29.383  29.295  1.00  0.00    -0.203 F 
ATOM     94  F   UNL A   1      35.842  34.703  28.089  1.00  0.00    -0.200 F 
ATOM     95  C   UNL A   1      34.736  32.618  28.038  1.00  0.00     0.200 A 
ATOM     96  F   UNL A   1      33.664  30.515  28.023  1.00  0.00    -0.200 F 
ATOM     97  F   UNL A   1      33.676  33.179  27.439  1.00  0.00    -0.200 F 
ENDBRANCH  64  87
ENDBRANCH  38  39
ENDBRANCH  31  33
ENDBRANCH  30  31
ENDBRANCH  29  30
ENDBRANCH  28  29
ENDBRANCH  27  28
ENDBRANCH  26  27
ENDBRANCH  25  26
ENDBRANCH   1  25
TORSDOF 22
ENDMDL
