MODEL 1
REMARK VINA RESULT:     -10.2      0.000      0.000
REMARK SMILES CC(C)C[C@H](NC(=O)CNC(=O)[C@@H](NC(=O)OCc1ccccc1)C(C)C)C(=O)N[C@@H](C)C(=O)OCCOCCOCCOC(=O)c1ccc(-c2c3nc(c(-c4c(F)c(F)c(F)c(F)c4F)c4ccc([nH]4)c(-c4c(F)c(F)c(F)c(F)c4F)c4nc(c(-c5c(F)c(F)c(F)c(F)c5F)c5ccc2[nH]5)C=C4)C=C3)cc1
REMARK SMILES IDX 36 1 35 2 33 3 34 4 31 5 32 6 30 7 28 8 29 9 5 11 4 12 2 13
REMARK SMILES IDX 1 14 3 15 6 16 7 17 8 19 9 20 10 21 11 22 12 24 13 25 14 26
REMARK SMILES IDX 15 27 16 29 17 30 18 31 19 32 20 33 24 34 21 35 23 36 22 37
REMARK SMILES IDX 25 38 26 39 27 40 37 41 38 42 39 43 40 44 41 45 42 46 43 47
REMARK SMILES IDX 44 48 45 49 46 50 47 51 48 52 109 53 49 54 108 55 50 56
REMARK SMILES IDX 51 57 52 58 102 59 53 60 107 61 101 62 103 63 54 64 106 65
REMARK SMILES IDX 100 66 99 67 55 69 87 70 67 71 86 72 68 73 71 74 85 75
REMARK SMILES IDX 104 76 69 77 70 78 84 80 105 81 72 82 56 83 57 84 65 85
REMARK SMILES IDX 58 86 59 87 63 88 66 89 60 90 61 91 64 92 62 93 88 94 89 95
REMARK SMILES IDX 97 96 90 97 91 98 95 99 98 100 92 101 93 102 96 103 94 104
REMARK SMILES IDX 73 105 74 106 82 107 75 108 76 109 80 110 83 111 77 112
REMARK SMILES IDX 78 113 81 114 79 115
REMARK H PARENT 30 10 6 18 10 23 14 28 103 68 71 79
REMARK Flexibility Score: inf
ROOT
ATOM      1  C   UNL A   1      33.718  27.397  25.986  1.00  0.00     0.261 C 
ENDROOT
BRANCH   1   2
ATOM      2  O   UNL A   1      33.302  26.119  26.501  1.00  0.00    -0.462 OA
BRANCH   2   3
ATOM      3  C   UNL A   1      31.983  25.816  26.428  1.00  0.00     0.328 C 
ATOM      4  O   UNL A   1      31.079  26.612  26.654  1.00  0.00    -0.250 OA
BRANCH   3   5
ATOM      5  C   UNL A   1      31.738  24.318  26.133  1.00  0.00     0.189 C 
ATOM      6  C   UNL A   1      30.405  23.884  26.715  1.00  0.00     0.043 C 
BRANCH   5   7
ATOM      7  N   UNL A   1      32.742  23.346  26.602  1.00  0.00    -0.341 N 
ATOM      8  C   UNL A   1      32.938  22.051  26.194  1.00  0.00     0.243 C 
ATOM      9  O   UNL A   1      33.707  21.333  26.835  1.00  0.00    -0.273 OA
ATOM     10  H   UNL A   1      33.353  23.670  27.303  1.00  0.00     0.164 HD
BRANCH   8  11
ATOM     11  C   UNL A   1      32.365  21.589  24.845  1.00  0.00     0.171 C 
BRANCH  11  12
ATOM     12  C   UNL A   1      32.231  20.088  24.969  1.00  0.00     0.038 C 
BRANCH  12  13
ATOM     13  C   UNL A   1      33.011  19.134  24.055  1.00  0.00    -0.015 C 
ATOM     14  C   UNL A   1      33.438  17.824  24.717  1.00  0.00     0.007 C 
ATOM     15  C   UNL A   1      32.155  18.861  22.812  1.00  0.00     0.007 C 
ENDBRANCH  12  13
ENDBRANCH  11  12
BRANCH  11  16
ATOM     16  N   UNL A   1      33.184  22.093  23.708  1.00  0.00    -0.343 N 
ATOM     17  C   UNL A   1      33.446  23.238  23.026  1.00  0.00     0.240 C 
ATOM     18  H   UNL A   1      33.711  21.353  23.327  1.00  0.00     0.164 HD
ATOM     19  O   UNL A   1      34.502  23.216  22.374  1.00  0.00    -0.273 OA
BRANCH  17  20
ATOM     20  C   UNL A   1      32.640  24.536  23.006  1.00  0.00     0.216 C 
BRANCH  20  21
ATOM     21  N   UNL A   1      33.399  25.685  22.634  1.00  0.00    -0.345 N 
ATOM     22  C   UNL A   1      33.019  26.950  22.432  1.00  0.00     0.243 C 
ATOM     23  H   UNL A   1      34.361  25.518  22.505  1.00  0.00     0.164 HD
ATOM     24  O   UNL A   1      33.894  27.630  21.885  1.00  0.00    -0.273 OA
BRANCH  22  25
ATOM     25  C   UNL A   1      31.609  27.544  22.850  1.00  0.00     0.177 C 
BRANCH  25  26
ATOM     26  N   UNL A   1      30.574  26.731  23.479  1.00  0.00    -0.309 N 
ATOM     27  C   UNL A   1      29.246  26.814  23.585  1.00  0.00     0.408 C 
ATOM     28  H   UNL A   1      30.940  25.937  23.931  1.00  0.00     0.167 HD
ATOM     29  O   UNL A   1      28.677  26.154  24.461  1.00  0.00    -0.225 OA
BRANCH  27  30
ATOM     30  O   UNL A   1      28.668  27.549  22.636  1.00  0.00    -0.445 OA
BRANCH  30  31
ATOM     31  C   UNL A   1      27.824  28.580  23.146  1.00  0.00     0.270 C 
BRANCH  31  32
ATOM     32  C   UNL A   1      28.041  29.987  22.597  1.00  0.00    -0.011 A 
ATOM     33  C   UNL A   1      28.030  30.337  21.234  1.00  0.00     0.007 A 
ATOM     34  C   UNL A   1      28.139  31.027  23.532  1.00  0.00     0.007 A 
ATOM     35  C   UNL A   1      28.076  31.674  20.826  1.00  0.00     0.000 A 
ATOM     36  C   UNL A   1      28.197  32.362  23.125  1.00  0.00     0.000 A 
ATOM     37  C   UNL A   1      28.153  32.687  21.773  1.00  0.00     0.000 A 
ENDBRANCH  31  32
ENDBRANCH  30  31
ENDBRANCH  27  30
ENDBRANCH  25  26
BRANCH  25  38
ATOM     38  C   UNL A   1      31.825  29.002  23.206  1.00  0.00     0.015 C 
ATOM     39  C   UNL A   1      31.290  29.708  21.951  1.00  0.00     0.010 C 
ATOM     40  C   UNL A   1      31.247  29.474  24.541  1.00  0.00     0.010 C 
ENDBRANCH  25  38
ENDBRANCH  22  25
ENDBRANCH  20  21
ENDBRANCH  17  20
ENDBRANCH  11  16
ENDBRANCH   8  11
ENDBRANCH   5   7
ENDBRANCH   3   5
ENDBRANCH   2   3
ENDBRANCH   1   2
BRANCH   1  41
ATOM     41  C   UNL A   1      33.517  28.585  26.951  1.00  0.00     0.202 C 
BRANCH  41  42
ATOM     42  O   UNL A   1      34.631  29.092  27.689  1.00  0.00    -0.376 OA
BRANCH  42  43
ATOM     43  C   UNL A   1      34.872  30.490  27.565  1.00  0.00     0.188 C 
BRANCH  43  44
ATOM     44  C   UNL A   1      33.669  31.360  27.950  1.00  0.00     0.188 C 
BRANCH  44  45
ATOM     45  O   UNL A   1      34.026  32.520  28.681  1.00  0.00    -0.376 OA
BRANCH  45  46
ATOM     46  C   UNL A   1      33.874  33.738  27.945  1.00  0.00     0.202 C 
BRANCH  46  47
ATOM     47  C   UNL A   1      33.582  34.996  28.801  1.00  0.00     0.261 C 
BRANCH  47  48
ATOM     48  O   UNL A   1      32.530  34.892  29.815  1.00  0.00    -0.460 OA
BRANCH  48  49
ATOM     49  C   UNL A   1      32.898  35.335  31.064  1.00  0.00     0.338 C 
ATOM     50  O   UNL A   1      32.244  36.111  31.748  1.00  0.00    -0.246 OA
BRANCH  49  51
ATOM     51  C   UNL A   1      34.158  34.731  31.630  1.00  0.00     0.060 A 
ATOM     52  C   UNL A   1      34.136  33.382  31.931  1.00  0.00     0.016 A 
ATOM     53  C   UNL A   1      35.257  35.451  32.136  1.00  0.00     0.016 A 
ATOM     54  C   UNL A   1      35.226  32.775  32.612  1.00  0.00     0.010 A 
ATOM     55  C   UNL A   1      36.390  34.811  32.787  1.00  0.00     0.010 A 
ATOM     56  C   UNL A   1      36.447  33.429  33.002  1.00  0.00    -0.014 A 
BRANCH  56  57
ATOM     57  C   UNL A   1      37.674  32.621  33.695  1.00  0.00     0.031 A 
ATOM     58  C   UNL A   1      38.401  31.650  32.769  1.00  0.00     0.074 A 
ATOM     59  C   UNL A   1      38.353  32.869  34.885  1.00  0.00     0.049 A 
ATOM     60  N   UNL A   1      39.522  30.988  32.948  1.00  0.00    -0.248 NA
ATOM     61  C   UNL A   1      37.808  31.459  31.439  1.00  0.00     0.031 C 
ATOM     62  C   UNL A   1      38.037  33.906  35.888  1.00  0.00     0.029 A 
ATOM     63  N   UNL A   1      39.598  32.409  35.381  1.00  0.00    -0.354 N 
ATOM     64  C   UNL A   1      39.756  30.311  31.758  1.00  0.00     0.074 A 
ATOM     65  C   UNL A   1      38.709  30.700  30.841  1.00  0.00     0.031 C 
ATOM     66  C   UNL A   1      39.127  34.182  36.631  1.00  0.00     0.029 A 
ATOM     67  C   UNL A   1      40.123  33.138  36.456  1.00  0.00     0.049 A 
ATOM     68  H   UNL A   1      40.061  31.630  34.996  1.00  0.00     0.167 HD
ATOM     69  C   UNL A   1      40.698  29.382  31.465  1.00  0.00     0.037 A 
ATOM     70  C   UNL A   1      41.212  33.006  37.274  1.00  0.00     0.037 A 
ATOM     71  C   UNL A   1      41.680  28.883  32.389  1.00  0.00     0.049 A 
ATOM     72  C   UNL A   1      42.128  31.828  37.051  1.00  0.00     0.074 A 
ATOM     73  C   UNL A   1      42.476  27.757  32.273  1.00  0.00     0.029 A 
ATOM     74  N   UNL A   1      41.996  29.468  33.605  1.00  0.00    -0.354 N 
ATOM     75  N   UNL A   1      42.184  31.044  36.006  1.00  0.00    -0.248 NA
ATOM     76  C   UNL A   1      43.093  31.477  38.112  1.00  0.00     0.031 C 
ATOM     77  C   UNL A   1      43.219  27.616  33.450  1.00  0.00     0.029 A 
ATOM     78  C   UNL A   1      42.944  28.698  34.267  1.00  0.00     0.049 A 
ATOM     79  H   UNL A   1      41.606  30.304  33.949  1.00  0.00     0.167 HD
ATOM     80  C   UNL A   1      43.158  30.101  36.286  1.00  0.00     0.074 A 
ATOM     81  C   UNL A   1      43.735  30.452  37.567  1.00  0.00     0.031 C 
ATOM     82  C   UNL A   1      43.509  29.020  35.550  1.00  0.00     0.037 A 
BRANCH  69  83
ATOM     83  C   UNL A   1      40.548  28.697  30.137  1.00  0.00     0.064 A 
ATOM     84  C   UNL A   1      39.719  27.583  29.948  1.00  0.00     0.173 A 
ATOM     85  C   UNL A   1      41.323  29.134  29.050  1.00  0.00     0.173 A 
ATOM     86  F   UNL A   1      38.998  27.097  30.969  1.00  0.00    -0.203 F 
ATOM     87  C   UNL A   1      39.686  26.919  28.723  1.00  0.00     0.198 A 
ATOM     88  C   UNL A   1      41.269  28.485  27.822  1.00  0.00     0.198 A 
ATOM     89  F   UNL A   1      42.151  30.181  29.189  1.00  0.00    -0.203 F 
ATOM     90  F   UNL A   1      38.934  25.820  28.578  1.00  0.00    -0.200 F 
ATOM     91  C   UNL A   1      40.457  27.373  27.662  1.00  0.00     0.200 A 
ATOM     92  F   UNL A   1      42.019  28.923  26.801  1.00  0.00    -0.200 F 
ATOM     93  F   UNL A   1      40.433  26.726  26.488  1.00  0.00    -0.200 F 
ENDBRANCH  69  83
BRANCH  70  94
ATOM     94  C   UNL A   1      41.454  33.916  38.475  1.00  0.00     0.064 A 
ATOM     95  C   UNL A   1      40.843  33.725  39.733  1.00  0.00     0.173 A 
ATOM     96  C   UNL A   1      42.279  35.053  38.372  1.00  0.00     0.173 A 
ATOM     97  F   UNL A   1      39.969  32.723  39.915  1.00  0.00    -0.203 F 
ATOM     98  C   UNL A   1      41.080  34.588  40.816  1.00  0.00     0.198 A 
ATOM     99  C   UNL A   1      42.568  35.874  39.467  1.00  0.00     0.198 A 
ATOM    100  F   UNL A   1      42.830  35.380  37.195  1.00  0.00    -0.203 F 
ATOM    101  F   UNL A   1      40.439  34.401  41.979  1.00  0.00    -0.200 F 
ATOM    102  C   UNL A   1      41.967  35.643  40.690  1.00  0.00     0.200 A 
ATOM    103  F   UNL A   1      43.435  36.886  39.329  1.00  0.00    -0.200 F 
ATOM    104  F   UNL A   1      42.230  36.442  41.734  1.00  0.00    -0.200 F 
ENDBRANCH  70  94
BRANCH  82 105
ATOM    105  C   UNL A   1      44.554  28.116  36.128  1.00  0.00     0.064 A 
ATOM    106  C   UNL A   1      44.209  27.043  36.965  1.00  0.00     0.173 A 
ATOM    107  C   UNL A   1      45.911  28.327  35.850  1.00  0.00     0.173 A 
ATOM    108  F   UNL A   1      42.924  26.809  37.268  1.00  0.00    -0.203 F 
ATOM    109  C   UNL A   1      45.190  26.243  37.541  1.00  0.00     0.198 A 
ATOM    110  C   UNL A   1      46.888  27.505  36.403  1.00  0.00     0.198 A 
ATOM    111  F   UNL A   1      46.290  29.336  35.052  1.00  0.00    -0.203 F 
ATOM    112  F   UNL A   1      44.843  25.269  38.394  1.00  0.00    -0.200 F 
ATOM    113  C   UNL A   1      46.529  26.472  37.258  1.00  0.00     0.200 A 
ATOM    114  F   UNL A   1      48.181  27.720  36.122  1.00  0.00    -0.200 F 
ATOM    115  F   UNL A   1      47.474  25.708  37.822  1.00  0.00    -0.200 F 
ENDBRANCH  82 105
ENDBRANCH  56  57
ENDBRANCH  49  51
ENDBRANCH  48  49
ENDBRANCH  47  48
ENDBRANCH  46  47
ENDBRANCH  45  46
ENDBRANCH  44  45
ENDBRANCH  43  44
ENDBRANCH  42  43
ENDBRANCH  41  42
ENDBRANCH   1  41
TORSDOF 30
ENDMDL
MODEL 2
REMARK VINA RESULT:      -9.0      3.979      8.467
REMARK SMILES CC(C)C[C@H](NC(=O)CNC(=O)[C@@H](NC(=O)OCc1ccccc1)C(C)C)C(=O)N[C@@H](C)C(=O)OCCOCCOCCOC(=O)c1ccc(-c2c3nc(c(-c4c(F)c(F)c(F)c(F)c4F)c4ccc([nH]4)c(-c4c(F)c(F)c(F)c(F)c4F)c4nc(c(-c5c(F)c(F)c(F)c(F)c5F)c5ccc2[nH]5)C=C4)C=C3)cc1
REMARK SMILES IDX 36 1 35 2 33 3 34 4 31 5 32 6 30 7 28 8 29 9 5 11 4 12 2 13
REMARK SMILES IDX 1 14 3 15 6 16 7 17 8 19 9 20 10 21 11 22 12 24 13 25 14 26
REMARK SMILES IDX 15 27 16 29 17 30 18 31 19 32 20 33 24 34 21 35 23 36 22 37
REMARK SMILES IDX 25 38 26 39 27 40 37 41 38 42 39 43 40 44 41 45 42 46 43 47
REMARK SMILES IDX 44 48 45 49 46 50 47 51 48 52 109 53 49 54 108 55 50 56
REMARK SMILES IDX 51 57 52 58 102 59 53 60 107 61 101 62 103 63 54 64 106 65
REMARK SMILES IDX 100 66 99 67 55 69 87 70 67 71 86 72 68 73 71 74 85 75
REMARK SMILES IDX 104 76 69 77 70 78 84 80 105 81 72 82 56 83 57 84 65 85
REMARK SMILES IDX 58 86 59 87 63 88 66 89 60 90 61 91 64 92 62 93 88 94 89 95
REMARK SMILES IDX 97 96 90 97 91 98 95 99 98 100 92 101 93 102 96 103 94 104
REMARK SMILES IDX 73 105 74 106 82 107 75 108 76 109 80 110 83 111 77 112
REMARK SMILES IDX 78 113 81 114 79 115
REMARK H PARENT 30 10 6 18 10 23 14 28 103 68 71 79
REMARK Flexibility Score: inf
ROOT
ATOM      1  C   UNL A   1      33.921  28.902  26.129  1.00  0.00     0.261 C 
ENDROOT
BRANCH   1   2
ATOM      2  O   UNL A   1      33.829  27.516  26.504  1.00  0.00    -0.462 OA
BRANCH   2   3
ATOM      3  C   UNL A   1      32.590  26.973  26.591  1.00  0.00     0.328 C 
ATOM      4  O   UNL A   1      31.648  27.494  27.176  1.00  0.00    -0.250 OA
BRANCH   3   5
ATOM      5  C   UNL A   1      32.519  25.563  25.961  1.00  0.00     0.189 C 
ATOM      6  C   UNL A   1      31.292  24.827  26.468  1.00  0.00     0.043 C 
BRANCH   5   7
ATOM      7  N   UNL A   1      33.667  24.658  26.157  1.00  0.00    -0.341 N 
ATOM      8  C   UNL A   1      33.753  23.314  25.897  1.00  0.00     0.243 C 
ATOM      9  O   UNL A   1      34.734  22.689  26.300  1.00  0.00    -0.273 OA
ATOM     10  H   UNL A   1      34.480  25.074  26.523  1.00  0.00     0.164 HD
BRANCH   8  11
ATOM     11  C   UNL A   1      32.739  22.662  24.941  1.00  0.00     0.171 C 
BRANCH  11  12
ATOM     12  C   UNL A   1      32.511  21.275  25.498  1.00  0.00     0.038 C 
BRANCH  12  13
ATOM     13  C   UNL A   1      32.626  20.026  24.615  1.00  0.00    -0.015 C 
ATOM     14  C   UNL A   1      32.153  20.220  23.174  1.00  0.00     0.007 C 
ATOM     15  C   UNL A   1      34.083  19.550  24.651  1.00  0.00     0.007 C 
ENDBRANCH  12  13
ENDBRANCH  11  12
BRANCH  11  16
ATOM     16  N   UNL A   1      33.200  22.745  23.527  1.00  0.00    -0.343 N 
ATOM     17  C   UNL A   1      33.205  23.597  22.470  1.00  0.00     0.240 C 
ATOM     18  H   UNL A   1      33.651  21.905  23.277  1.00  0.00     0.164 HD
ATOM     19  O   UNL A   1      34.052  23.333  21.602  1.00  0.00    -0.273 OA
BRANCH  17  20
ATOM     20  C   UNL A   1      32.347  24.843  22.252  1.00  0.00     0.216 C 
BRANCH  20  21
ATOM     21  N   UNL A   1      32.973  26.058  22.659  1.00  0.00    -0.345 N 
ATOM     22  C   UNL A   1      32.460  27.276  22.856  1.00  0.00     0.243 C 
ATOM     23  H   UNL A   1      33.941  25.986  22.823  1.00  0.00     0.164 HD
ATOM     24  O   UNL A   1      33.331  28.147  22.971  1.00  0.00    -0.273 OA
BRANCH  22  25
ATOM     25  C   UNL A   1      30.910  27.597  22.949  1.00  0.00     0.177 C 
BRANCH  25  26
ATOM     26  N   UNL A   1      29.982  26.758  23.698  1.00  0.00    -0.309 N 
ATOM     27  C   UNL A   1      28.660  26.749  23.886  1.00  0.00     0.408 C 
ATOM     28  H   UNL A   1      30.437  26.028  24.178  1.00  0.00     0.167 HD
ATOM     29  O   UNL A   1      28.200  26.114  24.840  1.00  0.00    -0.225 OA
BRANCH  27  30
ATOM     30  O   UNL A   1      27.970  27.368  22.929  1.00  0.00    -0.445 OA
BRANCH  30  31
ATOM     31  C   UNL A   1      27.282  28.533  23.383  1.00  0.00     0.270 C 
BRANCH  31  32
ATOM     32  C   UNL A   1      27.689  29.864  22.758  1.00  0.00    -0.011 A 
ATOM     33  C   UNL A   1      27.846  30.099  21.380  1.00  0.00     0.007 A 
ATOM     34  C   UNL A   1      27.794  30.965  23.619  1.00  0.00     0.007 A 
ATOM     35  C   UNL A   1      28.063  31.388  20.882  1.00  0.00     0.000 A 
ATOM     36  C   UNL A   1      28.022  32.251  23.124  1.00  0.00     0.000 A 
ATOM     37  C   UNL A   1      28.143  32.465  21.755  1.00  0.00     0.000 A 
ENDBRANCH  31  32
ENDBRANCH  30  31
ENDBRANCH  27  30
ENDBRANCH  25  26
BRANCH  25  38
ATOM     38  C   UNL A   1      30.759  29.103  22.867  1.00  0.00     0.015 C 
ATOM     39  C   UNL A   1      31.084  29.525  24.308  1.00  0.00     0.010 C 
ATOM     40  C   UNL A   1      31.548  29.811  21.765  1.00  0.00     0.010 C 
ENDBRANCH  25  38
ENDBRANCH  22  25
ENDBRANCH  20  21
ENDBRANCH  17  20
ENDBRANCH  11  16
ENDBRANCH   8  11
ENDBRANCH   5   7
ENDBRANCH   3   5
ENDBRANCH   2   3
ENDBRANCH   1   2
BRANCH   1  41
ATOM     41  C   UNL A   1      33.947  29.896  27.309  1.00  0.00     0.202 C 
BRANCH  41  42
ATOM     42  O   UNL A   1      35.075  30.757  27.483  1.00  0.00    -0.376 OA
BRANCH  42  43
ATOM     43  C   UNL A   1      34.780  32.089  27.894  1.00  0.00     0.188 C 
BRANCH  43  44
ATOM     44  C   UNL A   1      34.603  32.242  29.410  1.00  0.00     0.188 C 
BRANCH  44  45
ATOM     45  O   UNL A   1      35.270  33.374  29.941  1.00  0.00    -0.376 OA
BRANCH  45  46
ATOM     46  C   UNL A   1      34.406  34.289  30.623  1.00  0.00     0.202 C 
BRANCH  46  47
ATOM     47  C   UNL A   1      34.246  34.038  32.143  1.00  0.00     0.261 C 
BRANCH  47  48
ATOM     48  O   UNL A   1      34.612  32.713  32.651  1.00  0.00    -0.460 OA
BRANCH  48  49
ATOM     49  C   UNL A   1      35.766  32.689  33.397  1.00  0.00     0.338 C 
ATOM     50  O   UNL A   1      35.875  33.145  34.527  1.00  0.00    -0.246 OA
BRANCH  49  51
ATOM     51  C   UNL A   1      36.932  31.961  32.777  1.00  0.00     0.060 A 
ATOM     52  C   UNL A   1      37.611  32.599  31.757  1.00  0.00     0.016 A 
ATOM     53  C   UNL A   1      37.229  30.594  32.946  1.00  0.00     0.016 A 
ATOM     54  C   UNL A   1      38.617  31.918  31.019  1.00  0.00     0.010 A 
ATOM     55  C   UNL A   1      38.296  29.922  32.220  1.00  0.00     0.010 A 
ATOM     56  C   UNL A   1      39.077  30.576  31.261  1.00  0.00    -0.014 A 
BRANCH  56  57
ATOM     57  C   UNL A   1      40.301  29.920  30.418  1.00  0.00     0.031 A 
ATOM     58  C   UNL A   1      41.683  30.462  30.774  1.00  0.00     0.074 A 
ATOM     59  C   UNL A   1      40.341  28.761  29.648  1.00  0.00     0.049 A 
ATOM     60  N   UNL A   1      42.875  30.037  30.425  1.00  0.00    -0.248 NA
ATOM     61  C   UNL A   1      41.710  31.600  31.705  1.00  0.00     0.031 C 
ATOM     62  C   UNL A   1      39.206  27.875  29.318  1.00  0.00     0.029 A 
ATOM     63  N   UNL A   1      41.419  27.984  29.157  1.00  0.00    -0.354 N 
ATOM     64  C   UNL A   1      43.779  30.854  31.091  1.00  0.00     0.074 A 
ATOM     65  C   UNL A   1      43.005  31.746  31.923  1.00  0.00     0.031 C 
ATOM     66  C   UNL A   1      39.654  26.646  28.992  1.00  0.00     0.029 A 
ATOM     67  C   UNL A   1      41.081  26.697  28.718  1.00  0.00     0.049 A 
ATOM     68  H   UNL A   1      42.342  28.325  29.128  1.00  0.00     0.167 HD
ATOM     69  C   UNL A   1      45.127  30.927  30.970  1.00  0.00     0.037 A 
ATOM     70  C   UNL A   1      41.756  25.673  28.112  1.00  0.00     0.037 A 
ATOM     71  C   UNL A   1      45.918  30.139  30.066  1.00  0.00     0.049 A 
ATOM     72  C   UNL A   1      43.218  25.877  27.796  1.00  0.00     0.074 A 
ATOM     73  C   UNL A   1      47.230  30.339  29.672  1.00  0.00     0.029 A 
ATOM     74  N   UNL A   1      45.474  29.006  29.403  1.00  0.00    -0.354 N 
ATOM     75  N   UNL A   1      44.015  26.803  28.260  1.00  0.00    -0.248 NA
ATOM     76  C   UNL A   1      43.870  24.946  26.853  1.00  0.00     0.031 C 
ATOM     77  C   UNL A   1      47.557  29.374  28.714  1.00  0.00     0.029 A 
ATOM     78  C   UNL A   1      46.476  28.524  28.569  1.00  0.00     0.049 A 
ATOM     79  H   UNL A   1      44.583  28.602  29.507  1.00  0.00     0.167 HD
ATOM     80  C   UNL A   1      45.243  26.589  27.656  1.00  0.00     0.074 A 
ATOM     81  C   UNL A   1      45.119  25.393  26.851  1.00  0.00     0.031 C 
ATOM     82  C   UNL A   1      46.359  27.351  27.745  1.00  0.00     0.037 A 
BRANCH  69  83
ATOM     83  C   UNL A   1      45.786  32.066  31.696  1.00  0.00     0.064 A 
ATOM     84  C   UNL A   1      46.281  31.947  33.002  1.00  0.00     0.173 A 
ATOM     85  C   UNL A   1      45.845  33.327  31.080  1.00  0.00     0.173 A 
ATOM     86  F   UNL A   1      46.201  30.777  33.651  1.00  0.00    -0.203 F 
ATOM     87  C   UNL A   1      46.795  33.056  33.672  1.00  0.00     0.198 A 
ATOM     88  C   UNL A   1      46.382  34.425  31.742  1.00  0.00     0.198 A 
ATOM     89  F   UNL A   1      45.361  33.496  29.840  1.00  0.00    -0.203 F 
ATOM     90  F   UNL A   1      47.208  32.938  34.941  1.00  0.00    -0.200 F 
ATOM     91  C   UNL A   1      46.848  34.291  33.040  1.00  0.00     0.200 A 
ATOM     92  F   UNL A   1      46.427  35.617  31.131  1.00  0.00    -0.200 F 
ATOM     93  F   UNL A   1      47.332  35.358  33.691  1.00  0.00    -0.200 F 
ENDBRANCH  69  83
BRANCH  70  94
ATOM     94  C   UNL A   1      41.063  24.404  27.625  1.00  0.00     0.064 A 
ATOM     95  C   UNL A   1      40.028  24.401  26.665  1.00  0.00     0.173 A 
ATOM     96  C   UNL A   1      41.393  23.143  28.160  1.00  0.00     0.173 A 
ATOM     97  F   UNL A   1      39.575  25.557  26.155  1.00  0.00    -0.203 F 
ATOM     98  C   UNL A   1      39.403  23.214  26.245  1.00  0.00     0.198 A 
ATOM     99  C   UNL A   1      40.819  21.955  27.695  1.00  0.00     0.198 A 
ATOM    100  F   UNL A   1      42.294  23.047  29.147  1.00  0.00    -0.203 F 
ATOM    101  F   UNL A   1      38.389  23.260  25.370  1.00  0.00    -0.200 F 
ATOM    102  C   UNL A   1      39.821  21.990  26.738  1.00  0.00     0.200 A 
ATOM    103  F   UNL A   1      41.241  20.779  28.177  1.00  0.00    -0.200 F 
ATOM    104  F   UNL A   1      39.259  20.852  26.308  1.00  0.00    -0.200 F 
ENDBRANCH  70  94
BRANCH  82 105
ATOM    105  C   UNL A   1      47.537  26.925  26.923  1.00  0.00     0.064 A 
ATOM    106  C   UNL A   1      47.703  27.367  25.600  1.00  0.00     0.173 A 
ATOM    107  C   UNL A   1      48.504  26.062  27.456  1.00  0.00     0.173 A 
ATOM    108  F   UNL A   1      46.797  28.186  25.044  1.00  0.00    -0.203 F 
ATOM    109  C   UNL A   1      48.770  26.923  24.827  1.00  0.00     0.198 A 
ATOM    110  C   UNL A   1      49.588  25.645  26.689  1.00  0.00     0.198 A 
ATOM    111  F   UNL A   1      48.392  25.616  28.715  1.00  0.00    -0.203 F 
ATOM    112  F   UNL A   1      48.870  27.301  23.546  1.00  0.00    -0.200 F 
ATOM    113  C   UNL A   1      49.713  26.064  25.372  1.00  0.00     0.200 A 
ATOM    114  F   UNL A   1      50.504  24.823  27.220  1.00  0.00    -0.200 F 
ATOM    115  F   UNL A   1      50.735  25.627  24.623  1.00  0.00    -0.200 F 
ENDBRANCH  82 105
ENDBRANCH  56  57
ENDBRANCH  49  51
ENDBRANCH  48  49
ENDBRANCH  47  48
ENDBRANCH  46  47
ENDBRANCH  45  46
ENDBRANCH  44  45
ENDBRANCH  43  44
ENDBRANCH  42  43
ENDBRANCH  41  42
ENDBRANCH   1  41
TORSDOF 30
ENDMDL
MODEL 3
REMARK VINA RESULT:      -8.6      4.654      8.808
REMARK SMILES CC(C)C[C@H](NC(=O)CNC(=O)[C@@H](NC(=O)OCc1ccccc1)C(C)C)C(=O)N[C@@H](C)C(=O)OCCOCCOCCOC(=O)c1ccc(-c2c3nc(c(-c4c(F)c(F)c(F)c(F)c4F)c4ccc([nH]4)c(-c4c(F)c(F)c(F)c(F)c4F)c4nc(c(-c5c(F)c(F)c(F)c(F)c5F)c5ccc2[nH]5)C=C4)C=C3)cc1
REMARK SMILES IDX 36 1 35 2 33 3 34 4 31 5 32 6 30 7 28 8 29 9 5 11 4 12 2 13
REMARK SMILES IDX 1 14 3 15 6 16 7 17 8 19 9 20 10 21 11 22 12 24 13 25 14 26
REMARK SMILES IDX 15 27 16 29 17 30 18 31 19 32 20 33 24 34 21 35 23 36 22 37
REMARK SMILES IDX 25 38 26 39 27 40 37 41 38 42 39 43 40 44 41 45 42 46 43 47
REMARK SMILES IDX 44 48 45 49 46 50 47 51 48 52 109 53 49 54 108 55 50 56
REMARK SMILES IDX 51 57 52 58 102 59 53 60 107 61 101 62 103 63 54 64 106 65
REMARK SMILES IDX 100 66 99 67 55 69 87 70 67 71 86 72 68 73 71 74 85 75
REMARK SMILES IDX 104 76 69 77 70 78 84 80 105 81 72 82 56 83 57 84 65 85
REMARK SMILES IDX 58 86 59 87 63 88 66 89 60 90 61 91 64 92 62 93 88 94 89 95
REMARK SMILES IDX 97 96 90 97 91 98 95 99 98 100 92 101 93 102 96 103 94 104
REMARK SMILES IDX 73 105 74 106 82 107 75 108 76 109 80 110 83 111 77 112
REMARK SMILES IDX 78 113 81 114 79 115
REMARK H PARENT 30 10 6 18 10 23 14 28 103 68 71 79
REMARK Flexibility Score: inf
ROOT
ATOM      1  C   UNL A   1      33.915  29.072  26.136  1.00  0.00     0.261 C 
ENDROOT
BRANCH   1   2
ATOM      2  O   UNL A   1      33.921  27.666  26.445  1.00  0.00    -0.462 OA
BRANCH   2   3
ATOM      3  C   UNL A   1      32.721  27.058  26.613  1.00  0.00     0.328 C 
ATOM      4  O   UNL A   1      31.807  27.511  27.293  1.00  0.00    -0.250 OA
BRANCH   3   5
ATOM      5  C   UNL A   1      32.664  25.668  25.938  1.00  0.00     0.189 C 
ATOM      6  C   UNL A   1      31.521  24.855  26.515  1.00  0.00     0.043 C 
BRANCH   5   7
ATOM      7  N   UNL A   1      33.866  24.817  26.004  1.00  0.00    -0.341 N 
ATOM      8  C   UNL A   1      33.972  23.466  25.792  1.00  0.00     0.243 C 
ATOM      9  O   UNL A   1      35.027  22.897  26.076  1.00  0.00    -0.273 OA
ATOM     10  H   UNL A   1      34.705  25.280  26.230  1.00  0.00     0.164 HD
BRANCH   8  11
ATOM     11  C   UNL A   1      32.861  22.731  25.023  1.00  0.00     0.171 C 
BRANCH  11  12
ATOM     12  C   UNL A   1      32.692  21.412  25.742  1.00  0.00     0.038 C 
BRANCH  12  13
ATOM     13  C   UNL A   1      33.099  20.084  25.091  1.00  0.00    -0.015 C 
ATOM     14  C   UNL A   1      32.472  19.828  23.721  1.00  0.00     0.007 C 
ATOM     15  C   UNL A   1      34.630  20.047  25.004  1.00  0.00     0.007 C 
ENDBRANCH  12  13
ENDBRANCH  11  12
BRANCH  11  16
ATOM     16  N   UNL A   1      33.168  22.662  23.567  1.00  0.00    -0.343 N 
ATOM     17  C   UNL A   1      33.094  23.414  22.439  1.00  0.00     0.240 C 
ATOM     18  H   UNL A   1      33.553  21.781  23.353  1.00  0.00     0.164 HD
ATOM     19  O   UNL A   1      33.829  23.029  21.516  1.00  0.00    -0.273 OA
BRANCH  17  20
ATOM     20  C   UNL A   1      32.270  24.678  22.193  1.00  0.00     0.216 C 
BRANCH  20  21
ATOM     21  N   UNL A   1      33.006  25.889  22.346  1.00  0.00    -0.345 N 
ATOM     22  C   UNL A   1      32.586  27.148  22.504  1.00  0.00     0.243 C 
ATOM     23  H   UNL A   1      33.985  25.780  22.333  1.00  0.00     0.164 HD
ATOM     24  O   UNL A   1      33.494  27.976  22.362  1.00  0.00    -0.273 OA
BRANCH  22  25
ATOM     25  C   UNL A   1      31.095  27.563  22.849  1.00  0.00     0.177 C 
BRANCH  25  26
ATOM     26  N   UNL A   1      30.239  26.756  23.711  1.00  0.00    -0.309 N 
ATOM     27  C   UNL A   1      28.932  26.729  23.980  1.00  0.00     0.408 C 
ATOM     28  H   UNL A   1      30.743  26.073  24.210  1.00  0.00     0.167 HD
ATOM     29  O   UNL A   1      28.549  26.151  25.003  1.00  0.00    -0.225 OA
BRANCH  27  30
ATOM     30  O   UNL A   1      28.167  27.262  23.029  1.00  0.00    -0.445 OA
BRANCH  30  31
ATOM     31  C   UNL A   1      27.309  28.300  23.499  1.00  0.00     0.270 C 
BRANCH  31  32
ATOM     32  C   UNL A   1      27.599  29.714  23.004  1.00  0.00    -0.011 A 
ATOM     33  C   UNL A   1      27.651  30.863  23.816  1.00  0.00     0.007 A 
ATOM     34  C   UNL A   1      27.961  29.855  21.658  1.00  0.00     0.007 A 
ATOM     35  C   UNL A   1      28.083  32.092  23.308  1.00  0.00     0.000 A 
ATOM     36  C   UNL A   1      28.381  31.086  21.147  1.00  0.00     0.000 A 
ATOM     37  C   UNL A   1      28.454  32.202  21.975  1.00  0.00     0.000 A 
ENDBRANCH  31  32
ENDBRANCH  30  31
ENDBRANCH  27  30
ENDBRANCH  25  26
BRANCH  25  38
ATOM     38  C   UNL A   1      31.038  29.078  22.835  1.00  0.00     0.015 C 
ATOM     39  C   UNL A   1      31.026  29.400  24.337  1.00  0.00     0.010 C 
ATOM     40  C   UNL A   1      32.100  29.796  22.002  1.00  0.00     0.010 C 
ENDBRANCH  25  38
ENDBRANCH  22  25
ENDBRANCH  20  21
ENDBRANCH  17  20
ENDBRANCH  11  16
ENDBRANCH   8  11
ENDBRANCH   5   7
ENDBRANCH   3   5
ENDBRANCH   2   3
ENDBRANCH   1   2
BRANCH   1  41
ATOM     41  C   UNL A   1      33.891  30.008  27.363  1.00  0.00     0.202 C 
BRANCH  41  42
ATOM     42  O   UNL A   1      34.969  30.922  27.576  1.00  0.00    -0.376 OA
BRANCH  42  43
ATOM     43  C   UNL A   1      34.601  32.217  28.039  1.00  0.00     0.188 C 
BRANCH  43  44
ATOM     44  C   UNL A   1      34.636  32.361  29.565  1.00  0.00     0.188 C 
BRANCH  44  45
ATOM     45  O   UNL A   1      35.279  33.545  30.003  1.00  0.00    -0.376 OA
BRANCH  45  46
ATOM     46  C   UNL A   1      34.426  34.432  30.732  1.00  0.00     0.202 C 
BRANCH  46  47
ATOM     47  C   UNL A   1      34.612  34.414  32.269  1.00  0.00     0.261 C 
BRANCH  47  48
ATOM     48  O   UNL A   1      35.476  33.373  32.832  1.00  0.00    -0.460 OA
BRANCH  48  49
ATOM     49  C   UNL A   1      36.753  33.789  33.123  1.00  0.00     0.338 C 
ATOM     50  O   UNL A   1      37.037  34.635  33.962  1.00  0.00    -0.246 OA
BRANCH  49  51
ATOM     51  C   UNL A   1      37.861  33.065  32.400  1.00  0.00     0.060 A 
ATOM     52  C   UNL A   1      38.151  33.473  31.112  1.00  0.00     0.016 A 
ATOM     53  C   UNL A   1      38.440  31.845  32.799  1.00  0.00     0.016 A 
ATOM     54  C   UNL A   1      39.069  32.742  30.310  1.00  0.00     0.010 A 
ATOM     55  C   UNL A   1      39.417  31.132  31.990  1.00  0.00     0.010 A 
ATOM     56  C   UNL A   1      39.817  31.585  30.727  1.00  0.00    -0.014 A 
BRANCH  56  57
ATOM     57  C   UNL A   1      40.915  30.875  29.762  1.00  0.00     0.031 A 
ATOM     58  C   UNL A   1      42.297  31.520  29.787  1.00  0.00     0.074 A 
ATOM     59  C   UNL A   1      40.895  29.624  29.149  1.00  0.00     0.049 A 
ATOM     60  N   UNL A   1      43.435  31.104  29.280  1.00  0.00    -0.248 NA
ATOM     61  C   UNL A   1      42.412  32.773  30.546  1.00  0.00     0.031 C 
ATOM     62  C   UNL A   1      39.783  28.654  29.148  1.00  0.00     0.029 A 
ATOM     63  N   UNL A   1      41.919  28.836  28.570  1.00  0.00    -0.354 N 
ATOM     64  C   UNL A   1      44.386  32.042  29.660  1.00  0.00     0.074 A 
ATOM     65  C   UNL A   1      43.712  33.004  30.501  1.00  0.00     0.031 C 
ATOM     66  C   UNL A   1      40.248  27.413  28.902  1.00  0.00     0.029 A 
ATOM     67  C   UNL A   1      41.597  27.488  28.366  1.00  0.00     0.049 A 
ATOM     68  H   UNL A   1      42.798  29.210  28.328  1.00  0.00     0.167 HD
ATOM     69  C   UNL A   1      45.683  32.157  29.284  1.00  0.00     0.037 A 
ATOM     70  C   UNL A   1      42.222  26.422  27.778  1.00  0.00     0.037 A 
ATOM     71  C   UNL A   1      46.353  31.289  28.356  1.00  0.00     0.049 A 
ATOM     72  C   UNL A   1      43.587  26.644  27.176  1.00  0.00     0.074 A 
ATOM     73  C   UNL A   1      47.557  31.491  27.704  1.00  0.00     0.029 A 
ATOM     74  N   UNL A   1      45.876  30.058  27.933  1.00  0.00    -0.354 N 
ATOM     75  N   UNL A   1      44.390  27.659  27.365  1.00  0.00    -0.248 NA
ATOM     76  C   UNL A   1      44.124  25.623  26.253  1.00  0.00     0.031 C 
ATOM     77  C   UNL A   1      47.774  30.419  26.832  1.00  0.00     0.029 A 
ATOM     78  C   UNL A   1      46.744  29.511  26.996  1.00  0.00     0.049 A 
ATOM     79  H   UNL A   1      45.046  29.633  28.250  1.00  0.00     0.167 HD
ATOM     80  C   UNL A   1      45.503  27.419  26.577  1.00  0.00     0.074 A 
ATOM     81  C   UNL A   1      45.320  26.121  25.964  1.00  0.00     0.031 C 
ATOM     82  C   UNL A   1      46.563  28.233  26.361  1.00  0.00     0.037 A 
BRANCH  69  83
ATOM     83  C   UNL A   1      46.381  33.411  29.727  1.00  0.00     0.064 A 
ATOM     84  C   UNL A   1      46.445  34.564  28.933  1.00  0.00     0.173 A 
ATOM     85  C   UNL A   1      47.067  33.416  30.952  1.00  0.00     0.173 A 
ATOM     86  F   UNL A   1      45.848  34.591  27.732  1.00  0.00    -0.203 F 
ATOM     87  C   UNL A   1      47.187  35.671  29.342  1.00  0.00     0.198 A 
ATOM     88  C   UNL A   1      47.786  34.530  31.369  1.00  0.00     0.198 A 
ATOM     89  F   UNL A   1      47.057  32.327  31.736  1.00  0.00    -0.203 F 
ATOM     90  F   UNL A   1      47.288  36.742  28.543  1.00  0.00    -0.200 F 
ATOM     91  C   UNL A   1      47.853  35.653  30.560  1.00  0.00     0.200 A 
ATOM     92  F   UNL A   1      48.431  34.508  32.544  1.00  0.00    -0.200 F 
ATOM     93  F   UNL A   1      48.577  36.714  30.946  1.00  0.00    -0.200 F 
ENDBRANCH  69  83
BRANCH  70  94
ATOM     94  C   UNL A   1      41.541  25.069  27.591  1.00  0.00     0.064 A 
ATOM     95  C   UNL A   1      41.989  23.880  28.203  1.00  0.00     0.173 A 
ATOM     96  C   UNL A   1      40.432  24.925  26.734  1.00  0.00     0.173 A 
ATOM     97  F   UNL A   1      43.091  23.887  28.970  1.00  0.00    -0.203 F 
ATOM     98  C   UNL A   1      41.344  22.648  28.002  1.00  0.00     0.198 A 
ATOM     99  C   UNL A   1      39.749  23.714  26.585  1.00  0.00     0.198 A 
ATOM    100  F   UNL A   1      39.987  25.974  26.029  1.00  0.00    -0.203 F 
ATOM    101  F   UNL A   1      41.833  21.531  28.561  1.00  0.00    -0.200 F 
ATOM    102  C   UNL A   1      40.206  22.573  27.217  1.00  0.00     0.200 A 
ATOM    103  F   UNL A   1      38.645  23.661  25.828  1.00  0.00    -0.200 F 
ATOM    104  F   UNL A   1      39.561  21.408  27.058  1.00  0.00    -0.200 F 
ENDBRANCH  70  94
BRANCH  82 105
ATOM    105  C   UNL A   1      47.602  27.752  25.397  1.00  0.00     0.064 A 
ATOM    106  C   UNL A   1      47.464  27.953  24.013  1.00  0.00     0.173 A 
ATOM    107  C   UNL A   1      48.742  27.077  25.854  1.00  0.00     0.173 A 
ATOM    108  F   UNL A   1      46.385  28.584  23.528  1.00  0.00    -0.203 F 
ATOM    109  C   UNL A   1      48.407  27.454  23.122  1.00  0.00     0.198 A 
ATOM    110  C   UNL A   1      49.700  26.607  24.961  1.00  0.00     0.198 A 
ATOM    111  F   UNL A   1      48.922  26.865  27.166  1.00  0.00    -0.203 F 
ATOM    112  F   UNL A   1      48.220  27.594  21.802  1.00  0.00    -0.200 F 
ATOM    113  C   UNL A   1      49.526  26.784  23.595  1.00  0.00     0.200 A 
ATOM    114  F   UNL A   1      50.785  25.968  25.419  1.00  0.00    -0.200 F 
ATOM    115  F   UNL A   1      50.428  26.293  22.734  1.00  0.00    -0.200 F 
ENDBRANCH  82 105
ENDBRANCH  56  57
ENDBRANCH  49  51
ENDBRANCH  48  49
ENDBRANCH  47  48
ENDBRANCH  46  47
ENDBRANCH  45  46
ENDBRANCH  44  45
ENDBRANCH  43  44
ENDBRANCH  42  43
ENDBRANCH  41  42
ENDBRANCH   1  41
TORSDOF 30
ENDMDL
