MODEL 1
REMARK VINA RESULT:     -10.9      0.000      0.000
REMARK SMILES O=C(OCCOCCOCCOC(=O)[C@H]1CC[NH2+][C@@H]1c1cccc(F)c1)c1ccc(-c2c3nc(c(-c4c(F)c(F)c(F)c(F)c4F)c4ccc([nH]4)c(-c4c(F)c(F)c(F)c(F)c4F)c4nc(c(-c5c(F)c(F)c(F)c(F)c5F)c5ccc2[nH]5)C=C4)C=C3)cc1
REMARK SMILES IDX 7 1 6 2 5 3 4 4 3 5 2 6 1 7 27 8 28 9 89 10 29 11 88 12
REMARK SMILES IDX 30 13 31 14 32 15 82 16 33 17 87 18 81 19 83 20 34 21 86 22
REMARK SMILES IDX 80 23 79 24 35 26 67 27 47 28 66 29 48 30 51 31 65 32 84 33
REMARK SMILES IDX 49 34 50 35 64 37 85 38 52 39 36 40 37 41 45 42 38 43 39 44
REMARK SMILES IDX 43 45 46 46 40 47 41 48 44 49 42 50 68 51 69 52 77 53 70 54
REMARK SMILES IDX 71 55 75 56 78 57 72 58 73 59 76 60 74 61 53 62 54 63 62 64
REMARK SMILES IDX 55 65 56 66 60 67 63 68 57 69 58 70 61 71 59 72 8 73 9 74
REMARK SMILES IDX 10 75 11 76 12 77 13 78 14 79 15 80 16 81 19 82 17 83 18 84
REMARK SMILES IDX 20 87 21 88 26 89 22 90 24 91 23 92 25 93
REMARK H PARENT 83 25 51 36 18 85 18 86
REMARK Flexibility Score: inf
ROOT
ATOM      1  C   UNL A   1      34.427  32.797  29.564  1.00  0.00     0.188 C 
ENDROOT
BRANCH   1   2
ATOM      2  O   UNL A   1      34.467  34.061  28.887  1.00  0.00    -0.376 OA
BRANCH   2   3
ATOM      3  C   UNL A   1      33.192  34.718  28.867  1.00  0.00     0.202 C 
BRANCH   3   4
ATOM      4  C   UNL A   1      33.216  36.187  29.316  1.00  0.00     0.261 C 
BRANCH   4   5
ATOM      5  O   UNL A   1      32.587  36.392  30.588  1.00  0.00    -0.460 OA
BRANCH   5   6
ATOM      6  C   UNL A   1      33.161  36.342  31.815  1.00  0.00     0.338 C 
ATOM      7  O   UNL A   1      32.930  37.260  32.602  1.00  0.00    -0.246 OA
BRANCH   6   8
ATOM      8  C   UNL A   1      34.013  35.206  32.292  1.00  0.00     0.060 A 
ATOM      9  C   UNL A   1      33.576  34.036  32.925  1.00  0.00     0.016 A 
ATOM     10  C   UNL A   1      35.380  35.328  32.031  1.00  0.00     0.016 A 
ATOM     11  C   UNL A   1      34.466  33.072  33.410  1.00  0.00     0.010 A 
ATOM     12  C   UNL A   1      36.265  34.337  32.447  1.00  0.00     0.010 A 
ATOM     13  C   UNL A   1      35.824  33.221  33.189  1.00  0.00    -0.014 A 
BRANCH  13  14
ATOM     14  C   UNL A   1      36.859  32.334  33.778  1.00  0.00     0.031 A 
ATOM     15  C   UNL A   1      37.632  32.912  34.921  1.00  0.00     0.074 A 
ATOM     16  C   UNL A   1      37.235  31.171  33.208  1.00  0.00     0.049 A 
ATOM     17  N   UNL A   1      38.842  32.659  35.328  1.00  0.00    -0.248 NA
ATOM     18  C   UNL A   1      36.937  33.968  35.687  1.00  0.00     0.031 C 
ATOM     19  C   UNL A   1      36.518  30.434  32.166  1.00  0.00     0.029 A 
ATOM     20  N   UNL A   1      38.454  30.531  33.283  1.00  0.00    -0.354 N 
ATOM     21  C   UNL A   1      39.030  33.489  36.420  1.00  0.00     0.074 A 
ATOM     22  C   UNL A   1      37.900  34.386  36.491  1.00  0.00     0.031 C 
ATOM     23  C   UNL A   1      37.384  29.625  31.531  1.00  0.00     0.029 A 
ATOM     24  C   UNL A   1      38.691  29.768  32.156  1.00  0.00     0.049 A 
ATOM     25  H   UNL A   1      39.076  30.608  34.042  1.00  0.00     0.167 HD
ATOM     26  C   UNL A   1      40.004  33.414  37.354  1.00  0.00     0.037 A 
ATOM     27  C   UNL A   1      39.855  29.313  31.652  1.00  0.00     0.037 A 
ATOM     28  C   UNL A   1      41.085  32.478  37.260  1.00  0.00     0.049 A 
ATOM     29  C   UNL A   1      41.063  29.394  32.534  1.00  0.00     0.074 A 
ATOM     30  C   UNL A   1      42.077  32.191  38.174  1.00  0.00     0.029 A 
ATOM     31  N   UNL A   1      41.301  31.666  36.153  1.00  0.00    -0.354 N 
ATOM     32  N   UNL A   1      41.222  30.077  33.641  1.00  0.00    -0.248 NA
ATOM     33  C   UNL A   1      42.200  28.536  32.182  1.00  0.00     0.031 C 
ATOM     34  C   UNL A   1      42.913  31.222  37.604  1.00  0.00     0.029 A 
ATOM     35  C   UNL A   1      42.418  30.881  36.352  1.00  0.00     0.049 A 
ATOM     36  H   UNL A   1      40.739  31.653  35.344  1.00  0.00     0.167 HD
ATOM     37  C   UNL A   1      42.411  29.630  34.194  1.00  0.00     0.074 A 
ATOM     38  C   UNL A   1      42.977  28.685  33.249  1.00  0.00     0.031 C 
ATOM     39  C   UNL A   1      42.936  29.920  35.409  1.00  0.00     0.037 A 
BRANCH  26  40
ATOM     40  C   UNL A   1      39.848  34.292  38.559  1.00  0.00     0.064 A 
ATOM     41  C   UNL A   1      40.429  35.563  38.617  1.00  0.00     0.173 A 
ATOM     42  C   UNL A   1      39.054  33.883  39.647  1.00  0.00     0.173 A 
ATOM     43  F   UNL A   1      41.201  36.002  37.611  1.00  0.00    -0.203 F 
ATOM     44  C   UNL A   1      40.196  36.405  39.703  1.00  0.00     0.198 A 
ATOM     45  C   UNL A   1      38.792  34.740  40.711  1.00  0.00     0.198 A 
ATOM     46  F   UNL A   1      38.462  32.678  39.638  1.00  0.00    -0.203 F 
ATOM     47  F   UNL A   1      40.756  37.623  39.736  1.00  0.00    -0.200 F 
ATOM     48  C   UNL A   1      39.364  36.001  40.738  1.00  0.00     0.200 A 
ATOM     49  F   UNL A   1      37.954  34.360  41.685  1.00  0.00    -0.200 F 
ATOM     50  F   UNL A   1      39.100  36.834  41.753  1.00  0.00    -0.200 F 
ENDBRANCH  26  40
BRANCH  27  51
ATOM     51  C   UNL A   1      39.894  28.655  30.321  1.00  0.00     0.064 A 
ATOM     52  C   UNL A   1      40.385  29.316  29.185  1.00  0.00     0.173 A 
ATOM     53  C   UNL A   1      39.401  27.356  30.156  1.00  0.00     0.173 A 
ATOM     54  F   UNL A   1      40.876  30.560  29.287  1.00  0.00    -0.203 F 
ATOM     55  C   UNL A   1      40.375  28.699  27.931  1.00  0.00     0.198 A 
ATOM     56  C   UNL A   1      39.395  26.738  28.906  1.00  0.00     0.198 A 
ATOM     57  F   UNL A   1      38.935  26.681  31.216  1.00  0.00    -0.203 F 
ATOM     58  F   UNL A   1      40.845  29.348  26.857  1.00  0.00    -0.200 F 
ATOM     59  C   UNL A   1      39.879  27.411  27.793  1.00  0.00     0.200 A 
ATOM     60  F   UNL A   1      38.924  25.491  28.781  1.00  0.00    -0.200 F 
ATOM     61  F   UNL A   1      39.869  26.816  26.592  1.00  0.00    -0.200 F 
ENDBRANCH  27  51
BRANCH  39  62
ATOM     62  C   UNL A   1      44.125  29.134  35.855  1.00  0.00     0.064 A 
ATOM     63  C   UNL A   1      45.411  29.571  35.499  1.00  0.00     0.173 A 
ATOM     64  C   UNL A   1      43.992  27.897  36.494  1.00  0.00     0.173 A 
ATOM     65  F   UNL A   1      45.580  30.752  34.885  1.00  0.00    -0.203 F 
ATOM     66  C   UNL A   1      46.523  28.769  35.727  1.00  0.00     0.198 A 
ATOM     67  C   UNL A   1      45.112  27.111  36.746  1.00  0.00     0.198 A 
ATOM     68  F   UNL A   1      42.782  27.457  36.870  1.00  0.00    -0.203 F 
ATOM     69  F   UNL A   1      47.733  29.175  35.322  1.00  0.00    -0.200 F 
ATOM     70  C   UNL A   1      46.371  27.538  36.346  1.00  0.00     0.200 A 
ATOM     71  F   UNL A   1      44.970  25.930  37.364  1.00  0.00    -0.200 F 
ATOM     72  F   UNL A   1      47.439  26.756  36.549  1.00  0.00    -0.200 F 
ENDBRANCH  39  62
ENDBRANCH  13  14
ENDBRANCH   6   8
ENDBRANCH   5   6
ENDBRANCH   4   5
ENDBRANCH   3   4
ENDBRANCH   2   3
ENDBRANCH   1   2
BRANCH   1  73
ATOM     73  C   UNL A   1      35.137  31.672  28.815  1.00  0.00     0.188 C 
BRANCH  73  74
ATOM     74  O   UNL A   1      34.827  31.485  27.441  1.00  0.00    -0.376 OA
BRANCH  74  75
ATOM     75  C   UNL A   1      33.931  30.439  27.103  1.00  0.00     0.202 C 
BRANCH  75  76
ATOM     76  C   UNL A   1      32.428  30.734  26.945  1.00  0.00     0.261 C 
BRANCH  76  77
ATOM     77  O   UNL A   1      31.507  29.633  27.031  1.00  0.00    -0.463 OA
BRANCH  77  78
ATOM     78  C   UNL A   1      31.676  28.673  26.077  1.00  0.00     0.315 C 
ATOM     79  O   UNL A   1      31.948  27.496  26.326  1.00  0.00    -0.252 OA
BRANCH  78  80
ATOM     80  C   UNL A   1      31.599  29.257  24.683  1.00  0.00     0.167 C 
ATOM     81  C   UNL A   1      32.824  28.856  23.852  1.00  0.00     0.083 C 
ATOM     82  C   UNL A   1      30.378  28.790  23.845  1.00  0.00     0.228 C 
ATOM     83  C   UNL A   1      32.269  28.755  22.455  1.00  0.00     0.262 C 
ATOM     84  N   UNL A   1      30.996  28.073  22.692  1.00  0.00    -0.339 N 
ATOM     85  H   UNL A   1      31.152  27.092  22.923  1.00  0.00     0.346 HD
ATOM     86  H   UNL A   1      30.396  28.089  21.867  1.00  0.00     0.346 HD
BRANCH  82  87
ATOM     87  C   UNL A   1      29.478  29.891  23.274  1.00  0.00     0.013 A 
ATOM     88  C   UNL A   1      28.742  29.661  22.086  1.00  0.00     0.010 A 
ATOM     89  C   UNL A   1      29.418  31.168  23.825  1.00  0.00     0.049 A 
ATOM     90  C   UNL A   1      28.077  30.693  21.413  1.00  0.00     0.004 A 
ATOM     91  C   UNL A   1      28.826  32.189  23.093  1.00  0.00     0.123 A 
ATOM     92  C   UNL A   1      28.151  31.978  21.906  1.00  0.00     0.039 A 
ATOM     93  F   UNL A   1      28.955  33.440  23.510  1.00  0.00    -0.207 F 
ENDBRANCH  82  87
ENDBRANCH  78  80
ENDBRANCH  77  78
ENDBRANCH  76  77
ENDBRANCH  75  76
ENDBRANCH  74  75
ENDBRANCH  73  74
ENDBRANCH   1  73
TORSDOF 18
ENDMDL
MODEL 2
REMARK VINA RESULT:     -10.7      2.074      3.487
REMARK SMILES O=C(OCCOCCOCCOC(=O)[C@H]1CC[NH2+][C@@H]1c1cccc(F)c1)c1ccc(-c2c3nc(c(-c4c(F)c(F)c(F)c(F)c4F)c4ccc([nH]4)c(-c4c(F)c(F)c(F)c(F)c4F)c4nc(c(-c5c(F)c(F)c(F)c(F)c5F)c5ccc2[nH]5)C=C4)C=C3)cc1
REMARK SMILES IDX 7 1 6 2 5 3 4 4 3 5 2 6 1 7 27 8 28 9 89 10 29 11 88 12
REMARK SMILES IDX 30 13 31 14 32 15 82 16 33 17 87 18 81 19 83 20 34 21 86 22
REMARK SMILES IDX 80 23 79 24 35 26 67 27 47 28 66 29 48 30 51 31 65 32 84 33
REMARK SMILES IDX 49 34 50 35 64 37 85 38 52 39 36 40 37 41 45 42 38 43 39 44
REMARK SMILES IDX 43 45 46 46 40 47 41 48 44 49 42 50 68 51 69 52 77 53 70 54
REMARK SMILES IDX 71 55 75 56 78 57 72 58 73 59 76 60 74 61 53 62 54 63 62 64
REMARK SMILES IDX 55 65 56 66 60 67 63 68 57 69 58 70 61 71 59 72 8 73 9 74
REMARK SMILES IDX 10 75 11 76 12 77 13 78 14 79 15 80 16 81 19 82 17 83 18 84
REMARK SMILES IDX 20 87 21 88 26 89 22 90 24 91 23 92 25 93
REMARK H PARENT 83 25 51 36 18 85 18 86
REMARK Flexibility Score: inf
ROOT
ATOM      1  C   UNL A   1      34.224  32.936  28.910  1.00  0.00     0.188 C 
ENDROOT
BRANCH   1   2
ATOM      2  O   UNL A   1      33.657  33.868  27.979  1.00  0.00    -0.376 OA
BRANCH   2   3
ATOM      3  C   UNL A   1      34.022  35.225  28.264  1.00  0.00     0.202 C 
BRANCH   3   4
ATOM      4  C   UNL A   1      32.901  36.080  28.877  1.00  0.00     0.261 C 
BRANCH   4   5
ATOM      5  O   UNL A   1      33.286  36.708  30.107  1.00  0.00    -0.460 OA
BRANCH   5   6
ATOM      6  C   UNL A   1      33.152  36.221  31.364  1.00  0.00     0.338 C 
ATOM      7  O   UNL A   1      32.281  36.708  32.085  1.00  0.00    -0.246 OA
BRANCH   6   8
ATOM      8  C   UNL A   1      33.960  35.084  31.909  1.00  0.00     0.060 A 
ATOM      9  C   UNL A   1      33.504  34.048  32.735  1.00  0.00     0.016 A 
ATOM     10  C   UNL A   1      35.298  35.049  31.508  1.00  0.00     0.016 A 
ATOM     11  C   UNL A   1      34.364  33.079  33.262  1.00  0.00     0.010 A 
ATOM     12  C   UNL A   1      36.143  34.044  31.970  1.00  0.00     0.010 A 
ATOM     13  C   UNL A   1      35.698  33.076  32.896  1.00  0.00    -0.014 A 
BRANCH  13  14
ATOM     14  C   UNL A   1      36.719  32.183  33.501  1.00  0.00     0.031 A 
ATOM     15  C   UNL A   1      37.484  32.760  34.650  1.00  0.00     0.074 A 
ATOM     16  C   UNL A   1      37.090  31.014  32.941  1.00  0.00     0.049 A 
ATOM     17  N   UNL A   1      38.688  32.498  35.071  1.00  0.00    -0.248 NA
ATOM     18  C   UNL A   1      36.791  33.827  35.402  1.00  0.00     0.031 C 
ATOM     19  C   UNL A   1      36.378  30.278  31.896  1.00  0.00     0.029 A 
ATOM     20  N   UNL A   1      38.303  30.363  33.033  1.00  0.00    -0.354 N 
ATOM     21  C   UNL A   1      38.872  33.333  36.161  1.00  0.00     0.074 A 
ATOM     22  C   UNL A   1      37.750  34.240  36.214  1.00  0.00     0.031 C 
ATOM     23  C   UNL A   1      37.243  29.457  31.275  1.00  0.00     0.029 A 
ATOM     24  C   UNL A   1      38.545  29.592  31.913  1.00  0.00     0.049 A 
ATOM     25  H   UNL A   1      38.917  30.439  33.799  1.00  0.00     0.167 HD
ATOM     26  C   UNL A   1      39.834  33.253  37.105  1.00  0.00     0.037 A 
ATOM     27  C   UNL A   1      39.710  29.124  31.424  1.00  0.00     0.037 A 
ATOM     28  C   UNL A   1      40.908  32.307  37.028  1.00  0.00     0.049 A 
ATOM     29  C   UNL A   1      40.909  29.198  32.319  1.00  0.00     0.074 A 
ATOM     30  C   UNL A   1      41.887  32.016  37.954  1.00  0.00     0.029 A 
ATOM     31  N   UNL A   1      41.129  31.488  35.927  1.00  0.00    -0.354 N 
ATOM     32  N   UNL A   1      41.062  29.886  33.423  1.00  0.00    -0.248 NA
ATOM     33  C   UNL A   1      42.042  28.328  31.984  1.00  0.00     0.031 C 
ATOM     34  C   UNL A   1      42.720  31.037  37.399  1.00  0.00     0.029 A 
ATOM     35  C   UNL A   1      42.236  30.694  36.143  1.00  0.00     0.049 A 
ATOM     36  H   UNL A   1      40.575  31.476  35.113  1.00  0.00     0.167 HD
ATOM     37  C   UNL A   1      42.240  29.430  33.992  1.00  0.00     0.074 A 
ATOM     38  C   UNL A   1      42.808  28.476  33.058  1.00  0.00     0.031 C 
ATOM     39  C   UNL A   1      42.756  29.723  35.210  1.00  0.00     0.037 A 
BRANCH  26  40
ATOM     40  C   UNL A   1      39.674  34.140  38.304  1.00  0.00     0.064 A 
ATOM     41  C   UNL A   1      38.931  33.735  39.418  1.00  0.00     0.173 A 
ATOM     42  C   UNL A   1      40.323  35.387  38.366  1.00  0.00     0.173 A 
ATOM     43  F   UNL A   1      38.286  32.559  39.412  1.00  0.00    -0.203 F 
ATOM     44  C   UNL A   1      38.870  34.529  40.561  1.00  0.00     0.198 A 
ATOM     45  C   UNL A   1      40.292  36.159  39.522  1.00  0.00     0.198 A 
ATOM     46  F   UNL A   1      41.060  35.819  37.330  1.00  0.00    -0.203 F 
ATOM     47  F   UNL A   1      38.159  34.120  41.622  1.00  0.00    -0.200 F 
ATOM     48  C   UNL A   1      39.565  35.730  40.619  1.00  0.00     0.200 A 
ATOM     49  F   UNL A   1      40.999  37.296  39.586  1.00  0.00    -0.200 F 
ATOM     50  F   UNL A   1      39.548  36.464  41.740  1.00  0.00    -0.200 F 
ENDBRANCH  26  40
BRANCH  27  51
ATOM     51  C   UNL A   1      39.757  28.457  30.097  1.00  0.00     0.064 A 
ATOM     52  C   UNL A   1      39.281  27.150  29.910  1.00  0.00     0.173 A 
ATOM     53  C   UNL A   1      40.321  29.108  28.995  1.00  0.00     0.173 A 
ATOM     54  F   UNL A   1      38.724  26.482  30.931  1.00  0.00    -0.203 F 
ATOM     55  C   UNL A   1      39.373  26.521  28.666  1.00  0.00     0.198 A 
ATOM     56  C   UNL A   1      40.409  28.482  27.752  1.00  0.00     0.198 A 
ATOM     57  F   UNL A   1      40.777  30.362  29.124  1.00  0.00    -0.203 F 
ATOM     58  F   UNL A   1      38.915  25.272  28.507  1.00  0.00    -0.200 F 
ATOM     59  C   UNL A   1      39.938  27.188  27.589  1.00  0.00     0.200 A 
ATOM     60  F   UNL A   1      40.947  29.135  26.713  1.00  0.00    -0.200 F 
ATOM     61  F   UNL A   1      40.027  26.587  26.394  1.00  0.00    -0.200 F 
ENDBRANCH  27  51
BRANCH  39  62
ATOM     62  C   UNL A   1      43.932  28.928  35.674  1.00  0.00     0.064 A 
ATOM     63  C   UNL A   1      45.225  29.341  35.313  1.00  0.00     0.173 A 
ATOM     64  C   UNL A   1      43.781  27.706  36.335  1.00  0.00     0.173 A 
ATOM     65  F   UNL A   1      45.412  30.507  34.678  1.00  0.00    -0.203 F 
ATOM     66  C   UNL A   1      46.325  28.527  35.558  1.00  0.00     0.198 A 
ATOM     67  C   UNL A   1      44.888  26.908  36.605  1.00  0.00     0.198 A 
ATOM     68  F   UNL A   1      42.564  27.289  36.716  1.00  0.00    -0.203 F 
ATOM     69  F   UNL A   1      47.542  28.909  35.149  1.00  0.00    -0.200 F 
ATOM     70  C   UNL A   1      46.154  27.310  36.199  1.00  0.00     0.200 A 
ATOM     71  F   UNL A   1      44.729  25.742  37.243  1.00  0.00    -0.200 F 
ATOM     72  F   UNL A   1      47.211  26.517  36.419  1.00  0.00    -0.200 F 
ENDBRANCH  39  62
ENDBRANCH  13  14
ENDBRANCH   6   8
ENDBRANCH   5   6
ENDBRANCH   4   5
ENDBRANCH   3   4
ENDBRANCH   2   3
ENDBRANCH   1   2
BRANCH   1  73
ATOM     73  C   UNL A   1      35.256  31.996  28.293  1.00  0.00     0.188 C 
BRANCH  73  74
ATOM     74  O   UNL A   1      34.987  30.601  28.317  1.00  0.00    -0.376 OA
BRANCH  74  75
ATOM     75  C   UNL A   1      34.275  30.046  27.222  1.00  0.00     0.202 C 
BRANCH  75  76
ATOM     76  C   UNL A   1      32.736  30.011  27.243  1.00  0.00     0.261 C 
BRANCH  76  77
ATOM     77  O   UNL A   1      32.063  29.145  26.315  1.00  0.00    -0.463 OA
BRANCH  77  78
ATOM     78  C   UNL A   1      31.646  27.958  26.843  1.00  0.00     0.315 C 
ATOM     79  O   UNL A   1      31.237  27.826  27.999  1.00  0.00    -0.252 OA
BRANCH  78  80
ATOM     80  C   UNL A   1      31.853  26.815  25.874  1.00  0.00     0.167 C 
ATOM     81  C   UNL A   1      31.439  27.219  24.453  1.00  0.00     0.083 C 
ATOM     82  C   UNL A   1      33.321  26.328  25.739  1.00  0.00     0.228 C 
ATOM     83  C   UNL A   1      32.391  26.436  23.587  1.00  0.00     0.262 C 
ATOM     84  N   UNL A   1      33.653  26.600  24.310  1.00  0.00    -0.339 N 
ATOM     85  H   UNL A   1      34.007  27.550  24.202  1.00  0.00     0.346 HD
ATOM     86  H   UNL A   1      34.378  25.974  23.961  1.00  0.00     0.346 HD
BRANCH  82  87
ATOM     87  C   UNL A   1      33.574  24.838  25.995  1.00  0.00     0.013 A 
ATOM     88  C   UNL A   1      32.590  24.052  26.643  1.00  0.00     0.010 A 
ATOM     89  C   UNL A   1      34.788  24.225  25.701  1.00  0.00     0.049 A 
ATOM     90  C   UNL A   1      32.852  22.751  27.087  1.00  0.00     0.004 A 
ATOM     91  C   UNL A   1      35.052  22.968  26.229  1.00  0.00     0.123 A 
ATOM     92  C   UNL A   1      34.111  22.218  26.907  1.00  0.00     0.039 A 
ATOM     93  F   UNL A   1      36.277  22.473  26.134  1.00  0.00    -0.207 F 
ENDBRANCH  82  87
ENDBRANCH  78  80
ENDBRANCH  77  78
ENDBRANCH  76  77
ENDBRANCH  75  76
ENDBRANCH  74  75
ENDBRANCH  73  74
ENDBRANCH   1  73
TORSDOF 18
ENDMDL
MODEL 3
REMARK VINA RESULT:     -10.7      1.079      2.330
REMARK SMILES O=C(OCCOCCOCCOC(=O)[C@H]1CC[NH2+][C@@H]1c1cccc(F)c1)c1ccc(-c2c3nc(c(-c4c(F)c(F)c(F)c(F)c4F)c4ccc([nH]4)c(-c4c(F)c(F)c(F)c(F)c4F)c4nc(c(-c5c(F)c(F)c(F)c(F)c5F)c5ccc2[nH]5)C=C4)C=C3)cc1
REMARK SMILES IDX 7 1 6 2 5 3 4 4 3 5 2 6 1 7 27 8 28 9 89 10 29 11 88 12
REMARK SMILES IDX 30 13 31 14 32 15 82 16 33 17 87 18 81 19 83 20 34 21 86 22
REMARK SMILES IDX 80 23 79 24 35 26 67 27 47 28 66 29 48 30 51 31 65 32 84 33
REMARK SMILES IDX 49 34 50 35 64 37 85 38 52 39 36 40 37 41 45 42 38 43 39 44
REMARK SMILES IDX 43 45 46 46 40 47 41 48 44 49 42 50 68 51 69 52 77 53 70 54
REMARK SMILES IDX 71 55 75 56 78 57 72 58 73 59 76 60 74 61 53 62 54 63 62 64
REMARK SMILES IDX 55 65 56 66 60 67 63 68 57 69 58 70 61 71 59 72 8 73 9 74
REMARK SMILES IDX 10 75 11 76 12 77 13 78 14 79 15 80 16 81 19 82 17 83 18 84
REMARK SMILES IDX 20 87 21 88 26 89 22 90 24 91 23 92 25 93
REMARK H PARENT 83 25 51 36 18 85 18 86
REMARK Flexibility Score: inf
ROOT
ATOM      1  C   UNL A   1      34.677  33.089  28.449  1.00  0.00     0.188 C 
ENDROOT
BRANCH   1   2
ATOM      2  O   UNL A   1      33.558  33.957  28.679  1.00  0.00    -0.376 OA
BRANCH   2   3
ATOM      3  C   UNL A   1      33.854  35.329  28.386  1.00  0.00     0.202 C 
BRANCH   3   4
ATOM      4  C   UNL A   1      32.855  36.343  28.966  1.00  0.00     0.261 C 
BRANCH   4   5
ATOM      5  O   UNL A   1      33.227  36.811  30.270  1.00  0.00    -0.460 OA
BRANCH   5   6
ATOM      6  C   UNL A   1      33.006  36.206  31.462  1.00  0.00     0.338 C 
ATOM      7  O   UNL A   1      32.030  36.565  32.122  1.00  0.00    -0.246 OA
BRANCH   6   8
ATOM      8  C   UNL A   1      33.843  35.086  31.998  1.00  0.00     0.060 A 
ATOM      9  C   UNL A   1      33.410  34.022  32.799  1.00  0.00     0.016 A 
ATOM     10  C   UNL A   1      35.186  35.101  31.615  1.00  0.00     0.016 A 
ATOM     11  C   UNL A   1      34.293  33.071  33.320  1.00  0.00     0.010 A 
ATOM     12  C   UNL A   1      36.058  34.116  32.071  1.00  0.00     0.010 A 
ATOM     13  C   UNL A   1      35.632  33.118  32.973  1.00  0.00    -0.014 A 
BRANCH  13  14
ATOM     14  C   UNL A   1      36.673  32.247  33.576  1.00  0.00     0.031 A 
ATOM     15  C   UNL A   1      37.429  32.842  34.722  1.00  0.00     0.074 A 
ATOM     16  C   UNL A   1      37.067  31.085  33.017  1.00  0.00     0.049 A 
ATOM     17  N   UNL A   1      38.639  32.605  35.140  1.00  0.00    -0.248 NA
ATOM     18  C   UNL A   1      36.716  33.894  35.475  1.00  0.00     0.031 C 
ATOM     19  C   UNL A   1      36.366  30.333  31.975  1.00  0.00     0.029 A 
ATOM     20  N   UNL A   1      38.293  30.460  33.106  1.00  0.00    -0.354 N 
ATOM     21  C   UNL A   1      38.809  33.445  36.228  1.00  0.00     0.074 A 
ATOM     22  C   UNL A   1      37.668  34.329  36.283  1.00  0.00     0.031 C 
ATOM     23  C   UNL A   1      37.247  29.530  31.352  1.00  0.00     0.029 A 
ATOM     24  C   UNL A   1      38.548  29.692  31.986  1.00  0.00     0.049 A 
ATOM     25  H   UNL A   1      38.907  30.549  33.869  1.00  0.00     0.167 HD
ATOM     26  C   UNL A   1      39.776  33.387  37.170  1.00  0.00     0.037 A 
ATOM     27  C   UNL A   1      39.720  29.248  31.494  1.00  0.00     0.037 A 
ATOM     28  C   UNL A   1      40.868  32.463  37.090  1.00  0.00     0.049 A 
ATOM     29  C   UNL A   1      40.920  29.348  32.385  1.00  0.00     0.074 A 
ATOM     30  C   UNL A   1      41.857  32.194  38.014  1.00  0.00     0.029 A 
ATOM     31  N   UNL A   1      41.103  31.647  35.990  1.00  0.00    -0.354 N 
ATOM     32  N   UNL A   1      41.062  30.041  33.489  1.00  0.00    -0.248 NA
ATOM     33  C   UNL A   1      42.070  28.501  32.048  1.00  0.00     0.031 C 
ATOM     34  C   UNL A   1      42.708  31.231  37.457  1.00  0.00     0.029 A 
ATOM     35  C   UNL A   1      42.227  30.876  36.204  1.00  0.00     0.049 A 
ATOM     36  H   UNL A   1      40.548  31.622  35.177  1.00  0.00     0.167 HD
ATOM     37  C   UNL A   1      42.252  29.611  34.054  1.00  0.00     0.074 A 
ATOM     38  C   UNL A   1      42.837  28.667  33.120  1.00  0.00     0.031 C 
ATOM     39  C   UNL A   1      42.764  29.915  35.271  1.00  0.00     0.037 A 
BRANCH  26  40
ATOM     40  C   UNL A   1      39.600  34.272  38.368  1.00  0.00     0.064 A 
ATOM     41  C   UNL A   1      38.872  33.851  39.486  1.00  0.00     0.173 A 
ATOM     42  C   UNL A   1      40.220  35.534  38.425  1.00  0.00     0.173 A 
ATOM     43  F   UNL A   1      38.256  32.660  39.485  1.00  0.00    -0.203 F 
ATOM     44  C   UNL A   1      38.798  34.646  40.628  1.00  0.00     0.198 A 
ATOM     45  C   UNL A   1      40.177  36.307  39.579  1.00  0.00     0.198 A 
ATOM     46  F   UNL A   1      40.941  35.981  37.384  1.00  0.00    -0.203 F 
ATOM     47  F   UNL A   1      38.103  34.222  41.693  1.00  0.00    -0.200 F 
ATOM     48  C   UNL A   1      39.465  35.862  40.681  1.00  0.00     0.200 A 
ATOM     49  F   UNL A   1      40.857  37.460  39.638  1.00  0.00    -0.200 F 
ATOM     50  F   UNL A   1      39.436  36.598  41.800  1.00  0.00    -0.200 F 
ENDBRANCH  26  40
BRANCH  27  51
ATOM     51  C   UNL A   1      39.778  28.581  30.168  1.00  0.00     0.064 A 
ATOM     52  C   UNL A   1      39.332  27.263  29.985  1.00  0.00     0.173 A 
ATOM     53  C   UNL A   1      40.322  29.243  29.062  1.00  0.00     0.173 A 
ATOM     54  F   UNL A   1      38.795  26.583  31.009  1.00  0.00    -0.203 F 
ATOM     55  C   UNL A   1      39.433  26.634  28.741  1.00  0.00     0.198 A 
ATOM     56  C   UNL A   1      40.418  28.618  27.820  1.00  0.00     0.198 A 
ATOM     57  F   UNL A   1      40.748  30.508  29.188  1.00  0.00    -0.203 F 
ATOM     58  F   UNL A   1      39.005  25.374  28.586  1.00  0.00    -0.200 F 
ATOM     59  C   UNL A   1      39.978  27.312  27.661  1.00  0.00     0.200 A 
ATOM     60  F   UNL A   1      40.937  29.281  26.778  1.00  0.00    -0.200 F 
ATOM     61  F   UNL A   1      40.076  26.712  26.466  1.00  0.00    -0.200 F 
ENDBRANCH  27  51
BRANCH  39  62
ATOM     62  C   UNL A   1      43.958  29.146  35.732  1.00  0.00     0.064 A 
ATOM     63  C   UNL A   1      43.774  27.994  36.514  1.00  0.00     0.173 A 
ATOM     64  C   UNL A   1      45.260  29.615  35.530  1.00  0.00     0.173 A 
ATOM     65  F   UNL A   1      42.540  27.512  36.730  1.00  0.00    -0.203 F 
ATOM     66  C   UNL A   1      44.855  27.366  37.120  1.00  0.00     0.198 A 
ATOM     67  C   UNL A   1      46.342  28.965  36.115  1.00  0.00     0.198 A 
ATOM     68  F   UNL A   1      45.477  30.698  34.770  1.00  0.00    -0.203 F 
ATOM     69  F   UNL A   1      44.652  26.307  37.915  1.00  0.00    -0.200 F 
ATOM     70  C   UNL A   1      46.137  27.856  36.924  1.00  0.00     0.200 A 
ATOM     71  F   UNL A   1      47.584  29.423  35.910  1.00  0.00    -0.200 F 
ATOM     72  F   UNL A   1      47.178  27.262  37.523  1.00  0.00    -0.200 F 
ENDBRANCH  39  62
ENDBRANCH  13  14
ENDBRANCH   6   8
ENDBRANCH   5   6
ENDBRANCH   4   5
ENDBRANCH   3   4
ENDBRANCH   2   3
ENDBRANCH   1   2
BRANCH   1  73
ATOM     73  C   UNL A   1      34.286  31.677  28.023  1.00  0.00     0.188 C 
BRANCH  73  74
ATOM     74  O   UNL A   1      35.298  30.838  27.483  1.00  0.00    -0.376 OA
BRANCH  74  75
ATOM     75  C   UNL A   1      35.042  29.444  27.430  1.00  0.00     0.202 C 
BRANCH  75  76
ATOM     76  C   UNL A   1      34.048  28.883  26.396  1.00  0.00     0.261 C 
BRANCH  76  77
ATOM     77  O   UNL A   1      33.745  27.478  26.438  1.00  0.00    -0.463 OA
BRANCH  77  78
ATOM     78  C   UNL A   1      32.435  27.172  26.210  1.00  0.00     0.315 C 
ATOM     79  O   UNL A   1      31.663  26.760  27.079  1.00  0.00    -0.252 OA
BRANCH  78  80
ATOM     80  C   UNL A   1      32.083  27.296  24.743  1.00  0.00     0.167 C 
ATOM     81  C   UNL A   1      33.052  26.483  23.876  1.00  0.00     0.083 C 
ATOM     82  C   UNL A   1      30.672  26.773  24.363  1.00  0.00     0.228 C 
ATOM     83  C   UNL A   1      32.185  26.033  22.729  1.00  0.00     0.262 C 
ATOM     84  N   UNL A   1      30.954  25.651  23.421  1.00  0.00    -0.339 N 
ATOM     85  H   UNL A   1      31.086  24.780  23.935  1.00  0.00     0.346 HD
ATOM     86  H   UNL A   1      30.183  25.496  22.772  1.00  0.00     0.346 HD
BRANCH  82  87
ATOM     87  C   UNL A   1      29.748  27.760  23.640  1.00  0.00     0.013 A 
ATOM     88  C   UNL A   1      30.258  28.997  23.173  1.00  0.00     0.010 A 
ATOM     89  C   UNL A   1      28.382  27.540  23.498  1.00  0.00     0.049 A 
ATOM     90  C   UNL A   1      29.421  30.015  22.700  1.00  0.00     0.004 A 
ATOM     91  C   UNL A   1      27.567  28.594  23.109  1.00  0.00     0.123 A 
ATOM     92  C   UNL A   1      28.056  29.821  22.702  1.00  0.00     0.039 A 
ATOM     93  F   UNL A   1      26.251  28.453  23.180  1.00  0.00    -0.207 F 
ENDBRANCH  82  87
ENDBRANCH  78  80
ENDBRANCH  77  78
ENDBRANCH  76  77
ENDBRANCH  75  76
ENDBRANCH  74  75
ENDBRANCH  73  74
ENDBRANCH   1  73
TORSDOF 18
ENDMDL
