MODEL 1
REMARK VINA RESULT:     -11.9      0.000      0.000
REMARK SMILES O=C(OCCOCCOCCOC(=O)C1CC[NH+]([C@@H]2CC(=O)N(c3ccc(Oc4ccccc4)cc3)C2=O)CC1)c1ccc(-c2c3nc(c(-c4c(F)c(F)c(F)c(F)c4F)c4ccc([nH]4)c(-c4c(F)c(F)c(F)c(F)c4F)c4nc(c(-c5c(F)c(F)c(F)c(F)c5F)c5ccc2[nH]5)C=C4)C=C3)cc1
REMARK SMILES IDX 8 1 7 2 6 3 5 4 4 5 3 6 2 7 1 8 41 9 42 10 103 11 43 12
REMARK SMILES IDX 102 13 44 14 45 15 46 16 96 17 47 18 101 19 95 20 97 21
REMARK SMILES IDX 48 22 100 23 94 24 93 25 49 27 81 28 61 29 80 30 62 31 65 32
REMARK SMILES IDX 79 33 98 34 63 35 64 36 78 38 99 39 66 40 50 41 51 42 59 43
REMARK SMILES IDX 52 44 53 45 57 46 60 47 54 48 55 49 58 50 56 51 82 52 83 53
REMARK SMILES IDX 91 54 84 55 85 56 89 57 92 58 86 59 87 60 90 61 88 62 67 63
REMARK SMILES IDX 68 64 76 65 69 66 70 67 74 68 77 69 71 70 72 71 75 72 73 73
REMARK SMILES IDX 9 74 10 75 11 76 12 77 13 78 14 79 15 80 16 81 40 82 17 83
REMARK SMILES IDX 39 84 18 85 19 87 20 88 37 89 21 90 23 91 38 92 22 93 24 94
REMARK SMILES IDX 25 95 36 96 26 97 35 98 27 99 28 100 29 101 30 102 34 103
REMARK SMILES IDX 31 104 33 105 32 106
REMARK H PARENT 97 26 65 37 18 86
REMARK Flexibility Score: inf
ROOT
ATOM      1  C   UNL A   1      34.444  33.762  28.883  1.00  0.00     0.188 C 
ENDROOT
BRANCH   1   2
ATOM      2  C   UNL A   1      33.017  33.997  28.393  1.00  0.00     0.188 C 
BRANCH   2   3
ATOM      3  O   UNL A   1      32.529  35.303  28.710  1.00  0.00    -0.376 OA
BRANCH   3   4
ATOM      4  C   UNL A   1      33.486  36.147  29.360  1.00  0.00     0.202 C 
BRANCH   4   5
ATOM      5  C   UNL A   1      32.907  37.195  30.327  1.00  0.00     0.261 C 
BRANCH   5   6
ATOM      6  O   UNL A   1      32.917  36.793  31.708  1.00  0.00    -0.460 OA
BRANCH   6   7
ATOM      7  C   UNL A   1      32.902  35.541  32.231  1.00  0.00     0.338 C 
ATOM      8  O   UNL A   1      31.819  35.026  32.502  1.00  0.00    -0.246 OA
BRANCH   7   9
ATOM      9  C   UNL A   1      34.133  34.748  32.519  1.00  0.00     0.060 A 
ATOM     10  C   UNL A   1      34.136  33.448  33.018  1.00  0.00     0.016 A 
ATOM     11  C   UNL A   1      35.370  35.321  32.179  1.00  0.00     0.016 A 
ATOM     12  C   UNL A   1      35.311  32.764  33.272  1.00  0.00     0.010 A 
ATOM     13  C   UNL A   1      36.566  34.625  32.387  1.00  0.00     0.010 A 
ATOM     14  C   UNL A   1      36.532  33.354  32.970  1.00  0.00    -0.014 A 
BRANCH  14  15
ATOM     15  C   UNL A   1      37.743  32.660  33.437  1.00  0.00     0.031 A 
ATOM     16  C   UNL A   1      38.379  31.670  32.513  1.00  0.00     0.074 A 
ATOM     17  C   UNL A   1      38.335  33.052  34.579  1.00  0.00     0.049 A 
ATOM     18  N   UNL A   1      39.443  30.936  32.689  1.00  0.00    -0.248 NA
ATOM     19  C   UNL A   1      37.738  31.498  31.197  1.00  0.00     0.031 C 
ATOM     20  C   UNL A   1      37.842  34.114  35.457  1.00  0.00     0.029 A 
ATOM     21  N   UNL A   1      39.492  32.635  35.177  1.00  0.00    -0.354 N 
ATOM     22  C   UNL A   1      39.577  30.191  31.526  1.00  0.00     0.074 A 
ATOM     23  C   UNL A   1      38.489  30.557  30.649  1.00  0.00     0.031 C 
ATOM     24  C   UNL A   1      38.700  34.277  36.476  1.00  0.00     0.029 A 
ATOM     25  C   UNL A   1      39.759  33.281  36.359  1.00  0.00     0.049 A 
ATOM     26  H   UNL A   1      40.076  31.938  34.799  1.00  0.00     0.167 HD
ATOM     27  C   UNL A   1      40.528  29.278  31.232  1.00  0.00     0.037 A 
ATOM     28  C   UNL A   1      40.732  33.053  37.259  1.00  0.00     0.037 A 
ATOM     29  C   UNL A   1      41.596  28.945  32.135  1.00  0.00     0.049 A 
ATOM     30  C   UNL A   1      41.719  31.957  36.954  1.00  0.00     0.074 A 
ATOM     31  C   UNL A   1      42.593  28.002  31.988  1.00  0.00     0.029 A 
ATOM     32  N   UNL A   1      41.795  29.556  33.369  1.00  0.00    -0.354 N 
ATOM     33  N   UNL A   1      41.811  31.204  35.882  1.00  0.00    -0.248 NA
ATOM     34  C   UNL A   1      42.725  31.667  37.981  1.00  0.00     0.031 C 
ATOM     35  C   UNL A   1      43.358  28.000  33.160  1.00  0.00     0.029 A 
ATOM     36  C   UNL A   1      42.883  28.991  34.007  1.00  0.00     0.049 A 
ATOM     37  H   UNL A   1      41.241  30.285  33.733  1.00  0.00     0.167 HD
ATOM     38  C   UNL A   1      42.894  30.364  36.094  1.00  0.00     0.074 A 
ATOM     39  C   UNL A   1      43.439  30.718  37.391  1.00  0.00     0.031 C 
ATOM     40  C   UNL A   1      43.394  29.385  35.298  1.00  0.00     0.037 A 
BRANCH  27  41
ATOM     41  C   UNL A   1      40.388  28.532  29.938  1.00  0.00     0.064 A 
ATOM     42  C   UNL A   1      39.663  27.335  29.835  1.00  0.00     0.173 A 
ATOM     43  C   UNL A   1      41.028  29.010  28.784  1.00  0.00     0.173 A 
ATOM     44  F   UNL A   1      39.059  26.817  30.915  1.00  0.00    -0.203 F 
ATOM     45  C   UNL A   1      39.613  26.629  28.635  1.00  0.00     0.198 A 
ATOM     46  C   UNL A   1      40.951  28.317  27.578  1.00  0.00     0.198 A 
ATOM     47  F   UNL A   1      41.746  30.142  28.829  1.00  0.00    -0.203 F 
ATOM     48  F   UNL A   1      38.971  25.453  28.578  1.00  0.00    -0.200 F 
ATOM     49  C   UNL A   1      40.251  27.123  27.507  1.00  0.00     0.200 A 
ATOM     50  F   UNL A   1      41.567  28.798  26.491  1.00  0.00    -0.200 F 
ATOM     51  F   UNL A   1      40.208  26.438  26.356  1.00  0.00    -0.200 F 
ENDBRANCH  27  41
BRANCH  28  52
ATOM     52  C   UNL A   1      40.778  33.821  38.533  1.00  0.00     0.064 A 
ATOM     53  C   UNL A   1      40.006  33.450  39.643  1.00  0.00     0.173 A 
ATOM     54  C   UNL A   1      41.595  34.956  38.666  1.00  0.00     0.173 A 
ATOM     55  F   UNL A   1      39.195  32.384  39.568  1.00  0.00    -0.203 F 
ATOM     56  C   UNL A   1      40.032  34.194  40.823  1.00  0.00     0.198 A 
ATOM     57  C   UNL A   1      41.647  35.678  39.857  1.00  0.00     0.198 A 
ATOM     58  F   UNL A   1      42.358  35.359  37.638  1.00  0.00    -0.203 F 
ATOM     59  F   UNL A   1      39.246  33.843  41.850  1.00  0.00    -0.200 F 
ATOM     60  C   UNL A   1      40.858  35.303  40.931  1.00  0.00     0.200 A 
ATOM     61  F   UNL A   1      42.461  36.737  39.959  1.00  0.00    -0.200 F 
ATOM     62  F   UNL A   1      40.886  36.014  42.067  1.00  0.00    -0.200 F 
ENDBRANCH  28  52
BRANCH  40  63
ATOM     63  C   UNL A   1      44.611  28.666  35.795  1.00  0.00     0.064 A 
ATOM     64  C   UNL A   1      44.514  27.518  36.595  1.00  0.00     0.173 A 
ATOM     65  C   UNL A   1      45.889  29.101  35.414  1.00  0.00     0.173 A 
ATOM     66  F   UNL A   1      43.313  27.073  36.996  1.00  0.00    -0.203 F 
ATOM     67  C   UNL A   1      45.657  26.849  37.020  1.00  0.00     0.198 A 
ATOM     68  C   UNL A   1      47.027  28.408  35.809  1.00  0.00     0.198 A 
ATOM     69  F   UNL A   1      46.031  30.188  34.641  1.00  0.00    -0.203 F 
ATOM     70  F   UNL A   1      45.546  25.786  37.827  1.00  0.00    -0.200 F 
ATOM     71  C   UNL A   1      46.911  27.287  36.619  1.00  0.00     0.200 A 
ATOM     72  F   UNL A   1      48.235  28.821  35.404  1.00  0.00    -0.200 F 
ATOM     73  F   UNL A   1      48.009  26.632  37.017  1.00  0.00    -0.200 F 
ENDBRANCH  40  63
ENDBRANCH  14  15
ENDBRANCH   7   9
ENDBRANCH   6   7
ENDBRANCH   5   6
ENDBRANCH   4   5
ENDBRANCH   3   4
ENDBRANCH   2   3
ENDBRANCH   1   2
BRANCH   1  74
ATOM     74  O   UNL A   1      35.446  33.559  27.897  1.00  0.00    -0.376 OA
BRANCH  74  75
ATOM     75  C   UNL A   1      36.269  32.410  28.040  1.00  0.00     0.202 C 
BRANCH  75  76
ATOM     76  C   UNL A   1      35.620  31.014  27.980  1.00  0.00     0.261 C 
BRANCH  76  77
ATOM     77  O   UNL A   1      34.458  30.863  27.139  1.00  0.00    -0.463 OA
BRANCH  77  78
ATOM     78  C   UNL A   1      33.865  29.639  27.222  1.00  0.00     0.309 C 
ATOM     79  O   UNL A   1      34.480  28.581  27.143  1.00  0.00    -0.252 OA
BRANCH  78  80
ATOM     80  C   UNL A   1      32.341  29.725  27.318  1.00  0.00     0.110 C 
ATOM     81  C   UNL A   1      31.581  28.406  27.469  1.00  0.00     0.077 C 
ATOM     82  C   UNL A   1      31.798  30.438  26.081  1.00  0.00     0.077 C 
ATOM     83  C   UNL A   1      31.532  27.550  26.199  1.00  0.00     0.263 C 
ATOM     84  C   UNL A   1      31.960  29.570  24.836  1.00  0.00     0.263 C 
ATOM     85  N   UNL A   1      31.286  28.274  24.949  1.00  0.00    -0.324 N 
ATOM     86  H   UNL A   1      30.296  28.517  24.985  1.00  0.00     0.348 HD
BRANCH  85  87
ATOM     87  C   UNL A   1      31.492  27.409  23.747  1.00  0.00     0.284 C 
ATOM     88  C   UNL A   1      30.299  26.585  23.261  1.00  0.00     0.176 C 
ATOM     89  C   UNL A   1      32.574  26.362  23.979  1.00  0.00     0.292 C 
ATOM     90  C   UNL A   1      30.733  25.156  23.364  1.00  0.00     0.240 C 
ATOM     91  N   UNL A   1      32.008  25.111  23.869  1.00  0.00    -0.245 N 
ATOM     92  O   UNL A   1      33.747  26.630  24.216  1.00  0.00    -0.267 OA
ATOM     93  O   UNL A   1      29.994  24.233  23.062  1.00  0.00    -0.274 OA
BRANCH  91  94
ATOM     94  C   UNL A   1      32.674  23.916  24.227  1.00  0.00     0.052 A 
ATOM     95  C   UNL A   1      33.593  23.330  23.344  1.00  0.00     0.031 A 
ATOM     96  C   UNL A   1      32.470  23.318  25.475  1.00  0.00     0.031 A 
ATOM     97  C   UNL A   1      34.278  22.165  23.697  1.00  0.00     0.049 A 
ATOM     98  C   UNL A   1      33.132  22.136  25.816  1.00  0.00     0.049 A 
ATOM     99  C   UNL A   1      34.026  21.545  24.921  1.00  0.00     0.127 A 
BRANCH  99 100
ATOM    100  O   UNL A   1      34.734  20.385  25.153  1.00  0.00    -0.457 OA
BRANCH 100 101
ATOM    101  C   UNL A   1      34.259  19.220  24.605  1.00  0.00     0.127 A 
ATOM    102  C   UNL A   1      35.119  18.123  24.575  1.00  0.00     0.047 A 
ATOM    103  C   UNL A   1      32.979  19.136  24.053  1.00  0.00     0.047 A 
ATOM    104  C   UNL A   1      34.676  16.915  24.040  1.00  0.00     0.004 A 
ATOM    105  C   UNL A   1      32.536  17.923  23.528  1.00  0.00     0.004 A 
ATOM    106  C   UNL A   1      33.382  16.813  23.526  1.00  0.00     0.000 A 
ENDBRANCH 100 101
ENDBRANCH  99 100
ENDBRANCH  91  94
ENDBRANCH  85  87
ENDBRANCH  78  80
ENDBRANCH  77  78
ENDBRANCH  76  77
ENDBRANCH  75  76
ENDBRANCH  74  75
ENDBRANCH   1  74
TORSDOF 21
ENDMDL
MODEL 2
REMARK VINA RESULT:     -11.8      1.415      7.217
REMARK SMILES O=C(OCCOCCOCCOC(=O)C1CC[NH+]([C@@H]2CC(=O)N(c3ccc(Oc4ccccc4)cc3)C2=O)CC1)c1ccc(-c2c3nc(c(-c4c(F)c(F)c(F)c(F)c4F)c4ccc([nH]4)c(-c4c(F)c(F)c(F)c(F)c4F)c4nc(c(-c5c(F)c(F)c(F)c(F)c5F)c5ccc2[nH]5)C=C4)C=C3)cc1
REMARK SMILES IDX 8 1 7 2 6 3 5 4 4 5 3 6 2 7 1 8 41 9 42 10 103 11 43 12
REMARK SMILES IDX 102 13 44 14 45 15 46 16 96 17 47 18 101 19 95 20 97 21
REMARK SMILES IDX 48 22 100 23 94 24 93 25 49 27 81 28 61 29 80 30 62 31 65 32
REMARK SMILES IDX 79 33 98 34 63 35 64 36 78 38 99 39 66 40 50 41 51 42 59 43
REMARK SMILES IDX 52 44 53 45 57 46 60 47 54 48 55 49 58 50 56 51 82 52 83 53
REMARK SMILES IDX 91 54 84 55 85 56 89 57 92 58 86 59 87 60 90 61 88 62 67 63
REMARK SMILES IDX 68 64 76 65 69 66 70 67 74 68 77 69 71 70 72 71 75 72 73 73
REMARK SMILES IDX 9 74 10 75 11 76 12 77 13 78 14 79 15 80 16 81 40 82 17 83
REMARK SMILES IDX 39 84 18 85 19 87 20 88 37 89 21 90 23 91 38 92 22 93 24 94
REMARK SMILES IDX 25 95 36 96 26 97 35 98 27 99 28 100 29 101 30 102 34 103
REMARK SMILES IDX 31 104 33 105 32 106
REMARK H PARENT 97 26 65 37 18 86
REMARK Flexibility Score: inf
ROOT
ATOM      1  C   UNL A   1      34.898  33.980  28.449  1.00  0.00     0.188 C 
ENDROOT
BRANCH   1   2
ATOM      2  C   UNL A   1      33.395  33.982  28.179  1.00  0.00     0.188 C 
BRANCH   2   3
ATOM      3  O   UNL A   1      32.728  35.103  28.762  1.00  0.00    -0.376 OA
BRANCH   3   4
ATOM      4  C   UNL A   1      33.596  36.020  29.437  1.00  0.00     0.202 C 
BRANCH   4   5
ATOM      5  C   UNL A   1      32.904  37.166  30.195  1.00  0.00     0.261 C 
BRANCH   5   6
ATOM      6  O   UNL A   1      32.606  36.868  31.571  1.00  0.00    -0.460 OA
BRANCH   6   7
ATOM      7  C   UNL A   1      32.651  35.674  32.213  1.00  0.00     0.338 C 
ATOM      8  O   UNL A   1      31.596  35.081  32.435  1.00  0.00    -0.246 OA
BRANCH   7   9
ATOM      9  C   UNL A   1      33.913  35.036  32.690  1.00  0.00     0.060 A 
ATOM     10  C   UNL A   1      35.149  35.674  32.743  1.00  0.00     0.016 A 
ATOM     11  C   UNL A   1      33.828  33.730  33.201  1.00  0.00     0.016 A 
ATOM     12  C   UNL A   1      36.288  35.028  33.189  1.00  0.00     0.010 A 
ATOM     13  C   UNL A   1      34.962  33.078  33.698  1.00  0.00     0.010 A 
ATOM     14  C   UNL A   1      36.203  33.723  33.656  1.00  0.00    -0.014 A 
BRANCH  14  15
ATOM     15  C   UNL A   1      37.470  33.029  33.935  1.00  0.00     0.031 A 
ATOM     16  C   UNL A   1      38.106  33.248  35.272  1.00  0.00     0.074 A 
ATOM     17  C   UNL A   1      37.923  32.101  33.075  1.00  0.00     0.049 A 
ATOM     18  N   UNL A   1      39.212  32.755  35.755  1.00  0.00    -0.248 NA
ATOM     19  C   UNL A   1      37.382  34.131  36.203  1.00  0.00     0.031 C 
ATOM     20  C   UNL A   1      37.271  31.736  31.816  1.00  0.00     0.029 A 
ATOM     21  N   UNL A   1      39.009  31.271  33.140  1.00  0.00    -0.354 N 
ATOM     22  C   UNL A   1      39.335  33.294  37.027  1.00  0.00     0.074 A 
ATOM     23  C   UNL A   1      38.195  34.153  37.247  1.00  0.00     0.031 C 
ATOM     24  C   UNL A   1      37.962  30.742  31.234  1.00  0.00     0.029 A 
ATOM     25  C   UNL A   1      39.141  30.457  32.042  1.00  0.00     0.049 A 
ATOM     26  H   UNL A   1      39.635  31.259  33.900  1.00  0.00     0.167 HD
ATOM     27  C   UNL A   1      40.325  33.087  37.923  1.00  0.00     0.037 A 
ATOM     28  C   UNL A   1      40.135  29.611  31.718  1.00  0.00     0.037 A 
ATOM     29  C   UNL A   1      41.443  32.221  37.664  1.00  0.00     0.049 A 
ATOM     30  C   UNL A   1      41.279  29.478  32.688  1.00  0.00     0.074 A 
ATOM     31  C   UNL A   1      42.542  31.963  38.459  1.00  0.00     0.029 A 
ATOM     32  N   UNL A   1      41.597  31.471  36.503  1.00  0.00    -0.354 N 
ATOM     33  N   UNL A   1      41.431  30.037  33.867  1.00  0.00    -0.248 NA
ATOM     34  C   UNL A   1      42.392  28.613  32.285  1.00  0.00     0.031 C 
ATOM     35  C   UNL A   1      43.391  31.105  37.751  1.00  0.00     0.029 A 
ATOM     36  C   UNL A   1      42.788  30.770  36.547  1.00  0.00     0.049 A 
ATOM     37  H   UNL A   1      40.953  31.443  35.759  1.00  0.00     0.167 HD
ATOM     38  C   UNL A   1      42.645  29.579  34.356  1.00  0.00     0.074 A 
ATOM     39  C   UNL A   1      43.178  28.677  33.351  1.00  0.00     0.031 C 
ATOM     40  C   UNL A   1      43.271  29.876  35.523  1.00  0.00     0.037 A 
BRANCH  27  41
ATOM     41  C   UNL A   1      40.274  33.875  39.198  1.00  0.00     0.064 A 
ATOM     42  C   UNL A   1      40.951  35.094  39.355  1.00  0.00     0.173 A 
ATOM     43  C   UNL A   1      39.562  33.377  40.299  1.00  0.00     0.173 A 
ATOM     44  F   UNL A   1      41.675  35.600  38.345  1.00  0.00    -0.203 F 
ATOM     45  C   UNL A   1      40.944  35.766  40.576  1.00  0.00     0.198 A 
ATOM     46  C   UNL A   1      39.531  34.066  41.509  1.00  0.00     0.198 A 
ATOM     47  F   UNL A   1      38.907  32.209  40.209  1.00  0.00    -0.203 F 
ATOM     48  F   UNL A   1      41.653  36.894  40.723  1.00  0.00    -0.200 F 
ATOM     49  C   UNL A   1      40.229  35.255  41.650  1.00  0.00     0.200 A 
ATOM     50  F   UNL A   1      38.839  33.570  42.543  1.00  0.00    -0.200 F 
ATOM     51  F   UNL A   1      40.229  35.898  42.825  1.00  0.00    -0.200 F 
ENDBRANCH  27  41
BRANCH  28  52
ATOM     52  C   UNL A   1      40.120  28.890  30.416  1.00  0.00     0.064 A 
ATOM     53  C   UNL A   1      40.719  29.432  29.270  1.00  0.00     0.173 A 
ATOM     54  C   UNL A   1      39.493  27.640  30.287  1.00  0.00     0.173 A 
ATOM     55  F   UNL A   1      41.317  30.630  29.329  1.00  0.00    -0.203 F 
ATOM     56  C   UNL A   1      40.672  28.763  28.046  1.00  0.00     0.198 A 
ATOM     57  C   UNL A   1      39.478  26.957  29.073  1.00  0.00     0.198 A 
ATOM     58  F   UNL A   1      38.904  27.071  31.350  1.00  0.00    -0.203 F 
ATOM     59  F   UNL A   1      41.211  29.328  26.957  1.00  0.00    -0.200 F 
ATOM     60  C   UNL A   1      40.058  27.523  27.951  1.00  0.00     0.200 A 
ATOM     61  F   UNL A   1      38.898  25.751  28.993  1.00  0.00    -0.200 F 
ATOM     62  F   UNL A   1      40.019  26.879  26.776  1.00  0.00    -0.200 F 
ENDBRANCH  28  52
BRANCH  40  63
ATOM     63  C   UNL A   1      44.576  29.185  35.785  1.00  0.00     0.064 A 
ATOM     64  C   UNL A   1      44.635  27.941  36.429  1.00  0.00     0.173 A 
ATOM     65  C   UNL A   1      45.775  29.752  35.331  1.00  0.00     0.173 A 
ATOM     66  F   UNL A   1      43.515  27.365  36.893  1.00  0.00    -0.203 F 
ATOM     67  C   UNL A   1      45.854  27.304  36.635  1.00  0.00     0.198 A 
ATOM     68  C   UNL A   1      46.987  29.095  35.505  1.00  0.00     0.198 A 
ATOM     69  F   UNL A   1      45.767  30.937  34.701  1.00  0.00    -0.203 F 
ATOM     70  F   UNL A   1      45.895  26.141  37.299  1.00  0.00    -0.200 F 
ATOM     71  C   UNL A   1      47.027  27.875  36.164  1.00  0.00     0.200 A 
ATOM     72  F   UNL A   1      48.116  29.640  35.032  1.00  0.00    -0.200 F 
ATOM     73  F   UNL A   1      48.198  27.253  36.350  1.00  0.00    -0.200 F 
ENDBRANCH  40  63
ENDBRANCH  14  15
ENDBRANCH   7   9
ENDBRANCH   6   7
ENDBRANCH   5   6
ENDBRANCH   4   5
ENDBRANCH   3   4
ENDBRANCH   2   3
ENDBRANCH   1   2
BRANCH   1  74
ATOM     74  O   UNL A   1      35.709  33.160  27.620  1.00  0.00    -0.376 OA
BRANCH  74  75
ATOM     75  C   UNL A   1      36.242  31.980  28.203  1.00  0.00     0.202 C 
BRANCH  75  76
ATOM     76  C   UNL A   1      35.425  30.676  28.131  1.00  0.00     0.261 C 
BRANCH  76  77
ATOM     77  O   UNL A   1      34.284  30.660  27.248  1.00  0.00    -0.463 OA
BRANCH  77  78
ATOM     78  C   UNL A   1      33.680  29.444  27.141  1.00  0.00     0.309 C 
ATOM     79  O   UNL A   1      34.285  28.406  26.897  1.00  0.00    -0.252 OA
BRANCH  78  80
ATOM     80  C   UNL A   1      32.157  29.528  27.251  1.00  0.00     0.110 C 
ATOM     81  C   UNL A   1      31.403  28.213  27.460  1.00  0.00     0.077 C 
ATOM     82  C   UNL A   1      31.597  30.192  25.994  1.00  0.00     0.077 C 
ATOM     83  C   UNL A   1      31.344  27.309  26.223  1.00  0.00     0.263 C 
ATOM     84  C   UNL A   1      31.748  29.279  24.780  1.00  0.00     0.263 C 
ATOM     85  N   UNL A   1      31.080  27.986  24.949  1.00  0.00    -0.324 N 
ATOM     86  H   UNL A   1      30.090  28.227  24.988  1.00  0.00     0.348 HD
BRANCH  85  87
ATOM     87  C   UNL A   1      31.276  27.077  23.778  1.00  0.00     0.284 C 
ATOM     88  C   UNL A   1      30.321  25.892  23.641  1.00  0.00     0.176 C 
ATOM     89  C   UNL A   1      32.652  26.423  23.791  1.00  0.00     0.292 C 
ATOM     90  C   UNL A   1      31.186  24.672  23.706  1.00  0.00     0.240 C 
ATOM     91  N   UNL A   1      32.490  25.058  23.885  1.00  0.00    -0.245 N 
ATOM     92  O   UNL A   1      33.708  27.044  23.720  1.00  0.00    -0.267 OA
ATOM     93  O   UNL A   1      30.721  23.545  23.641  1.00  0.00    -0.274 OA
BRANCH  91  94
ATOM     94  C   UNL A   1      33.554  24.159  24.129  1.00  0.00     0.052 A 
ATOM     95  C   UNL A   1      34.381  23.743  23.074  1.00  0.00     0.031 A 
ATOM     96  C   UNL A   1      33.835  23.700  25.420  1.00  0.00     0.031 A 
ATOM     97  C   UNL A   1      35.452  22.876  23.307  1.00  0.00     0.049 A 
ATOM     98  C   UNL A   1      34.888  22.810  25.647  1.00  0.00     0.049 A 
ATOM     99  C   UNL A   1      35.690  22.380  24.588  1.00  0.00     0.127 A 
BRANCH  99 100
ATOM    100  O   UNL A   1      36.752  21.510  24.697  1.00  0.00    -0.457 OA
BRANCH 100 101
ATOM    101  C   UNL A   1      37.848  21.917  25.415  1.00  0.00     0.127 A 
ATOM    102  C   UNL A   1      37.928  23.264  25.763  1.00  0.00     0.047 A 
ATOM    103  C   UNL A   1      38.876  21.033  25.752  1.00  0.00     0.047 A 
ATOM    104  C   UNL A   1      39.017  23.721  26.504  1.00  0.00     0.004 A 
ATOM    105  C   UNL A   1      39.959  21.491  26.500  1.00  0.00     0.004 A 
ATOM    106  C   UNL A   1      40.026  22.833  26.881  1.00  0.00     0.000 A 
ENDBRANCH 100 101
ENDBRANCH  99 100
ENDBRANCH  91  94
ENDBRANCH  85  87
ENDBRANCH  78  80
ENDBRANCH  77  78
ENDBRANCH  76  77
ENDBRANCH  75  76
ENDBRANCH  74  75
ENDBRANCH   1  74
TORSDOF 21
ENDMDL
MODEL 3
REMARK VINA RESULT:     -11.7      0.564      6.842
REMARK SMILES O=C(OCCOCCOCCOC(=O)C1CC[NH+]([C@@H]2CC(=O)N(c3ccc(Oc4ccccc4)cc3)C2=O)CC1)c1ccc(-c2c3nc(c(-c4c(F)c(F)c(F)c(F)c4F)c4ccc([nH]4)c(-c4c(F)c(F)c(F)c(F)c4F)c4nc(c(-c5c(F)c(F)c(F)c(F)c5F)c5ccc2[nH]5)C=C4)C=C3)cc1
REMARK SMILES IDX 8 1 7 2 6 3 5 4 4 5 3 6 2 7 1 8 41 9 42 10 103 11 43 12
REMARK SMILES IDX 102 13 44 14 45 15 46 16 96 17 47 18 101 19 95 20 97 21
REMARK SMILES IDX 48 22 100 23 94 24 93 25 49 27 81 28 61 29 80 30 62 31 65 32
REMARK SMILES IDX 79 33 98 34 63 35 64 36 78 38 99 39 66 40 50 41 51 42 59 43
REMARK SMILES IDX 52 44 53 45 57 46 60 47 54 48 55 49 58 50 56 51 82 52 83 53
REMARK SMILES IDX 91 54 84 55 85 56 89 57 92 58 86 59 87 60 90 61 88 62 67 63
REMARK SMILES IDX 68 64 76 65 69 66 70 67 74 68 77 69 71 70 72 71 75 72 73 73
REMARK SMILES IDX 9 74 10 75 11 76 12 77 13 78 14 79 15 80 16 81 40 82 17 83
REMARK SMILES IDX 39 84 18 85 19 87 20 88 37 89 21 90 23 91 38 92 22 93 24 94
REMARK SMILES IDX 25 95 36 96 26 97 35 98 27 99 28 100 29 101 30 102 34 103
REMARK SMILES IDX 31 104 33 105 32 106
REMARK H PARENT 97 26 65 37 18 86
REMARK Flexibility Score: inf
ROOT
ATOM      1  C   UNL A   1      34.929  34.107  28.500  1.00  0.00     0.188 C 
ENDROOT
BRANCH   1   2
ATOM      2  C   UNL A   1      33.429  33.849  28.378  1.00  0.00     0.188 C 
BRANCH   2   3
ATOM      3  O   UNL A   1      32.644  35.021  28.614  1.00  0.00    -0.376 OA
BRANCH   3   4
ATOM      4  C   UNL A   1      33.364  36.100  29.219  1.00  0.00     0.202 C 
BRANCH   4   5
ATOM      5  C   UNL A   1      32.526  37.075  30.064  1.00  0.00     0.261 C 
BRANCH   5   6
ATOM      6  O   UNL A   1      32.630  36.866  31.484  1.00  0.00    -0.460 OA
BRANCH   6   7
ATOM      7  C   UNL A   1      32.660  35.697  32.172  1.00  0.00     0.338 C 
ATOM      8  O   UNL A   1      31.596  35.145  32.448  1.00  0.00    -0.246 OA
BRANCH   7   9
ATOM      9  C   UNL A   1      33.917  35.041  32.638  1.00  0.00     0.060 A 
ATOM     10  C   UNL A   1      35.165  35.656  32.665  1.00  0.00     0.016 A 
ATOM     11  C   UNL A   1      33.815  33.743  33.167  1.00  0.00     0.016 A 
ATOM     12  C   UNL A   1      36.299  34.994  33.102  1.00  0.00     0.010 A 
ATOM     13  C   UNL A   1      34.944  33.077  33.656  1.00  0.00     0.010 A 
ATOM     14  C   UNL A   1      36.196  33.697  33.587  1.00  0.00    -0.014 A 
BRANCH  14  15
ATOM     15  C   UNL A   1      37.454  32.983  33.857  1.00  0.00     0.031 A 
ATOM     16  C   UNL A   1      38.126  33.225  35.172  1.00  0.00     0.074 A 
ATOM     17  C   UNL A   1      37.865  32.020  33.013  1.00  0.00     0.049 A 
ATOM     18  N   UNL A   1      39.233  32.721  35.642  1.00  0.00    -0.248 NA
ATOM     19  C   UNL A   1      37.444  34.151  36.094  1.00  0.00     0.031 C 
ATOM     20  C   UNL A   1      37.176  31.634  31.781  1.00  0.00     0.029 A 
ATOM     21  N   UNL A   1      38.934  31.168  33.077  1.00  0.00    -0.354 N 
ATOM     22  C   UNL A   1      39.398  33.293  36.895  1.00  0.00     0.074 A 
ATOM     23  C   UNL A   1      38.282  34.183  37.117  1.00  0.00     0.031 C 
ATOM     24  C   UNL A   1      37.830  30.610  31.212  1.00  0.00     0.029 A 
ATOM     25  C   UNL A   1      39.021  30.320  32.000  1.00  0.00     0.049 A 
ATOM     26  H   UNL A   1      39.578  31.163  33.822  1.00  0.00     0.167 HD
ATOM     27  C   UNL A   1      40.405  33.089  37.773  1.00  0.00     0.037 A 
ATOM     28  C   UNL A   1      39.989  29.443  31.678  1.00  0.00     0.037 A 
ATOM     29  C   UNL A   1      41.497  32.191  37.514  1.00  0.00     0.049 A 
ATOM     30  C   UNL A   1      41.152  29.312  32.625  1.00  0.00     0.074 A 
ATOM     31  C   UNL A   1      42.608  31.930  38.289  1.00  0.00     0.029 A 
ATOM     32  N   UNL A   1      41.606  31.405  36.371  1.00  0.00    -0.354 N 
ATOM     33  N   UNL A   1      41.345  29.901  33.782  1.00  0.00    -0.248 NA
ATOM     34  C   UNL A   1      42.236  28.410  32.220  1.00  0.00     0.031 C 
ATOM     35  C   UNL A   1      43.421  31.033  37.587  1.00  0.00     0.029 A 
ATOM     36  C   UNL A   1      42.782  30.679  36.407  1.00  0.00     0.049 A 
ATOM     37  H   UNL A   1      40.944  31.371  35.644  1.00  0.00     0.167 HD
ATOM     38  C   UNL A   1      42.560  29.429  34.256  1.00  0.00     0.074 A 
ATOM     39  C   UNL A   1      43.048  28.487  33.266  1.00  0.00     0.031 C 
ATOM     40  C   UNL A   1      43.221  29.745  35.399  1.00  0.00     0.037 A 
BRANCH  27  41
ATOM     41  C   UNL A   1      40.402  33.914  39.026  1.00  0.00     0.064 A 
ATOM     42  C   UNL A   1      39.750  33.501  40.197  1.00  0.00     0.173 A 
ATOM     43  C   UNL A   1      41.036  35.166  39.038  1.00  0.00     0.173 A 
ATOM     44  F   UNL A   1      39.099  32.328  40.230  1.00  0.00    -0.203 F 
ATOM     45  C   UNL A   1      39.703  34.324  41.321  1.00  0.00     0.198 A 
ATOM     46  C   UNL A   1      41.015  35.973  40.173  1.00  0.00     0.198 A 
ATOM     47  F   UNL A   1      41.664  35.617  37.941  1.00  0.00    -0.203 F 
ATOM     48  F   UNL A   1      39.016  33.938  42.405  1.00  0.00    -0.200 F 
ATOM     49  C   UNL A   1      40.341  35.556  41.310  1.00  0.00     0.200 A 
ATOM     50  F   UNL A   1      41.632  37.162  40.158  1.00  0.00    -0.200 F 
ATOM     51  F   UNL A   1      40.289  36.350  42.388  1.00  0.00    -0.200 F 
ENDBRANCH  27  41
BRANCH  28  52
ATOM     52  C   UNL A   1      39.926  28.686  30.398  1.00  0.00     0.064 A 
ATOM     53  C   UNL A   1      39.312  27.429  30.318  1.00  0.00     0.173 A 
ATOM     54  C   UNL A   1      40.492  29.205  29.221  1.00  0.00     0.173 A 
ATOM     55  F   UNL A   1      38.771  26.876  31.413  1.00  0.00    -0.203 F 
ATOM     56  C   UNL A   1      39.286  26.713  29.120  1.00  0.00     0.198 A 
ATOM     57  C   UNL A   1      40.433  28.505  28.018  1.00  0.00     0.198 A 
ATOM     58  F   UNL A   1      41.092  30.405  29.236  1.00  0.00    -0.203 F 
ATOM     59  F   UNL A   1      38.735  25.492  29.085  1.00  0.00    -0.200 F 
ATOM     60  C   UNL A   1      39.840  27.255  27.970  1.00  0.00     0.200 A 
ATOM     61  F   UNL A   1      40.955  29.043  26.907  1.00  0.00    -0.200 F 
ATOM     62  F   UNL A   1      39.809  26.568  26.819  1.00  0.00    -0.200 F 
ENDBRANCH  28  52
BRANCH  40  63
ATOM     63  C   UNL A   1      44.515  29.032  35.650  1.00  0.00     0.064 A 
ATOM     64  C   UNL A   1      44.557  27.774  36.269  1.00  0.00     0.173 A 
ATOM     65  C   UNL A   1      45.723  29.594  35.212  1.00  0.00     0.173 A 
ATOM     66  F   UNL A   1      43.428  27.203  36.717  1.00  0.00    -0.203 F 
ATOM     67  C   UNL A   1      45.767  27.118  36.465  1.00  0.00     0.198 A 
ATOM     68  C   UNL A   1      46.926  28.918  35.375  1.00  0.00     0.198 A 
ATOM     69  F   UNL A   1      45.732  30.791  34.606  1.00  0.00    -0.203 F 
ATOM     70  F   UNL A   1      45.792  25.941  37.105  1.00  0.00    -0.200 F 
ATOM     71  C   UNL A   1      46.949  27.684  36.009  1.00  0.00     0.200 A 
ATOM     72  F   UNL A   1      48.063  29.457  34.916  1.00  0.00    -0.200 F 
ATOM     73  F   UNL A   1      48.112  27.043  36.186  1.00  0.00    -0.200 F 
ENDBRANCH  40  63
ENDBRANCH  14  15
ENDBRANCH   7   9
ENDBRANCH   6   7
ENDBRANCH   5   6
ENDBRANCH   4   5
ENDBRANCH   3   4
ENDBRANCH   2   3
ENDBRANCH   1   2
BRANCH   1  74
ATOM     74  O   UNL A   1      35.789  33.367  27.645  1.00  0.00    -0.376 OA
BRANCH  74  75
ATOM     75  C   UNL A   1      36.387  32.198  28.186  1.00  0.00     0.202 C 
BRANCH  75  76
ATOM     76  C   UNL A   1      35.604  30.873  28.150  1.00  0.00     0.261 C 
BRANCH  76  77
ATOM     77  O   UNL A   1      34.572  30.742  27.150  1.00  0.00    -0.463 OA
BRANCH  77  78
ATOM     78  C   UNL A   1      33.928  29.542  27.166  1.00  0.00     0.309 C 
ATOM     79  O   UNL A   1      34.494  28.468  26.996  1.00  0.00    -0.252 OA
BRANCH  78  80
ATOM     80  C   UNL A   1      32.412  29.685  27.312  1.00  0.00     0.110 C 
ATOM     81  C   UNL A   1      31.606  28.395  27.468  1.00  0.00     0.077 C 
ATOM     82  C   UNL A   1      31.859  30.438  26.104  1.00  0.00     0.077 C 
ATOM     83  C   UNL A   1      31.484  27.561  26.187  1.00  0.00     0.263 C 
ATOM     84  C   UNL A   1      31.947  29.586  24.841  1.00  0.00     0.263 C 
ATOM     85  N   UNL A   1      31.227  28.315  24.956  1.00  0.00    -0.324 N 
ATOM     86  H   UNL A   1      30.249  28.595  25.028  1.00  0.00     0.348 HD
BRANCH  85  87
ATOM     87  C   UNL A   1      31.361  27.462  23.736  1.00  0.00     0.284 C 
ATOM     88  C   UNL A   1      30.149  26.626  23.326  1.00  0.00     0.176 C 
ATOM     89  C   UNL A   1      32.470  26.427  23.885  1.00  0.00     0.292 C 
ATOM     90  C   UNL A   1      30.606  25.202  23.386  1.00  0.00     0.240 C 
ATOM     91  N   UNL A   1      31.913  25.170  23.802  1.00  0.00    -0.245 N 
ATOM     92  O   UNL A   1      33.653  26.709  24.043  1.00  0.00    -0.267 OA
ATOM     93  O   UNL A   1      29.860  24.272  23.128  1.00  0.00    -0.274 OA
BRANCH  91  94
ATOM     94  C   UNL A   1      32.617  23.981  24.104  1.00  0.00     0.052 A 
ATOM     95  C   UNL A   1      32.728  23.547  25.433  1.00  0.00     0.031 A 
ATOM     96  C   UNL A   1      33.176  23.192  23.094  1.00  0.00     0.031 A 
ATOM     97  C   UNL A   1      33.398  22.361  25.742  1.00  0.00     0.049 A 
ATOM     98  C   UNL A   1      33.871  22.021  23.405  1.00  0.00     0.049 A 
ATOM     99  C   UNL A   1      34.000  21.610  24.734  1.00  0.00     0.127 A 
BRANCH  99 100
ATOM    100  O   UNL A   1      34.659  20.475  25.154  1.00  0.00    -0.457 OA
BRANCH 100 101
ATOM    101  C   UNL A   1      34.157  19.257  24.768  1.00  0.00     0.127 A 
ATOM    102  C   UNL A   1      32.776  19.083  24.819  1.00  0.00     0.047 A 
ATOM    103  C   UNL A   1      34.994  18.208  24.379  1.00  0.00     0.047 A 
ATOM    104  C   UNL A   1      32.220  17.867  24.424  1.00  0.00     0.004 A 
ATOM    105  C   UNL A   1      34.434  16.997  23.976  1.00  0.00     0.004 A 
ATOM    106  C   UNL A   1      33.048  16.829  23.993  1.00  0.00     0.000 A 
ENDBRANCH 100 101
ENDBRANCH  99 100
ENDBRANCH  91  94
ENDBRANCH  85  87
ENDBRANCH  78  80
ENDBRANCH  77  78
ENDBRANCH  76  77
ENDBRANCH  75  76
ENDBRANCH  74  75
ENDBRANCH   1  74
TORSDOF 21
ENDMDL
