MODEL 1
REMARK VINA RESULT:     -10.3      0.000      0.000
REMARK SMILES CCOc1ccccc1[C@@H](C(=O)OCCOCCOCCOC(=O)c1ccc(-c2c3nc(c(-c4c(F)c(F)c(F)c(F)c4F)c4ccc([nH]4)c(-c4c(F)c(F)c(F)c(F)c4F)c4nc(c(-c5c(F)c(F)c(F)c(F)c5F)c5ccc2[nH]5)C=C4)C=C3)cc1)[NH+]1CCC(C(=O)N2CCCC2)CC1
REMARK SMILES IDX 17 1 16 2 15 3 14 4 13 5 11 6 12 7 10 8 9 9 4 10 5 11 6 12
REMARK SMILES IDX 8 13 7 14 3 15 2 16 1 17 88 18 89 19 100 20 90 22 99 23
REMARK SMILES IDX 91 24 92 25 93 26 94 27 95 28 98 29 96 30 97 31 18 32 19 33
REMARK SMILES IDX 20 34 21 35 22 36 23 37 24 38 25 39 26 40 87 41 27 42 86 43
REMARK SMILES IDX 28 44 29 45 30 46 80 47 31 48 85 49 79 50 81 51 32 52 84 53
REMARK SMILES IDX 78 54 77 55 33 57 65 58 45 59 64 60 46 61 49 62 63 63 82 64
REMARK SMILES IDX 47 65 48 66 62 68 83 69 50 70 34 71 35 72 43 73 36 74 37 75
REMARK SMILES IDX 41 76 44 77 38 78 39 79 42 80 40 81 66 82 67 83 75 84 68 85
REMARK SMILES IDX 69 86 73 87 76 88 70 89 71 90 74 91 72 92 51 93 52 94 60 95
REMARK SMILES IDX 53 96 54 97 58 98 61 99 55 100 56 101 59 102 57 103
REMARK H PARENT 88 21 81 56 49 67
REMARK Flexibility Score: inf
ROOT
ATOM      1  C   UNL A   1      31.038  27.261  26.589  1.00  0.00     0.188 C 
ENDROOT
BRANCH   1   2
ATOM      2  O   UNL A   1      31.596  26.057  26.083  1.00  0.00    -0.376 OA
BRANCH   2   3
ATOM      3  C   UNL A   1      30.813  24.868  26.079  1.00  0.00     0.202 C 
BRANCH   3   4
ATOM      4  C   UNL A   1      31.404  23.574  26.663  1.00  0.00     0.261 C 
BRANCH   4   5
ATOM      5  O   UNL A   1      32.785  23.634  27.096  1.00  0.00    -0.459 OA
BRANCH   5   6
ATOM      6  C   UNL A   1      33.478  22.461  27.049  1.00  0.00     0.370 C 
ATOM      7  O   UNL A   1      33.719  21.797  28.059  1.00  0.00    -0.245 OA
BRANCH   6   8
ATOM      8  C   UNL A   1      33.990  22.030  25.646  1.00  0.00     0.330 C 
BRANCH   8   9
ATOM      9  C   UNL A   1      35.278  21.228  25.451  1.00  0.00     0.063 A 
ATOM     10  C   UNL A   1      35.225  19.895  25.003  1.00  0.00     0.129 A 
ATOM     11  C   UNL A   1      36.386  19.187  24.670  1.00  0.00     0.047 A 
ATOM     12  C   UNL A   1      37.636  19.796  24.770  1.00  0.00     0.004 A 
ATOM     13  C   UNL A   1      36.562  21.798  25.573  1.00  0.00     0.014 A 
ATOM     14  C   UNL A   1      37.725  21.100  25.236  1.00  0.00     0.001 A 
BRANCH  10  15
ATOM     15  O   UNL A   1      34.035  19.213  24.989  1.00  0.00    -0.493 OA
BRANCH  15  16
ATOM     16  C   UNL A   1      34.079  18.003  24.220  1.00  0.00     0.226 C 
ATOM     17  C   UNL A   1      33.018  18.098  23.126  1.00  0.00     0.049 C 
ENDBRANCH  15  16
ENDBRANCH  10  15
ENDBRANCH   8   9
BRANCH   8  18
ATOM     18  N   UNL A   1      33.741  23.100  24.641  1.00  0.00    -0.319 N 
ATOM     19  C   UNL A   1      34.775  24.100  24.450  1.00  0.00     0.264 C 
ATOM     20  C   UNL A   1      33.162  22.644  23.381  1.00  0.00     0.264 C 
ATOM     21  H   UNL A   1      33.008  23.618  25.126  1.00  0.00     0.349 HD
ATOM     22  C   UNL A   1      34.112  25.334  23.865  1.00  0.00     0.075 C 
ATOM     23  C   UNL A   1      32.550  23.825  22.627  1.00  0.00     0.075 C 
ATOM     24  C   UNL A   1      33.521  25.013  22.501  1.00  0.00     0.090 C 
BRANCH  24  25
ATOM     25  C   UNL A   1      32.811  26.120  21.725  1.00  0.00     0.226 C 
ATOM     26  O   UNL A   1      31.999  25.793  20.850  1.00  0.00    -0.275 OA
ATOM     27  N   UNL A   1      32.820  27.405  22.206  1.00  0.00    -0.342 N 
ATOM     28  C   UNL A   1      33.898  28.219  22.722  1.00  0.00     0.119 C 
ATOM     29  C   UNL A   1      31.553  28.059  22.467  1.00  0.00     0.119 C 
ATOM     30  C   UNL A   1      33.297  28.795  23.981  1.00  0.00     0.023 C 
ATOM     31  C   UNL A   1      31.882  29.137  23.506  1.00  0.00     0.023 C 
ENDBRANCH  24  25
ENDBRANCH   8  18
ENDBRANCH   6   8
ENDBRANCH   5   6
ENDBRANCH   4   5
ENDBRANCH   3   4
ENDBRANCH   2   3
ENDBRANCH   1   2
BRANCH   1  32
ATOM     32  C   UNL A   1      31.865  28.106  27.564  1.00  0.00     0.188 C 
BRANCH  32  33
ATOM     33  O   UNL A   1      31.944  29.461  27.218  1.00  0.00    -0.376 OA
BRANCH  33  34
ATOM     34  C   UNL A   1      33.177  30.139  27.230  1.00  0.00     0.202 C 
BRANCH  34  35
ATOM     35  C   UNL A   1      33.308  31.617  27.636  1.00  0.00     0.261 C 
BRANCH  35  36
ATOM     36  O   UNL A   1      34.606  32.113  28.000  1.00  0.00    -0.460 OA
BRANCH  36  37
ATOM     37  C   UNL A   1      34.994  31.955  29.282  1.00  0.00     0.338 C 
ATOM     38  O   UNL A   1      34.367  32.289  30.283  1.00  0.00    -0.246 OA
BRANCH  37  39
ATOM     39  C   UNL A   1      36.211  31.110  29.317  1.00  0.00     0.060 A 
ATOM     40  C   UNL A   1      36.335  30.155  30.333  1.00  0.00     0.016 A 
ATOM     41  C   UNL A   1      37.241  31.269  28.383  1.00  0.00     0.016 A 
ATOM     42  C   UNL A   1      37.497  29.386  30.443  1.00  0.00     0.010 A 
ATOM     43  C   UNL A   1      38.419  30.517  28.511  1.00  0.00     0.010 A 
ATOM     44  C   UNL A   1      38.567  29.593  29.561  1.00  0.00    -0.014 A 
BRANCH  44  45
ATOM     45  C   UNL A   1      39.898  29.013  29.886  1.00  0.00     0.031 A 
ATOM     46  C   UNL A   1      40.716  29.671  30.960  1.00  0.00     0.074 A 
ATOM     47  C   UNL A   1      40.383  27.925  29.262  1.00  0.00     0.049 A 
ATOM     48  N   UNL A   1      41.904  29.362  31.413  1.00  0.00    -0.248 NA
ATOM     49  C   UNL A   1      40.123  30.863  31.587  1.00  0.00     0.031 C 
ATOM     50  C   UNL A   1      39.723  27.224  28.170  1.00  0.00     0.029 A 
ATOM     51  N   UNL A   1      41.547  27.218  29.461  1.00  0.00    -0.354 N 
ATOM     52  C   UNL A   1      42.216  30.337  32.349  1.00  0.00     0.074 A 
ATOM     53  C   UNL A   1      41.093  31.249  32.402  1.00  0.00     0.031 C 
ATOM     54  C   UNL A   1      40.470  26.162  27.825  1.00  0.00     0.029 A 
ATOM     55  C   UNL A   1      41.666  26.107  28.661  1.00  0.00     0.049 A 
ATOM     56  H   UNL A   1      42.232  27.485  30.116  1.00  0.00     0.167 HD
ATOM     57  C   UNL A   1      43.345  30.475  33.083  1.00  0.00     0.037 A 
ATOM     58  C   UNL A   1      42.627  25.160  28.612  1.00  0.00     0.037 A 
ATOM     59  C   UNL A   1      44.473  29.582  33.021  1.00  0.00     0.049 A 
ATOM     60  C   UNL A   1      43.858  25.316  29.475  1.00  0.00     0.074 A 
ATOM     61  C   UNL A   1      45.671  29.658  33.709  1.00  0.00     0.029 A 
ATOM     62  N   UNL A   1      44.543  28.452  32.220  1.00  0.00    -0.354 N 
ATOM     63  N   UNL A   1      44.148  26.245  30.352  1.00  0.00    -0.248 NA
ATOM     64  C   UNL A   1      44.918  24.308  29.306  1.00  0.00     0.031 C 
ATOM     65  C   UNL A   1      46.488  28.604  33.287  1.00  0.00     0.029 A 
ATOM     66  C   UNL A   1      45.771  27.830  32.389  1.00  0.00     0.049 A 
ATOM     67  H   UNL A   1      43.829  28.138  31.621  1.00  0.00     0.167 HD
ATOM     68  C   UNL A   1      45.408  25.928  30.846  1.00  0.00     0.074 A 
ATOM     69  C   UNL A   1      45.815  24.701  30.198  1.00  0.00     0.031 C 
ATOM     70  C   UNL A   1      46.168  26.604  31.743  1.00  0.00     0.037 A 
BRANCH  57  71
ATOM     71  C   UNL A   1      43.437  31.680  33.972  1.00  0.00     0.064 A 
ATOM     72  C   UNL A   1      43.015  31.650  35.309  1.00  0.00     0.173 A 
ATOM     73  C   UNL A   1      43.957  32.884  33.474  1.00  0.00     0.173 A 
ATOM     74  F   UNL A   1      42.486  30.531  35.827  1.00  0.00    -0.203 F 
ATOM     75  C   UNL A   1      43.081  32.791  36.105  1.00  0.00     0.198 A 
ATOM     76  C   UNL A   1      44.055  34.012  34.282  1.00  0.00     0.198 A 
ATOM     77  F   UNL A   1      44.373  32.967  32.201  1.00  0.00    -0.203 F 
ATOM     78  F   UNL A   1      42.615  32.757  37.361  1.00  0.00    -0.200 F 
ATOM     79  C   UNL A   1      43.608  33.968  35.594  1.00  0.00     0.200 A 
ATOM     80  F   UNL A   1      44.574  35.145  33.789  1.00  0.00    -0.200 F 
ATOM     81  F   UNL A   1      43.673  35.063  36.362  1.00  0.00    -0.200 F 
ENDBRANCH  57  71
BRANCH  58  82
ATOM     82  C   UNL A   1      42.491  23.969  27.721  1.00  0.00     0.064 A 
ATOM     83  C   UNL A   1      42.007  22.748  28.221  1.00  0.00     0.173 A 
ATOM     84  C   UNL A   1      42.884  24.001  26.376  1.00  0.00     0.173 A 
ATOM     85  F   UNL A   1      41.649  22.644  29.509  1.00  0.00    -0.203 F 
ATOM     86  C   UNL A   1      41.946  21.607  27.420  1.00  0.00     0.198 A 
ATOM     87  C   UNL A   1      42.783  22.871  25.564  1.00  0.00     0.198 A 
ATOM     88  F   UNL A   1      43.362  25.133  25.841  1.00  0.00    -0.203 F 
ATOM     89  F   UNL A   1      41.539  20.443  27.943  1.00  0.00    -0.200 F 
ATOM     90  C   UNL A   1      42.326  21.673  26.090  1.00  0.00     0.200 A 
ATOM     91  F   UNL A   1      43.133  22.944  24.273  1.00  0.00    -0.200 F 
ATOM     92  F   UNL A   1      42.262  20.579  25.318  1.00  0.00    -0.200 F 
ENDBRANCH  58  82
BRANCH  70  93
ATOM     93  C   UNL A   1      47.505  26.017  32.105  1.00  0.00     0.064 A 
ATOM     94  C   UNL A   1      48.650  26.238  31.324  1.00  0.00     0.173 A 
ATOM     95  C   UNL A   1      47.647  25.244  33.268  1.00  0.00     0.173 A 
ATOM     96  F   UNL A   1      48.571  26.961  30.198  1.00  0.00    -0.203 F 
ATOM     97  C   UNL A   1      49.876  25.675  31.674  1.00  0.00     0.198 A 
ATOM     98  C   UNL A   1      48.881  24.713  33.633  1.00  0.00     0.198 A 
ATOM     99  F   UNL A   1      46.588  25.010  34.059  1.00  0.00    -0.203 F 
ATOM    100  F   UNL A   1      50.942  25.850  30.880  1.00  0.00    -0.200 F 
ATOM    101  C   UNL A   1      49.992  24.919  32.830  1.00  0.00     0.200 A 
ATOM    102  F   UNL A   1      48.994  23.998  34.761  1.00  0.00    -0.200 F 
ATOM    103  F   UNL A   1      51.173  24.382  33.166  1.00  0.00    -0.200 F 
ENDBRANCH  70  93
ENDBRANCH  44  45
ENDBRANCH  37  39
ENDBRANCH  36  37
ENDBRANCH  35  36
ENDBRANCH  34  35
ENDBRANCH  33  34
ENDBRANCH  32  33
ENDBRANCH   1  32
TORSDOF 22
ENDMDL
MODEL 2
REMARK VINA RESULT:     -10.3      1.487      2.096
REMARK SMILES CCOc1ccccc1[C@@H](C(=O)OCCOCCOCCOC(=O)c1ccc(-c2c3nc(c(-c4c(F)c(F)c(F)c(F)c4F)c4ccc([nH]4)c(-c4c(F)c(F)c(F)c(F)c4F)c4nc(c(-c5c(F)c(F)c(F)c(F)c5F)c5ccc2[nH]5)C=C4)C=C3)cc1)[NH+]1CCC(C(=O)N2CCCC2)CC1
REMARK SMILES IDX 17 1 16 2 15 3 14 4 13 5 11 6 12 7 10 8 9 9 4 10 5 11 6 12
REMARK SMILES IDX 8 13 7 14 3 15 2 16 1 17 88 18 89 19 100 20 90 22 99 23
REMARK SMILES IDX 91 24 92 25 93 26 94 27 95 28 98 29 96 30 97 31 18 32 19 33
REMARK SMILES IDX 20 34 21 35 22 36 23 37 24 38 25 39 26 40 87 41 27 42 86 43
REMARK SMILES IDX 28 44 29 45 30 46 80 47 31 48 85 49 79 50 81 51 32 52 84 53
REMARK SMILES IDX 78 54 77 55 33 57 65 58 45 59 64 60 46 61 49 62 63 63 82 64
REMARK SMILES IDX 47 65 48 66 62 68 83 69 50 70 34 71 35 72 43 73 36 74 37 75
REMARK SMILES IDX 41 76 44 77 38 78 39 79 42 80 40 81 66 82 67 83 75 84 68 85
REMARK SMILES IDX 69 86 73 87 76 88 70 89 71 90 74 91 72 92 51 93 52 94 60 95
REMARK SMILES IDX 53 96 54 97 58 98 61 99 55 100 56 101 59 102 57 103
REMARK H PARENT 88 21 81 56 49 67
REMARK Flexibility Score: inf
ROOT
ATOM      1  C   UNL A   1      30.934  27.038  26.133  1.00  0.00     0.188 C 
ENDROOT
BRANCH   1   2
ATOM      2  O   UNL A   1      31.295  25.688  25.878  1.00  0.00    -0.376 OA
BRANCH   2   3
ATOM      3  C   UNL A   1      30.589  24.638  26.532  1.00  0.00     0.202 C 
BRANCH   3   4
ATOM      4  C   UNL A   1      31.324  23.329  26.864  1.00  0.00     0.261 C 
BRANCH   4   5
ATOM      5  O   UNL A   1      32.765  23.412  26.986  1.00  0.00    -0.459 OA
BRANCH   5   6
ATOM      6  C   UNL A   1      33.442  22.231  26.899  1.00  0.00     0.370 C 
ATOM      7  O   UNL A   1      33.549  21.461  27.856  1.00  0.00    -0.245 OA
BRANCH   6   8
ATOM      8  C   UNL A   1      34.113  21.931  25.530  1.00  0.00     0.330 C 
BRANCH   8   9
ATOM      9  C   UNL A   1      35.484  21.263  25.415  1.00  0.00     0.063 A 
ATOM     10  C   UNL A   1      35.593  19.939  24.949  1.00  0.00     0.129 A 
ATOM     11  C   UNL A   1      36.838  19.354  24.688  1.00  0.00     0.047 A 
ATOM     12  C   UNL A   1      38.012  20.080  24.880  1.00  0.00     0.004 A 
ATOM     13  C   UNL A   1      36.694  21.953  25.631  1.00  0.00     0.014 A 
ATOM     14  C   UNL A   1      37.940  21.379  25.367  1.00  0.00     0.001 A 
BRANCH  10  15
ATOM     15  O   UNL A   1      34.480  19.145  24.845  1.00  0.00    -0.493 OA
BRANCH  15  16
ATOM     16  C   UNL A   1      34.754  17.844  24.306  1.00  0.00     0.226 C 
ATOM     17  C   UNL A   1      33.640  17.495  23.321  1.00  0.00     0.049 C 
ENDBRANCH  15  16
ENDBRANCH  10  15
ENDBRANCH   8   9
BRANCH   8  18
ATOM     18  N   UNL A   1      33.850  23.031  24.561  1.00  0.00    -0.319 N 
ATOM     19  C   UNL A   1      34.690  24.212  24.638  1.00  0.00     0.264 C 
ATOM     20  C   UNL A   1      33.610  22.602  23.187  1.00  0.00     0.264 C 
ATOM     21  H   UNL A   1      32.955  23.362  24.922  1.00  0.00     0.349 HD
ATOM     22  C   UNL A   1      33.920  25.359  24.008  1.00  0.00     0.075 C 
ATOM     23  C   UNL A   1      32.932  23.722  22.398  1.00  0.00     0.075 C 
ATOM     24  C   UNL A   1      33.662  25.070  22.538  1.00  0.00     0.090 C 
BRANCH  24  25
ATOM     25  C   UNL A   1      32.907  26.103  21.704  1.00  0.00     0.226 C 
ATOM     26  O   UNL A   1      32.097  25.695  20.861  1.00  0.00    -0.275 OA
ATOM     27  N   UNL A   1      32.877  27.414  22.105  1.00  0.00    -0.342 N 
ATOM     28  C   UNL A   1      33.932  28.294  22.556  1.00  0.00     0.119 C 
ATOM     29  C   UNL A   1      31.590  28.041  22.341  1.00  0.00     0.119 C 
ATOM     30  C   UNL A   1      33.324  28.926  23.785  1.00  0.00     0.023 C 
ATOM     31  C   UNL A   1      31.894  29.191  23.308  1.00  0.00     0.023 C 
ENDBRANCH  24  25
ENDBRANCH   8  18
ENDBRANCH   6   8
ENDBRANCH   5   6
ENDBRANCH   4   5
ENDBRANCH   3   4
ENDBRANCH   2   3
ENDBRANCH   1   2
BRANCH   1  32
ATOM     32  C   UNL A   1      31.574  27.761  27.323  1.00  0.00     0.188 C 
BRANCH  32  33
ATOM     33  O   UNL A   1      31.830  29.119  27.093  1.00  0.00    -0.376 OA
BRANCH  33  34
ATOM     34  C   UNL A   1      33.139  29.631  27.174  1.00  0.00     0.202 C 
BRANCH  34  35
ATOM     35  C   UNL A   1      33.434  31.111  27.467  1.00  0.00     0.261 C 
BRANCH  35  36
ATOM     36  O   UNL A   1      34.800  31.509  27.667  1.00  0.00    -0.460 OA
BRANCH  36  37
ATOM     37  C   UNL A   1      35.289  31.444  28.922  1.00  0.00     0.338 C 
ATOM     38  O   UNL A   1      34.716  31.792  29.950  1.00  0.00    -0.246 OA
BRANCH  37  39
ATOM     39  C   UNL A   1      36.556  30.675  28.905  1.00  0.00     0.060 A 
ATOM     40  C   UNL A   1      37.103  30.257  30.126  1.00  0.00     0.016 A 
ATOM     41  C   UNL A   1      37.226  30.390  27.710  1.00  0.00     0.016 A 
ATOM     42  C   UNL A   1      38.331  29.591  30.159  1.00  0.00     0.010 A 
ATOM     43  C   UNL A   1      38.473  29.747  27.747  1.00  0.00     0.010 A 
ATOM     44  C   UNL A   1      39.048  29.372  28.974  1.00  0.00    -0.014 A 
BRANCH  44  45
ATOM     45  C   UNL A   1      40.477  28.966  29.056  1.00  0.00     0.031 A 
ATOM     46  C   UNL A   1      41.438  29.888  29.752  1.00  0.00     0.074 A 
ATOM     47  C   UNL A   1      40.930  27.810  28.540  1.00  0.00     0.049 A 
ATOM     48  N   UNL A   1      42.726  29.764  29.941  1.00  0.00    -0.248 NA
ATOM     49  C   UNL A   1      40.869  31.138  30.279  1.00  0.00     0.031 C 
ATOM     50  C   UNL A   1      40.124  26.855  27.795  1.00  0.00     0.029 A 
ATOM     51  N   UNL A   1      42.185  27.244  28.566  1.00  0.00    -0.354 N 
ATOM     52  C   UNL A   1      43.129  30.930  30.575  1.00  0.00     0.074 A 
ATOM     53  C   UNL A   1      41.948  31.752  30.740  1.00  0.00     0.031 C 
ATOM     54  C   UNL A   1      40.891  25.800  27.473  1.00  0.00     0.029 A 
ATOM     55  C   UNL A   1      42.245  26.003  27.979  1.00  0.00     0.049 A 
ATOM     56  H   UNL A   1      42.966  27.688  28.969  1.00  0.00     0.167 HD
ATOM     57  C   UNL A   1      44.372  31.295  30.965  1.00  0.00     0.037 A 
ATOM     58  C   UNL A   1      43.274  25.136  27.864  1.00  0.00     0.037 A 
ATOM     59  C   UNL A   1      45.553  30.490  30.786  1.00  0.00     0.049 A 
ATOM     60  C   UNL A   1      44.644  25.553  28.347  1.00  0.00     0.074 A 
ATOM     61  C   UNL A   1      46.860  30.791  31.127  1.00  0.00     0.029 A 
ATOM     62  N   UNL A   1      45.570  29.227  30.214  1.00  0.00    -0.354 N 
ATOM     63  N   UNL A   1      45.017  26.661  28.940  1.00  0.00    -0.248 NA
ATOM     64  C   UNL A   1      45.748  24.609  28.105  1.00  0.00     0.031 C 
ATOM     65  C   UNL A   1      47.676  29.733  30.713  1.00  0.00     0.029 A 
ATOM     66  C   UNL A   1      46.868  28.742  30.180  1.00  0.00     0.049 A 
ATOM     67  H   UNL A   1      44.778  28.747  29.880  1.00  0.00     0.167 HD
ATOM     68  C   UNL A   1      46.386  26.543  29.151  1.00  0.00     0.074 A 
ATOM     69  C   UNL A   1      46.775  25.240  28.657  1.00  0.00     0.031 C 
ATOM     70  C   UNL A   1      47.247  27.441  29.690  1.00  0.00     0.037 A 
BRANCH  57  71
ATOM     71  C   UNL A   1      44.524  32.661  31.567  1.00  0.00     0.064 A 
ATOM     72  C   UNL A   1      44.439  32.876  32.950  1.00  0.00     0.173 A 
ATOM     73  C   UNL A   1      44.758  33.772  30.742  1.00  0.00     0.173 A 
ATOM     74  F   UNL A   1      44.191  31.852  33.780  1.00  0.00    -0.203 F 
ATOM     75  C   UNL A   1      44.552  34.158  33.483  1.00  0.00     0.198 A 
ATOM     76  C   UNL A   1      44.906  35.046  31.281  1.00  0.00     0.198 A 
ATOM     77  F   UNL A   1      44.846  33.621  29.412  1.00  0.00    -0.203 F 
ATOM     78  F   UNL A   1      44.406  34.349  34.801  1.00  0.00    -0.200 F 
ATOM     79  C   UNL A   1      44.793  35.240  32.649  1.00  0.00     0.200 A 
ATOM     80  F   UNL A   1      45.149  36.089  30.474  1.00  0.00    -0.200 F 
ATOM     81  F   UNL A   1      44.903  36.472  33.163  1.00  0.00    -0.200 F 
ENDBRANCH  57  71
BRANCH  58  82
ATOM     82  C   UNL A   1      43.079  23.781  27.269  1.00  0.00     0.064 A 
ATOM     83  C   UNL A   1      43.456  23.517  25.941  1.00  0.00     0.173 A 
ATOM     84  C   UNL A   1      42.471  22.739  27.982  1.00  0.00     0.173 A 
ATOM     85  F   UNL A   1      44.009  24.484  25.195  1.00  0.00    -0.203 F 
ATOM     86  C   UNL A   1      43.210  22.278  25.348  1.00  0.00     0.198 A 
ATOM     87  C   UNL A   1      42.264  21.487  27.402  1.00  0.00     0.198 A 
ATOM     88  F   UNL A   1      42.081  22.929  29.250  1.00  0.00    -0.203 F 
ATOM     89  F   UNL A   1      43.524  22.078  24.060  1.00  0.00    -0.200 F 
ATOM     90  C   UNL A   1      42.622  21.262  26.082  1.00  0.00     0.200 A 
ATOM     91  F   UNL A   1      41.713  20.501  28.122  1.00  0.00    -0.200 F 
ATOM     92  F   UNL A   1      42.392  20.069  25.515  1.00  0.00    -0.200 F 
ENDBRANCH  58  82
BRANCH  70  93
ATOM     93  C   UNL A   1      48.691  27.036  29.807  1.00  0.00     0.064 A 
ATOM     94  C   UNL A   1      49.629  27.330  28.805  1.00  0.00     0.173 A 
ATOM     95  C   UNL A   1      49.149  26.369  30.954  1.00  0.00     0.173 A 
ATOM     96  F   UNL A   1      49.246  27.958  27.683  1.00  0.00    -0.203 F 
ATOM     97  C   UNL A   1      50.960  26.936  28.930  1.00  0.00     0.198 A 
ATOM     98  C   UNL A   1      50.488  26.010  31.091  1.00  0.00     0.198 A 
ATOM     99  F   UNL A   1      48.300  26.074  31.950  1.00  0.00    -0.203 F 
ATOM    100  F   UNL A   1      51.824  27.175  27.933  1.00  0.00    -0.200 F 
ATOM    101  C   UNL A   1      51.389  26.283  30.075  1.00  0.00     0.200 A 
ATOM    102  F   UNL A   1      50.904  25.394  32.207  1.00  0.00    -0.200 F 
ATOM    103  F   UNL A   1      52.671  25.908  30.195  1.00  0.00    -0.200 F 
ENDBRANCH  70  93
ENDBRANCH  44  45
ENDBRANCH  37  39
ENDBRANCH  36  37
ENDBRANCH  35  36
ENDBRANCH  34  35
ENDBRANCH  33  34
ENDBRANCH  32  33
ENDBRANCH   1  32
TORSDOF 22
ENDMDL
MODEL 3
REMARK VINA RESULT:     -10.3      2.597      7.410
REMARK SMILES CCOc1ccccc1[C@@H](C(=O)OCCOCCOCCOC(=O)c1ccc(-c2c3nc(c(-c4c(F)c(F)c(F)c(F)c4F)c4ccc([nH]4)c(-c4c(F)c(F)c(F)c(F)c4F)c4nc(c(-c5c(F)c(F)c(F)c(F)c5F)c5ccc2[nH]5)C=C4)C=C3)cc1)[NH+]1CCC(C(=O)N2CCCC2)CC1
REMARK SMILES IDX 17 1 16 2 15 3 14 4 13 5 11 6 12 7 10 8 9 9 4 10 5 11 6 12
REMARK SMILES IDX 8 13 7 14 3 15 2 16 1 17 88 18 89 19 100 20 90 22 99 23
REMARK SMILES IDX 91 24 92 25 93 26 94 27 95 28 98 29 96 30 97 31 18 32 19 33
REMARK SMILES IDX 20 34 21 35 22 36 23 37 24 38 25 39 26 40 87 41 27 42 86 43
REMARK SMILES IDX 28 44 29 45 30 46 80 47 31 48 85 49 79 50 81 51 32 52 84 53
REMARK SMILES IDX 78 54 77 55 33 57 65 58 45 59 64 60 46 61 49 62 63 63 82 64
REMARK SMILES IDX 47 65 48 66 62 68 83 69 50 70 34 71 35 72 43 73 36 74 37 75
REMARK SMILES IDX 41 76 44 77 38 78 39 79 42 80 40 81 66 82 67 83 75 84 68 85
REMARK SMILES IDX 69 86 73 87 76 88 70 89 71 90 74 91 72 92 51 93 52 94 60 95
REMARK SMILES IDX 53 96 54 97 58 98 61 99 55 100 56 101 59 102 57 103
REMARK H PARENT 88 21 81 56 49 67
REMARK Flexibility Score: inf
ROOT
ATOM      1  C   UNL A   1      31.056  26.599  26.485  1.00  0.00     0.188 C 
ENDROOT
BRANCH   1   2
ATOM      2  O   UNL A   1      31.310  25.244  26.829  1.00  0.00    -0.376 OA
BRANCH   2   3
ATOM      3  C   UNL A   1      30.658  24.204  26.106  1.00  0.00     0.202 C 
BRANCH   3   4
ATOM      4  C   UNL A   1      30.867  22.743  26.536  1.00  0.00     0.261 C 
BRANCH   4   5
ATOM      5  O   UNL A   1      32.226  22.245  26.488  1.00  0.00    -0.459 OA
BRANCH   5   6
ATOM      6  C   UNL A   1      32.456  21.215  25.624  1.00  0.00     0.370 C 
ATOM      7  O   UNL A   1      31.821  20.160  25.673  1.00  0.00    -0.245 OA
BRANCH   6   8
ATOM      8  C   UNL A   1      33.603  21.431  24.598  1.00  0.00     0.330 C 
BRANCH   8   9
ATOM      9  C   UNL A   1      35.048  21.015  24.878  1.00  0.00     0.063 A 
ATOM     10  C   UNL A   1      35.459  19.687  24.661  1.00  0.00     0.129 A 
ATOM     11  C   UNL A   1      36.805  19.311  24.763  1.00  0.00     0.047 A 
ATOM     12  C   UNL A   1      37.779  20.257  25.078  1.00  0.00     0.004 A 
ATOM     13  C   UNL A   1      36.056  21.935  25.229  1.00  0.00     0.014 A 
ATOM     14  C   UNL A   1      37.402  21.569  25.325  1.00  0.00     0.001 A 
BRANCH  10  15
ATOM     15  O   UNL A   1      34.534  18.696  24.456  1.00  0.00    -0.493 OA
BRANCH  15  16
ATOM     16  C   UNL A   1      35.062  17.374  24.630  1.00  0.00     0.226 C 
ATOM     17  C   UNL A   1      33.970  16.506  25.252  1.00  0.00     0.049 C 
ENDBRANCH  15  16
ENDBRANCH  10  15
ENDBRANCH   8   9
BRANCH   8  18
ATOM     18  N   UNL A   1      33.434  22.727  23.883  1.00  0.00    -0.319 N 
ATOM     19  C   UNL A   1      34.068  23.900  24.455  1.00  0.00     0.264 C 
ATOM     20  C   UNL A   1      33.586  22.659  22.433  1.00  0.00     0.264 C 
ATOM     21  H   UNL A   1      32.444  22.890  24.063  1.00  0.00     0.349 HD
ATOM     22  C   UNL A   1      33.325  25.118  23.935  1.00  0.00     0.075 C 
ATOM     23  C   UNL A   1      32.972  23.899  21.782  1.00  0.00     0.075 C 
ATOM     24  C   UNL A   1      33.464  25.208  22.424  1.00  0.00     0.090 C 
BRANCH  24  25
ATOM     25  C   UNL A   1      32.798  26.371  21.690  1.00  0.00     0.226 C 
ATOM     26  O   UNL A   1      31.965  26.108  20.813  1.00  0.00    -0.275 OA
ATOM     27  N   UNL A   1      32.868  27.638  22.212  1.00  0.00    -0.342 N 
ATOM     28  C   UNL A   1      33.986  28.385  22.743  1.00  0.00     0.119 C 
ATOM     29  C   UNL A   1      31.633  28.339  22.506  1.00  0.00     0.119 C 
ATOM     30  C   UNL A   1      33.421  28.947  24.026  1.00  0.00     0.023 C 
ATOM     31  C   UNL A   1      32.019  29.366  23.575  1.00  0.00     0.023 C 
ENDBRANCH  24  25
ENDBRANCH   8  18
ENDBRANCH   6   8
ENDBRANCH   5   6
ENDBRANCH   4   5
ENDBRANCH   3   4
ENDBRANCH   2   3
ENDBRANCH   1   2
BRANCH   1  32
ATOM     32  C   UNL A   1      31.765  27.705  27.274  1.00  0.00     0.188 C 
BRANCH  32  33
ATOM     33  O   UNL A   1      31.382  29.002  26.905  1.00  0.00    -0.376 OA
BRANCH  33  34
ATOM     34  C   UNL A   1      32.233  30.099  27.135  1.00  0.00     0.202 C 
BRANCH  34  35
ATOM     35  C   UNL A   1      31.803  31.552  26.870  1.00  0.00     0.261 C 
BRANCH  35  36
ATOM     36  O   UNL A   1      32.823  32.525  26.590  1.00  0.00    -0.460 OA
BRANCH  36  37
ATOM     37  C   UNL A   1      33.255  33.284  27.618  1.00  0.00     0.338 C 
ATOM     38  O   UNL A   1      32.636  34.185  28.174  1.00  0.00    -0.246 OA
BRANCH  37  39
ATOM     39  C   UNL A   1      34.526  32.719  28.132  1.00  0.00     0.060 A 
ATOM     40  C   UNL A   1      34.581  31.350  28.423  1.00  0.00     0.016 A 
ATOM     41  C   UNL A   1      35.647  33.524  28.360  1.00  0.00     0.016 A 
ATOM     42  C   UNL A   1      35.738  30.791  28.975  1.00  0.00     0.010 A 
ATOM     43  C   UNL A   1      36.797  32.968  28.941  1.00  0.00     0.010 A 
ATOM     44  C   UNL A   1      36.838  31.605  29.281  1.00  0.00    -0.014 A 
BRANCH  44  45
ATOM     45  C   UNL A   1      37.916  31.067  30.155  1.00  0.00     0.031 A 
ATOM     46  C   UNL A   1      38.932  30.145  29.544  1.00  0.00     0.074 A 
ATOM     47  C   UNL A   1      38.013  31.382  31.459  1.00  0.00     0.049 A 
ATOM     48  N   UNL A   1      39.951  29.540  30.098  1.00  0.00    -0.248 NA
ATOM     49  C   UNL A   1      38.751  29.838  28.116  1.00  0.00     0.031 C 
ATOM     50  C   UNL A   1      37.069  32.216  32.189  1.00  0.00     0.029 A 
ATOM     51  N   UNL A   1      38.956  31.037  32.400  1.00  0.00    -0.354 N 
ATOM     52  C   UNL A   1      40.512  28.756  29.100  1.00  0.00     0.074 A 
ATOM     53  C   UNL A   1      39.721  28.961  27.905  1.00  0.00     0.031 C 
ATOM     54  C   UNL A   1      37.503  32.355  33.453  1.00  0.00     0.029 A 
ATOM     55  C   UNL A   1      38.750  31.616  33.630  1.00  0.00     0.049 A 
ATOM     56  H   UNL A   1      39.708  30.431  32.209  1.00  0.00     0.167 HD
ATOM     57  C   UNL A   1      41.577  27.924  29.176  1.00  0.00     0.037 A 
ATOM     58  C   UNL A   1      39.483  31.554  34.762  1.00  0.00     0.037 A 
ATOM     59  C   UNL A   1      42.356  27.702  30.367  1.00  0.00     0.049 A 
ATOM     60  C   UNL A   1      40.693  30.648  34.806  1.00  0.00     0.074 A 
ATOM     61  C   UNL A   1      43.437  26.856  30.544  1.00  0.00     0.029 A 
ATOM     62  N   UNL A   1      42.135  28.329  31.585  1.00  0.00    -0.354 N 
ATOM     63  N   UNL A   1      41.212  29.905  33.860  1.00  0.00    -0.248 NA
ATOM     64  C   UNL A   1      41.395  30.542  36.096  1.00  0.00     0.031 C 
ATOM     65  C   UNL A   1      43.837  26.930  31.882  1.00  0.00     0.029 A 
ATOM     66  C   UNL A   1      43.052  27.877  32.521  1.00  0.00     0.049 A 
ATOM     67  H   UNL A   1      41.432  28.995  31.758  1.00  0.00     0.167 HD
ATOM     68  C   UNL A   1      42.301  29.258  34.433  1.00  0.00     0.074 A 
ATOM     69  C   UNL A   1      42.393  29.722  35.799  1.00  0.00     0.031 C 
ATOM     70  C   UNL A   1      43.140  28.347  33.880  1.00  0.00     0.037 A 
BRANCH  57  71
ATOM     71  C   UNL A   1      41.918  27.139  27.944  1.00  0.00     0.064 A 
ATOM     72  C   UNL A   1      41.367  25.874  27.694  1.00  0.00     0.173 A 
ATOM     73  C   UNL A   1      42.814  27.664  27.000  1.00  0.00     0.173 A 
ATOM     74  F   UNL A   1      40.526  25.315  28.577  1.00  0.00    -0.203 F 
ATOM     75  C   UNL A   1      41.725  25.150  26.559  1.00  0.00     0.198 A 
ATOM     76  C   UNL A   1      43.141  26.954  25.849  1.00  0.00     0.198 A 
ATOM     77  F   UNL A   1      43.370  28.869  27.193  1.00  0.00    -0.203 F 
ATOM     78  F   UNL A   1      41.234  23.918  26.370  1.00  0.00    -0.200 F 
ATOM     79  C   UNL A   1      42.604  25.694  25.634  1.00  0.00     0.200 A 
ATOM     80  F   UNL A   1      43.983  27.486  24.952  1.00  0.00    -0.200 F 
ATOM     81  F   UNL A   1      42.945  24.998  24.542  1.00  0.00    -0.200 F 
ENDBRANCH  57  71
BRANCH  58  82
ATOM     82  C   UNL A   1      39.117  32.361  35.964  1.00  0.00     0.064 A 
ATOM     83  C   UNL A   1      39.613  33.664  36.134  1.00  0.00     0.173 A 
ATOM     84  C   UNL A   1      38.312  31.842  36.987  1.00  0.00     0.173 A 
ATOM     85  F   UNL A   1      40.418  34.203  35.206  1.00  0.00    -0.203 F 
ATOM     86  C   UNL A   1      39.340  34.402  37.286  1.00  0.00     0.198 A 
ATOM     87  C   UNL A   1      38.005  32.596  38.120  1.00  0.00     0.198 A 
ATOM     88  F   UNL A   1      37.814  30.601  36.889  1.00  0.00    -0.203 F 
ATOM     89  F   UNL A   1      39.881  35.617  37.447  1.00  0.00    -0.200 F 
ATOM     90  C   UNL A   1      38.529  33.869  38.275  1.00  0.00     0.200 A 
ATOM     91  F   UNL A   1      37.203  32.084  39.064  1.00  0.00    -0.200 F 
ATOM     92  F   UNL A   1      38.261  34.579  39.379  1.00  0.00    -0.200 F 
ENDBRANCH  58  82
BRANCH  70  93
ATOM     93  C   UNL A   1      44.252  27.814  34.741  1.00  0.00     0.064 A 
ATOM     94  C   UNL A   1      44.135  26.604  35.443  1.00  0.00     0.173 A 
ATOM     95  C   UNL A   1      45.466  28.511  34.841  1.00  0.00     0.173 A 
ATOM     96  F   UNL A   1      42.994  25.900  35.391  1.00  0.00    -0.203 F 
ATOM     97  C   UNL A   1      45.175  26.135  36.243  1.00  0.00     0.198 A 
ATOM     98  C   UNL A   1      46.517  28.020  35.612  1.00  0.00     0.198 A 
ATOM     99  F   UNL A   1      45.640  29.667  34.182  1.00  0.00    -0.203 F 
ATOM    100  F   UNL A   1      45.017  25.007  36.951  1.00  0.00    -0.200 F 
ATOM    101  C   UNL A   1      46.366  26.839  36.322  1.00  0.00     0.200 A 
ATOM    102  F   UNL A   1      47.674  28.694  35.673  1.00  0.00    -0.200 F 
ATOM    103  F   UNL A   1      47.367  26.384  37.089  1.00  0.00    -0.200 F 
ENDBRANCH  70  93
ENDBRANCH  44  45
ENDBRANCH  37  39
ENDBRANCH  36  37
ENDBRANCH  35  36
ENDBRANCH  34  35
ENDBRANCH  33  34
ENDBRANCH  32  33
ENDBRANCH   1  32
TORSDOF 22
ENDMDL
