MODEL 1
REMARK VINA RESULT:     -12.3      0.000      0.000
REMARK SMILES C[C@@H](Oc1ccc(/C=C2\C(=O)[NH+]=C(OCCOCCOCCOC(=O)c3ccc(-c4c5nc(c(-c6c(F)c(F)c(F)c(F)c6F)c6ccc([nH]6)c(-c6c(F)c(F)c(F)c(F)c6F)c6nc(c(-c7c(F)c(F)c(F)c(F)c7F)c7ccc4[nH]7)C=C6)C=C5)cc3)N(c3ccc4c(c3)OCO4)C2=O)cc1)C(=O)[O-]
REMARK SMILES IDX 18 1 17 2 16 3 15 4 14 5 13 6 8 7 9 8 10 9 99 10 11 11 12 12
REMARK SMILES IDX 89 13 100 14 7 16 4 17 5 18 102 19 6 20 101 21 3 22 2 23
REMARK SMILES IDX 1 24 103 25 104 26 105 27 90 28 91 29 95 30 92 31 94 32
REMARK SMILES IDX 93 33 96 34 98 35 97 36 19 37 20 38 21 39 22 40 23 41 24 42
REMARK SMILES IDX 25 43 26 44 27 45 88 46 28 47 87 48 29 49 30 50 31 51 81 52
REMARK SMILES IDX 32 53 86 54 80 55 82 56 33 57 85 58 79 59 78 60 34 62 66 63
REMARK SMILES IDX 46 64 65 65 47 66 50 67 64 68 83 69 48 70 49 71 63 73 84 74
REMARK SMILES IDX 51 75 35 76 36 77 44 78 37 79 38 80 42 81 45 82 39 83 40 84
REMARK SMILES IDX 43 85 41 86 67 87 68 88 76 89 69 90 70 91 74 92 77 93 71 94
REMARK SMILES IDX 72 95 75 96 73 97 52 98 53 99 61 100 54 101 55 102 59 103
REMARK SMILES IDX 62 104 56 105 57 106 60 107 58 108
REMARK H PARENT 12 15 82 61 50 72
REMARK Flexibility Score: inf
ROOT
ATOM      1  C   UNL A   1      34.200  30.698  27.293  1.00  0.00     0.188 C 
ENDROOT
BRANCH   1   2
ATOM      2  O   UNL A   1      33.689  29.691  26.424  1.00  0.00    -0.376 OA
BRANCH   2   3
ATOM      3  C   UNL A   1      32.264  29.570  26.474  1.00  0.00     0.202 C 
BRANCH   3   4
ATOM      4  C   UNL A   1      31.896  28.268  27.192  1.00  0.00     0.266 C 
BRANCH   4   5
ATOM      5  O   UNL A   1      31.075  27.353  26.416  1.00  0.00    -0.428 OA
BRANCH   5   6
ATOM      6  C   UNL A   1      31.689  26.388  25.681  1.00  0.00     0.465 C 
ATOM      7  C   UNL A   1      32.638  23.057  23.626  1.00  0.00     0.032 C 
ATOM      8  C   UNL A   1      32.570  24.243  24.270  1.00  0.00     0.155 C 
ATOM      9  C   UNL A   1      33.043  24.555  25.624  1.00  0.00     0.349 C 
ATOM     10  C   UNL A   1      31.977  25.386  23.522  1.00  0.00     0.357 C 
ATOM     11  O   UNL A   1      34.119  24.120  26.049  1.00  0.00    -0.240 OA
ATOM     12  N   UNL A   1      32.283  25.436  26.328  1.00  0.00    -0.171 N 
ATOM     13  N   UNL A   1      31.615  26.469  24.305  1.00  0.00    -0.123 N 
ATOM     14  O   UNL A   1      31.771  25.309  22.310  1.00  0.00    -0.240 OA
ATOM     15  H   UNL A   1      32.186  25.352  27.304  1.00  0.00     0.319 HD
BRANCH   7  16
ATOM     16  C   UNL A   1      33.098  21.699  23.999  1.00  0.00    -0.024 A 
ATOM     17  C   UNL A   1      33.705  19.056  24.813  1.00  0.00     0.120 A 
ATOM     18  C   UNL A   1      34.668  20.056  24.890  1.00  0.00     0.047 A 
ATOM     19  C   UNL A   1      32.432  19.366  24.353  1.00  0.00     0.047 A 
ATOM     20  C   UNL A   1      34.364  21.367  24.493  1.00  0.00     0.012 A 
ATOM     21  C   UNL A   1      32.140  20.668  23.935  1.00  0.00     0.012 A 
BRANCH  17  22
ATOM     22  O   UNL A   1      34.002  17.833  25.342  1.00  0.00    -0.485 OA
BRANCH  22  23
ATOM     23  C   UNL A   1      34.812  17.012  24.491  1.00  0.00     0.216 C 
ATOM     24  C   UNL A   1      34.050  16.603  23.235  1.00  0.00     0.059 C 
BRANCH  23  25
ATOM     25  C   UNL A   1      35.186  15.740  25.244  1.00  0.00     0.082 C 
ATOM     26  O   UNL A   1      34.493  14.736  25.337  1.00  0.00    -0.546 OA
ATOM     27  O   UNL A   1      36.360  15.808  25.906  1.00  0.00    -0.546 OA
ENDBRANCH  23  25
ENDBRANCH  22  23
ENDBRANCH  17  22
ENDBRANCH   7  16
BRANCH  13  28
ATOM     28  C   UNL A   1      31.024  27.571  23.634  1.00  0.00     0.144 A 
ATOM     29  C   UNL A   1      31.870  28.540  23.043  1.00  0.00     0.056 A 
ATOM     30  C   UNL A   1      29.632  27.678  23.523  1.00  0.00     0.103 A 
ATOM     31  C   UNL A   1      31.332  29.625  22.349  1.00  0.00     0.055 A 
ATOM     32  C   UNL A   1      29.137  28.742  22.800  1.00  0.00     0.170 A 
ATOM     33  C   UNL A   1      29.962  29.689  22.235  1.00  0.00     0.166 A 
ATOM     34  O   UNL A   1      27.823  28.983  22.546  1.00  0.00    -0.453 OA
ATOM     35  O   UNL A   1      29.267  30.648  21.567  1.00  0.00    -0.454 OA
ATOM     36  C   UNL A   1      27.919  30.148  21.699  1.00  0.00     0.468 C 
ENDBRANCH  13  28
ENDBRANCH   5   6
ENDBRANCH   4   5
ENDBRANCH   3   4
ENDBRANCH   2   3
ENDBRANCH   1   2
BRANCH   1  37
ATOM     37  C   UNL A   1      33.222  31.771  27.775  1.00  0.00     0.188 C 
BRANCH  37  38
ATOM     38  O   UNL A   1      33.747  33.065  28.026  1.00  0.00    -0.376 OA
BRANCH  38  39
ATOM     39  C   UNL A   1      32.851  34.171  27.895  1.00  0.00     0.202 C 
BRANCH  39  40
ATOM     40  C   UNL A   1      33.159  35.380  28.781  1.00  0.00     0.261 C 
BRANCH  40  41
ATOM     41  O   UNL A   1      32.483  35.246  30.052  1.00  0.00    -0.460 OA
BRANCH  41  42
ATOM     42  C   UNL A   1      33.234  35.487  31.148  1.00  0.00     0.338 C 
ATOM     43  O   UNL A   1      33.091  36.378  31.969  1.00  0.00    -0.246 OA
BRANCH  42  44
ATOM     44  C   UNL A   1      34.300  34.478  31.249  1.00  0.00     0.060 A 
ATOM     45  C   UNL A   1      34.106  33.358  32.064  1.00  0.00     0.016 A 
ATOM     46  C   UNL A   1      35.542  34.723  30.657  1.00  0.00     0.016 A 
ATOM     47  C   UNL A   1      35.175  32.495  32.321  1.00  0.00     0.010 A 
ATOM     48  C   UNL A   1      36.611  33.865  30.923  1.00  0.00     0.010 A 
ATOM     49  C   UNL A   1      36.443  32.765  31.783  1.00  0.00    -0.014 A 
BRANCH  49  50
ATOM     50  C   UNL A   1      37.629  31.974  32.193  1.00  0.00     0.031 A 
ATOM     51  C   UNL A   1      38.364  32.341  33.451  1.00  0.00     0.074 A 
ATOM     52  C   UNL A   1      38.083  30.972  31.422  1.00  0.00     0.049 A 
ATOM     53  N   UNL A   1      39.488  31.862  33.923  1.00  0.00    -0.248 NA
ATOM     54  C   UNL A   1      37.760  33.392  34.284  1.00  0.00     0.031 C 
ATOM     55  C   UNL A   1      37.464  30.526  30.180  1.00  0.00     0.029 A 
ATOM     56  N   UNL A   1      39.188  30.169  31.555  1.00  0.00    -0.354 N 
ATOM     57  C   UNL A   1      39.735  32.564  35.094  1.00  0.00     0.074 A 
ATOM     58  C   UNL A   1      38.647  33.505  35.263  1.00  0.00     0.031 C 
ATOM     59  C   UNL A   1      38.203  29.538  29.649  1.00  0.00     0.029 A 
ATOM     60  C   UNL A   1      39.372  29.314  30.496  1.00  0.00     0.049 A 
ATOM     61  H   UNL A   1      39.791  30.202  32.333  1.00  0.00     0.167 HD
ATOM     62  C   UNL A   1      40.777  32.436  35.948  1.00  0.00     0.037 A 
ATOM     63  C   UNL A   1      40.390  28.477  30.221  1.00  0.00     0.037 A 
ATOM     64  C   UNL A   1      41.853  31.495  35.792  1.00  0.00     0.049 A 
ATOM     65  C   UNL A   1      41.557  28.386  31.166  1.00  0.00     0.074 A 
ATOM     66  C   UNL A   1      42.916  31.251  36.645  1.00  0.00     0.029 A 
ATOM     67  N   UNL A   1      42.008  30.650  34.706  1.00  0.00    -0.354 N 
ATOM     68  N   UNL A   1      41.759  29.021  32.294  1.00  0.00    -0.248 NA
ATOM     69  C   UNL A   1      42.645  27.469  30.792  1.00  0.00     0.031 C 
ATOM     70  C   UNL A   1      43.735  30.280  36.056  1.00  0.00     0.029 A 
ATOM     71  C   UNL A   1      43.165  29.901  34.853  1.00  0.00     0.049 A 
ATOM     72  H   UNL A   1      41.389  30.589  33.943  1.00  0.00     0.167 HD
ATOM     73  C   UNL A   1      42.984  28.574  32.769  1.00  0.00     0.074 A 
ATOM     74  C   UNL A   1      43.476  27.603  31.816  1.00  0.00     0.031 C 
ATOM     75  C   UNL A   1      43.641  28.937  33.896  1.00  0.00     0.037 A 
BRANCH  62  76
ATOM     76  C   UNL A   1      40.820  33.351  37.131  1.00  0.00     0.064 A 
ATOM     77  C   UNL A   1      40.017  33.126  38.258  1.00  0.00     0.173 A 
ATOM     78  C   UNL A   1      41.720  34.426  37.163  1.00  0.00     0.173 A 
ATOM     79  F   UNL A   1      39.135  32.115  38.268  1.00  0.00    -0.203 F 
ATOM     80  C   UNL A   1      40.111  33.950  39.376  1.00  0.00     0.198 A 
ATOM     81  C   UNL A   1      41.822  35.238  38.287  1.00  0.00     0.198 A 
ATOM     82  F   UNL A   1      42.509  34.677  36.108  1.00  0.00    -0.203 F 
ATOM     83  F   UNL A   1      39.323  33.730  40.438  1.00  0.00    -0.200 F 
ATOM     84  C   UNL A   1      41.016  35.001  39.393  1.00  0.00     0.200 A 
ATOM     85  F   UNL A   1      42.702  36.249  38.306  1.00  0.00    -0.200 F 
ATOM     86  F   UNL A   1      41.113  35.787  40.474  1.00  0.00    -0.200 F 
ENDBRANCH  62  76
BRANCH  63  87
ATOM     87  C   UNL A   1      40.374  27.676  28.971  1.00  0.00     0.064 A 
ATOM     88  C   UNL A   1      39.639  26.487  28.889  1.00  0.00     0.173 A 
ATOM     89  C   UNL A   1      41.117  28.070  27.849  1.00  0.00     0.173 A 
ATOM     90  F   UNL A   1      38.940  26.058  29.950  1.00  0.00    -0.203 F 
ATOM     91  C   UNL A   1      39.659  25.711  27.733  1.00  0.00     0.198 A 
ATOM     92  C   UNL A   1      41.118  27.305  26.686  1.00  0.00     0.198 A 
ATOM     93  F   UNL A   1      41.844  29.196  27.886  1.00  0.00    -0.203 F 
ATOM     94  F   UNL A   1      38.984  24.554  27.693  1.00  0.00    -0.200 F 
ATOM     95  C   UNL A   1      40.395  26.122  26.631  1.00  0.00     0.200 A 
ATOM     96  F   UNL A   1      41.830  27.704  25.623  1.00  0.00    -0.200 F 
ATOM     97  F   UNL A   1      40.419  25.371  25.521  1.00  0.00    -0.200 F 
ENDBRANCH  63  87
BRANCH  75  98
ATOM     98  C   UNL A   1      44.954  28.270  34.171  1.00  0.00     0.064 A 
ATOM     99  C   UNL A   1      45.023  27.054  34.865  1.00  0.00     0.173 A 
ATOM    100  C   UNL A   1      46.151  28.833  33.704  1.00  0.00     0.173 A 
ATOM    101  F   UNL A   1      43.906  26.488  35.345  1.00  0.00    -0.203 F 
ATOM    102  C   UNL A   1      46.247  26.432  35.094  1.00  0.00     0.198 A 
ATOM    103  C   UNL A   1      47.370  28.199  33.918  1.00  0.00     0.198 A 
ATOM    104  F   UNL A   1      46.133  29.995  33.033  1.00  0.00    -0.203 F 
ATOM    105  F   UNL A   1      46.295  25.286  35.788  1.00  0.00    -0.200 F 
ATOM    106  C   UNL A   1      47.418  27.001  34.615  1.00  0.00     0.200 A 
ATOM    107  F   UNL A   1      48.501  28.746  33.450  1.00  0.00    -0.200 F 
ATOM    108  F   UNL A   1      48.595  26.398  34.834  1.00  0.00    -0.200 F 
ENDBRANCH  75  98
ENDBRANCH  49  50
ENDBRANCH  42  44
ENDBRANCH  41  42
ENDBRANCH  40  41
ENDBRANCH  39  40
ENDBRANCH  38  39
ENDBRANCH  37  38
ENDBRANCH   1  37
TORSDOF 21
ENDMDL
MODEL 2
REMARK VINA RESULT:     -11.4      1.398      6.988
REMARK SMILES C[C@@H](Oc1ccc(/C=C2\C(=O)[NH+]=C(OCCOCCOCCOC(=O)c3ccc(-c4c5nc(c(-c6c(F)c(F)c(F)c(F)c6F)c6ccc([nH]6)c(-c6c(F)c(F)c(F)c(F)c6F)c6nc(c(-c7c(F)c(F)c(F)c(F)c7F)c7ccc4[nH]7)C=C6)C=C5)cc3)N(c3ccc4c(c3)OCO4)C2=O)cc1)C(=O)[O-]
REMARK SMILES IDX 18 1 17 2 16 3 15 4 14 5 13 6 8 7 9 8 10 9 99 10 11 11 12 12
REMARK SMILES IDX 89 13 100 14 7 16 4 17 5 18 102 19 6 20 101 21 3 22 2 23
REMARK SMILES IDX 1 24 103 25 104 26 105 27 90 28 91 29 95 30 92 31 94 32
REMARK SMILES IDX 93 33 96 34 98 35 97 36 19 37 20 38 21 39 22 40 23 41 24 42
REMARK SMILES IDX 25 43 26 44 27 45 88 46 28 47 87 48 29 49 30 50 31 51 81 52
REMARK SMILES IDX 32 53 86 54 80 55 82 56 33 57 85 58 79 59 78 60 34 62 66 63
REMARK SMILES IDX 46 64 65 65 47 66 50 67 64 68 83 69 48 70 49 71 63 73 84 74
REMARK SMILES IDX 51 75 35 76 36 77 44 78 37 79 38 80 42 81 45 82 39 83 40 84
REMARK SMILES IDX 43 85 41 86 67 87 68 88 76 89 69 90 70 91 74 92 77 93 71 94
REMARK SMILES IDX 72 95 75 96 73 97 52 98 53 99 61 100 54 101 55 102 59 103
REMARK SMILES IDX 62 104 56 105 57 106 60 107 58 108
REMARK H PARENT 12 15 82 61 50 72
REMARK Flexibility Score: inf
ROOT
ATOM      1  C   UNL A   1      35.029  30.342  28.133  1.00  0.00     0.188 C 
ENDROOT
BRANCH   1   2
ATOM      2  O   UNL A   1      33.970  29.518  27.656  1.00  0.00    -0.376 OA
BRANCH   2   3
ATOM      3  C   UNL A   1      33.312  30.051  26.503  1.00  0.00     0.202 C 
BRANCH   3   4
ATOM      4  C   UNL A   1      33.343  29.009  25.382  1.00  0.00     0.266 C 
BRANCH   4   5
ATOM      5  O   UNL A   1      32.067  28.367  25.109  1.00  0.00    -0.428 OA
BRANCH   5   6
ATOM      6  C   UNL A   1      32.066  27.115  24.579  1.00  0.00     0.465 C 
ATOM      7  C   UNL A   1      31.544  23.192  23.834  1.00  0.00     0.032 C 
ATOM      8  C   UNL A   1      31.866  24.504  23.865  1.00  0.00     0.155 C 
ATOM      9  C   UNL A   1      33.118  25.108  24.335  1.00  0.00     0.349 C 
ATOM     10  C   UNL A   1      30.855  25.461  23.336  1.00  0.00     0.357 C 
ATOM     11  O   UNL A   1      34.216  24.604  24.073  1.00  0.00    -0.240 OA
ATOM     12  N   UNL A   1      32.996  26.304  24.971  1.00  0.00    -0.171 N 
ATOM     13  N   UNL A   1      31.065  26.783  23.689  1.00  0.00    -0.123 N 
ATOM     14  O   UNL A   1      29.879  25.062  22.698  1.00  0.00    -0.240 OA
ATOM     15  H   UNL A   1      33.600  26.547  25.710  1.00  0.00     0.319 HD
BRANCH   7  16
ATOM     16  C   UNL A   1      32.214  21.949  24.282  1.00  0.00    -0.024 A 
ATOM     17  C   UNL A   1      33.295  19.426  24.977  1.00  0.00     0.120 A 
ATOM     18  C   UNL A   1      33.308  20.475  25.890  1.00  0.00     0.047 A 
ATOM     19  C   UNL A   1      32.728  19.617  23.725  1.00  0.00     0.047 A 
ATOM     20  C   UNL A   1      32.765  21.722  25.547  1.00  0.00     0.012 A 
ATOM     21  C   UNL A   1      32.210  20.869  23.377  1.00  0.00     0.012 A 
BRANCH  17  22
ATOM     22  O   UNL A   1      33.704  18.196  25.403  1.00  0.00    -0.485 OA
BRANCH  22  23
ATOM     23  C   UNL A   1      33.033  17.104  24.761  1.00  0.00     0.216 C 
ATOM     24  C   UNL A   1      32.321  16.221  25.781  1.00  0.00     0.059 C 
BRANCH  23  25
ATOM     25  C   UNL A   1      34.067  16.244  24.042  1.00  0.00     0.082 C 
ATOM     26  O   UNL A   1      34.793  15.413  24.568  1.00  0.00    -0.546 OA
ATOM     27  O   UNL A   1      34.200  16.515  22.726  1.00  0.00    -0.546 OA
ENDBRANCH  23  25
ENDBRANCH  22  23
ENDBRANCH  17  22
ENDBRANCH   7  16
BRANCH  13  28
ATOM     28  C   UNL A   1      30.111  27.727  23.225  1.00  0.00     0.144 A 
ATOM     29  C   UNL A   1      28.770  27.608  23.664  1.00  0.00     0.056 A 
ATOM     30  C   UNL A   1      30.495  28.777  22.384  1.00  0.00     0.103 A 
ATOM     31  C   UNL A   1      27.806  28.531  23.255  1.00  0.00     0.055 A 
ATOM     32  C   UNL A   1      29.524  29.690  22.030  1.00  0.00     0.170 A 
ATOM     33  C   UNL A   1      28.218  29.567  22.449  1.00  0.00     0.166 A 
ATOM     34  O   UNL A   1      29.719  30.796  21.263  1.00  0.00    -0.453 OA
ATOM     35  O   UNL A   1      27.430  30.574  21.987  1.00  0.00    -0.454 OA
ATOM     36  C   UNL A   1      28.405  31.391  21.306  1.00  0.00     0.468 C 
ENDBRANCH  13  28
ENDBRANCH   5   6
ENDBRANCH   4   5
ENDBRANCH   3   4
ENDBRANCH   2   3
ENDBRANCH   1   2
BRANCH   1  37
ATOM     37  C   UNL A   1      35.077  31.786  27.630  1.00  0.00     0.188 C 
BRANCH  37  38
ATOM     38  O   UNL A   1      34.192  32.717  28.234  1.00  0.00    -0.376 OA
BRANCH  38  39
ATOM     39  C   UNL A   1      34.602  34.086  28.260  1.00  0.00     0.202 C 
BRANCH  39  40
ATOM     40  C   UNL A   1      33.561  35.077  28.785  1.00  0.00     0.261 C 
BRANCH  40  41
ATOM     41  O   UNL A   1      32.910  34.536  29.956  1.00  0.00    -0.460 OA
BRANCH  41  42
ATOM     42  C   UNL A   1      33.086  35.228  31.102  1.00  0.00     0.338 C 
ATOM     43  O   UNL A   1      32.433  36.174  31.510  1.00  0.00    -0.246 OA
BRANCH  42  44
ATOM     44  C   UNL A   1      34.217  34.662  31.853  1.00  0.00     0.060 A 
ATOM     45  C   UNL A   1      35.210  35.517  32.343  1.00  0.00     0.016 A 
ATOM     46  C   UNL A   1      34.366  33.275  31.936  1.00  0.00     0.016 A 
ATOM     47  C   UNL A   1      36.380  34.981  32.886  1.00  0.00     0.010 A 
ATOM     48  C   UNL A   1      35.541  32.742  32.471  1.00  0.00     0.010 A 
ATOM     49  C   UNL A   1      36.569  33.591  32.918  1.00  0.00    -0.014 A 
BRANCH  49  50
ATOM     50  C   UNL A   1      37.874  33.007  33.313  1.00  0.00     0.031 A 
ATOM     51  C   UNL A   1      38.537  32.002  32.415  1.00  0.00     0.074 A 
ATOM     52  C   UNL A   1      38.439  33.328  34.489  1.00  0.00     0.049 A 
ATOM     53  N   UNL A   1      39.612  31.284  32.628  1.00  0.00    -0.248 NA
ATOM     54  C   UNL A   1      37.903  31.766  31.109  1.00  0.00     0.031 C 
ATOM     55  C   UNL A   1      37.893  34.282  35.446  1.00  0.00     0.029 A 
ATOM     56  N   UNL A   1      39.582  32.863  35.092  1.00  0.00    -0.354 N 
ATOM     57  C   UNL A   1      39.771  30.500  31.494  1.00  0.00     0.074 A 
ATOM     58  C   UNL A   1      38.683  30.825  30.596  1.00  0.00     0.031 C 
ATOM     59  C   UNL A   1      38.687  34.325  36.528  1.00  0.00     0.029 A 
ATOM     60  C   UNL A   1      39.777  33.366  36.354  1.00  0.00     0.049 A 
ATOM     61  H   UNL A   1      40.201  32.230  34.661  1.00  0.00     0.167 HD
ATOM     62  C   UNL A   1      40.737  29.589  31.230  1.00  0.00     0.037 A 
ATOM     63  C   UNL A   1      40.704  33.057  37.280  1.00  0.00     0.037 A 
ATOM     64  C   UNL A   1      41.828  29.272  32.113  1.00  0.00     0.049 A 
ATOM     65  C   UNL A   1      41.740  32.009  36.977  1.00  0.00     0.074 A 
ATOM     66  C   UNL A   1      42.889  28.410  31.897  1.00  0.00     0.029 A 
ATOM     67  N   UNL A   1      41.989  29.797  33.384  1.00  0.00    -0.354 N 
ATOM     68  N   UNL A   1      41.909  31.306  35.884  1.00  0.00    -0.248 NA
ATOM     69  C   UNL A   1      42.708  31.704  38.041  1.00  0.00     0.031 C 
ATOM     70  C   UNL A   1      43.676  28.387  33.055  1.00  0.00     0.029 A 
ATOM     71  C   UNL A   1      43.120  29.257  33.976  1.00  0.00     0.049 A 
ATOM     72  H   UNL A   1      41.391  30.457  33.804  1.00  0.00     0.167 HD
ATOM     73  C   UNL A   1      43.004  30.488  36.124  1.00  0.00     0.074 A 
ATOM     74  C   UNL A   1      43.471  30.789  37.460  1.00  0.00     0.031 C 
ATOM     75  C   UNL A   1      43.572  29.568  35.307  1.00  0.00     0.037 A 
BRANCH  62  76
ATOM     76  C   UNL A   1      40.655  28.848  29.932  1.00  0.00     0.064 A 
ATOM     77  C   UNL A   1      39.907  27.669  29.811  1.00  0.00     0.173 A 
ATOM     78  C   UNL A   1      41.279  29.359  28.785  1.00  0.00     0.173 A 
ATOM     79  F   UNL A   1      39.302  27.139  30.885  1.00  0.00    -0.203 F 
ATOM     80  C   UNL A   1      39.791  27.023  28.583  1.00  0.00     0.198 A 
ATOM     81  C   UNL A   1      41.148  28.719  27.557  1.00  0.00     0.198 A 
ATOM     82  F   UNL A   1      42.003  30.486  28.855  1.00  0.00    -0.203 F 
ATOM     83  F   UNL A   1      39.085  25.887  28.489  1.00  0.00    -0.200 F 
ATOM     84  C   UNL A   1      40.405  27.551  27.457  1.00  0.00     0.200 A 
ATOM     85  F   UNL A   1      41.735  29.233  26.467  1.00  0.00    -0.200 F 
ATOM     86  F   UNL A   1      40.282  26.934  26.274  1.00  0.00    -0.200 F 
ENDBRANCH  62  76
BRANCH  63  87
ATOM     87  C   UNL A   1      40.678  33.722  38.606  1.00  0.00     0.064 A 
ATOM     88  C   UNL A   1      41.551  34.777  38.898  1.00  0.00     0.173 A 
ATOM     89  C   UNL A   1      39.801  33.295  39.614  1.00  0.00     0.173 A 
ATOM     90  F   UNL A   1      42.427  35.196  37.973  1.00  0.00    -0.203 F 
ATOM     91  C   UNL A   1      41.560  35.372  40.157  1.00  0.00     0.198 A 
ATOM     92  C   UNL A   1      39.795  33.906  40.865  1.00  0.00     0.198 A 
ATOM     93  F   UNL A   1      38.954  32.281  39.383  1.00  0.00    -0.203 F 
ATOM     94  F   UNL A   1      42.435  36.350  40.427  1.00  0.00    -0.200 F 
ATOM     95  C   UNL A   1      40.679  34.940  41.138  1.00  0.00     0.200 A 
ATOM     96  F   UNL A   1      38.943  33.486  41.810  1.00  0.00    -0.200 F 
ATOM     97  F   UNL A   1      40.692  35.509  42.351  1.00  0.00    -0.200 F 
ENDBRANCH  63  87
BRANCH  75  98
ATOM     98  C   UNL A   1      44.770  28.835  35.826  1.00  0.00     0.064 A 
ATOM     99  C   UNL A   1      46.069  29.325  35.625  1.00  0.00     0.173 A 
ATOM    100  C   UNL A   1      44.618  27.651  36.563  1.00  0.00     0.173 A 
ATOM    101  F   UNL A   1      46.264  30.444  34.912  1.00  0.00    -0.203 F 
ATOM    102  C   UNL A   1      47.173  28.646  36.133  1.00  0.00     0.198 A 
ATOM    103  C   UNL A   1      45.723  26.987  37.085  1.00  0.00     0.198 A 
ATOM    104  F   UNL A   1      43.394  27.146  36.782  1.00  0.00    -0.203 F 
ATOM    105  F   UNL A   1      48.408  29.113  35.903  1.00  0.00    -0.200 F 
ATOM    106  C   UNL A   1      46.999  27.482  36.867  1.00  0.00     0.200 A 
ATOM    107  F   UNL A   1      45.553  25.865  37.799  1.00  0.00    -0.200 F 
ATOM    108  F   UNL A   1      48.065  26.833  37.358  1.00  0.00    -0.200 F 
ENDBRANCH  75  98
ENDBRANCH  49  50
ENDBRANCH  42  44
ENDBRANCH  41  42
ENDBRANCH  40  41
ENDBRANCH  39  40
ENDBRANCH  38  39
ENDBRANCH  37  38
ENDBRANCH   1  37
TORSDOF 21
ENDMDL
MODEL 3
REMARK VINA RESULT:     -11.1      4.113     10.857
REMARK SMILES C[C@@H](Oc1ccc(/C=C2\C(=O)[NH+]=C(OCCOCCOCCOC(=O)c3ccc(-c4c5nc(c(-c6c(F)c(F)c(F)c(F)c6F)c6ccc([nH]6)c(-c6c(F)c(F)c(F)c(F)c6F)c6nc(c(-c7c(F)c(F)c(F)c(F)c7F)c7ccc4[nH]7)C=C6)C=C5)cc3)N(c3ccc4c(c3)OCO4)C2=O)cc1)C(=O)[O-]
REMARK SMILES IDX 18 1 17 2 16 3 15 4 14 5 13 6 8 7 9 8 10 9 99 10 11 11 12 12
REMARK SMILES IDX 89 13 100 14 7 16 4 17 5 18 102 19 6 20 101 21 3 22 2 23
REMARK SMILES IDX 1 24 103 25 104 26 105 27 90 28 91 29 95 30 92 31 94 32
REMARK SMILES IDX 93 33 96 34 98 35 97 36 19 37 20 38 21 39 22 40 23 41 24 42
REMARK SMILES IDX 25 43 26 44 27 45 88 46 28 47 87 48 29 49 30 50 31 51 81 52
REMARK SMILES IDX 32 53 86 54 80 55 82 56 33 57 85 58 79 59 78 60 34 62 66 63
REMARK SMILES IDX 46 64 65 65 47 66 50 67 64 68 83 69 48 70 49 71 63 73 84 74
REMARK SMILES IDX 51 75 35 76 36 77 44 78 37 79 38 80 42 81 45 82 39 83 40 84
REMARK SMILES IDX 43 85 41 86 67 87 68 88 76 89 69 90 70 91 74 92 77 93 71 94
REMARK SMILES IDX 72 95 75 96 73 97 52 98 53 99 61 100 54 101 55 102 59 103
REMARK SMILES IDX 62 104 56 105 57 106 60 107 58 108
REMARK H PARENT 12 15 82 61 50 72
REMARK Flexibility Score: inf
ROOT
ATOM      1  C   UNL A   1      33.224  21.920  27.619  1.00  0.00     0.188 C 
ENDROOT
BRANCH   1   2
ATOM      2  O   UNL A   1      32.205  22.898  27.802  1.00  0.00    -0.376 OA
BRANCH   2   3
ATOM      3  C   UNL A   1      31.891  23.619  26.606  1.00  0.00     0.202 C 
BRANCH   3   4
ATOM      4  C   UNL A   1      31.287  24.975  26.983  1.00  0.00     0.266 C 
BRANCH   4   5
ATOM      5  O   UNL A   1      31.087  25.885  25.867  1.00  0.00    -0.428 OA
BRANCH   5   6
ATOM      6  C   UNL A   1      31.695  27.101  25.899  1.00  0.00     0.465 C 
ATOM      7  C   UNL A   1      34.139  30.227  26.586  1.00  0.00     0.032 C 
ATOM      8  C   UNL A   1      33.173  29.355  26.224  1.00  0.00     0.155 C 
ATOM      9  C   UNL A   1      31.857  29.168  26.845  1.00  0.00     0.349 C 
ATOM     10  C   UNL A   1      33.447  28.495  25.041  1.00  0.00     0.357 C 
ATOM     11  O   UNL A   1      31.175  30.131  27.217  1.00  0.00    -0.240 OA
ATOM     12  N   UNL A   1      31.394  27.890  26.881  1.00  0.00    -0.171 N 
ATOM     13  N   UNL A   1      32.607  27.402  24.907  1.00  0.00    -0.123 N 
ATOM     14  O   UNL A   1      34.403  28.726  24.298  1.00  0.00    -0.240 OA
ATOM     15  H   UNL A   1      30.845  27.572  27.634  1.00  0.00     0.319 HD
BRANCH   7  16
ATOM     16  C   UNL A   1      34.294  31.206  27.688  1.00  0.00    -0.024 A 
ATOM     17  C   UNL A   1      34.550  33.286  29.591  1.00  0.00     0.120 A 
ATOM     18  C   UNL A   1      35.286  32.115  29.724  1.00  0.00     0.047 A 
ATOM     19  C   UNL A   1      33.699  33.440  28.504  1.00  0.00     0.047 A 
ATOM     20  C   UNL A   1      35.165  31.087  28.776  1.00  0.00     0.012 A 
ATOM     21  C   UNL A   1      33.562  32.404  27.575  1.00  0.00     0.012 A 
BRANCH  17  22
ATOM     22  O   UNL A   1      34.806  34.311  30.455  1.00  0.00    -0.485 OA
BRANCH  22  23
ATOM     23  C   UNL A   1      33.699  34.652  31.299  1.00  0.00     0.216 C 
ATOM     24  C   UNL A   1      33.435  36.155  31.277  1.00  0.00     0.059 C 
BRANCH  23  25
ATOM     25  C   UNL A   1      34.034  34.260  32.735  1.00  0.00     0.082 C 
ATOM     26  O   UNL A   1      34.809  34.852  33.473  1.00  0.00    -0.546 OA
ATOM     27  O   UNL A   1      33.454  33.114  33.149  1.00  0.00    -0.546 OA
ENDBRANCH  23  25
ENDBRANCH  22  23
ENDBRANCH  17  22
ENDBRANCH   7  16
BRANCH  13  28
ATOM     28  C   UNL A   1      32.848  26.542  23.804  1.00  0.00     0.144 A 
ATOM     29  C   UNL A   1      33.608  25.367  24.013  1.00  0.00     0.056 A 
ATOM     30  C   UNL A   1      32.310  26.828  22.543  1.00  0.00     0.103 A 
ATOM     31  C   UNL A   1      33.846  24.478  22.963  1.00  0.00     0.055 A 
ATOM     32  C   UNL A   1      32.534  25.910  21.539  1.00  0.00     0.170 A 
ATOM     33  C   UNL A   1      33.283  24.773  21.742  1.00  0.00     0.166 A 
ATOM     34  O   UNL A   1      32.054  25.994  20.270  1.00  0.00    -0.453 OA
ATOM     35  O   UNL A   1      33.376  24.008  20.622  1.00  0.00    -0.454 OA
ATOM     36  C   UNL A   1      32.527  24.746  19.718  1.00  0.00     0.468 C 
ENDBRANCH  13  28
ENDBRANCH   5   6
ENDBRANCH   4   5
ENDBRANCH   3   4
ENDBRANCH   2   3
ENDBRANCH   1   2
BRANCH   1  37
ATOM     37  C   UNL A   1      33.954  21.909  26.275  1.00  0.00     0.188 C 
BRANCH  37  38
ATOM     38  O   UNL A   1      35.292  21.436  26.263  1.00  0.00    -0.376 OA
BRANCH  38  39
ATOM     39  C   UNL A   1      35.948  21.360  24.996  1.00  0.00     0.202 C 
BRANCH  39  40
ATOM     40  C   UNL A   1      37.352  20.750  25.013  1.00  0.00     0.261 C 
BRANCH  40  41
ATOM     41  O   UNL A   1      38.339  21.791  25.189  1.00  0.00    -0.460 OA
BRANCH  41  42
ATOM     42  C   UNL A   1      39.272  21.564  26.137  1.00  0.00     0.338 C 
ATOM     43  O   UNL A   1      39.740  20.492  26.483  1.00  0.00    -0.246 OA
BRANCH  42  44
ATOM     44  C   UNL A   1      39.695  22.842  26.731  1.00  0.00     0.060 A 
ATOM     45  C   UNL A   1      39.222  24.040  26.185  1.00  0.00     0.016 A 
ATOM     46  C   UNL A   1      40.676  22.850  27.727  1.00  0.00     0.016 A 
ATOM     47  C   UNL A   1      39.762  25.256  26.612  1.00  0.00     0.010 A 
ATOM     48  C   UNL A   1      41.220  24.066  28.145  1.00  0.00     0.010 A 
ATOM     49  C   UNL A   1      40.791  25.274  27.566  1.00  0.00    -0.014 A 
BRANCH  49  50
ATOM     50  C   UNL A   1      41.507  26.531  27.893  1.00  0.00     0.031 A 
ATOM     51  C   UNL A   1      42.906  26.740  27.385  1.00  0.00     0.074 A 
ATOM     52  C   UNL A   1      40.938  27.457  28.683  1.00  0.00     0.049 A 
ATOM     53  N   UNL A   1      43.748  27.706  27.654  1.00  0.00    -0.248 NA
ATOM     54  C   UNL A   1      43.428  25.724  26.459  1.00  0.00     0.031 C 
ATOM     55  C   UNL A   1      39.594  27.368  29.241  1.00  0.00     0.029 A 
ATOM     56  N   UNL A   1      41.430  28.640  29.177  1.00  0.00    -0.354 N 
ATOM     57  C   UNL A   1      44.904  27.405  26.949  1.00  0.00     0.074 A 
ATOM     58  C   UNL A   1      44.659  26.166  26.240  1.00  0.00     0.031 C 
ATOM     59  C   UNL A   1      39.367  28.440  30.017  1.00  0.00     0.029 A 
ATOM     60  C   UNL A   1      40.570  29.269  30.042  1.00  0.00     0.049 A 
ATOM     61  H   UNL A   1      42.313  29.001  28.935  1.00  0.00     0.167 HD
ATOM     62  C   UNL A   1      46.065  28.099  26.899  1.00  0.00     0.037 A 
ATOM     63  C   UNL A   1      40.749  30.367  30.801  1.00  0.00     0.037 A 
ATOM     64  C   UNL A   1      46.309  29.337  27.590  1.00  0.00     0.049 A 
ATOM     65  C   UNL A   1      42.065  31.095  30.760  1.00  0.00     0.074 A 
ATOM     66  C   UNL A   1      47.434  30.143  27.544  1.00  0.00     0.029 A 
ATOM     67  N   UNL A   1      45.418  29.942  28.460  1.00  0.00    -0.354 N 
ATOM     68  N   UNL A   1      43.136  30.828  30.055  1.00  0.00    -0.248 NA
ATOM     69  C   UNL A   1      42.201  32.272  31.632  1.00  0.00     0.031 C 
ATOM     70  C   UNL A   1      47.236  31.220  28.415  1.00  0.00     0.029 A 
ATOM     71  C   UNL A   1      45.977  31.098  28.979  1.00  0.00     0.049 A 
ATOM     72  H   UNL A   1      44.520  29.601  28.677  1.00  0.00     0.167 HD
ATOM     73  C   UNL A   1      44.064  31.805  30.385  1.00  0.00     0.074 A 
ATOM     74  C   UNL A   1      43.428  32.682  31.345  1.00  0.00     0.031 C 
ATOM     75  C   UNL A   1      45.332  31.961  29.933  1.00  0.00     0.037 A 
BRANCH  62  76
ATOM     76  C   UNL A   1      47.180  27.529  26.079  1.00  0.00     0.064 A 
ATOM     77  C   UNL A   1      47.311  27.829  24.716  1.00  0.00     0.173 A 
ATOM     78  C   UNL A   1      48.161  26.727  26.679  1.00  0.00     0.173 A 
ATOM     79  F   UNL A   1      46.390  28.585  24.099  1.00  0.00    -0.203 F 
ATOM     80  C   UNL A   1      48.386  27.340  23.980  1.00  0.00     0.198 A 
ATOM     81  C   UNL A   1      49.242  26.253  25.943  1.00  0.00     0.198 A 
ATOM     82  F   UNL A   1      48.076  26.416  27.981  1.00  0.00    -0.203 F 
ATOM     83  F   UNL A   1      48.486  27.624  22.673  1.00  0.00    -0.200 F 
ATOM     84  C   UNL A   1      49.354  26.559  24.594  1.00  0.00     0.200 A 
ATOM     85  F   UNL A   1      50.180  25.504  26.539  1.00  0.00    -0.200 F 
ATOM     86  F   UNL A   1      50.394  26.098  23.887  1.00  0.00    -0.200 F 
ENDBRANCH  62  76
BRANCH  63  87
ATOM     87  C   UNL A   1      39.664  30.832  31.700  1.00  0.00     0.064 A 
ATOM     88  C   UNL A   1      38.837  31.902  31.335  1.00  0.00     0.173 A 
ATOM     89  C   UNL A   1      39.454  30.235  32.951  1.00  0.00     0.173 A 
ATOM     90  F   UNL A   1      39.024  32.521  30.161  1.00  0.00    -0.203 F 
ATOM     91  C   UNL A   1      37.848  32.369  32.197  1.00  0.00     0.198 A 
ATOM     92  C   UNL A   1      38.450  30.688  33.803  1.00  0.00     0.198 A 
ATOM     93  F   UNL A   1      40.228  29.214  33.347  1.00  0.00    -0.203 F 
ATOM     94  F   UNL A   1      37.099  33.423  31.845  1.00  0.00    -0.200 F 
ATOM     95  C   UNL A   1      37.651  31.759  33.428  1.00  0.00     0.200 A 
ATOM     96  F   UNL A   1      38.262  30.098  34.991  1.00  0.00    -0.200 F 
ATOM     97  F   UNL A   1      36.704  32.214  34.259  1.00  0.00    -0.200 F 
ENDBRANCH  63  87
BRANCH  75  98
ATOM     98  C   UNL A   1      46.108  33.131  30.455  1.00  0.00     0.064 A 
ATOM     99  C   UNL A   1      46.934  33.014  31.582  1.00  0.00     0.173 A 
ATOM    100  C   UNL A   1      46.055  34.370  29.800  1.00  0.00     0.173 A 
ATOM    101  F   UNL A   1      47.002  31.852  32.249  1.00  0.00    -0.203 F 
ATOM    102  C   UNL A   1      47.668  34.102  32.044  1.00  0.00     0.198 A 
ATOM    103  C   UNL A   1      46.806  35.450  30.253  1.00  0.00     0.198 A 
ATOM    104  F   UNL A   1      45.280  34.528  28.716  1.00  0.00    -0.203 F 
ATOM    105  F   UNL A   1      48.427  33.980  33.142  1.00  0.00    -0.200 F 
ATOM    106  C   UNL A   1      47.608  35.317  31.376  1.00  0.00     0.200 A 
ATOM    107  F   UNL A   1      46.752  36.622  29.605  1.00  0.00    -0.200 F 
ATOM    108  F   UNL A   1      48.320  36.363  31.821  1.00  0.00    -0.200 F 
ENDBRANCH  75  98
ENDBRANCH  49  50
ENDBRANCH  42  44
ENDBRANCH  41  42
ENDBRANCH  40  41
ENDBRANCH  39  40
ENDBRANCH  38  39
ENDBRANCH  37  38
ENDBRANCH   1  37
TORSDOF 21
ENDMDL
