MODEL 1
REMARK VINA RESULT:     -11.1      0.000      0.000
REMARK SMILES O=C(CC1(CC(=O)OCCOCCOCCOC(=O)c2ccc(-c3c4nc(c(-c5c(F)c(F)c(F)c(F)c5F)c5ccc([nH]5)c(-c5c(F)c(F)c(F)c(F)c5F)c5nc(c(-c6c(F)c(F)c(F)c(F)c6F)c6ccc3[nH]6)C=C5)C=C4)cc2)CCCCC1)Nc1ccc2ccccc2n1
REMARK SMILES IDX 12 1 11 2 10 3 9 4 8 5 6 6 7 7 5 8 4 9 83 10 87 11 84 12
REMARK SMILES IDX 86 13 85 14 3 15 2 16 1 17 88 18 89 20 90 21 98 22 91 23
REMARK SMILES IDX 97 24 92 25 96 26 93 27 95 28 94 29 13 30 14 31 15 32 16 33
REMARK SMILES IDX 17 34 18 35 19 36 20 37 21 38 82 39 22 40 81 41 23 42 24 43
REMARK SMILES IDX 25 44 75 45 26 46 80 47 74 48 76 49 27 50 79 51 73 52 72 53
REMARK SMILES IDX 28 55 60 56 40 57 59 58 41 59 44 60 58 61 77 62 42 63 43 64
REMARK SMILES IDX 57 66 78 67 45 68 29 69 30 70 38 71 31 72 32 73 36 74 39 75
REMARK SMILES IDX 33 76 34 77 37 78 35 79 61 80 62 81 70 82 63 83 64 84 68 85
REMARK SMILES IDX 71 86 65 87 66 88 69 89 67 90 46 91 47 92 55 93 48 94 49 95
REMARK SMILES IDX 53 96 56 97 50 98 51 99 54 100 52 101
REMARK H PARENT 88 19 76 54 44 65
REMARK Flexibility Score: inf
ROOT
ATOM      1  C   UNL A   1      36.379  23.416  24.793  1.00  0.00     0.188 C 
ENDROOT
BRANCH   1   2
ATOM      2  O   UNL A   1      35.054  23.713  24.362  1.00  0.00    -0.376 OA
BRANCH   2   3
ATOM      3  C   UNL A   1      34.616  23.067  23.164  1.00  0.00     0.202 C 
BRANCH   3   4
ATOM      4  C   UNL A   1      33.776  23.924  22.200  1.00  0.00     0.261 C 
BRANCH   4   5
ATOM      5  O   UNL A   1      32.438  24.194  22.677  1.00  0.00    -0.463 OA
BRANCH   5   6
ATOM      6  C   UNL A   1      32.084  25.505  22.699  1.00  0.00     0.306 C 
ATOM      7  O   UNL A   1      31.408  26.058  21.838  1.00  0.00    -0.252 OA
BRANCH   6   8
ATOM      8  C   UNL A   1      32.470  26.208  23.988  1.00  0.00     0.130 C 
BRANCH   8   9
ATOM      9  C   UNL A   1      31.422  26.493  25.118  1.00  0.00    -0.010 C 
ATOM     10  C   UNL A   1      30.546  27.705  24.668  1.00  0.00     0.008 C 
ATOM     11  C   UNL A   1      32.049  26.823  26.493  1.00  0.00     0.008 C 
ATOM     12  C   UNL A   1      31.275  29.048  24.718  1.00  0.00     0.001 C 
ATOM     13  C   UNL A   1      32.785  28.157  26.524  1.00  0.00     0.001 C 
ATOM     14  C   UNL A   1      31.872  29.299  26.097  1.00  0.00     0.000 C 
BRANCH   9  15
ATOM     15  C   UNL A   1      30.539  25.226  25.289  1.00  0.00     0.108 C 
BRANCH  15  16
ATOM     16  C   UNL A   1      31.144  24.087  26.099  1.00  0.00     0.226 C 
ATOM     17  O   UNL A   1      30.666  23.832  27.204  1.00  0.00    -0.275 OA
ATOM     18  N   UNL A   1      32.121  23.363  25.426  1.00  0.00    -0.311 N 
ATOM     19  H   UNL A   1      32.697  23.784  24.749  1.00  0.00     0.171 HD
BRANCH  18  20
ATOM     20  C   UNL A   1      32.251  21.998  25.756  1.00  0.00     0.133 A 
ATOM     21  C   UNL A   1      33.314  21.740  26.603  1.00  0.00     0.048 A 
ATOM     22  N   UNL A   1      31.717  21.064  24.948  1.00  0.00    -0.231 NA
ATOM     23  C   UNL A   1      34.119  20.660  26.274  1.00  0.00     0.014 A 
ATOM     24  C   UNL A   1      32.452  19.972  24.691  1.00  0.00     0.073 A 
ATOM     25  C   UNL A   1      33.738  19.805  25.237  1.00  0.00     0.000 A 
ATOM     26  C   UNL A   1      31.995  19.013  23.798  1.00  0.00     0.029 A 
ATOM     27  C   UNL A   1      34.607  18.835  24.717  1.00  0.00     0.010 A 
ATOM     28  C   UNL A   1      32.833  17.999  23.326  1.00  0.00     0.002 A 
ATOM     29  C   UNL A   1      34.161  17.949  23.741  1.00  0.00     0.001 A 
ENDBRANCH  18  20
ENDBRANCH  15  16
ENDBRANCH   9  15
ENDBRANCH   8   9
ENDBRANCH   6   8
ENDBRANCH   5   6
ENDBRANCH   4   5
ENDBRANCH   3   4
ENDBRANCH   2   3
ENDBRANCH   1   2
BRANCH   1  30
ATOM     30  C   UNL A   1      36.984  22.116  24.248  1.00  0.00     0.188 C 
BRANCH  30  31
ATOM     31  O   UNL A   1      37.749  21.399  25.207  1.00  0.00    -0.376 OA
BRANCH  31  32
ATOM     32  C   UNL A   1      38.095  20.044  24.935  1.00  0.00     0.202 C 
BRANCH  32  33
ATOM     33  C   UNL A   1      39.337  19.456  25.627  1.00  0.00     0.261 C 
BRANCH  33  34
ATOM     34  O   UNL A   1      39.743  20.143  26.827  1.00  0.00    -0.460 OA
BRANCH  34  35
ATOM     35  C   UNL A   1      41.071  20.311  27.019  1.00  0.00     0.338 C 
ATOM     36  O   UNL A   1      41.936  19.485  26.790  1.00  0.00    -0.246 OA
BRANCH  35  37
ATOM     37  C   UNL A   1      41.338  21.741  27.305  1.00  0.00     0.060 A 
ATOM     38  C   UNL A   1      40.736  22.708  26.487  1.00  0.00     0.016 A 
ATOM     39  C   UNL A   1      42.091  22.137  28.415  1.00  0.00     0.016 A 
ATOM     40  C   UNL A   1      40.892  24.065  26.771  1.00  0.00     0.010 A 
ATOM     41  C   UNL A   1      42.258  23.495  28.692  1.00  0.00     0.010 A 
ATOM     42  C   UNL A   1      41.679  24.465  27.858  1.00  0.00    -0.014 A 
BRANCH  42  43
ATOM     43  C   UNL A   1      42.068  25.888  28.002  1.00  0.00     0.031 A 
ATOM     44  C   UNL A   1      43.387  26.320  27.428  1.00  0.00     0.074 A 
ATOM     45  C   UNL A   1      41.271  26.783  28.611  1.00  0.00     0.049 A 
ATOM     46  N   UNL A   1      43.970  27.490  27.465  1.00  0.00    -0.248 NA
ATOM     47  C   UNL A   1      44.154  25.284  26.717  1.00  0.00     0.031 C 
ATOM     48  C   UNL A   1      39.952  26.501  29.172  1.00  0.00     0.029 A 
ATOM     49  N   UNL A   1      41.467  28.119  28.862  1.00  0.00    -0.354 N 
ATOM     50  C   UNL A   1      45.171  27.329  26.787  1.00  0.00     0.074 A 
ATOM     51  C   UNL A   1      45.251  25.944  26.380  1.00  0.00     0.031 C 
ATOM     52  C   UNL A   1      39.459  27.632  29.708  1.00  0.00     0.029 A 
ATOM     53  C   UNL A   1      40.440  28.706  29.556  1.00  0.00     0.049 A 
ATOM     54  H   UNL A   1      42.269  28.609  28.570  1.00  0.00     0.167 HD
ATOM     55  C   UNL A   1      46.118  28.257  26.517  1.00  0.00     0.037 A 
ATOM     56  C   UNL A   1      40.318  29.962  30.030  1.00  0.00     0.037 A 
ATOM     57  C   UNL A   1      46.041  29.635  26.920  1.00  0.00     0.049 A 
ATOM     58  C   UNL A   1      41.423  30.960  29.783  1.00  0.00     0.074 A 
ATOM     59  C   UNL A   1      46.944  30.655  26.681  1.00  0.00     0.029 A 
ATOM     60  N   UNL A   1      45.002  30.184  27.656  1.00  0.00    -0.354 N 
ATOM     61  N   UNL A   1      42.546  30.810  29.124  1.00  0.00    -0.248 NA
ATOM     62  C   UNL A   1      41.241  32.306  30.349  1.00  0.00     0.031 C 
ATOM     63  C   UNL A   1      46.479  31.809  27.319  1.00  0.00     0.029 A 
ATOM     64  C   UNL A   1      45.256  31.523  27.907  1.00  0.00     0.049 A 
ATOM     65  H   UNL A   1      44.201  29.695  27.956  1.00  0.00     0.167 HD
ATOM     66  C   UNL A   1      43.188  32.042  29.171  1.00  0.00     0.074 A 
ATOM     67  C   UNL A   1      42.324  32.935  29.915  1.00  0.00     0.031 C 
ATOM     68  C   UNL A   1      44.384  32.403  28.643  1.00  0.00     0.037 A 
BRANCH  55  69
ATOM     69  C   UNL A   1      47.339  27.795  25.780  1.00  0.00     0.064 A 
ATOM     70  C   UNL A   1      47.380  27.737  24.379  1.00  0.00     0.173 A 
ATOM     71  C   UNL A   1      48.487  27.410  26.488  1.00  0.00     0.173 A 
ATOM     72  F   UNL A   1      46.300  28.072  23.657  1.00  0.00    -0.203 F 
ATOM     73  C   UNL A   1      48.516  27.282  23.715  1.00  0.00     0.198 A 
ATOM     74  C   UNL A   1      49.632  26.984  25.820  1.00  0.00     0.198 A 
ATOM     75  F   UNL A   1      48.498  27.443  27.829  1.00  0.00    -0.203 F 
ATOM     76  F   UNL A   1      48.512  27.179  22.379  1.00  0.00    -0.200 F 
ATOM     77  C   UNL A   1      49.642  26.913  24.435  1.00  0.00     0.200 A 
ATOM     78  F   UNL A   1      50.721  26.636  26.517  1.00  0.00    -0.200 F 
ATOM     79  F   UNL A   1      50.734  26.475  23.794  1.00  0.00    -0.200 F 
ENDBRANCH  55  69
BRANCH  56  80
ATOM     80  C   UNL A   1      39.110  30.351  30.804  1.00  0.00     0.064 A 
ATOM     81  C   UNL A   1      37.999  30.932  30.175  1.00  0.00     0.173 A 
ATOM     82  C   UNL A   1      39.053  30.176  32.194  1.00  0.00     0.173 A 
ATOM     83  F   UNL A   1      38.018  31.151  28.852  1.00  0.00    -0.203 F 
ATOM     84  C   UNL A   1      36.885  31.337  30.909  1.00  0.00     0.198 A 
ATOM     85  C   UNL A   1      37.928  30.555  32.924  1.00  0.00     0.198 A 
ATOM     86  F   UNL A   1      40.092  29.633  32.845  1.00  0.00    -0.203 F 
ATOM     87  F   UNL A   1      35.859  31.935  30.290  1.00  0.00    -0.200 F 
ATOM     88  C   UNL A   1      36.848  31.142  32.282  1.00  0.00     0.200 A 
ATOM     89  F   UNL A   1      37.894  30.358  34.249  1.00  0.00    -0.200 F 
ATOM     90  F   UNL A   1      35.777  31.530  32.987  1.00  0.00    -0.200 F 
ENDBRANCH  56  80
BRANCH  68  91
ATOM     91  C   UNL A   1      44.821  33.830  28.817  1.00  0.00     0.064 A 
ATOM     92  C   UNL A   1      44.456  34.830  27.904  1.00  0.00     0.173 A 
ATOM     93  C   UNL A   1      45.567  34.211  29.943  1.00  0.00     0.173 A 
ATOM     94  F   UNL A   1      43.753  34.517  26.805  1.00  0.00    -0.203 F 
ATOM     95  C   UNL A   1      44.843  36.154  28.100  1.00  0.00     0.198 A 
ATOM     96  C   UNL A   1      45.926  35.540  30.152  1.00  0.00     0.198 A 
ATOM     97  F   UNL A   1      45.933  33.296  30.853  1.00  0.00    -0.203 F 
ATOM     98  F   UNL A   1      44.520  37.084  27.191  1.00  0.00    -0.200 F 
ATOM     99  C   UNL A   1      45.569  36.509  29.226  1.00  0.00     0.200 A 
ATOM    100  F   UNL A   1      46.612  35.884  31.249  1.00  0.00    -0.200 F 
ATOM    101  F   UNL A   1      45.930  37.786  29.418  1.00  0.00    -0.200 F 
ENDBRANCH  68  91
ENDBRANCH  42  43
ENDBRANCH  35  37
ENDBRANCH  34  35
ENDBRANCH  33  34
ENDBRANCH  32  33
ENDBRANCH  31  32
ENDBRANCH  30  31
ENDBRANCH   1  30
TORSDOF 21
ENDMDL
MODEL 2
REMARK VINA RESULT:     -11.1      5.389     10.828
REMARK SMILES O=C(CC1(CC(=O)OCCOCCOCCOC(=O)c2ccc(-c3c4nc(c(-c5c(F)c(F)c(F)c(F)c5F)c5ccc([nH]5)c(-c5c(F)c(F)c(F)c(F)c5F)c5nc(c(-c6c(F)c(F)c(F)c(F)c6F)c6ccc3[nH]6)C=C5)C=C4)cc2)CCCCC1)Nc1ccc2ccccc2n1
REMARK SMILES IDX 12 1 11 2 10 3 9 4 8 5 6 6 7 7 5 8 4 9 83 10 87 11 84 12
REMARK SMILES IDX 86 13 85 14 3 15 2 16 1 17 88 18 89 20 90 21 98 22 91 23
REMARK SMILES IDX 97 24 92 25 96 26 93 27 95 28 94 29 13 30 14 31 15 32 16 33
REMARK SMILES IDX 17 34 18 35 19 36 20 37 21 38 82 39 22 40 81 41 23 42 24 43
REMARK SMILES IDX 25 44 75 45 26 46 80 47 74 48 76 49 27 50 79 51 73 52 72 53
REMARK SMILES IDX 28 55 60 56 40 57 59 58 41 59 44 60 58 61 77 62 42 63 43 64
REMARK SMILES IDX 57 66 78 67 45 68 29 69 30 70 38 71 31 72 32 73 36 74 39 75
REMARK SMILES IDX 33 76 34 77 37 78 35 79 61 80 62 81 70 82 63 83 64 84 68 85
REMARK SMILES IDX 71 86 65 87 66 88 69 89 67 90 46 91 47 92 55 93 48 94 49 95
REMARK SMILES IDX 53 96 56 97 50 98 51 99 54 100 52 101
REMARK H PARENT 88 19 76 54 44 65
REMARK Flexibility Score: inf
ROOT
ATOM      1  C   UNL A   1      34.369  32.356  28.743  1.00  0.00     0.188 C 
ENDROOT
BRANCH   1   2
ATOM      2  O   UNL A   1      34.015  31.726  27.516  1.00  0.00    -0.376 OA
BRANCH   2   3
ATOM      3  C   UNL A   1      34.321  30.334  27.404  1.00  0.00     0.202 C 
BRANCH   3   4
ATOM      4  C   UNL A   1      33.515  29.544  26.357  1.00  0.00     0.261 C 
BRANCH   4   5
ATOM      5  O   UNL A   1      33.574  28.111  26.539  1.00  0.00    -0.463 OA
BRANCH   5   6
ATOM      6  C   UNL A   1      32.628  27.402  25.870  1.00  0.00     0.306 C 
ATOM      7  O   UNL A   1      32.418  26.204  26.022  1.00  0.00    -0.252 OA
BRANCH   6   8
ATOM      8  C   UNL A   1      31.725  28.270  25.012  1.00  0.00     0.130 C 
BRANCH   8   9
ATOM      9  C   UNL A   1      31.534  27.999  23.480  1.00  0.00    -0.010 C 
ATOM     10  C   UNL A   1      31.059  29.329  22.812  1.00  0.00     0.008 C 
ATOM     11  C   UNL A   1      30.503  26.892  23.158  1.00  0.00     0.008 C 
ATOM     12  C   UNL A   1      29.615  29.705  23.138  1.00  0.00     0.001 C 
ATOM     13  C   UNL A   1      29.068  27.274  23.502  1.00  0.00     0.001 C 
ATOM     14  C   UNL A   1      28.661  28.565  22.803  1.00  0.00     0.000 C 
BRANCH   9  15
ATOM     15  C   UNL A   1      32.904  27.561  22.892  1.00  0.00     0.108 C 
BRANCH  15  16
ATOM     16  C   UNL A   1      32.957  26.171  22.271  1.00  0.00     0.226 C 
ATOM     17  O   UNL A   1      33.283  26.067  21.090  1.00  0.00    -0.275 OA
ATOM     18  N   UNL A   1      32.743  25.135  23.171  1.00  0.00    -0.311 N 
ATOM     19  H   UNL A   1      32.164  25.251  23.958  1.00  0.00     0.171 HD
BRANCH  18  20
ATOM     20  C   UNL A   1      33.390  23.911  22.908  1.00  0.00     0.133 A 
ATOM     21  C   UNL A   1      32.577  22.809  23.110  1.00  0.00     0.048 A 
ATOM     22  N   UNL A   1      34.733  23.845  22.949  1.00  0.00    -0.231 NA
ATOM     23  C   UNL A   1      33.133  21.750  23.812  1.00  0.00     0.014 A 
ATOM     24  C   UNL A   1      35.285  22.781  23.552  1.00  0.00     0.073 A 
ATOM     25  C   UNL A   1      34.494  21.770  24.128  1.00  0.00     0.000 A 
ATOM     26  C   UNL A   1      36.662  22.696  23.704  1.00  0.00     0.029 A 
ATOM     27  C   UNL A   1      35.063  20.846  25.017  1.00  0.00     0.010 A 
ATOM     28  C   UNL A   1      37.245  21.734  24.534  1.00  0.00     0.002 A 
ATOM     29  C   UNL A   1      36.437  20.847  25.239  1.00  0.00     0.001 A 
ENDBRANCH  18  20
ENDBRANCH  15  16
ENDBRANCH   9  15
ENDBRANCH   8   9
ENDBRANCH   6   8
ENDBRANCH   5   6
ENDBRANCH   4   5
ENDBRANCH   3   4
ENDBRANCH   2   3
ENDBRANCH   1   2
BRANCH   1  30
ATOM     30  C   UNL A   1      35.240  33.612  28.624  1.00  0.00     0.188 C 
BRANCH  30  31
ATOM     31  O   UNL A   1      34.672  34.760  29.241  1.00  0.00    -0.376 OA
BRANCH  31  32
ATOM     32  C   UNL A   1      33.255  34.913  29.231  1.00  0.00     0.202 C 
BRANCH  32  33
ATOM     33  C   UNL A   1      32.644  36.078  30.028  1.00  0.00     0.261 C 
BRANCH  33  34
ATOM     34  O   UNL A   1      32.030  35.702  31.277  1.00  0.00    -0.460 OA
BRANCH  34  35
ATOM     35  C   UNL A   1      32.663  36.080  32.410  1.00  0.00     0.338 C 
ATOM     36  O   UNL A   1      32.212  36.822  33.266  1.00  0.00    -0.246 OA
BRANCH  35  37
ATOM     37  C   UNL A   1      33.880  35.252  32.581  1.00  0.00     0.060 A 
ATOM     38  C   UNL A   1      33.724  33.882  32.837  1.00  0.00     0.016 A 
ATOM     39  C   UNL A   1      35.160  35.787  32.400  1.00  0.00     0.016 A 
ATOM     40  C   UNL A   1      34.841  33.050  32.921  1.00  0.00     0.010 A 
ATOM     41  C   UNL A   1      36.279  34.958  32.497  1.00  0.00     0.010 A 
ATOM     42  C   UNL A   1      36.126  33.591  32.781  1.00  0.00    -0.014 A 
BRANCH  42  43
ATOM     43  C   UNL A   1      37.311  32.775  33.135  1.00  0.00     0.031 A 
ATOM     44  C   UNL A   1      37.997  33.058  34.441  1.00  0.00     0.074 A 
ATOM     45  C   UNL A   1      37.765  31.797  32.332  1.00  0.00     0.049 A 
ATOM     46  N   UNL A   1      39.072  32.518  34.953  1.00  0.00    -0.248 NA
ATOM     47  C   UNL A   1      37.382  34.097  35.283  1.00  0.00     0.031 C 
ATOM     48  C   UNL A   1      37.167  31.397  31.061  1.00  0.00     0.029 A 
ATOM     49  N   UNL A   1      38.848  30.964  32.474  1.00  0.00    -0.354 N 
ATOM     50  C   UNL A   1      39.264  33.153  36.172  1.00  0.00     0.074 A 
ATOM     51  C   UNL A   1      38.218  34.142  36.309  1.00  0.00     0.031 C 
ATOM     52  C   UNL A   1      37.895  30.397  30.535  1.00  0.00     0.029 A 
ATOM     53  C   UNL A   1      39.028  30.110  31.415  1.00  0.00     0.049 A 
ATOM     54  H   UNL A   1      39.438  30.978  33.261  1.00  0.00     0.167 HD
ATOM     55  C   UNL A   1      40.222  32.926  37.100  1.00  0.00     0.037 A 
ATOM     56  C   UNL A   1      40.007  29.213  31.179  1.00  0.00     0.037 A 
ATOM     57  C   UNL A   1      41.263  31.943  36.967  1.00  0.00     0.049 A 
ATOM     58  C   UNL A   1      41.108  29.031  32.195  1.00  0.00     0.074 A 
ATOM     59  C   UNL A   1      42.271  31.628  37.861  1.00  0.00     0.029 A 
ATOM     60  N   UNL A   1      41.436  31.122  35.863  1.00  0.00    -0.354 N 
ATOM     61  N   UNL A   1      41.274  29.619  33.355  1.00  0.00    -0.248 NA
ATOM     62  C   UNL A   1      42.161  28.058  31.866  1.00  0.00     0.031 C 
ATOM     63  C   UNL A   1      43.086  30.655  37.275  1.00  0.00     0.029 A 
ATOM     64  C   UNL A   1      42.553  30.321  36.040  1.00  0.00     0.049 A 
ATOM     65  H   UNL A   1      40.851  31.110  35.071  1.00  0.00     0.167 HD
ATOM     66  C   UNL A   1      42.427  29.069  33.904  1.00  0.00     0.074 A 
ATOM     67  C   UNL A   1      42.916  28.091  32.955  1.00  0.00     0.031 C 
ATOM     68  C   UNL A   1      43.025  29.347  35.089  1.00  0.00     0.037 A 
BRANCH  55  69
ATOM     69  C   UNL A   1      40.203  33.786  38.328  1.00  0.00     0.064 A 
ATOM     70  C   UNL A   1      40.971  34.957  38.423  1.00  0.00     0.173 A 
ATOM     71  C   UNL A   1      39.399  33.437  39.423  1.00  0.00     0.173 A 
ATOM     72  F   UNL A   1      41.774  35.322  37.413  1.00  0.00    -0.203 F 
ATOM     73  C   UNL A   1      40.957  35.729  39.581  1.00  0.00     0.198 A 
ATOM     74  C   UNL A   1      39.364  34.227  40.568  1.00  0.00     0.198 A 
ATOM     75  F   UNL A   1      38.649  32.325  39.384  1.00  0.00    -0.203 F 
ATOM     76  F   UNL A   1      41.744  36.810  39.673  1.00  0.00    -0.200 F 
ATOM     77  C   UNL A   1      40.149  35.368  40.650  1.00  0.00     0.200 A 
ATOM     78  F   UNL A   1      38.577  33.881  41.595  1.00  0.00    -0.200 F 
ATOM     79  F   UNL A   1      40.138  36.112  41.764  1.00  0.00    -0.200 F 
ENDBRANCH  55  69
BRANCH  56  80
ATOM     80  C   UNL A   1      40.007  28.427  29.918  1.00  0.00     0.064 A 
ATOM     81  C   UNL A   1      39.385  27.171  29.844  1.00  0.00     0.173 A 
ATOM     82  C   UNL A   1      40.654  28.901  28.768  1.00  0.00     0.173 A 
ATOM     83  F   UNL A   1      38.782  26.660  30.927  1.00  0.00    -0.203 F 
ATOM     84  C   UNL A   1      39.424  26.416  28.674  1.00  0.00     0.198 A 
ATOM     85  C   UNL A   1      40.669  28.158  27.589  1.00  0.00     0.198 A 
ATOM     86  F   UNL A   1      41.271  30.092  28.788  1.00  0.00    -0.203 F 
ATOM     87  F   UNL A   1      38.866  25.199  28.645  1.00  0.00    -0.200 F 
ATOM     88  C   UNL A   1      40.060  26.913  27.545  1.00  0.00     0.200 A 
ATOM     89  F   UNL A   1      41.278  28.645  26.500  1.00  0.00    -0.200 F 
ATOM     90  F   UNL A   1      40.098  26.186  26.420  1.00  0.00    -0.200 F 
ENDBRANCH  56  80
BRANCH  68  91
ATOM     91  C   UNL A   1      44.256  28.564  35.449  1.00  0.00     0.064 A 
ATOM     92  C   UNL A   1      45.533  28.963  35.028  1.00  0.00     0.173 A 
ATOM     93  C   UNL A   1      44.161  27.431  36.271  1.00  0.00     0.173 A 
ATOM     94  F   UNL A   1      45.679  30.031  34.231  1.00  0.00    -0.203 F 
ATOM     95  C   UNL A   1      46.666  28.241  35.399  1.00  0.00     0.198 A 
ATOM     96  C   UNL A   1      45.298  26.730  36.665  1.00  0.00     0.198 A 
ATOM     97  F   UNL A   1      42.964  27.013  36.710  1.00  0.00    -0.203 F 
ATOM     98  F   UNL A   1      47.872  28.615  34.949  1.00  0.00    -0.200 F 
ATOM     99  C   UNL A   1      46.549  27.133  36.224  1.00  0.00     0.200 A 
ATOM    100  F   UNL A   1      45.183  25.670  37.476  1.00  0.00    -0.200 F 
ATOM    101  F   UNL A   1      47.642  26.448  36.588  1.00  0.00    -0.200 F 
ENDBRANCH  68  91
ENDBRANCH  42  43
ENDBRANCH  35  37
ENDBRANCH  34  35
ENDBRANCH  33  34
ENDBRANCH  32  33
ENDBRANCH  31  32
ENDBRANCH  30  31
ENDBRANCH   1  30
TORSDOF 21
ENDMDL
MODEL 3
REMARK VINA RESULT:     -11.1      2.089      4.998
REMARK SMILES O=C(CC1(CC(=O)OCCOCCOCCOC(=O)c2ccc(-c3c4nc(c(-c5c(F)c(F)c(F)c(F)c5F)c5ccc([nH]5)c(-c5c(F)c(F)c(F)c(F)c5F)c5nc(c(-c6c(F)c(F)c(F)c(F)c6F)c6ccc3[nH]6)C=C5)C=C4)cc2)CCCCC1)Nc1ccc2ccccc2n1
REMARK SMILES IDX 12 1 11 2 10 3 9 4 8 5 6 6 7 7 5 8 4 9 83 10 87 11 84 12
REMARK SMILES IDX 86 13 85 14 3 15 2 16 1 17 88 18 89 20 90 21 98 22 91 23
REMARK SMILES IDX 97 24 92 25 96 26 93 27 95 28 94 29 13 30 14 31 15 32 16 33
REMARK SMILES IDX 17 34 18 35 19 36 20 37 21 38 82 39 22 40 81 41 23 42 24 43
REMARK SMILES IDX 25 44 75 45 26 46 80 47 74 48 76 49 27 50 79 51 73 52 72 53
REMARK SMILES IDX 28 55 60 56 40 57 59 58 41 59 44 60 58 61 77 62 42 63 43 64
REMARK SMILES IDX 57 66 78 67 45 68 29 69 30 70 38 71 31 72 32 73 36 74 39 75
REMARK SMILES IDX 33 76 34 77 37 78 35 79 61 80 62 81 70 82 63 83 64 84 68 85
REMARK SMILES IDX 71 86 65 87 66 88 69 89 67 90 46 91 47 92 55 93 48 94 49 95
REMARK SMILES IDX 53 96 56 97 50 98 51 99 54 100 52 101
REMARK H PARENT 88 19 76 54 44 65
REMARK Flexibility Score: inf
ROOT
ATOM      1  C   UNL A   1      40.421  21.526  26.939  1.00  0.00     0.188 C 
ENDROOT
BRANCH   1   2
ATOM      2  O   UNL A   1      39.277  21.457  26.094  1.00  0.00    -0.376 OA
BRANCH   2   3
ATOM      3  C   UNL A   1      38.440  22.616  26.062  1.00  0.00     0.202 C 
BRANCH   3   4
ATOM      4  C   UNL A   1      36.953  22.370  25.751  1.00  0.00     0.261 C 
BRANCH   4   5
ATOM      5  O   UNL A   1      36.188  23.583  25.574  1.00  0.00    -0.463 OA
BRANCH   5   6
ATOM      6  C   UNL A   1      35.077  23.461  24.800  1.00  0.00     0.306 C 
ATOM      7  O   UNL A   1      34.538  24.388  24.205  1.00  0.00    -0.252 OA
BRANCH   6   8
ATOM      8  C   UNL A   1      34.641  22.021  24.602  1.00  0.00     0.130 C 
BRANCH   8   9
ATOM      9  C   UNL A   1      33.351  21.449  25.284  1.00  0.00    -0.010 C 
ATOM     10  C   UNL A   1      33.655  19.985  25.738  1.00  0.00     0.008 C 
ATOM     11  C   UNL A   1      32.107  21.430  24.365  1.00  0.00     0.008 C 
ATOM     12  C   UNL A   1      33.742  18.985  24.587  1.00  0.00     0.001 C 
ATOM     13  C   UNL A   1      32.213  20.438  23.213  1.00  0.00     0.001 C 
ATOM     14  C   UNL A   1      32.488  19.030  23.723  1.00  0.00     0.000 C 
BRANCH   9  15
ATOM     15  C   UNL A   1      33.021  22.337  26.515  1.00  0.00     0.108 C 
BRANCH  15  16
ATOM     16  C   UNL A   1      31.754  23.178  26.420  1.00  0.00     0.226 C 
ATOM     17  O   UNL A   1      30.867  23.001  27.254  1.00  0.00    -0.275 OA
ATOM     18  N   UNL A   1      31.796  24.165  25.443  1.00  0.00    -0.311 N 
ATOM     19  H   UNL A   1      32.317  24.047  24.617  1.00  0.00     0.171 HD
BRANCH  18  20
ATOM     20  C   UNL A   1      31.059  25.341  25.686  1.00  0.00     0.133 A 
ATOM     21  C   UNL A   1      30.386  25.805  24.570  1.00  0.00     0.048 A 
ATOM     22  N   UNL A   1      31.395  26.136  26.719  1.00  0.00    -0.231 NA
ATOM     23  C   UNL A   1      30.476  27.164  24.313  1.00  0.00     0.014 A 
ATOM     24  C   UNL A   1      31.403  27.461  26.506  1.00  0.00     0.073 A 
ATOM     25  C   UNL A   1      31.079  28.006  25.250  1.00  0.00     0.000 A 
ATOM     26  C   UNL A   1      31.823  28.329  27.504  1.00  0.00     0.029 A 
ATOM     27  C   UNL A   1      31.395  29.341  24.955  1.00  0.00     0.010 A 
ATOM     28  C   UNL A   1      32.075  29.678  27.236  1.00  0.00     0.002 A 
ATOM     29  C   UNL A   1      31.918  30.168  25.943  1.00  0.00     0.001 A 
ENDBRANCH  18  20
ENDBRANCH  15  16
ENDBRANCH   9  15
ENDBRANCH   8   9
ENDBRANCH   6   8
ENDBRANCH   5   6
ENDBRANCH   4   5
ENDBRANCH   3   4
ENDBRANCH   2   3
ENDBRANCH   1   2
BRANCH   1  30
ATOM     30  C   UNL A   1      41.640  20.714  26.484  1.00  0.00     0.188 C 
BRANCH  30  31
ATOM     31  O   UNL A   1      42.061  19.741  27.431  1.00  0.00    -0.376 OA
BRANCH  31  32
ATOM     32  C   UNL A   1      42.699  18.557  26.960  1.00  0.00     0.202 C 
BRANCH  32  33
ATOM     33  C   UNL A   1      43.029  18.454  25.461  1.00  0.00     0.261 C 
BRANCH  33  34
ATOM     34  O   UNL A   1      44.435  18.499  25.146  1.00  0.00    -0.460 OA
BRANCH  34  35
ATOM     35  C   UNL A   1      44.815  19.331  24.150  1.00  0.00     0.338 C 
ATOM     36  O   UNL A   1      44.920  19.034  22.973  1.00  0.00    -0.246 OA
BRANCH  35  37
ATOM     37  C   UNL A   1      44.833  20.720  24.666  1.00  0.00     0.060 A 
ATOM     38  C   UNL A   1      44.342  21.743  23.842  1.00  0.00     0.016 A 
ATOM     39  C   UNL A   1      45.237  21.010  25.973  1.00  0.00     0.016 A 
ATOM     40  C   UNL A   1      44.262  23.053  24.318  1.00  0.00     0.010 A 
ATOM     41  C   UNL A   1      45.171  22.322  26.446  1.00  0.00     0.010 A 
ATOM     42  C   UNL A   1      44.705  23.353  25.613  1.00  0.00    -0.014 A 
BRANCH  42  43
ATOM     43  C   UNL A   1      44.876  24.766  26.023  1.00  0.00     0.031 A 
ATOM     44  C   UNL A   1      46.238  25.382  25.880  1.00  0.00     0.074 A 
ATOM     45  C   UNL A   1      43.852  25.496  26.498  1.00  0.00     0.049 A 
ATOM     46  N   UNL A   1      46.653  26.578  26.210  1.00  0.00    -0.248 NA
ATOM     47  C   UNL A   1      47.276  24.525  25.283  1.00  0.00     0.031 C 
ATOM     48  C   UNL A   1      42.476  25.030  26.648  1.00  0.00     0.029 A 
ATOM     49  N   UNL A   1      43.821  26.793  26.949  1.00  0.00    -0.354 N 
ATOM     50  C   UNL A   1      47.997  26.615  25.864  1.00  0.00     0.074 A 
ATOM     51  C   UNL A   1      48.338  25.314  25.333  1.00  0.00     0.031 C 
ATOM     52  C   UNL A   1      41.734  26.028  27.161  1.00  0.00     0.029 A 
ATOM     53  C   UNL A   1      42.589  27.189  27.406  1.00  0.00     0.049 A 
ATOM     54  H   UNL A   1      44.608  27.384  26.942  1.00  0.00     0.167 HD
ATOM     55  C   UNL A   1      48.867  27.645  25.971  1.00  0.00     0.037 A 
ATOM     56  C   UNL A   1      42.206  28.349  27.975  1.00  0.00     0.037 A 
ATOM     57  C   UNL A   1      48.530  28.940  26.499  1.00  0.00     0.049 A 
ATOM     58  C   UNL A   1      43.214  29.458  28.154  1.00  0.00     0.074 A 
ATOM     59  C   UNL A   1      49.340  30.053  26.633  1.00  0.00     0.029 A 
ATOM     60  N   UNL A   1      47.281  29.290  26.988  1.00  0.00    -0.354 N 
ATOM     61  N   UNL A   1      44.477  29.496  27.808  1.00  0.00    -0.248 NA
ATOM     62  C   UNL A   1      42.738  30.688  28.806  1.00  0.00     0.031 C 
ATOM     63  C   UNL A   1      48.597  31.061  27.256  1.00  0.00     0.029 A 
ATOM     64  C   UNL A   1      47.306  30.595  27.455  1.00  0.00     0.049 A 
ATOM     65  H   UNL A   1      46.493  28.700  27.002  1.00  0.00     0.167 HD
ATOM     66  C   UNL A   1      44.938  30.756  28.171  1.00  0.00     0.074 A 
ATOM     67  C   UNL A   1      43.816  31.459  28.756  1.00  0.00     0.031 C 
ATOM     68  C   UNL A   1      46.179  31.285  28.030  1.00  0.00     0.037 A 
BRANCH  55  69
ATOM     69  C   UNL A   1      50.281  27.395  25.539  1.00  0.00     0.064 A 
ATOM     70  C   UNL A   1      50.676  27.510  24.198  1.00  0.00     0.173 A 
ATOM     71  C   UNL A   1      51.255  27.041  26.484  1.00  0.00     0.173 A 
ATOM     72  F   UNL A   1      49.777  27.822  23.253  1.00  0.00    -0.203 F 
ATOM     73  C   UNL A   1      51.989  27.250  23.814  1.00  0.00     0.198 A 
ATOM     74  C   UNL A   1      52.574  26.812  26.101  1.00  0.00     0.198 A 
ATOM     75  F   UNL A   1      50.928  26.915  27.778  1.00  0.00    -0.203 F 
ATOM     76  F   UNL A   1      52.331  27.307  22.520  1.00  0.00    -0.200 F 
ATOM     77  C   UNL A   1      52.938  26.908  24.766  1.00  0.00     0.200 A 
ATOM     78  F   UNL A   1      53.490  26.489  27.024  1.00  0.00    -0.200 F 
ATOM     79  F   UNL A   1      54.201  26.657  24.395  1.00  0.00    -0.200 F 
ENDBRANCH  55  69
BRANCH  56  80
ATOM     80  C   UNL A   1      40.803  28.522  28.438  1.00  0.00     0.064 A 
ATOM     81  C   UNL A   1      40.422  28.185  29.745  1.00  0.00     0.173 A 
ATOM     82  C   UNL A   1      39.809  29.001  27.573  1.00  0.00     0.173 A 
ATOM     83  F   UNL A   1      41.330  27.691  30.600  1.00  0.00    -0.203 F 
ATOM     84  C   UNL A   1      39.099  28.306  30.163  1.00  0.00     0.198 A 
ATOM     85  C   UNL A   1      38.491  29.149  28.000  1.00  0.00     0.198 A 
ATOM     86  F   UNL A   1      40.119  29.330  26.310  1.00  0.00    -0.203 F 
ATOM     87  F   UNL A   1      38.752  27.929  31.401  1.00  0.00    -0.200 F 
ATOM     88  C   UNL A   1      38.135  28.794  29.293  1.00  0.00     0.200 A 
ATOM     89  F   UNL A   1      37.565  29.627  27.157  1.00  0.00    -0.200 F 
ATOM     90  F   UNL A   1      36.862  28.911  29.695  1.00  0.00    -0.200 F 
ENDBRANCH  56  80
BRANCH  68  91
ATOM     91  C   UNL A   1      46.388  32.702  28.482  1.00  0.00     0.064 A 
ATOM     92  C   UNL A   1      46.822  33.006  29.781  1.00  0.00     0.173 A 
ATOM     93  C   UNL A   1      46.205  33.767  27.587  1.00  0.00     0.173 A 
ATOM     94  F   UNL A   1      47.001  32.026  30.680  1.00  0.00    -0.203 F 
ATOM     95  C   UNL A   1      47.041  34.325  30.173  1.00  0.00     0.198 A 
ATOM     96  C   UNL A   1      46.454  35.082  27.972  1.00  0.00     0.198 A 
ATOM     97  F   UNL A   1      45.801  33.531  26.329  1.00  0.00    -0.203 F 
ATOM     98  F   UNL A   1      47.414  34.595  31.431  1.00  0.00    -0.200 F 
ATOM     99  C   UNL A   1      46.867  35.360  29.266  1.00  0.00     0.200 A 
ATOM    100  F   UNL A   1      46.301  36.078  27.090  1.00  0.00    -0.200 F 
ATOM    101  F   UNL A   1      47.089  36.627  29.642  1.00  0.00    -0.200 F 
ENDBRANCH  68  91
ENDBRANCH  42  43
ENDBRANCH  35  37
ENDBRANCH  34  35
ENDBRANCH  33  34
ENDBRANCH  32  33
ENDBRANCH  31  32
ENDBRANCH  30  31
ENDBRANCH   1  30
TORSDOF 21
ENDMDL
