MODEL 1
REMARK VINA RESULT:     -13.0      0.000      0.000
REMARK SMILES O=C(OCCOCCOCCOC(=O)c1ccc(-c2c3nc(c(-c4c(F)c(F)c(F)c(F)c4F)c4ccc([nH]4)c(-c4c(F)c(F)c(F)c(F)c4F)c4nc(c(-c5c(F)c(F)c(F)c(F)c5F)c5ccc2[nH]5)C=C4)C=C3)cc1)C1=Cc2ccc(Cl)c(Cl)c2O[C@@H]1C(F)(F)F
REMARK SMILES IDX 8 1 7 2 6 3 5 4 4 5 3 6 2 7 1 8 78 9 79 10 89 11 80 12 88 13
REMARK SMILES IDX 81 14 87 15 82 16 85 17 83 18 86 19 84 20 90 21 91 22 92 23
REMARK SMILES IDX 93 24 9 25 10 26 11 27 12 28 13 29 14 30 15 31 16 32 77 33
REMARK SMILES IDX 17 34 76 35 18 36 19 37 20 38 70 39 21 40 75 41 69 42 71 43
REMARK SMILES IDX 22 44 74 45 68 46 67 47 23 49 55 50 35 51 54 52 36 53 39 54
REMARK SMILES IDX 53 55 72 56 37 57 38 58 52 60 73 61 40 62 24 63 25 64 33 65
REMARK SMILES IDX 26 66 27 67 31 68 34 69 28 70 29 71 32 72 30 73 56 74 57 75
REMARK SMILES IDX 65 76 58 77 59 78 63 79 66 80 60 81 61 82 64 83 62 84 41 85
REMARK SMILES IDX 42 86 50 87 43 88 44 89 48 90 51 91 45 92 46 93 49 94 47 95
REMARK H PARENT 71 48 39 59
REMARK Flexibility Score: inf
ROOT
ATOM      1  C   UNL A   1      33.422  19.828  25.274  1.00  0.00     0.188 C 
ENDROOT
BRANCH   1   2
ATOM      2  C   UNL A   1      32.199  20.375  24.520  1.00  0.00     0.188 C 
BRANCH   2   3
ATOM      3  O   UNL A   1      32.274  21.003  23.183  1.00  0.00    -0.376 OA
BRANCH   3   4
ATOM      4  C   UNL A   1      32.885  22.529  22.755  1.00  0.00     0.202 C 
BRANCH   4   5
ATOM      5  C   UNL A   1      33.730  23.994  24.117  1.00  0.00     0.261 C 
BRANCH   5   6
ATOM      6  O   UNL A   1      34.257  25.374  23.744  1.00  0.00    -0.460 OA
BRANCH   6   7
ATOM      7  C   UNL A   1      33.277  26.287  23.690  1.00  0.00     0.338 C 
ATOM      8  O   UNL A   1      33.049  27.087  22.817  1.00  0.00    -0.246 OA
BRANCH   7   9
ATOM      9  C   UNL A   1      33.026  26.347  25.121  1.00  0.00     0.087 C 
ATOM     10  C   UNL A   1      34.056  26.991  25.933  1.00  0.00     0.027 C 
ATOM     11  C   UNL A   1      31.243  27.015  24.879  1.00  0.00     0.316 C 
ATOM     12  C   UNL A   1      33.922  28.665  26.590  1.00  0.00     0.019 A 
ATOM     13  O   UNL A   1      31.119  28.881  25.421  1.00  0.00    -0.474 OA
ATOM     14  C   UNL A   1      34.977  29.195  27.275  1.00  0.00     0.013 A 
ATOM     15  C   UNL A   1      32.526  29.660  26.305  1.00  0.00     0.148 A 
ATOM     16  C   UNL A   1      34.792  30.519  27.710  1.00  0.00     0.023 A 
ATOM     17  C   UNL A   1      32.454  30.964  26.726  1.00  0.00     0.102 A 
ATOM     18  C   UNL A   1      33.613  31.355  27.453  1.00  0.00     0.063 A 
ATOM     19  Cl  UNL A   1      31.182  32.025  26.333  1.00  0.00    -0.079 Cl
ATOM     20  Cl  UNL A   1      33.732  32.958  28.133  1.00  0.00    -0.083 Cl
BRANCH  11  21
ATOM     21  C   UNL A   1      30.535  25.619  25.476  1.00  0.00     0.430 C 
ATOM     22  F   UNL A   1      30.599  24.465  24.815  1.00  0.00    -0.167 F 
ATOM     23  F   UNL A   1      31.028  25.375  26.717  1.00  0.00    -0.167 F 
ATOM     24  F   UNL A   1      29.188  25.791  25.671  1.00  0.00    -0.167 F 
ENDBRANCH  11  21
ENDBRANCH   7   9
ENDBRANCH   6   7
ENDBRANCH   5   6
ENDBRANCH   4   5
ENDBRANCH   3   4
ENDBRANCH   2   3
ENDBRANCH   1   2
BRANCH   1  25
ATOM     25  O   UNL A   1      34.706  19.935  24.719  1.00  0.00    -0.376 OA
BRANCH  25  26
ATOM     26  C   UNL A   1      35.565  20.917  25.270  1.00  0.00     0.202 C 
BRANCH  26  27
ATOM     27  C   UNL A   1      37.073  20.744  25.061  1.00  0.00     0.261 C 
BRANCH  27  28
ATOM     28  O   UNL A   1      37.861  21.840  25.561  1.00  0.00    -0.460 OA
BRANCH  28  29
ATOM     29  C   UNL A   1      39.078  21.551  26.080  1.00  0.00     0.338 C 
ATOM     30  O   UNL A   1      39.708  20.514  25.979  1.00  0.00    -0.246 OA
BRANCH  29  31
ATOM     31  C   UNL A   1      39.612  22.763  26.729  1.00  0.00     0.060 A 
ATOM     32  C   UNL A   1      39.096  24.027  26.397  1.00  0.00     0.016 A 
ATOM     33  C   UNL A   1      40.653  22.638  27.647  1.00  0.00     0.016 A 
ATOM     34  C   UNL A   1      39.607  25.174  27.009  1.00  0.00     0.010 A 
ATOM     35  C   UNL A   1      41.200  23.785  28.216  1.00  0.00     0.010 A 
ATOM     36  C   UNL A   1      40.696  25.055  27.881  1.00  0.00    -0.014 A 
BRANCH  36  37
ATOM     37  C   UNL A   1      41.527  26.234  28.207  1.00  0.00     0.031 A 
ATOM     38  C   UNL A   1      40.858  27.342  28.967  1.00  0.00     0.074 A 
ATOM     39  C   UNL A   1      42.788  26.363  27.768  1.00  0.00     0.049 A 
ATOM     40  N   UNL A   1      41.274  28.553  29.222  1.00  0.00    -0.248 NA
ATOM     41  C   UNL A   1      39.512  27.042  29.486  1.00  0.00     0.031 C 
ATOM     42  C   UNL A   1      43.545  25.340  27.056  1.00  0.00     0.029 A 
ATOM     43  N   UNL A   1      43.640  27.438  27.833  1.00  0.00    -0.354 N 
ATOM     44  C   UNL A   1      40.236  29.163  29.913  1.00  0.00     0.074 A 
ATOM     45  C   UNL A   1      39.159  28.204  30.007  1.00  0.00     0.031 C 
ATOM     46  C   UNL A   1      44.744  25.846  26.718  1.00  0.00     0.029 A 
ATOM     47  C   UNL A   1      44.816  27.242  27.153  1.00  0.00     0.049 A 
ATOM     48  H   UNL A   1      43.428  28.267  28.319  1.00  0.00     0.167 HD
ATOM     49  C   UNL A   1      40.185  30.416  30.419  1.00  0.00     0.037 A 
ATOM     50  C   UNL A   1      45.812  28.110  26.884  1.00  0.00     0.037 A 
ATOM     51  C   UNL A   1      41.249  31.371  30.280  1.00  0.00     0.049 A 
ATOM     52  C   UNL A   1      45.707  29.531  27.385  1.00  0.00     0.074 A 
ATOM     53  C   UNL A   1      41.316  32.665  30.761  1.00  0.00     0.029 A 
ATOM     54  N   UNL A   1      42.428  31.139  29.582  1.00  0.00    -0.354 N 
ATOM     55  N   UNL A   1      44.740  30.101  28.063  1.00  0.00    -0.248 NA
ATOM     56  C   UNL A   1      46.831  30.428  27.085  1.00  0.00     0.031 C 
ATOM     57  C   UNL A   1      42.495  33.243  30.283  1.00  0.00     0.029 A 
ATOM     58  C   UNL A   1      43.212  32.279  29.590  1.00  0.00     0.049 A 
ATOM     59  H   UNL A   1      42.669  30.290  29.147  1.00  0.00     0.167 HD
ATOM     60  C   UNL A   1      45.155  31.405  28.309  1.00  0.00     0.074 A 
ATOM     61  C   UNL A   1      46.462  31.543  27.700  1.00  0.00     0.031 C 
ATOM     62  C   UNL A   1      44.519  32.392  28.988  1.00  0.00     0.037 A 
BRANCH  49  63
ATOM     63  C   UNL A   1      38.911  30.830  31.102  1.00  0.00     0.064 A 
ATOM     64  C   UNL A   1      37.823  31.361  30.390  1.00  0.00     0.173 A 
ATOM     65  C   UNL A   1      38.789  30.720  32.495  1.00  0.00     0.173 A 
ATOM     66  F   UNL A   1      37.890  31.503  29.058  1.00  0.00    -0.203 F 
ATOM     67  C   UNL A   1      36.687  31.817  31.053  1.00  0.00     0.198 A 
ATOM     68  C   UNL A   1      37.633  31.135  33.150  1.00  0.00     0.198 A 
ATOM     69  F   UNL A   1      39.795  30.219  33.227  1.00  0.00    -0.203 F 
ATOM     70  F   UNL A   1      35.698  32.400  30.360  1.00  0.00    -0.200 F 
ATOM     71  C   UNL A   1      36.589  31.699  32.431  1.00  0.00     0.200 A 
ATOM     72  F   UNL A   1      37.535  31.002  34.480  1.00  0.00    -0.200 F 
ATOM     73  F   UNL A   1      35.496  32.140  33.068  1.00  0.00    -0.200 F 
ENDBRANCH  49  63
BRANCH  50  74
ATOM     74  C   UNL A   1      46.990  27.658  26.094  1.00  0.00     0.064 A 
ATOM     75  C   UNL A   1      48.127  27.137  26.725  1.00  0.00     0.173 A 
ATOM     76  C   UNL A   1      46.998  27.728  24.692  1.00  0.00     0.173 A 
ATOM     77  F   UNL A   1      48.181  27.075  28.063  1.00  0.00    -0.203 F 
ATOM     78  C   UNL A   1      49.230  26.709  25.985  1.00  0.00     0.198 A 
ATOM     79  C   UNL A   1      48.087  27.270  23.953  1.00  0.00     0.198 A 
ATOM     80  F   UNL A   1      45.939  28.224  24.037  1.00  0.00    -0.203 F 
ATOM     81  F   UNL A   1      50.320  26.253  26.618  1.00  0.00    -0.200 F 
ATOM     82  C   UNL A   1      49.205  26.767  24.601  1.00  0.00     0.200 A 
ATOM     83  F   UNL A   1      48.053  27.316  22.614  1.00  0.00    -0.200 F 
ATOM     84  F   UNL A   1      50.260  26.344  23.890  1.00  0.00    -0.200 F 
ENDBRANCH  50  74
BRANCH  62  85
ATOM     85  C   UNL A   1      45.245  33.695  29.183  1.00  0.00     0.064 A 
ATOM     86  C   UNL A   1      46.122  33.912  30.256  1.00  0.00     0.173 A 
ATOM     87  C   UNL A   1      45.120  34.713  28.223  1.00  0.00     0.173 A 
ATOM     88  F   UNL A   1      46.272  32.978  31.207  1.00  0.00    -0.203 F 
ATOM     89  C   UNL A   1      46.832  35.105  30.368  1.00  0.00     0.198 A 
ATOM     90  C   UNL A   1      45.862  35.887  28.317  1.00  0.00     0.198 A 
ATOM     91  F   UNL A   1      44.303  34.554  27.171  1.00  0.00    -0.203 F 
ATOM     92  F   UNL A   1      47.634  35.309  31.423  1.00  0.00    -0.200 F 
ATOM     93  C   UNL A   1      46.711  36.085  29.393  1.00  0.00     0.200 A 
ATOM     94  F   UNL A   1      45.761  36.819  27.360  1.00  0.00    -0.200 F 
ATOM     95  F   UNL A   1      47.415  37.222  29.492  1.00  0.00    -0.200 F 
ENDBRANCH  62  85
ENDBRANCH  36  37
ENDBRANCH  29  31
ENDBRANCH  28  29
ENDBRANCH  27  28
ENDBRANCH  26  27
ENDBRANCH  25  26
ENDBRANCH   1  25
TORSDOF 18
ENDMDL
MODEL 2
REMARK VINA RESULT:     -12.8      3.454      8.696
REMARK SMILES O=C(OCCOCCOCCOC(=O)c1ccc(-c2c3nc(c(-c4c(F)c(F)c(F)c(F)c4F)c4ccc([nH]4)c(-c4c(F)c(F)c(F)c(F)c4F)c4nc(c(-c5c(F)c(F)c(F)c(F)c5F)c5ccc2[nH]5)C=C4)C=C3)cc1)C1=Cc2ccc(Cl)c(Cl)c2O[C@@H]1C(F)(F)F
REMARK SMILES IDX 8 1 7 2 6 3 5 4 4 5 3 6 2 7 1 8 78 9 79 10 89 11 80 12 88 13
REMARK SMILES IDX 81 14 87 15 82 16 85 17 83 18 86 19 84 20 90 21 91 22 92 23
REMARK SMILES IDX 93 24 9 25 10 26 11 27 12 28 13 29 14 30 15 31 16 32 77 33
REMARK SMILES IDX 17 34 76 35 18 36 19 37 20 38 70 39 21 40 75 41 69 42 71 43
REMARK SMILES IDX 22 44 74 45 68 46 67 47 23 49 55 50 35 51 54 52 36 53 39 54
REMARK SMILES IDX 53 55 72 56 37 57 38 58 52 60 73 61 40 62 24 63 25 64 33 65
REMARK SMILES IDX 26 66 27 67 31 68 34 69 28 70 29 71 32 72 30 73 56 74 57 75
REMARK SMILES IDX 65 76 58 77 59 78 63 79 66 80 60 81 61 82 64 83 62 84 41 85
REMARK SMILES IDX 42 86 50 87 43 88 44 89 48 90 51 91 45 92 46 93 49 94 47 95
REMARK H PARENT 71 48 39 59
REMARK Flexibility Score: inf
ROOT
ATOM      1  C   UNL A   1      33.325  33.716  28.001  1.00  0.00     0.188 C 
ENDROOT
BRANCH   1   2
ATOM      2  C   UNL A   1      33.750  32.244  28.113  1.00  0.00     0.188 C 
BRANCH   2   3
ATOM      3  O   UNL A   1      33.409  31.214  27.108  1.00  0.00    -0.376 OA
BRANCH   3   4
ATOM      4  C   UNL A   1      31.959  30.350  26.916  1.00  0.00     0.202 C 
BRANCH   4   5
ATOM      5  C   UNL A   1      31.782  28.221  26.533  1.00  0.00     0.261 C 
BRANCH   5   6
ATOM      6  O   UNL A   1      32.806  27.343  25.825  1.00  0.00    -0.460 OA
BRANCH   6   7
ATOM      7  C   UNL A   1      32.369  26.084  25.675  1.00  0.00     0.338 C 
ATOM      8  O   UNL A   1      31.680  25.439  26.426  1.00  0.00    -0.246 OA
BRANCH   7   9
ATOM      9  C   UNL A   1      33.387  25.665  24.726  1.00  0.00     0.087 C 
ATOM     10  C   UNL A   1      34.470  24.840  25.259  1.00  0.00     0.027 C 
ATOM     11  C   UNL A   1      32.087  25.074  23.443  1.00  0.00     0.316 C 
ATOM     12  C   UNL A   1      34.580  23.055  25.036  1.00  0.00     0.019 A 
ATOM     13  O   UNL A   1      32.070  23.131  23.314  1.00  0.00    -0.474 OA
ATOM     14  C   UNL A   1      35.597  22.372  25.640  1.00  0.00     0.013 A 
ATOM     15  C   UNL A   1      33.386  22.159  24.146  1.00  0.00     0.148 A 
ATOM     16  C   UNL A   1      35.573  20.980  25.441  1.00  0.00     0.023 A 
ATOM     17  C   UNL A   1      33.416  20.791  24.047  1.00  0.00     0.102 A 
ATOM     18  C   UNL A   1      34.552  20.233  24.697  1.00  0.00     0.063 A 
ATOM     19  Cl  UNL A   1      32.186  19.859  23.327  1.00  0.00    -0.079 Cl
ATOM     20  Cl  UNL A   1      34.833  18.511  24.664  1.00  0.00    -0.083 Cl
BRANCH  11  21
ATOM     21  C   UNL A   1      32.486  26.272  22.343  1.00  0.00     0.430 C 
ATOM     22  F   UNL A   1      32.926  27.465  22.737  1.00  0.00    -0.167 F 
ATOM     23  F   UNL A   1      33.421  25.786  21.486  1.00  0.00    -0.167 F 
ATOM     24  F   UNL A   1      31.417  26.585  21.542  1.00  0.00    -0.167 F 
ENDBRANCH  11  21
ENDBRANCH   7   9
ENDBRANCH   6   7
ENDBRANCH   5   6
ENDBRANCH   4   5
ENDBRANCH   3   4
ENDBRANCH   2   3
ENDBRANCH   1   2
BRANCH   1  25
ATOM     25  O   UNL A   1      32.881  34.416  29.132  1.00  0.00    -0.376 OA
BRANCH  25  26
ATOM     26  C   UNL A   1      33.869  35.055  29.922  1.00  0.00     0.202 C 
BRANCH  26  27
ATOM     27  C   UNL A   1      34.383  34.311  31.159  1.00  0.00     0.261 C 
BRANCH  27  28
ATOM     28  O   UNL A   1      35.384  33.318  30.867  1.00  0.00    -0.460 OA
BRANCH  28  29
ATOM     29  C   UNL A   1      35.862  32.587  31.903  1.00  0.00     0.338 C 
ATOM     30  O   UNL A   1      35.473  32.580  33.057  1.00  0.00    -0.246 OA
BRANCH  29  31
ATOM     31  C   UNL A   1      36.903  31.675  31.393  1.00  0.00     0.060 A 
ATOM     32  C   UNL A   1      37.724  30.971  32.289  1.00  0.00     0.016 A 
ATOM     33  C   UNL A   1      37.078  31.549  30.017  1.00  0.00     0.016 A 
ATOM     34  C   UNL A   1      38.713  30.112  31.804  1.00  0.00     0.010 A 
ATOM     35  C   UNL A   1      38.099  30.735  29.532  1.00  0.00     0.010 A 
ATOM     36  C   UNL A   1      38.934  30.035  30.423  1.00  0.00    -0.014 A 
BRANCH  36  37
ATOM     37  C   UNL A   1      40.206  29.496  29.896  1.00  0.00     0.031 A 
ATOM     38  C   UNL A   1      41.332  30.474  29.724  1.00  0.00     0.074 A 
ATOM     39  C   UNL A   1      40.331  28.222  29.496  1.00  0.00     0.049 A 
ATOM     40  N   UNL A   1      42.480  30.331  29.117  1.00  0.00    -0.248 NA
ATOM     41  C   UNL A   1      41.113  31.813  30.296  1.00  0.00     0.031 C 
ATOM     42  C   UNL A   1      39.318  27.184  29.648  1.00  0.00     0.029 A 
ATOM     43  N   UNL A   1      41.366  27.600  28.842  1.00  0.00    -0.354 N 
ATOM     44  C   UNL A   1      43.109  31.564  29.219  1.00  0.00     0.074 A 
ATOM     45  C   UNL A   1      42.204  32.452  29.913  1.00  0.00     0.031 C 
ATOM     46  C   UNL A   1      39.768  26.054  29.073  1.00  0.00     0.029 A 
ATOM     47  C   UNL A   1      41.080  26.308  28.476  1.00  0.00     0.049 A 
ATOM     48  H   UNL A   1      42.227  28.037  28.654  1.00  0.00     0.167 HD
ATOM     49  C   UNL A   1      44.331  31.924  28.767  1.00  0.00     0.037 A 
ATOM     50  C   UNL A   1      41.786  25.452  27.710  1.00  0.00     0.037 A 
ATOM     51  C   UNL A   1      45.201  31.039  28.043  1.00  0.00     0.049 A 
ATOM     52  C   UNL A   1      43.114  25.894  27.143  1.00  0.00     0.074 A 
ATOM     53  C   UNL A   1      46.467  31.288  27.547  1.00  0.00     0.029 A 
ATOM     54  N   UNL A   1      44.878  29.736  27.687  1.00  0.00    -0.354 N 
ATOM     55  N   UNL A   1      43.723  27.050  27.263  1.00  0.00    -0.248 NA
ATOM     56  C   UNL A   1      43.853  24.913  26.337  1.00  0.00     0.031 C 
ATOM     57  C   UNL A   1      46.873  30.167  26.819  1.00  0.00     0.029 A 
ATOM     58  C   UNL A   1      45.906  29.181  26.947  1.00  0.00     0.049 A 
ATOM     59  H   UNL A   1      44.041  29.276  27.926  1.00  0.00     0.167 HD
ATOM     60  C   UNL A   1      44.932  26.922  26.588  1.00  0.00     0.074 A 
ATOM     61  C   UNL A   1      44.967  25.576  26.054  1.00  0.00     0.031 C 
ATOM     62  C   UNL A   1      45.927  27.831  26.435  1.00  0.00     0.037 A 
BRANCH  49  63
ATOM     63  C   UNL A   1      44.754  33.349  28.991  1.00  0.00     0.064 A 
ATOM     64  C   UNL A   1      45.456  33.746  30.141  1.00  0.00     0.173 A 
ATOM     65  C   UNL A   1      44.423  34.339  28.055  1.00  0.00     0.173 A 
ATOM     66  F   UNL A   1      45.785  32.844  31.078  1.00  0.00    -0.203 F 
ATOM     67  C   UNL A   1      45.762  35.085  30.369  1.00  0.00     0.198 A 
ATOM     68  C   UNL A   1      44.770  35.671  28.264  1.00  0.00     0.198 A 
ATOM     69  F   UNL A   1      43.754  34.020  26.938  1.00  0.00    -0.203 F 
ATOM     70  F   UNL A   1      46.355  35.450  31.514  1.00  0.00    -0.200 F 
ATOM     71  C   UNL A   1      45.424  36.046  29.428  1.00  0.00     0.200 A 
ATOM     72  F   UNL A   1      44.459  36.594  27.344  1.00  0.00    -0.200 F 
ATOM     73  F   UNL A   1      45.716  37.335  29.648  1.00  0.00    -0.200 F 
ENDBRANCH  49  63
BRANCH  50  74
ATOM     74  C   UNL A   1      41.244  24.095  27.431  1.00  0.00     0.064 A 
ATOM     75  C   UNL A   1      40.171  23.911  26.548  1.00  0.00     0.173 A 
ATOM     76  C   UNL A   1      41.794  22.952  28.031  1.00  0.00     0.173 A 
ATOM     77  F   UNL A   1      39.591  24.973  25.970  1.00  0.00    -0.203 F 
ATOM     78  C   UNL A   1      39.665  22.638  26.282  1.00  0.00     0.198 A 
ATOM     79  C   UNL A   1      41.310  21.678  27.739  1.00  0.00     0.198 A 
ATOM     80  F   UNL A   1      42.818  23.070  28.889  1.00  0.00    -0.203 F 
ATOM     81  F   UNL A   1      38.612  22.498  25.465  1.00  0.00    -0.200 F 
ATOM     82  C   UNL A   1      40.241  21.523  26.870  1.00  0.00     0.200 A 
ATOM     83  F   UNL A   1      41.878  20.602  28.300  1.00  0.00    -0.200 F 
ATOM     84  F   UNL A   1      39.762  20.300  26.604  1.00  0.00    -0.200 F 
ENDBRANCH  50  74
BRANCH  62  85
ATOM     85  C   UNL A   1      47.180  27.394  25.727  1.00  0.00     0.064 A 
ATOM     86  C   UNL A   1      47.378  27.605  24.355  1.00  0.00     0.173 A 
ATOM     87  C   UNL A   1      48.236  26.831  26.462  1.00  0.00     0.173 A 
ATOM     88  F   UNL A   1      46.400  28.131  23.602  1.00  0.00    -0.203 F 
ATOM     89  C   UNL A   1      48.580  27.252  23.744  1.00  0.00     0.198 A 
ATOM     90  C   UNL A   1      49.449  26.516  25.856  1.00  0.00     0.198 A 
ATOM     91  F   UNL A   1      48.104  26.617  27.780  1.00  0.00    -0.203 F 
ATOM     92  F   UNL A   1      48.733  27.424  22.423  1.00  0.00    -0.200 F 
ATOM     93  C   UNL A   1      49.617  26.720  24.496  1.00  0.00     0.200 A 
ATOM     94  F   UNL A   1      50.456  26.027  26.592  1.00  0.00    -0.200 F 
ATOM     95  F   UNL A   1      50.780  26.405  23.909  1.00  0.00    -0.200 F 
ENDBRANCH  62  85
ENDBRANCH  36  37
ENDBRANCH  29  31
ENDBRANCH  28  29
ENDBRANCH  27  28
ENDBRANCH  26  27
ENDBRANCH  25  26
ENDBRANCH   1  25
TORSDOF 18
ENDMDL
MODEL 3
REMARK VINA RESULT:     -12.8      0.853      7.279
REMARK SMILES O=C(OCCOCCOCCOC(=O)c1ccc(-c2c3nc(c(-c4c(F)c(F)c(F)c(F)c4F)c4ccc([nH]4)c(-c4c(F)c(F)c(F)c(F)c4F)c4nc(c(-c5c(F)c(F)c(F)c(F)c5F)c5ccc2[nH]5)C=C4)C=C3)cc1)C1=Cc2ccc(Cl)c(Cl)c2O[C@@H]1C(F)(F)F
REMARK SMILES IDX 8 1 7 2 6 3 5 4 4 5 3 6 2 7 1 8 78 9 79 10 89 11 80 12 88 13
REMARK SMILES IDX 81 14 87 15 82 16 85 17 83 18 86 19 84 20 90 21 91 22 92 23
REMARK SMILES IDX 93 24 9 25 10 26 11 27 12 28 13 29 14 30 15 31 16 32 77 33
REMARK SMILES IDX 17 34 76 35 18 36 19 37 20 38 70 39 21 40 75 41 69 42 71 43
REMARK SMILES IDX 22 44 74 45 68 46 67 47 23 49 55 50 35 51 54 52 36 53 39 54
REMARK SMILES IDX 53 55 72 56 37 57 38 58 52 60 73 61 40 62 24 63 25 64 33 65
REMARK SMILES IDX 26 66 27 67 31 68 34 69 28 70 29 71 32 72 30 73 56 74 57 75
REMARK SMILES IDX 65 76 58 77 59 78 63 79 66 80 60 81 61 82 64 83 62 84 41 85
REMARK SMILES IDX 42 86 50 87 43 88 44 89 48 90 51 91 45 92 46 93 49 94 47 95
REMARK H PARENT 71 48 39 59
REMARK Flexibility Score: inf
ROOT
ATOM      1  C   UNL A   1      36.961  21.564  24.348  1.00  0.00     0.188 C 
ENDROOT
BRANCH   1   2
ATOM      2  C   UNL A   1      35.595  22.042  24.866  1.00  0.00     0.188 C 
BRANCH   2   3
ATOM      3  O   UNL A   1      34.303  21.534  24.358  1.00  0.00    -0.376 OA
BRANCH   3   4
ATOM      4  C   UNL A   1      33.062  22.382  23.566  1.00  0.00     0.202 C 
BRANCH   4   5
ATOM      5  C   UNL A   1      33.294  24.210  22.419  1.00  0.00     0.261 C 
BRANCH   5   6
ATOM      6  O   UNL A   1      34.012  25.475  22.872  1.00  0.00    -0.460 OA
BRANCH   6   7
ATOM      7  C   UNL A   1      33.185  26.528  22.928  1.00  0.00     0.338 C 
ATOM      8  O   UNL A   1      33.122  27.469  22.176  1.00  0.00    -0.246 OA
BRANCH   7   9
ATOM      9  C   UNL A   1      32.878  26.426  24.346  1.00  0.00     0.087 C 
ATOM     10  C   UNL A   1      33.883  26.957  25.266  1.00  0.00     0.027 C 
ATOM     11  C   UNL A   1      31.113  27.141  24.116  1.00  0.00     0.316 C 
ATOM     12  C   UNL A   1      33.739  28.544  26.107  1.00  0.00     0.019 A 
ATOM     13  O   UNL A   1      30.985  28.934  24.867  1.00  0.00    -0.474 OA
ATOM     14  C   UNL A   1      34.772  28.976  26.889  1.00  0.00     0.013 A 
ATOM     15  C   UNL A   1      32.365  29.585  25.889  1.00  0.00     0.148 A 
ATOM     16  C   UNL A   1      34.582  30.244  27.468  1.00  0.00     0.023 A 
ATOM     17  C   UNL A   1      32.289  30.832  26.455  1.00  0.00     0.102 A 
ATOM     18  C   UNL A   1      33.422  31.119  27.267  1.00  0.00     0.063 A 
ATOM     19  Cl  UNL A   1      31.042  31.949  26.141  1.00  0.00    -0.079 Cl
ATOM     20  Cl  UNL A   1      33.529  32.631  28.133  1.00  0.00    -0.083 Cl
BRANCH  11  21
ATOM     21  C   UNL A   1      30.369  25.696  24.519  1.00  0.00     0.430 C 
ATOM     22  F   UNL A   1      30.829  24.924  25.501  1.00  0.00    -0.167 F 
ATOM     23  F   UNL A   1      29.064  25.941  24.806  1.00  0.00    -0.167 F 
ATOM     24  F   UNL A   1      30.329  24.843  23.446  1.00  0.00    -0.167 F 
ENDBRANCH  11  21
ENDBRANCH   7   9
ENDBRANCH   6   7
ENDBRANCH   5   6
ENDBRANCH   4   5
ENDBRANCH   3   4
ENDBRANCH   2   3
ENDBRANCH   1   2
BRANCH   1  25
ATOM     25  O   UNL A   1      37.949  21.129  25.242  1.00  0.00    -0.376 OA
BRANCH  25  26
ATOM     26  C   UNL A   1      38.445  19.813  25.062  1.00  0.00     0.202 C 
BRANCH  26  27
ATOM     27  C   UNL A   1      39.766  19.450  25.747  1.00  0.00     0.261 C 
BRANCH  27  28
ATOM     28  O   UNL A   1      39.989  20.144  26.989  1.00  0.00    -0.460 OA
BRANCH  28  29
ATOM     29  C   UNL A   1      41.258  20.519  27.278  1.00  0.00     0.338 C 
ATOM     30  O   UNL A   1      42.267  19.838  27.242  1.00  0.00    -0.246 OA
BRANCH  29  31
ATOM     31  C   UNL A   1      41.268  21.968  27.551  1.00  0.00     0.060 A 
ATOM     32  C   UNL A   1      40.419  22.828  26.834  1.00  0.00     0.016 A 
ATOM     33  C   UNL A   1      42.151  22.472  28.504  1.00  0.00     0.016 A 
ATOM     34  C   UNL A   1      40.434  24.201  27.091  1.00  0.00     0.010 A 
ATOM     35  C   UNL A   1      42.206  23.846  28.722  1.00  0.00     0.010 A 
ATOM     36  C   UNL A   1      41.367  24.715  28.000  1.00  0.00    -0.014 A 
BRANCH  36  37
ATOM     37  C   UNL A   1      41.711  26.153  27.989  1.00  0.00     0.031 A 
ATOM     38  C   UNL A   1      43.041  26.524  27.399  1.00  0.00     0.074 A 
ATOM     39  C   UNL A   1      40.928  27.080  28.560  1.00  0.00     0.049 A 
ATOM     40  N   UNL A   1      43.680  27.662  27.424  1.00  0.00    -0.248 NA
ATOM     41  C   UNL A   1      43.761  25.440  26.708  1.00  0.00     0.031 C 
ATOM     42  C   UNL A   1      39.607  26.838  29.129  1.00  0.00     0.029 A 
ATOM     43  N   UNL A   1      41.160  28.414  28.786  1.00  0.00    -0.354 N 
ATOM     44  C   UNL A   1      44.882  27.426  26.770  1.00  0.00     0.074 A 
ATOM     45  C   UNL A   1      44.899  26.031  26.391  1.00  0.00     0.031 C 
ATOM     46  C   UNL A   1      39.153  27.983  29.669  1.00  0.00     0.029 A 
ATOM     47  C   UNL A   1      40.173  29.022  29.522  1.00  0.00     0.049 A 
ATOM     48  H   UNL A   1      41.955  28.889  28.452  1.00  0.00     0.167 HD
ATOM     49  C   UNL A   1      45.885  28.296  26.515  1.00  0.00     0.037 A 
ATOM     50  C   UNL A   1      40.128  30.263  30.047  1.00  0.00     0.037 A 
ATOM     51  C   UNL A   1      45.869  29.670  26.936  1.00  0.00     0.049 A 
ATOM     52  C   UNL A   1      41.291  31.200  29.823  1.00  0.00     0.074 A 
ATOM     53  C   UNL A   1      46.822  30.649  26.723  1.00  0.00     0.029 A 
ATOM     54  N   UNL A   1      44.853  30.252  27.682  1.00  0.00    -0.354 N 
ATOM     55  N   UNL A   1      42.415  30.988  29.181  1.00  0.00    -0.248 NA
ATOM     56  C   UNL A   1      41.179  32.549  30.396  1.00  0.00     0.031 C 
ATOM     57  C   UNL A   1      46.422  31.796  27.413  1.00  0.00     0.029 A 
ATOM     58  C   UNL A   1      45.173  31.567  27.970  1.00  0.00     0.049 A 
ATOM     59  H   UNL A   1      44.027  29.796  27.966  1.00  0.00     0.167 HD
ATOM     60  C   UNL A   1      43.123  32.184  29.233  1.00  0.00     0.074 A 
ATOM     61  C   UNL A   1      42.302  33.117  29.977  1.00  0.00     0.031 C 
ATOM     62  C   UNL A   1      44.334  32.486  28.702  1.00  0.00     0.037 A 
BRANCH  49  63
ATOM     63  C   UNL A   1      47.098  27.758  25.808  1.00  0.00     0.064 A 
ATOM     64  C   UNL A   1      48.220  27.286  26.510  1.00  0.00     0.173 A 
ATOM     65  C   UNL A   1      47.150  27.742  24.407  1.00  0.00     0.173 A 
ATOM     66  F   UNL A   1      48.231  27.293  27.851  1.00  0.00    -0.203 F 
ATOM     67  C   UNL A   1      49.365  26.873  25.835  1.00  0.00     0.198 A 
ATOM     68  C   UNL A   1      48.280  27.285  23.735  1.00  0.00     0.198 A 
ATOM     69  F   UNL A   1      46.109  28.179  23.684  1.00  0.00    -0.203 F 
ATOM     70  F   UNL A   1      50.454  26.509  26.528  1.00  0.00    -0.200 F 
ATOM     71  C   UNL A   1      49.393  26.866  24.449  1.00  0.00     0.200 A 
ATOM     72  F   UNL A   1      48.297  27.263  22.395  1.00  0.00    -0.200 F 
ATOM     73  F   UNL A   1      50.497  26.470  23.801  1.00  0.00    -0.200 F 
ENDBRANCH  49  63
BRANCH  50  74
ATOM     74  C   UNL A   1      38.942  30.685  30.841  1.00  0.00     0.064 A 
ATOM     75  C   UNL A   1      38.906  30.517  32.232  1.00  0.00     0.173 A 
ATOM     76  C   UNL A   1      37.826  31.274  30.228  1.00  0.00     0.173 A 
ATOM     77  F   UNL A   1      39.934  29.933  32.863  1.00  0.00    -0.203 F 
ATOM     78  C   UNL A   1      37.797  30.916  32.978  1.00  0.00     0.198 A 
ATOM     79  C   UNL A   1      36.733  31.703  30.978  1.00  0.00     0.198 A 
ATOM     80  F   UNL A   1      37.805  31.453  28.899  1.00  0.00    -0.203 F 
ATOM     81  F   UNL A   1      37.773  30.706  34.301  1.00  0.00    -0.200 F 
ATOM     82  C   UNL A   1      36.716  31.517  32.352  1.00  0.00     0.200 A 
ATOM     83  F   UNL A   1      35.696  32.295  30.369  1.00  0.00    -0.200 F 
ATOM     84  F   UNL A   1      35.656  31.912  33.071  1.00  0.00    -0.200 F 
ENDBRANCH  50  74
BRANCH  62  85
ATOM     85  C   UNL A   1      44.830  33.900  28.832  1.00  0.00     0.064 A 
ATOM     86  C   UNL A   1      45.636  34.316  29.901  1.00  0.00     0.173 A 
ATOM     87  C   UNL A   1      44.558  34.830  27.815  1.00  0.00     0.173 A 
ATOM     88  F   UNL A   1      45.920  33.472  30.904  1.00  0.00    -0.203 F 
ATOM     89  C   UNL A   1      46.136  35.616  29.954  1.00  0.00     0.198 A 
ATOM     90  C   UNL A   1      45.092  36.114  27.852  1.00  0.00     0.198 A 
ATOM     91  F   UNL A   1      43.800  34.481  26.765  1.00  0.00    -0.203 F 
ATOM     92  F   UNL A   1      46.872  36.006  31.005  1.00  0.00    -0.200 F 
ATOM     93  C   UNL A   1      45.875  36.508  28.924  1.00  0.00     0.200 A 
ATOM     94  F   UNL A   1      44.858  36.964  26.843  1.00  0.00    -0.200 F 
ATOM     95  F   UNL A   1      46.379  37.750  28.967  1.00  0.00    -0.200 F 
ENDBRANCH  62  85
ENDBRANCH  36  37
ENDBRANCH  29  31
ENDBRANCH  28  29
ENDBRANCH  27  28
ENDBRANCH  26  27
ENDBRANCH  25  26
ENDBRANCH   1  25
TORSDOF 18
ENDMDL
