MODEL 1
REMARK VINA RESULT:     -11.6      0.000      0.000
REMARK SMILES Cc1ccccc1N[C@H](C(=O)OCCOCCOCCOC(=O)c1ccc(-c2c3nc(c(-c4c(F)c(F)c(F)c(F)c4F)c4ccc([nH]4)c(-c4c(F)c(F)c(F)c(F)c4F)c4nc(c(-c5c(F)c(F)c(F)c(F)c5F)c5ccc2[nH]5)C=C4)C=C3)cc1)c1ccccc1
REMARK SMILES IDX 16 1 15 2 14 3 13 4 12 5 10 6 11 7 9 8 8 9 7 11 1 12 2 13
REMARK SMILES IDX 3 14 4 15 6 16 5 17 87 18 88 19 92 20 89 21 91 22 90 23
REMARK SMILES IDX 17 24 18 25 19 26 20 27 21 28 22 29 23 30 24 31 25 32 86 33
REMARK SMILES IDX 26 34 85 35 27 36 28 37 29 38 79 39 30 40 84 41 78 42 80 43
REMARK SMILES IDX 31 44 83 45 77 46 76 47 32 49 64 50 44 51 63 52 45 53 48 54
REMARK SMILES IDX 62 55 81 56 46 57 47 58 61 60 82 61 49 62 33 63 34 64 42 65
REMARK SMILES IDX 35 66 36 67 40 68 43 69 37 70 38 71 41 72 39 73 65 74 66 75
REMARK SMILES IDX 74 76 67 77 68 78 72 79 75 80 69 81 70 82 73 83 71 84 50 85
REMARK SMILES IDX 51 86 59 87 52 88 53 89 57 90 60 91 54 92 55 93 58 94 56 95
REMARK H PARENT 8 10 80 48 48 59
REMARK Flexibility Score: inf
ROOT
ATOM      1  C   UNL A   1      37.545  20.998  25.310  1.00  0.00     0.188 C 
ENDROOT
BRANCH   1   2
ATOM      2  O   UNL A   1      37.278  21.693  24.086  1.00  0.00    -0.376 OA
BRANCH   2   3
ATOM      3  C   UNL A   1      36.771  23.018  24.242  1.00  0.00     0.202 C 
BRANCH   3   4
ATOM      4  C   UNL A   1      36.551  23.549  25.719  1.00  0.00     0.261 C 
BRANCH   4   5
ATOM      5  O   UNL A   1      35.161  23.811  26.192  1.00  0.00    -0.461 OA
BRANCH   5   6
ATOM      6  C   UNL A   1      33.965  24.224  25.540  1.00  0.00     0.333 C 
ATOM      7  O   UNL A   1      33.050  23.430  25.344  1.00  0.00    -0.249 OA
BRANCH   6   8
ATOM      8  C   UNL A   1      33.923  26.006  25.163  1.00  0.00     0.221 C 
BRANCH   8   9
ATOM      9  N   UNL A   1      33.471  26.116  23.789  1.00  0.00    -0.368 N 
ATOM     10  H   UNL A   1      33.987  25.621  23.112  1.00  0.00     0.161 HD
BRANCH   9  11
ATOM     11  C   UNL A   1      32.394  26.843  23.340  1.00  0.00     0.038 A 
ATOM     12  C   UNL A   1      33.982  28.607  22.470  1.00  0.00     0.046 C 
ATOM     13  C   UNL A   1      32.608  28.147  22.881  1.00  0.00    -0.028 A 
ATOM     14  C   UNL A   1      31.508  28.995  22.711  1.00  0.00     0.005 A 
ATOM     15  C   UNL A   1      30.214  28.549  22.977  1.00  0.00     0.000 A 
ATOM     16  C   UNL A   1      31.080  26.350  23.361  1.00  0.00     0.026 A 
ATOM     17  C   UNL A   1      29.995  27.213  23.271  1.00  0.00     0.002 A 
ENDBRANCH   9  11
ENDBRANCH   8   9
BRANCH   8  18
ATOM     18  C   UNL A   1      33.388  27.211  26.087  1.00  0.00    -0.015 A 
ATOM     19  C   UNL A   1      34.081  28.403  26.318  1.00  0.00     0.006 A 
ATOM     20  C   UNL A   1      32.201  27.135  26.851  1.00  0.00     0.006 A 
ATOM     21  C   UNL A   1      33.469  29.551  26.850  1.00  0.00     0.000 A 
ATOM     22  C   UNL A   1      31.548  28.273  27.357  1.00  0.00     0.000 A 
ATOM     23  C   UNL A   1      32.155  29.510  27.278  1.00  0.00     0.000 A 
ENDBRANCH   8  18
ENDBRANCH   6   8
ENDBRANCH   5   6
ENDBRANCH   4   5
ENDBRANCH   3   4
ENDBRANCH   2   3
ENDBRANCH   1   2
BRANCH   1  24
ATOM     24  C   UNL A   1      38.183  19.632  25.060  1.00  0.00     0.188 C 
BRANCH  24  25
ATOM     25  O   UNL A   1      39.576  19.689  25.334  1.00  0.00    -0.376 OA
BRANCH  25  26
ATOM     26  C   UNL A   1      39.979  20.504  26.416  1.00  0.00     0.202 C 
BRANCH  26  27
ATOM     27  C   UNL A   1      41.450  20.938  26.353  1.00  0.00     0.261 C 
BRANCH  27  28
ATOM     28  O   UNL A   1      41.565  22.221  25.702  1.00  0.00    -0.460 OA
BRANCH  28  29
ATOM     29  C   UNL A   1      42.032  23.266  26.462  1.00  0.00     0.338 C 
ATOM     30  O   UNL A   1      42.920  23.197  27.285  1.00  0.00    -0.246 OA
BRANCH  29  31
ATOM     31  C   UNL A   1      41.041  24.393  26.377  1.00  0.00     0.060 A 
ATOM     32  C   UNL A   1      41.383  25.685  25.986  1.00  0.00     0.016 A 
ATOM     33  C   UNL A   1      39.909  24.286  27.116  1.00  0.00     0.016 A 
ATOM     34  C   UNL A   1      40.769  26.839  26.608  1.00  0.00     0.010 A 
ATOM     35  C   UNL A   1      39.487  25.426  27.825  1.00  0.00     0.010 A 
ATOM     36  C   UNL A   1      39.909  26.791  27.733  1.00  0.00    -0.014 A 
BRANCH  36  37
ATOM     37  C   UNL A   1      39.647  28.155  28.791  1.00  0.00     0.031 A 
ATOM     38  C   UNL A   1      38.502  29.484  29.012  1.00  0.00     0.074 A 
ATOM     39  C   UNL A   1      40.460  28.121  29.881  1.00  0.00     0.049 A 
ATOM     40  N   UNL A   1      38.506  30.365  30.006  1.00  0.00    -0.248 NA
ATOM     41  C   UNL A   1      37.310  29.930  28.225  1.00  0.00     0.031 C 
ATOM     42  C   UNL A   1      40.332  28.812  31.162  1.00  0.00     0.029 A 
ATOM     43  N   UNL A   1      41.668  27.437  30.042  1.00  0.00    -0.354 N 
ATOM     44  C   UNL A   1      37.359  31.179  29.939  1.00  0.00     0.074 A 
ATOM     45  C   UNL A   1      36.481  30.544  29.049  1.00  0.00     0.031 C 
ATOM     46  C   UNL A   1      41.518  28.826  31.782  1.00  0.00     0.029 A 
ATOM     47  C   UNL A   1      42.471  28.201  30.901  1.00  0.00     0.049 A 
ATOM     48  H   UNL A   1      41.911  26.577  29.630  1.00  0.00     0.167 HD
ATOM     49  C   UNL A   1      37.202  32.448  30.416  1.00  0.00     0.037 A 
ATOM     50  C   UNL A   1      43.618  28.745  30.412  1.00  0.00     0.037 A 
ATOM     51  C   UNL A   1      38.354  32.810  31.184  1.00  0.00     0.049 A 
ATOM     52  C   UNL A   1      43.542  30.255  30.287  1.00  0.00     0.074 A 
ATOM     53  C   UNL A   1      38.837  32.332  32.385  1.00  0.00     0.029 A 
ATOM     54  N   UNL A   1      39.410  33.393  30.523  1.00  0.00    -0.354 N 
ATOM     55  N   UNL A   1      42.531  30.993  30.668  1.00  0.00    -0.248 NA
ATOM     56  C   UNL A   1      44.586  31.041  29.632  1.00  0.00     0.031 C 
ATOM     57  C   UNL A   1      40.254  32.431  32.324  1.00  0.00     0.029 A 
ATOM     58  C   UNL A   1      40.604  33.049  31.133  1.00  0.00     0.049 A 
ATOM     59  H   UNL A   1      39.328  33.972  29.731  1.00  0.00     0.167 HD
ATOM     60  C   UNL A   1      42.741  32.285  30.269  1.00  0.00     0.074 A 
ATOM     61  C   UNL A   1      44.036  32.263  29.614  1.00  0.00     0.031 C 
ATOM     62  C   UNL A   1      41.859  33.309  30.454  1.00  0.00     0.037 A 
BRANCH  49  63
ATOM     63  C   UNL A   1      35.965  33.326  30.179  1.00  0.00     0.064 A 
ATOM     64  C   UNL A   1      35.752  33.925  28.925  1.00  0.00     0.173 A 
ATOM     65  C   UNL A   1      34.973  33.648  31.141  1.00  0.00     0.173 A 
ATOM     66  F   UNL A   1      36.514  33.589  27.875  1.00  0.00    -0.203 F 
ATOM     67  C   UNL A   1      34.743  34.880  28.707  1.00  0.00     0.198 A 
ATOM     68  C   UNL A   1      34.034  34.674  30.961  1.00  0.00     0.198 A 
ATOM     69  F   UNL A   1      34.835  32.935  32.270  1.00  0.00    -0.203 F 
ATOM     70  F   UNL A   1      34.570  35.398  27.483  1.00  0.00    -0.200 F 
ATOM     71  C   UNL A   1      33.928  35.301  29.741  1.00  0.00     0.200 A 
ATOM     72  F   UNL A   1      33.232  35.038  31.973  1.00  0.00    -0.200 F 
ATOM     73  F   UNL A   1      33.021  36.271  29.552  1.00  0.00    -0.200 F 
ENDBRANCH  49  63
BRANCH  50  74
ATOM     74  C   UNL A   1      44.350  27.788  29.519  1.00  0.00     0.064 A 
ATOM     75  C   UNL A   1      44.213  27.976  28.121  1.00  0.00     0.173 A 
ATOM     76  C   UNL A   1      45.405  26.974  29.947  1.00  0.00     0.173 A 
ATOM     77  F   UNL A   1      43.225  28.749  27.640  1.00  0.00    -0.203 F 
ATOM     78  C   UNL A   1      45.166  27.506  27.220  1.00  0.00     0.198 A 
ATOM     79  C   UNL A   1      46.336  26.465  29.032  1.00  0.00     0.198 A 
ATOM     80  F   UNL A   1      45.620  26.761  31.251  1.00  0.00    -0.203 F 
ATOM     81  F   UNL A   1      45.097  27.860  25.929  1.00  0.00    -0.200 F 
ATOM     82  C   UNL A   1      46.239  26.765  27.680  1.00  0.00     0.200 A 
ATOM     83  F   UNL A   1      47.394  25.771  29.476  1.00  0.00    -0.200 F 
ATOM     84  F   UNL A   1      47.216  26.406  26.834  1.00  0.00    -0.200 F 
ENDBRANCH  50  74
BRANCH  62  85
ATOM     85  C   UNL A   1      42.215  34.684  29.997  1.00  0.00     0.064 A 
ATOM     86  C   UNL A   1      41.696  35.181  28.794  1.00  0.00     0.173 A 
ATOM     87  C   UNL A   1      43.108  35.509  30.700  1.00  0.00     0.173 A 
ATOM     88  F   UNL A   1      40.869  34.429  28.052  1.00  0.00    -0.203 F 
ATOM     89  C   UNL A   1      42.002  36.463  28.349  1.00  0.00     0.198 A 
ATOM     90  C   UNL A   1      43.450  36.773  30.230  1.00  0.00     0.198 A 
ATOM     91  F   UNL A   1      43.657  35.109  31.859  1.00  0.00    -0.203 F 
ATOM     92  F   UNL A   1      41.431  36.931  27.232  1.00  0.00    -0.200 F 
ATOM     93  C   UNL A   1      42.883  37.257  29.064  1.00  0.00     0.200 A 
ATOM     94  F   UNL A   1      44.324  37.524  30.915  1.00  0.00    -0.200 F 
ATOM     95  F   UNL A   1      43.180  38.490  28.633  1.00  0.00    -0.200 F 
ENDBRANCH  62  85
ENDBRANCH  36  37
ENDBRANCH  29  31
ENDBRANCH  28  29
ENDBRANCH  27  28
ENDBRANCH  26  27
ENDBRANCH  25  26
ENDBRANCH  24  25
ENDBRANCH   1  24
TORSDOF 20
ENDMDL
MODEL 2
REMARK VINA RESULT:     -11.6      1.186      2.297
REMARK SMILES Cc1ccccc1N[C@H](C(=O)OCCOCCOCCOC(=O)c1ccc(-c2c3nc(c(-c4c(F)c(F)c(F)c(F)c4F)c4ccc([nH]4)c(-c4c(F)c(F)c(F)c(F)c4F)c4nc(c(-c5c(F)c(F)c(F)c(F)c5F)c5ccc2[nH]5)C=C4)C=C3)cc1)c1ccccc1
REMARK SMILES IDX 16 1 15 2 14 3 13 4 12 5 10 6 11 7 9 8 8 9 7 11 1 12 2 13
REMARK SMILES IDX 3 14 4 15 6 16 5 17 87 18 88 19 92 20 89 21 91 22 90 23
REMARK SMILES IDX 17 24 18 25 19 26 20 27 21 28 22 29 23 30 24 31 25 32 86 33
REMARK SMILES IDX 26 34 85 35 27 36 28 37 29 38 79 39 30 40 84 41 78 42 80 43
REMARK SMILES IDX 31 44 83 45 77 46 76 47 32 49 64 50 44 51 63 52 45 53 48 54
REMARK SMILES IDX 62 55 81 56 46 57 47 58 61 60 82 61 49 62 33 63 34 64 42 65
REMARK SMILES IDX 35 66 36 67 40 68 43 69 37 70 38 71 41 72 39 73 65 74 66 75
REMARK SMILES IDX 74 76 67 77 68 78 72 79 75 80 69 81 70 82 73 83 71 84 50 85
REMARK SMILES IDX 51 86 59 87 52 88 53 89 57 90 60 91 54 92 55 93 58 94 56 95
REMARK H PARENT 8 10 80 48 48 59
REMARK Flexibility Score: inf
ROOT
ATOM      1  C   UNL A   1      37.533  22.197  24.680  1.00  0.00     0.188 C 
ENDROOT
BRANCH   1   2
ATOM      2  O   UNL A   1      36.282  22.773  25.074  1.00  0.00    -0.376 OA
BRANCH   2   3
ATOM      3  C   UNL A   1      35.570  22.045  26.074  1.00  0.00     0.202 C 
BRANCH   3   4
ATOM      4  C   UNL A   1      34.565  22.854  26.994  1.00  0.00     0.261 C 
BRANCH   4   5
ATOM      5  O   UNL A   1      33.146  23.001  26.558  1.00  0.00    -0.461 OA
BRANCH   5   6
ATOM      6  C   UNL A   1      32.207  24.069  26.620  1.00  0.00     0.333 C 
ATOM      7  O   UNL A   1      31.167  23.954  27.262  1.00  0.00    -0.249 OA
BRANCH   6   8
ATOM      8  C   UNL A   1      32.769  25.579  25.771  1.00  0.00     0.221 C 
BRANCH   8   9
ATOM      9  N   UNL A   1      32.200  25.527  24.438  1.00  0.00    -0.368 N 
ATOM     10  H   UNL A   1      32.329  24.691  23.933  1.00  0.00     0.161 HD
BRANCH   9  11
ATOM     11  C   UNL A   1      31.499  26.529  23.809  1.00  0.00     0.038 A 
ATOM     12  C   UNL A   1      33.582  27.136  22.513  1.00  0.00     0.046 C 
ATOM     13  C   UNL A   1      32.201  27.450  23.024  1.00  0.00    -0.028 A 
ATOM     14  C   UNL A   1      31.564  28.633  22.634  1.00  0.00     0.005 A 
ATOM     15  C   UNL A   1      30.244  28.889  23.003  1.00  0.00     0.000 A 
ATOM     16  C   UNL A   1      30.113  26.695  23.954  1.00  0.00     0.026 A 
ATOM     17  C   UNL A   1      29.504  27.904  23.637  1.00  0.00     0.002 A 
ENDBRANCH   9  11
ENDBRANCH   8   9
BRANCH   8  18
ATOM     18  C   UNL A   1      32.849  27.079  26.349  1.00  0.00    -0.015 A 
ATOM     19  C   UNL A   1      33.982  27.896  26.287  1.00  0.00     0.006 A 
ATOM     20  C   UNL A   1      31.803  27.686  27.081  1.00  0.00     0.006 A 
ATOM     21  C   UNL A   1      33.936  29.284  26.499  1.00  0.00     0.000 A 
ATOM     22  C   UNL A   1      31.712  29.077  27.270  1.00  0.00     0.000 A 
ATOM     23  C   UNL A   1      32.760  29.893  26.894  1.00  0.00     0.000 A 
ENDBRANCH   8  18
ENDBRANCH   6   8
ENDBRANCH   5   6
ENDBRANCH   4   5
ENDBRANCH   3   4
ENDBRANCH   2   3
ENDBRANCH   1   2
BRANCH   1  24
ATOM     24  C   UNL A   1      37.651  20.738  25.123  1.00  0.00     0.188 C 
BRANCH  24  25
ATOM     25  O   UNL A   1      38.979  20.465  25.545  1.00  0.00    -0.376 OA
BRANCH  25  26
ATOM     26  C   UNL A   1      39.576  21.402  26.420  1.00  0.00     0.202 C 
BRANCH  26  27
ATOM     27  C   UNL A   1      41.021  21.764  26.051  1.00  0.00     0.261 C 
BRANCH  27  28
ATOM     28  O   UNL A   1      41.447  22.931  26.786  1.00  0.00    -0.460 OA
BRANCH  28  29
ATOM     29  C   UNL A   1      42.070  23.925  26.071  1.00  0.00     0.338 C 
ATOM     30  O   UNL A   1      43.245  23.947  25.772  1.00  0.00    -0.246 OA
BRANCH  29  31
ATOM     31  C   UNL A   1      41.166  25.125  26.043  1.00  0.00     0.060 A 
ATOM     32  C   UNL A   1      41.596  26.397  25.673  1.00  0.00     0.016 A 
ATOM     33  C   UNL A   1      40.051  25.086  26.813  1.00  0.00     0.016 A 
ATOM     34  C   UNL A   1      41.089  27.579  26.340  1.00  0.00     0.010 A 
ATOM     35  C   UNL A   1      39.737  26.235  27.561  1.00  0.00     0.010 A 
ATOM     36  C   UNL A   1      40.260  27.566  27.489  1.00  0.00    -0.014 A 
BRANCH  36  37
ATOM     37  C   UNL A   1      40.133  28.918  28.587  1.00  0.00     0.031 A 
ATOM     38  C   UNL A   1      38.975  30.172  29.047  1.00  0.00     0.074 A 
ATOM     39  C   UNL A   1      41.154  28.945  29.486  1.00  0.00     0.049 A 
ATOM     40  N   UNL A   1      39.126  31.058  30.025  1.00  0.00    -0.248 NA
ATOM     41  C   UNL A   1      37.620  30.534  28.525  1.00  0.00     0.031 C 
ATOM     42  C   UNL A   1      41.247  29.636  30.770  1.00  0.00     0.029 A 
ATOM     43  N   UNL A   1      42.411  28.342  29.391  1.00  0.00    -0.354 N 
ATOM     44  C   UNL A   1      37.940  31.796  30.200  1.00  0.00     0.074 A 
ATOM     45  C   UNL A   1      36.940  31.099  29.506  1.00  0.00     0.031 C 
ATOM     46  C   UNL A   1      42.533  29.731  31.133  1.00  0.00     0.029 A 
ATOM     47  C   UNL A   1      43.323  29.162  30.071  1.00  0.00     0.049 A 
ATOM     48  H   UNL A   1      42.619  27.497  28.932  1.00  0.00     0.167 HD
ATOM     49  C   UNL A   1      37.802  33.055  30.707  1.00  0.00     0.037 A 
ATOM     50  C   UNL A   1      44.306  29.777  29.359  1.00  0.00     0.037 A 
ATOM     51  C   UNL A   1      39.061  33.497  31.224  1.00  0.00     0.049 A 
ATOM     52  C   UNL A   1      44.108  31.277  29.263  1.00  0.00     0.074 A 
ATOM     53  C   UNL A   1      39.811  33.060  32.297  1.00  0.00     0.029 A 
ATOM     54  N   UNL A   1      39.918  34.143  30.363  1.00  0.00    -0.354 N 
ATOM     55  N   UNL A   1      43.152  31.951  29.848  1.00  0.00    -0.248 NA
ATOM     56  C   UNL A   1      44.942  32.124  28.412  1.00  0.00     0.031 C 
ATOM     57  C   UNL A   1      41.176  33.251  31.946  1.00  0.00     0.029 A 
ATOM     58  C   UNL A   1      41.232  33.881  30.712  1.00  0.00     0.049 A 
ATOM     59  H   UNL A   1      39.638  34.709  29.608  1.00  0.00     0.167 HD
ATOM     60  C   UNL A   1      43.191  33.250  29.423  1.00  0.00     0.074 A 
ATOM     61  C   UNL A   1      44.322  33.308  28.515  1.00  0.00     0.031 C 
ATOM     62  C   UNL A   1      42.301  34.217  29.791  1.00  0.00     0.037 A 
BRANCH  49  63
ATOM     63  C   UNL A   1      36.488  33.850  30.735  1.00  0.00     0.064 A 
ATOM     64  C   UNL A   1      35.969  34.318  31.955  1.00  0.00     0.173 A 
ATOM     65  C   UNL A   1      35.676  34.158  29.613  1.00  0.00     0.173 A 
ATOM     66  F   UNL A   1      36.699  34.242  33.075  1.00  0.00    -0.203 F 
ATOM     67  C   UNL A   1      34.688  34.886  32.060  1.00  0.00     0.198 A 
ATOM     68  C   UNL A   1      34.358  34.626  29.726  1.00  0.00     0.198 A 
ATOM     69  F   UNL A   1      36.151  34.077  28.360  1.00  0.00    -0.203 F 
ATOM     70  F   UNL A   1      34.255  35.339  33.246  1.00  0.00    -0.200 F 
ATOM     71  C   UNL A   1      33.858  34.980  30.957  1.00  0.00     0.200 A 
ATOM     72  F   UNL A   1      33.588  34.740  28.633  1.00  0.00    -0.200 F 
ATOM     73  F   UNL A   1      32.607  35.447  31.075  1.00  0.00    -0.200 F 
ENDBRANCH  49  63
BRANCH  50  74
ATOM     74  C   UNL A   1      44.899  28.862  28.329  1.00  0.00     0.064 A 
ATOM     75  C   UNL A   1      45.670  27.771  28.801  1.00  0.00     0.173 A 
ATOM     76  C   UNL A   1      44.468  28.803  26.999  1.00  0.00     0.173 A 
ATOM     77  F   UNL A   1      46.114  27.760  30.070  1.00  0.00    -0.203 F 
ATOM     78  C   UNL A   1      45.862  26.623  28.037  1.00  0.00     0.198 A 
ATOM     79  C   UNL A   1      44.703  27.663  26.218  1.00  0.00     0.198 A 
ATOM     80  F   UNL A   1      43.717  29.781  26.478  1.00  0.00    -0.203 F 
ATOM     81  F   UNL A   1      46.438  25.544  28.585  1.00  0.00    -0.200 F 
ATOM     82  C   UNL A   1      45.361  26.563  26.750  1.00  0.00     0.200 A 
ATOM     83  F   UNL A   1      44.194  27.588  24.980  1.00  0.00    -0.200 F 
ATOM     84  F   UNL A   1      45.445  25.421  26.051  1.00  0.00    -0.200 F 
ENDBRANCH  50  74
BRANCH  62  85
ATOM     85  C   UNL A   1      42.466  35.608  29.280  1.00  0.00     0.064 A 
ATOM     86  C   UNL A   1      43.273  36.521  29.974  1.00  0.00     0.173 A 
ATOM     87  C   UNL A   1      41.796  36.082  28.140  1.00  0.00     0.173 A 
ATOM     88  F   UNL A   1      43.910  36.146  31.094  1.00  0.00    -0.203 F 
ATOM     89  C   UNL A   1      43.454  37.821  29.514  1.00  0.00     0.198 A 
ATOM     90  C   UNL A   1      41.941  37.397  27.708  1.00  0.00     0.198 A 
ATOM     91  F   UNL A   1      40.998  35.278  27.420  1.00  0.00    -0.203 F 
ATOM     92  F   UNL A   1      44.289  38.643  30.163  1.00  0.00    -0.200 F 
ATOM     93  C   UNL A   1      42.784  38.261  28.385  1.00  0.00     0.200 A 
ATOM     94  F   UNL A   1      41.268  37.821  26.629  1.00  0.00    -0.200 F 
ATOM     95  F   UNL A   1      42.956  39.515  27.945  1.00  0.00    -0.200 F 
ENDBRANCH  62  85
ENDBRANCH  36  37
ENDBRANCH  29  31
ENDBRANCH  28  29
ENDBRANCH  27  28
ENDBRANCH  26  27
ENDBRANCH  25  26
ENDBRANCH  24  25
ENDBRANCH   1  24
TORSDOF 20
ENDMDL
MODEL 3
REMARK VINA RESULT:     -11.5      3.855     10.265
REMARK SMILES Cc1ccccc1N[C@H](C(=O)OCCOCCOCCOC(=O)c1ccc(-c2c3nc(c(-c4c(F)c(F)c(F)c(F)c4F)c4ccc([nH]4)c(-c4c(F)c(F)c(F)c(F)c4F)c4nc(c(-c5c(F)c(F)c(F)c(F)c5F)c5ccc2[nH]5)C=C4)C=C3)cc1)c1ccccc1
REMARK SMILES IDX 16 1 15 2 14 3 13 4 12 5 10 6 11 7 9 8 8 9 7 11 1 12 2 13
REMARK SMILES IDX 3 14 4 15 6 16 5 17 87 18 88 19 92 20 89 21 91 22 90 23
REMARK SMILES IDX 17 24 18 25 19 26 20 27 21 28 22 29 23 30 24 31 25 32 86 33
REMARK SMILES IDX 26 34 85 35 27 36 28 37 29 38 79 39 30 40 84 41 78 42 80 43
REMARK SMILES IDX 31 44 83 45 77 46 76 47 32 49 64 50 44 51 63 52 45 53 48 54
REMARK SMILES IDX 62 55 81 56 46 57 47 58 61 60 82 61 49 62 33 63 34 64 42 65
REMARK SMILES IDX 35 66 36 67 40 68 43 69 37 70 38 71 41 72 39 73 65 74 66 75
REMARK SMILES IDX 74 76 67 77 68 78 72 79 75 80 69 81 70 82 73 83 71 84 50 85
REMARK SMILES IDX 51 86 59 87 52 88 53 89 57 90 60 91 54 92 55 93 58 94 56 95
REMARK H PARENT 8 10 80 48 48 59
REMARK Flexibility Score: inf
ROOT
ATOM      1  C   UNL A   1      32.475  30.152  26.615  1.00  0.00     0.188 C 
ENDROOT
BRANCH   1   2
ATOM      2  O   UNL A   1      32.929  28.874  26.158  1.00  0.00    -0.376 OA
BRANCH   2   3
ATOM      3  C   UNL A   1      32.395  27.755  26.865  1.00  0.00     0.202 C 
BRANCH   3   4
ATOM      4  C   UNL A   1      31.955  26.492  26.015  1.00  0.00     0.261 C 
BRANCH   4   5
ATOM      5  O   UNL A   1      32.554  25.164  26.333  1.00  0.00    -0.461 OA
BRANCH   5   6
ATOM      6  C   UNL A   1      32.004  23.902  26.696  1.00  0.00     0.333 C 
ATOM      7  O   UNL A   1      30.910  23.830  27.249  1.00  0.00    -0.249 OA
BRANCH   6   8
ATOM      8  C   UNL A   1      33.017  22.487  26.159  1.00  0.00     0.221 C 
BRANCH   8   9
ATOM      9  N   UNL A   1      32.109  21.570  25.497  1.00  0.00    -0.368 N 
ATOM     10  H   UNL A   1      31.162  21.838  25.453  1.00  0.00     0.161 HD
BRANCH   9  11
ATOM     11  C   UNL A   1      32.439  20.363  24.926  1.00  0.00     0.038 A 
ATOM     12  C   UNL A   1      32.152  21.400  22.638  1.00  0.00     0.046 C 
ATOM     13  C   UNL A   1      32.268  20.204  23.547  1.00  0.00    -0.028 A 
ATOM     14  C   UNL A   1      32.305  18.915  23.003  1.00  0.00     0.005 A 
ATOM     15  C   UNL A   1      32.527  17.804  23.816  1.00  0.00     0.000 A 
ATOM     16  C   UNL A   1      32.901  19.269  25.672  1.00  0.00     0.026 A 
ATOM     17  C   UNL A   1      32.858  17.982  25.149  1.00  0.00     0.002 A 
ENDBRANCH   9  11
ENDBRANCH   8   9
BRANCH   8  18
ATOM     18  C   UNL A   1      34.478  22.503  25.484  1.00  0.00    -0.015 A 
ATOM     19  C   UNL A   1      34.792  23.146  24.282  1.00  0.00     0.006 A 
ATOM     20  C   UNL A   1      35.575  21.769  25.990  1.00  0.00     0.006 A 
ATOM     21  C   UNL A   1      36.111  23.419  23.885  1.00  0.00     0.000 A 
ATOM     22  C   UNL A   1      36.908  22.052  25.640  1.00  0.00     0.000 A 
ATOM     23  C   UNL A   1      37.178  22.954  24.631  1.00  0.00     0.000 A 
ENDBRANCH   8  18
ENDBRANCH   6   8
ENDBRANCH   5   6
ENDBRANCH   4   5
ENDBRANCH   3   4
ENDBRANCH   2   3
ENDBRANCH   1   2
BRANCH   1  24
ATOM     24  C   UNL A   1      33.540  30.871  27.444  1.00  0.00     0.188 C 
BRANCH  24  25
ATOM     25  O   UNL A   1      33.177  32.232  27.626  1.00  0.00    -0.376 OA
BRANCH  25  26
ATOM     26  C   UNL A   1      34.219  33.132  27.947  1.00  0.00     0.202 C 
BRANCH  26  27
ATOM     27  C   UNL A   1      34.405  33.356  29.454  1.00  0.00     0.261 C 
BRANCH  27  28
ATOM     28  O   UNL A   1      34.764  32.119  30.103  1.00  0.00    -0.460 OA
BRANCH  28  29
ATOM     29  C   UNL A   1      36.100  31.907  30.347  1.00  0.00     0.338 C 
ATOM     30  O   UNL A   1      36.914  32.769  30.600  1.00  0.00    -0.246 OA
BRANCH  29  31
ATOM     31  C   UNL A   1      36.449  30.517  29.894  1.00  0.00     0.060 A 
ATOM     32  C   UNL A   1      36.903  29.524  30.758  1.00  0.00     0.016 A 
ATOM     33  C   UNL A   1      36.769  30.347  28.588  1.00  0.00     0.016 A 
ATOM     34  C   UNL A   1      37.918  28.579  30.340  1.00  0.00     0.010 A 
ATOM     35  C   UNL A   1      37.885  29.543  28.293  1.00  0.00     0.010 A 
ATOM     36  C   UNL A   1      38.638  28.651  29.122  1.00  0.00    -0.014 A 
BRANCH  36  37
ATOM     37  C   UNL A   1      40.192  27.890  28.888  1.00  0.00     0.031 A 
ATOM     38  C   UNL A   1      40.867  26.361  28.311  1.00  0.00     0.074 A 
ATOM     39  C   UNL A   1      41.220  28.769  29.032  1.00  0.00     0.049 A 
ATOM     40  N   UNL A   1      42.156  26.082  28.156  1.00  0.00    -0.248 NA
ATOM     41  C   UNL A   1      40.230  25.084  27.859  1.00  0.00     0.031 C 
ATOM     42  C   UNL A   1      42.603  28.672  28.571  1.00  0.00     0.029 A 
ATOM     43  N   UNL A   1      41.227  29.994  29.706  1.00  0.00    -0.354 N 
ATOM     44  C   UNL A   1      42.311  24.828  27.534  1.00  0.00     0.074 A 
ATOM     45  C   UNL A   1      41.053  24.494  27.012  1.00  0.00     0.031 C 
ATOM     46  C   UNL A   1      43.364  29.536  29.255  1.00  0.00     0.029 A 
ATOM     47  C   UNL A   1      42.515  30.180  30.226  1.00  0.00     0.049 A 
ATOM     48  H   UNL A   1      40.467  30.613  29.799  1.00  0.00     0.167 HD
ATOM     49  C   UNL A   1      43.370  23.973  27.622  1.00  0.00     0.037 A 
ATOM     50  C   UNL A   1      42.680  30.199  31.576  1.00  0.00     0.037 A 
ATOM     51  C   UNL A   1      44.437  24.613  28.329  1.00  0.00     0.049 A 
ATOM     52  C   UNL A   1      43.412  28.975  32.093  1.00  0.00     0.074 A 
ATOM     53  C   UNL A   1      45.232  25.692  28.000  1.00  0.00     0.029 A 
ATOM     54  N   UNL A   1      44.466  24.488  29.699  1.00  0.00    -0.354 N 
ATOM     55  N   UNL A   1      43.912  28.024  31.347  1.00  0.00    -0.248 NA
ATOM     56  C   UNL A   1      43.557  28.694  33.520  1.00  0.00     0.031 C 
ATOM     57  C   UNL A   1      45.547  26.354  29.218  1.00  0.00     0.029 A 
ATOM     58  C   UNL A   1      45.019  25.622  30.270  1.00  0.00     0.049 A 
ATOM     59  H   UNL A   1      44.141  23.706  30.200  1.00  0.00     0.167 HD
ATOM     60  C   UNL A   1      44.364  27.013  32.150  1.00  0.00     0.074 A 
ATOM     61  C   UNL A   1      44.110  27.473  33.503  1.00  0.00     0.031 C 
ATOM     62  C   UNL A   1      44.895  25.840  31.698  1.00  0.00     0.037 A 
BRANCH  49  63
ATOM     63  C   UNL A   1      43.406  22.558  27.027  1.00  0.00     0.064 A 
ATOM     64  C   UNL A   1      44.394  22.208  26.090  1.00  0.00     0.173 A 
ATOM     65  C   UNL A   1      42.487  21.512  27.306  1.00  0.00     0.173 A 
ATOM     66  F   UNL A   1      45.420  23.033  25.847  1.00  0.00    -0.203 F 
ATOM     67  C   UNL A   1      44.364  20.994  25.381  1.00  0.00     0.198 A 
ATOM     68  C   UNL A   1      42.391  20.349  26.528  1.00  0.00     0.198 A 
ATOM     69  F   UNL A   1      41.687  21.551  28.383  1.00  0.00    -0.203 F 
ATOM     70  F   UNL A   1      45.348  20.702  24.518  1.00  0.00    -0.200 F 
ATOM     71  C   UNL A   1      43.327  20.095  25.553  1.00  0.00     0.200 A 
ATOM     72  F   UNL A   1      41.393  19.477  26.741  1.00  0.00    -0.200 F 
ATOM     73  F   UNL A   1      43.257  18.977  24.817  1.00  0.00    -0.200 F 
ENDBRANCH  49  63
BRANCH  50  74
ATOM     74  C   UNL A   1      41.589  30.969  32.257  1.00  0.00     0.064 A 
ATOM     75  C   UNL A   1      40.530  30.221  32.830  1.00  0.00     0.173 A 
ATOM     76  C   UNL A   1      41.713  32.302  32.666  1.00  0.00     0.173 A 
ATOM     77  F   UNL A   1      40.355  28.933  32.486  1.00  0.00    -0.203 F 
ATOM     78  C   UNL A   1      39.746  30.729  33.862  1.00  0.00     0.198 A 
ATOM     79  C   UNL A   1      40.891  32.824  33.674  1.00  0.00     0.198 A 
ATOM     80  F   UNL A   1      42.698  33.075  32.191  1.00  0.00    -0.203 F 
ATOM     81  F   UNL A   1      38.880  29.929  34.500  1.00  0.00    -0.200 F 
ATOM     82  C   UNL A   1      39.940  32.027  34.296  1.00  0.00     0.200 A 
ATOM     83  F   UNL A   1      41.095  34.073  34.119  1.00  0.00    -0.200 F 
ATOM     84  F   UNL A   1      39.266  32.485  35.362  1.00  0.00    -0.200 F 
ENDBRANCH  50  74
BRANCH  62  85
ATOM     85  C   UNL A   1      45.381  24.823  32.676  1.00  0.00     0.064 A 
ATOM     86  C   UNL A   1      44.531  23.788  33.094  1.00  0.00     0.173 A 
ATOM     87  C   UNL A   1      46.658  24.878  33.257  1.00  0.00     0.173 A 
ATOM     88  F   UNL A   1      43.283  23.700  32.609  1.00  0.00    -0.203 F 
ATOM     89  C   UNL A   1      44.960  22.820  33.994  1.00  0.00     0.198 A 
ATOM     90  C   UNL A   1      47.069  23.935  34.194  1.00  0.00     0.198 A 
ATOM     91  F   UNL A   1      47.533  25.838  32.919  1.00  0.00    -0.203 F 
ATOM     92  F   UNL A   1      44.146  21.806  34.316  1.00  0.00    -0.200 F 
ATOM     93  C   UNL A   1      46.227  22.896  34.549  1.00  0.00     0.200 A 
ATOM     94  F   UNL A   1      48.288  24.032  34.745  1.00  0.00    -0.200 F 
ATOM     95  F   UNL A   1      46.638  21.965  35.420  1.00  0.00    -0.200 F 
ENDBRANCH  62  85
ENDBRANCH  36  37
ENDBRANCH  29  31
ENDBRANCH  28  29
ENDBRANCH  27  28
ENDBRANCH  26  27
ENDBRANCH  25  26
ENDBRANCH  24  25
ENDBRANCH   1  24
TORSDOF 20
ENDMDL
