MODEL 1
REMARK VINA RESULT:     -12.7      0.000      0.000
REMARK SMILES Cc1ccccc1CNc1ccc(C(=O)OCCOCCOCCOC(=O)c2ccc(-c3c4nc(c(-c5c(F)c(F)c(F)c(F)c5F)c5ccc([nH]5)c(-c5c(F)c(F)c(F)c(F)c5F)c5nc(c(-c6c(F)c(F)c(F)c(F)c6F)c6ccc3[nH]6)C=C5)C=C4)cc2)c(F)c1F
REMARK SMILES IDX 20 1 19 2 18 3 17 4 16 5 14 6 15 7 13 8 10 9 11 10 93 11
REMARK SMILES IDX 12 12 91 13 94 14 92 15 9 16 8 18 7 19 1 20 2 21 3 22 4 23
REMARK SMILES IDX 6 24 5 25 21 26 22 27 23 28 24 29 25 30 26 31 27 32 28 33
REMARK SMILES IDX 29 34 90 35 30 36 89 37 31 38 32 39 33 40 83 41 34 42 88 43
REMARK SMILES IDX 82 44 84 45 35 46 87 47 81 48 80 49 36 51 68 52 48 53 67 54
REMARK SMILES IDX 49 55 52 56 66 57 85 58 50 59 51 60 65 62 86 63 53 64 37 65
REMARK SMILES IDX 38 66 46 67 39 68 40 69 44 70 47 71 41 72 42 73 45 74 43 75
REMARK SMILES IDX 69 76 70 77 78 78 71 79 72 80 76 81 79 82 73 83 74 84 77 85
REMARK SMILES IDX 75 86 54 87 55 88 63 89 56 90 57 91 61 92 64 93 58 94 59 95
REMARK SMILES IDX 62 96 60 97
REMARK H PARENT 9 17 84 50 52 61
REMARK Flexibility Score: inf
ROOT
ATOM      1  C   UNL A   1      34.217  32.536  28.396  1.00  0.00     0.188 C 
ENDROOT
BRANCH   1   2
ATOM      2  O   UNL A   1      34.219  31.538  27.345  1.00  0.00    -0.376 OA
BRANCH   2   3
ATOM      3  C   UNL A   1      33.180  30.574  27.131  1.00  0.00     0.202 C 
BRANCH   3   4
ATOM      4  C   UNL A   1      31.823  30.831  26.145  1.00  0.00     0.261 C 
BRANCH   4   5
ATOM      5  O   UNL A   1      31.051  29.823  25.024  1.00  0.00    -0.460 OA
BRANCH   5   6
ATOM      6  C   UNL A   1      31.420  28.920  23.987  1.00  0.00     0.341 C 
ATOM      7  O   UNL A   1      31.698  29.160  22.815  1.00  0.00    -0.246 OA
BRANCH   6   8
ATOM      8  C   UNL A   1      31.583  27.456  24.076  1.00  0.00     0.099 A 
ATOM      9  C   UNL A   1      32.739  25.018  23.134  1.00  0.00     0.074 A 
ATOM     10  C   UNL A   1      31.511  25.495  22.648  1.00  0.00     0.030 A 
ATOM     11  C   UNL A   1      33.380  25.764  24.115  1.00  0.00     0.182 A 
ATOM     12  C   UNL A   1      30.928  26.693  23.115  1.00  0.00     0.021 A 
ATOM     13  C   UNL A   1      32.841  26.969  24.541  1.00  0.00     0.175 A 
ATOM     14  F   UNL A   1      34.614  25.407  24.519  1.00  0.00    -0.201 F 
ATOM     15  F   UNL A   1      33.695  27.740  25.221  1.00  0.00    -0.203 F 
BRANCH   9  16
ATOM     16  N   UNL A   1      33.435  23.971  22.508  1.00  0.00    -0.379 N 
ATOM     17  H   UNL A   1      34.150  24.132  21.850  1.00  0.00     0.161 HD
BRANCH  16  18
ATOM     18  C   UNL A   1      33.022  22.626  22.902  1.00  0.00     0.149 C 
BRANCH  18  19
ATOM     19  C   UNL A   1      33.557  22.283  24.279  1.00  0.00    -0.026 A 
ATOM     20  C   UNL A   1      31.288  22.600  25.422  1.00  0.00     0.044 C 
ATOM     21  C   UNL A   1      32.752  22.261  25.435  1.00  0.00    -0.046 A 
ATOM     22  C   UNL A   1      33.319  21.857  26.659  1.00  0.00     0.004 A 
ATOM     23  C   UNL A   1      34.670  21.528  26.755  1.00  0.00     0.000 A 
ATOM     24  C   UNL A   1      34.929  21.978  24.403  1.00  0.00     0.006 A 
ATOM     25  C   UNL A   1      35.479  21.601  25.629  1.00  0.00     0.000 A 
ENDBRANCH  18  19
ENDBRANCH  16  18
ENDBRANCH   9  16
ENDBRANCH   6   8
ENDBRANCH   5   6
ENDBRANCH   4   5
ENDBRANCH   3   4
ENDBRANCH   2   3
ENDBRANCH   1   2
BRANCH   1  26
ATOM     26  C   UNL A   1      33.419  33.837  28.302  1.00  0.00     0.188 C 
BRANCH  26  27
ATOM     27  O   UNL A   1      33.807  34.702  29.351  1.00  0.00    -0.376 OA
BRANCH  27  28
ATOM     28  C   UNL A   1      33.176  35.970  29.371  1.00  0.00     0.202 C 
BRANCH  28  29
ATOM     29  C   UNL A   1      32.557  36.286  30.744  1.00  0.00     0.261 C 
BRANCH  29  30
ATOM     30  O   UNL A   1      32.832  35.215  31.683  1.00  0.00    -0.460 OA
BRANCH  30  31
ATOM     31  C   UNL A   1      33.493  35.547  32.852  1.00  0.00     0.338 C 
ATOM     32  O   UNL A   1      33.484  36.632  33.363  1.00  0.00    -0.246 OA
BRANCH  31  33
ATOM     33  C   UNL A   1      34.441  34.426  33.233  1.00  0.00     0.060 A 
ATOM     34  C   UNL A   1      35.584  34.543  34.040  1.00  0.00     0.016 A 
ATOM     35  C   UNL A   1      34.426  33.348  32.421  1.00  0.00     0.016 A 
ATOM     36  C   UNL A   1      36.746  33.658  33.869  1.00  0.00     0.010 A 
ATOM     37  C   UNL A   1      35.680  32.804  32.127  1.00  0.00     0.010 A 
ATOM     38  C   UNL A   1      36.881  32.742  32.816  1.00  0.00    -0.014 A 
BRANCH  38  39
ATOM     39  C   UNL A   1      38.206  32.019  32.254  1.00  0.00     0.031 A 
ATOM     40  C   UNL A   1      38.538  30.706  31.312  1.00  0.00     0.074 A 
ATOM     41  C   UNL A   1      39.360  32.602  32.651  1.00  0.00     0.049 A 
ATOM     42  N   UNL A   1      39.504  29.824  31.568  1.00  0.00    -0.248 NA
ATOM     43  C   UNL A   1      37.848  30.206  30.082  1.00  0.00     0.031 C 
ATOM     44  C   UNL A   1      40.710  32.348  32.156  1.00  0.00     0.029 A 
ATOM     45  N   UNL A   1      39.552  33.498  33.714  1.00  0.00    -0.354 N 
ATOM     46  C   UNL A   1      39.495  28.861  30.543  1.00  0.00     0.074 A 
ATOM     47  C   UNL A   1      38.226  28.946  29.991  1.00  0.00     0.031 C 
ATOM     48  C   UNL A   1      41.587  32.784  33.072  1.00  0.00     0.029 A 
ATOM     49  C   UNL A   1      40.826  33.215  34.228  1.00  0.00     0.049 A 
ATOM     50  H   UNL A   1      38.922  34.185  34.033  1.00  0.00     0.167 HD
ATOM     51  C   UNL A   1      40.568  28.241  29.968  1.00  0.00     0.037 A 
ATOM     52  C   UNL A   1      40.991  32.797  35.512  1.00  0.00     0.037 A 
ATOM     53  C   UNL A   1      41.732  28.530  30.763  1.00  0.00     0.049 A 
ATOM     54  C   UNL A   1      41.725  31.485  35.622  1.00  0.00     0.074 A 
ATOM     55  C   UNL A   1      42.789  29.407  30.624  1.00  0.00     0.029 A 
ATOM     56  N   UNL A   1      41.716  28.113  32.081  1.00  0.00    -0.354 N 
ATOM     57  N   UNL A   1      41.957  30.689  34.614  1.00  0.00    -0.248 NA
ATOM     58  C   UNL A   1      42.247  30.951  36.876  1.00  0.00     0.031 C 
ATOM     59  C   UNL A   1      43.356  29.588  31.915  1.00  0.00     0.029 A 
ATOM     60  C   UNL A   1      42.676  28.776  32.807  1.00  0.00     0.049 A 
ATOM     61  H   UNL A   1      41.102  27.436  32.447  1.00  0.00     0.167 HD
ATOM     62  C   UNL A   1      42.563  29.546  35.057  1.00  0.00     0.074 A 
ATOM     63  C   UNL A   1      42.766  29.779  36.472  1.00  0.00     0.031 C 
ATOM     64  C   UNL A   1      42.802  28.489  34.226  1.00  0.00     0.037 A 
BRANCH  51  65
ATOM     65  C   UNL A   1      40.595  27.605  28.540  1.00  0.00     0.064 A 
ATOM     66  C   UNL A   1      40.012  26.334  28.328  1.00  0.00     0.173 A 
ATOM     67  C   UNL A   1      41.218  28.113  27.363  1.00  0.00     0.173 A 
ATOM     68  F   UNL A   1      39.306  25.728  29.292  1.00  0.00    -0.203 F 
ATOM     69  C   UNL A   1      40.123  25.622  27.114  1.00  0.00     0.198 A 
ATOM     70  C   UNL A   1      41.355  27.393  26.166  1.00  0.00     0.198 A 
ATOM     71  F   UNL A   1      41.699  29.349  27.253  1.00  0.00    -0.203 F 
ATOM     72  F   UNL A   1      39.557  24.412  26.998  1.00  0.00    -0.200 F 
ATOM     73  C   UNL A   1      40.818  26.140  26.043  1.00  0.00     0.200 A 
ATOM     74  F   UNL A   1      42.015  27.945  25.135  1.00  0.00    -0.200 F 
ATOM     75  F   UNL A   1      40.950  25.455  24.899  1.00  0.00    -0.200 F 
ENDBRANCH  51  65
BRANCH  52  76
ATOM     76  C   UNL A   1      39.971  33.346  36.455  1.00  0.00     0.064 A 
ATOM     77  C   UNL A   1      38.886  32.509  36.800  1.00  0.00     0.173 A 
ATOM     78  C   UNL A   1      40.200  34.458  37.275  1.00  0.00     0.173 A 
ATOM     79  F   UNL A   1      38.615  31.426  36.052  1.00  0.00    -0.203 F 
ATOM     80  C   UNL A   1      38.152  32.697  37.969  1.00  0.00     0.198 A 
ATOM     81  C   UNL A   1      39.441  34.661  38.439  1.00  0.00     0.198 A 
ATOM     82  F   UNL A   1      41.237  35.273  37.039  1.00  0.00    -0.203 F 
ATOM     83  F   UNL A   1      37.223  31.799  38.328  1.00  0.00    -0.200 F 
ATOM     84  C   UNL A   1      38.446  33.762  38.801  1.00  0.00     0.200 A 
ATOM     85  F   UNL A   1      39.761  35.654  39.282  1.00  0.00    -0.200 F 
ATOM     86  F   UNL A   1      37.822  33.881  39.982  1.00  0.00    -0.200 F 
ENDBRANCH  52  76
BRANCH  64  87
ATOM     87  C   UNL A   1      43.157  27.076  34.637  1.00  0.00     0.064 A 
ATOM     88  C   UNL A   1      42.212  26.084  34.943  1.00  0.00     0.173 A 
ATOM     89  C   UNL A   1      44.501  26.625  34.551  1.00  0.00     0.173 A 
ATOM     90  F   UNL A   1      40.899  26.341  34.938  1.00  0.00    -0.203 F 
ATOM     91  C   UNL A   1      42.584  24.761  35.199  1.00  0.00     0.198 A 
ATOM     92  C   UNL A   1      44.857  25.290  34.733  1.00  0.00     0.198 A 
ATOM     93  F   UNL A   1      45.506  27.461  34.251  1.00  0.00    -0.203 F 
ATOM     94  F   UNL A   1      41.646  23.865  35.534  1.00  0.00    -0.200 F 
ATOM     95  C   UNL A   1      43.901  24.360  35.076  1.00  0.00     0.200 A 
ATOM     96  F   UNL A   1      46.129  24.908  34.547  1.00  0.00    -0.200 F 
ATOM     97  F   UNL A   1      44.241  23.079  35.266  1.00  0.00    -0.200 F 
ENDBRANCH  64  87
ENDBRANCH  38  39
ENDBRANCH  31  33
ENDBRANCH  30  31
ENDBRANCH  29  30
ENDBRANCH  28  29
ENDBRANCH  27  28
ENDBRANCH  26  27
ENDBRANCH   1  26
TORSDOF 20
ENDMDL
MODEL 2
REMARK VINA RESULT:     -12.4      1.810      2.499
REMARK SMILES Cc1ccccc1CNc1ccc(C(=O)OCCOCCOCCOC(=O)c2ccc(-c3c4nc(c(-c5c(F)c(F)c(F)c(F)c5F)c5ccc([nH]5)c(-c5c(F)c(F)c(F)c(F)c5F)c5nc(c(-c6c(F)c(F)c(F)c(F)c6F)c6ccc3[nH]6)C=C5)C=C4)cc2)c(F)c1F
REMARK SMILES IDX 20 1 19 2 18 3 17 4 16 5 14 6 15 7 13 8 10 9 11 10 93 11
REMARK SMILES IDX 12 12 91 13 94 14 92 15 9 16 8 18 7 19 1 20 2 21 3 22 4 23
REMARK SMILES IDX 6 24 5 25 21 26 22 27 23 28 24 29 25 30 26 31 27 32 28 33
REMARK SMILES IDX 29 34 90 35 30 36 89 37 31 38 32 39 33 40 83 41 34 42 88 43
REMARK SMILES IDX 82 44 84 45 35 46 87 47 81 48 80 49 36 51 68 52 48 53 67 54
REMARK SMILES IDX 49 55 52 56 66 57 85 58 50 59 51 60 65 62 86 63 53 64 37 65
REMARK SMILES IDX 38 66 46 67 39 68 40 69 44 70 47 71 41 72 42 73 45 74 43 75
REMARK SMILES IDX 69 76 70 77 78 78 71 79 72 80 76 81 79 82 73 83 74 84 77 85
REMARK SMILES IDX 75 86 54 87 55 88 63 89 56 90 57 91 61 92 64 93 58 94 59 95
REMARK SMILES IDX 62 96 60 97
REMARK H PARENT 9 17 84 50 52 61
REMARK Flexibility Score: inf
ROOT
ATOM      1  C   UNL A   1      34.127  34.734  28.360  1.00  0.00     0.188 C 
ENDROOT
BRANCH   1   2
ATOM      2  O   UNL A   1      33.576  33.443  28.002  1.00  0.00    -0.376 OA
BRANCH   2   3
ATOM      3  C   UNL A   1      32.402  33.247  27.203  1.00  0.00     0.202 C 
BRANCH   3   4
ATOM      4  C   UNL A   1      31.791  31.729  26.754  1.00  0.00     0.261 C 
BRANCH   4   5
ATOM      5  O   UNL A   1      31.882  30.220  27.518  1.00  0.00    -0.460 OA
BRANCH   5   6
ATOM      6  C   UNL A   1      31.946  28.848  27.142  1.00  0.00     0.341 C 
ATOM      7  O   UNL A   1      31.429  27.873  27.681  1.00  0.00    -0.246 OA
BRANCH   6   8
ATOM      8  C   UNL A   1      32.641  28.258  25.981  1.00  0.00     0.099 A 
ATOM      9  C   UNL A   1      33.118  26.060  24.218  1.00  0.00     0.074 A 
ATOM     10  C   UNL A   1      33.877  26.257  25.383  1.00  0.00     0.030 A 
ATOM     11  C   UNL A   1      32.124  26.987  23.929  1.00  0.00     0.182 A 
ATOM     12  C   UNL A   1      33.654  27.347  26.253  1.00  0.00     0.021 A 
ATOM     13  C   UNL A   1      31.864  28.029  24.805  1.00  0.00     0.175 A 
ATOM     14  F   UNL A   1      31.296  26.769  22.890  1.00  0.00    -0.201 F 
ATOM     15  F   UNL A   1      30.694  28.641  24.597  1.00  0.00    -0.203 F 
BRANCH   9  16
ATOM     16  N   UNL A   1      33.169  24.861  23.486  1.00  0.00    -0.379 N 
ATOM     17  H   UNL A   1      33.232  24.846  22.504  1.00  0.00     0.161 HD
BRANCH  16  18
ATOM     18  C   UNL A   1      33.120  23.641  24.288  1.00  0.00     0.149 C 
BRANCH  18  19
ATOM     19  C   UNL A   1      34.497  23.013  24.392  1.00  0.00    -0.026 A 
ATOM     20  C   UNL A   1      33.999  21.895  26.642  1.00  0.00     0.044 C 
ATOM     21  C   UNL A   1      34.893  22.200  25.473  1.00  0.00    -0.046 A 
ATOM     22  C   UNL A   1      36.166  21.598  25.449  1.00  0.00     0.004 A 
ATOM     23  C   UNL A   1      37.055  21.831  24.401  1.00  0.00     0.000 A 
ATOM     24  C   UNL A   1      35.423  23.264  23.358  1.00  0.00     0.006 A 
ATOM     25  C   UNL A   1      36.689  22.676  23.361  1.00  0.00     0.000 A 
ENDBRANCH  18  19
ENDBRANCH  16  18
ENDBRANCH   9  16
ENDBRANCH   6   8
ENDBRANCH   5   6
ENDBRANCH   4   5
ENDBRANCH   3   4
ENDBRANCH   2   3
ENDBRANCH   1   2
BRANCH   1  26
ATOM     26  C   UNL A   1      33.255  35.930  28.748  1.00  0.00     0.188 C 
BRANCH  26  27
ATOM     27  O   UNL A   1      32.551  35.630  29.937  1.00  0.00    -0.376 OA
BRANCH  27  28
ATOM     28  C   UNL A   1      32.883  36.417  31.066  1.00  0.00     0.202 C 
BRANCH  28  29
ATOM     29  C   UNL A   1      33.631  35.604  32.137  1.00  0.00     0.261 C 
BRANCH  29  30
ATOM     30  O   UNL A   1      33.568  34.187  31.834  1.00  0.00    -0.460 OA
BRANCH  30  31
ATOM     31  C   UNL A   1      34.570  33.381  32.345  1.00  0.00     0.338 C 
ATOM     32  O   UNL A   1      34.774  33.195  33.512  1.00  0.00    -0.246 OA
BRANCH  31  33
ATOM     33  C   UNL A   1      35.527  32.997  31.232  1.00  0.00     0.060 A 
ATOM     34  C   UNL A   1      35.458  31.838  30.443  1.00  0.00     0.016 A 
ATOM     35  C   UNL A   1      36.741  33.584  31.278  1.00  0.00     0.016 A 
ATOM     36  C   UNL A   1      36.664  31.221  29.869  1.00  0.00     0.010 A 
ATOM     37  C   UNL A   1      37.821  32.748  30.980  1.00  0.00     0.010 A 
ATOM     38  C   UNL A   1      37.970  31.630  30.173  1.00  0.00    -0.014 A 
BRANCH  38  39
ATOM     39  C   UNL A   1      39.360  30.841  29.976  1.00  0.00     0.031 A 
ATOM     40  C   UNL A   1      39.826  29.381  29.365  1.00  0.00     0.074 A 
ATOM     41  C   UNL A   1      40.442  31.511  30.436  1.00  0.00     0.049 A 
ATOM     42  N   UNL A   1      40.729  28.583  29.934  1.00  0.00    -0.248 NA
ATOM     43  C   UNL A   1      39.337  28.645  28.157  1.00  0.00     0.031 C 
ATOM     44  C   UNL A   1      41.851  31.196  30.220  1.00  0.00     0.029 A 
ATOM     45  N   UNL A   1      40.470  32.595  31.327  1.00  0.00    -0.354 N 
ATOM     46  C   UNL A   1      40.875  27.444  29.121  1.00  0.00     0.074 A 
ATOM     47  C   UNL A   1      39.712  27.398  28.368  1.00  0.00     0.031 C 
ATOM     48  C   UNL A   1      42.574  31.814  31.165  1.00  0.00     0.029 A 
ATOM     49  C   UNL A   1      41.642  32.440  32.082  1.00  0.00     0.049 A 
ATOM     50  H   UNL A   1      39.805  33.317  31.406  1.00  0.00     0.167 HD
ATOM     51  C   UNL A   1      42.019  26.749  28.852  1.00  0.00     0.037 A 
ATOM     52  C   UNL A   1      41.594  32.273  33.432  1.00  0.00     0.037 A 
ATOM     53  C   UNL A   1      43.043  27.206  29.753  1.00  0.00     0.049 A 
ATOM     54  C   UNL A   1      42.287  31.020  33.903  1.00  0.00     0.074 A 
ATOM     55  C   UNL A   1      44.118  28.062  29.623  1.00  0.00     0.029 A 
ATOM     56  N   UNL A   1      42.811  27.043  31.107  1.00  0.00    -0.354 N 
ATOM     57  N   UNL A   1      42.670  30.054  33.113  1.00  0.00    -0.248 NA
ATOM     58  C   UNL A   1      42.595  30.743  35.302  1.00  0.00     0.031 C 
ATOM     59  C   UNL A   1      44.472  28.494  30.930  1.00  0.00     0.029 A 
ATOM     60  C   UNL A   1      43.649  27.850  31.839  1.00  0.00     0.049 A 
ATOM     61  H   UNL A   1      42.139  26.435  31.491  1.00  0.00     0.167 HD
ATOM     62  C   UNL A   1      43.185  29.027  33.856  1.00  0.00     0.074 A 
ATOM     63  C   UNL A   1      43.160  29.526  35.215  1.00  0.00     0.031 C 
ATOM     64  C   UNL A   1      43.543  27.838  33.288  1.00  0.00     0.037 A 
BRANCH  51  65
ATOM     65  C   UNL A   1      42.268  25.856  27.593  1.00  0.00     0.064 A 
ATOM     66  C   UNL A   1      41.591  24.621  27.464  1.00  0.00     0.173 A 
ATOM     67  C   UNL A   1      43.184  26.081  26.524  1.00  0.00     0.173 A 
ATOM     68  F   UNL A   1      40.628  24.269  28.326  1.00  0.00    -0.203 F 
ATOM     69  C   UNL A   1      41.868  23.687  26.443  1.00  0.00     0.198 A 
ATOM     70  C   UNL A   1      43.481  25.140  25.526  1.00  0.00     0.198 A 
ATOM     71  F   UNL A   1      43.826  27.229  26.326  1.00  0.00    -0.203 F 
ATOM     72  F   UNL A   1      41.194  22.529  26.400  1.00  0.00    -0.200 F 
ATOM     73  C   UNL A   1      42.832  23.936  25.489  1.00  0.00     0.200 A 
ATOM     74  F   UNL A   1      44.407  25.432  24.597  1.00  0.00    -0.200 F 
ATOM     75  F   UNL A   1      43.117  23.040  24.535  1.00  0.00    -0.200 F 
ENDBRANCH  51  65
BRANCH  52  76
ATOM     76  C   UNL A   1      40.442  32.969  34.079  1.00  0.00     0.064 A 
ATOM     77  C   UNL A   1      39.297  32.195  34.375  1.00  0.00     0.173 A 
ATOM     78  C   UNL A   1      40.553  34.209  34.720  1.00  0.00     0.173 A 
ATOM     79  F   UNL A   1      39.133  30.997  33.791  1.00  0.00    -0.203 F 
ATOM     80  C   UNL A   1      38.381  32.579  35.352  1.00  0.00     0.198 A 
ATOM     81  C   UNL A   1      39.613  34.606  35.685  1.00  0.00     0.198 A 
ATOM     82  F   UNL A   1      41.632  34.980  34.525  1.00  0.00    -0.203 F 
ATOM     83  F   UNL A   1      37.387  31.748  35.699  1.00  0.00    -0.200 F 
ATOM     84  C   UNL A   1      38.553  33.774  36.024  1.00  0.00     0.200 A 
ATOM     85  F   UNL A   1      39.807  35.733  36.386  1.00  0.00    -0.200 F 
ATOM     86  F   UNL A   1      37.742  34.092  37.044  1.00  0.00    -0.200 F 
ENDBRANCH  52  76
BRANCH  64  87
ATOM     87  C   UNL A   1      43.812  26.535  34.010  1.00  0.00     0.064 A 
ATOM     88  C   UNL A   1      42.827  25.779  34.664  1.00  0.00     0.173 A 
ATOM     89  C   UNL A   1      45.080  25.905  33.896  1.00  0.00     0.173 A 
ATOM     90  F   UNL A   1      41.557  26.195  34.737  1.00  0.00    -0.203 F 
ATOM     91  C   UNL A   1      43.100  24.523  35.213  1.00  0.00     0.198 A 
ATOM     92  C   UNL A   1      45.327  24.621  34.378  1.00  0.00     0.198 A 
ATOM     93  F   UNL A   1      46.111  26.505  33.281  1.00  0.00    -0.203 F 
ATOM     94  F   UNL A   1      42.135  23.865  35.870  1.00  0.00    -0.200 F 
ATOM     95  C   UNL A   1      44.341  23.936  35.053  1.00  0.00     0.200 A 
ATOM     96  F   UNL A   1      46.517  24.044  34.158  1.00  0.00    -0.200 F 
ATOM     97  F   UNL A   1      44.578  22.708  35.531  1.00  0.00    -0.200 F 
ENDBRANCH  64  87
ENDBRANCH  38  39
ENDBRANCH  31  33
ENDBRANCH  30  31
ENDBRANCH  29  30
ENDBRANCH  28  29
ENDBRANCH  27  28
ENDBRANCH  26  27
ENDBRANCH   1  26
TORSDOF 20
ENDMDL
MODEL 3
REMARK VINA RESULT:     -12.4      2.860      4.283
REMARK SMILES Cc1ccccc1CNc1ccc(C(=O)OCCOCCOCCOC(=O)c2ccc(-c3c4nc(c(-c5c(F)c(F)c(F)c(F)c5F)c5ccc([nH]5)c(-c5c(F)c(F)c(F)c(F)c5F)c5nc(c(-c6c(F)c(F)c(F)c(F)c6F)c6ccc3[nH]6)C=C5)C=C4)cc2)c(F)c1F
REMARK SMILES IDX 20 1 19 2 18 3 17 4 16 5 14 6 15 7 13 8 10 9 11 10 93 11
REMARK SMILES IDX 12 12 91 13 94 14 92 15 9 16 8 18 7 19 1 20 2 21 3 22 4 23
REMARK SMILES IDX 6 24 5 25 21 26 22 27 23 28 24 29 25 30 26 31 27 32 28 33
REMARK SMILES IDX 29 34 90 35 30 36 89 37 31 38 32 39 33 40 83 41 34 42 88 43
REMARK SMILES IDX 82 44 84 45 35 46 87 47 81 48 80 49 36 51 68 52 48 53 67 54
REMARK SMILES IDX 49 55 52 56 66 57 85 58 50 59 51 60 65 62 86 63 53 64 37 65
REMARK SMILES IDX 38 66 46 67 39 68 40 69 44 70 47 71 41 72 42 73 45 74 43 75
REMARK SMILES IDX 69 76 70 77 78 78 71 79 72 80 76 81 79 82 73 83 74 84 77 85
REMARK SMILES IDX 75 86 54 87 55 88 63 89 56 90 57 91 61 92 64 93 58 94 59 95
REMARK SMILES IDX 62 96 60 97
REMARK H PARENT 9 17 84 50 52 61
REMARK Flexibility Score: inf
ROOT
ATOM      1  C   UNL A   1      32.887  31.568  27.249  1.00  0.00     0.188 C 
ENDROOT
BRANCH   1   2
ATOM      2  O   UNL A   1      31.976  30.499  26.891  1.00  0.00    -0.376 OA
BRANCH   2   3
ATOM      3  C   UNL A   1      31.677  30.095  25.548  1.00  0.00     0.202 C 
BRANCH   3   4
ATOM      4  C   UNL A   1      31.882  28.519  24.954  1.00  0.00     0.261 C 
BRANCH   4   5
ATOM      5  O   UNL A   1      30.906  27.572  23.944  1.00  0.00    -0.460 OA
BRANCH   5   6
ATOM      6  C   UNL A   1      29.968  26.510  24.076  1.00  0.00     0.341 C 
ATOM      7  O   UNL A   1      28.747  26.535  23.945  1.00  0.00    -0.246 OA
BRANCH   6   8
ATOM      8  C   UNL A   1      30.241  25.092  24.384  1.00  0.00     0.099 A 
ATOM      9  C   UNL A   1      32.072  22.920  24.695  1.00  0.00     0.074 A 
ATOM     10  C   UNL A   1      31.449  23.198  23.467  1.00  0.00     0.030 A 
ATOM     11  C   UNL A   1      31.756  23.730  25.778  1.00  0.00     0.182 A 
ATOM     12  C   UNL A   1      30.535  24.263  23.308  1.00  0.00     0.021 A 
ATOM     13  C   UNL A   1      30.901  24.810  25.618  1.00  0.00     0.175 A 
ATOM     14  F   UNL A   1      32.420  23.574  26.939  1.00  0.00    -0.201 F 
ATOM     15  F   UNL A   1      30.939  25.692  26.621  1.00  0.00    -0.203 F 
BRANCH   9  16
ATOM     16  N   UNL A   1      33.152  22.028  24.801  1.00  0.00    -0.379 N 
ATOM     17  H   UNL A   1      33.181  21.312  25.477  1.00  0.00     0.161 HD
BRANCH  16  18
ATOM     18  C   UNL A   1      34.229  22.238  23.836  1.00  0.00     0.149 C 
BRANCH  18  19
ATOM     19  C   UNL A   1      35.540  22.513  24.548  1.00  0.00    -0.026 A 
ATOM     20  C   UNL A   1      34.923  24.937  25.100  1.00  0.00     0.044 C 
ATOM     21  C   UNL A   1      35.851  23.754  25.139  1.00  0.00    -0.046 A 
ATOM     22  C   UNL A   1      37.061  23.895  25.844  1.00  0.00     0.004 A 
ATOM     23  C   UNL A   1      37.975  22.846  25.926  1.00  0.00     0.000 A 
ATOM     24  C   UNL A   1      36.493  21.475  24.613  1.00  0.00     0.006 A 
ATOM     25  C   UNL A   1      37.697  21.639  25.298  1.00  0.00     0.000 A 
ENDBRANCH  18  19
ENDBRANCH  16  18
ENDBRANCH   9  16
ENDBRANCH   6   8
ENDBRANCH   5   6
ENDBRANCH   4   5
ENDBRANCH   3   4
ENDBRANCH   2   3
ENDBRANCH   1   2
BRANCH   1  26
ATOM     26  C   UNL A   1      32.419  32.998  27.524  1.00  0.00     0.188 C 
BRANCH  26  27
ATOM     27  O   UNL A   1      33.545  33.826  27.740  1.00  0.00    -0.376 OA
BRANCH  27  28
ATOM     28  C   UNL A   1      33.477  34.678  28.870  1.00  0.00     0.202 C 
BRANCH  28  29
ATOM     29  C   UNL A   1      34.505  34.291  29.948  1.00  0.00     0.261 C 
BRANCH  29  30
ATOM     30  O   UNL A   1      35.195  33.070  29.575  1.00  0.00    -0.460 OA
BRANCH  30  31
ATOM     31  C   UNL A   1      35.337  32.096  30.547  1.00  0.00     0.338 C 
ATOM     32  O   UNL A   1      35.156  32.265  31.721  1.00  0.00    -0.246 OA
BRANCH  31  33
ATOM     33  C   UNL A   1      36.012  30.878  29.948  1.00  0.00     0.060 A 
ATOM     34  C   UNL A   1      36.322  29.685  30.622  1.00  0.00     0.016 A 
ATOM     35  C   UNL A   1      36.728  31.100  28.826  1.00  0.00     0.016 A 
ATOM     36  C   UNL A   1      37.465  28.848  30.227  1.00  0.00     0.010 A 
ATOM     37  C   UNL A   1      37.953  30.430  28.756  1.00  0.00     0.010 A 
ATOM     38  C   UNL A   1      38.416  29.228  29.269  1.00  0.00    -0.014 A 
BRANCH  38  39
ATOM     39  C   UNL A   1      39.900  28.654  29.018  1.00  0.00     0.031 A 
ATOM     40  C   UNL A   1      40.559  27.209  28.570  1.00  0.00     0.074 A 
ATOM     41  C   UNL A   1      40.883  29.556  29.240  1.00  0.00     0.049 A 
ATOM     42  N   UNL A   1      41.641  26.671  29.133  1.00  0.00    -0.248 NA
ATOM     43  C   UNL A   1      40.096  26.217  27.549  1.00  0.00     0.031 C 
ATOM     44  C   UNL A   1      42.298  29.444  28.900  1.00  0.00     0.029 A 
ATOM     45  N   UNL A   1      40.801  30.761  29.957  1.00  0.00    -0.354 N 
ATOM     46  C   UNL A   1      41.910  25.454  28.480  1.00  0.00     0.074 A 
ATOM     47  C   UNL A   1      40.707  25.099  27.889  1.00  0.00     0.031 C 
ATOM     48  C   UNL A   1      42.986  30.316  29.651  1.00  0.00     0.029 A 
ATOM     49  C   UNL A   1      42.049  30.922  30.576  1.00  0.00     0.049 A 
ATOM     50  H   UNL A   1      40.028  31.368  30.012  1.00  0.00     0.167 HD
ATOM     51  C   UNL A   1      43.129  24.921  28.175  1.00  0.00     0.037 A 
ATOM     52  C   UNL A   1      42.162  30.972  31.931  1.00  0.00     0.037 A 
ATOM     53  C   UNL A   1      44.137  25.678  28.868  1.00  0.00     0.049 A 
ATOM     54  C   UNL A   1      43.111  29.942  32.489  1.00  0.00     0.074 A 
ATOM     55  C   UNL A   1      45.023  26.665  28.485  1.00  0.00     0.029 A 
ATOM     56  N   UNL A   1      44.069  25.702  30.249  1.00  0.00    -0.354 N 
ATOM     57  N   UNL A   1      43.583  28.936  31.805  1.00  0.00    -0.248 NA
ATOM     58  C   UNL A   1      43.597  29.949  33.864  1.00  0.00     0.031 C 
ATOM     59  C   UNL A   1      45.417  27.355  29.663  1.00  0.00     0.029 A 
ATOM     60  C   UNL A   1      44.815  26.743  30.750  1.00  0.00     0.049 A 
ATOM     61  H   UNL A   1      43.557  25.064  30.797  1.00  0.00     0.167 HD
ATOM     62  C   UNL A   1      44.343  28.140  32.618  1.00  0.00     0.074 A 
ATOM     63  C   UNL A   1      44.359  28.843  33.885  1.00  0.00     0.031 C 
ATOM     64  C   UNL A   1      44.852  26.949  32.187  1.00  0.00     0.037 A 
BRANCH  51  65
ATOM     65  C   UNL A   1      43.412  23.888  27.036  1.00  0.00     0.064 A 
ATOM     66  C   UNL A   1      43.013  22.540  27.196  1.00  0.00     0.173 A 
ATOM     67  C   UNL A   1      44.117  24.097  25.815  1.00  0.00     0.173 A 
ATOM     68  F   UNL A   1      42.265  22.161  28.241  1.00  0.00    -0.203 F 
ATOM     69  C   UNL A   1      43.361  21.515  26.291  1.00  0.00     0.198 A 
ATOM     70  C   UNL A   1      44.489  23.073  24.930  1.00  0.00     0.198 A 
ATOM     71  F   UNL A   1      44.461  25.297  25.353  1.00  0.00    -0.203 F 
ATOM     72  F   UNL A   1      42.959  20.257  26.524  1.00  0.00    -0.200 F 
ATOM     73  C   UNL A   1      44.122  21.777  25.172  1.00  0.00     0.200 A 
ATOM     74  F   UNL A   1      45.207  23.374  23.835  1.00  0.00    -0.200 F 
ATOM     75  F   UNL A   1      44.478  20.802  24.325  1.00  0.00    -0.200 F 
ENDBRANCH  51  65
BRANCH  52  76
ATOM     76  C   UNL A   1      40.971  31.568  32.609  1.00  0.00     0.064 A 
ATOM     77  C   UNL A   1      40.877  32.977  32.639  1.00  0.00     0.173 A 
ATOM     78  C   UNL A   1      39.802  30.848  32.886  1.00  0.00     0.173 A 
ATOM     79  F   UNL A   1      41.964  33.724  32.382  1.00  0.00    -0.203 F 
ATOM     80  C   UNL A   1      39.659  33.631  32.808  1.00  0.00     0.198 A 
ATOM     81  C   UNL A   1      38.580  31.510  33.083  1.00  0.00     0.198 A 
ATOM     82  F   UNL A   1      39.802  29.508  32.833  1.00  0.00    -0.203 F 
ATOM     83  F   UNL A   1      39.594  34.965  32.690  1.00  0.00    -0.200 F 
ATOM     84  C   UNL A   1      38.505  32.896  33.007  1.00  0.00     0.200 A 
ATOM     85  F   UNL A   1      37.448  30.803  33.214  1.00  0.00    -0.200 F 
ATOM     86  F   UNL A   1      37.317  33.514  33.054  1.00  0.00    -0.200 F 
ENDBRANCH  52  76
BRANCH  64  87
ATOM     87  C   UNL A   1      45.419  25.842  33.050  1.00  0.00     0.064 A 
ATOM     88  C   UNL A   1      44.637  24.909  33.748  1.00  0.00     0.173 A 
ATOM     89  C   UNL A   1      46.815  25.576  33.044  1.00  0.00     0.173 A 
ATOM     90  F   UNL A   1      43.300  24.966  33.736  1.00  0.00    -0.203 F 
ATOM     91  C   UNL A   1      45.206  23.831  34.434  1.00  0.00     0.198 A 
ATOM     92  C   UNL A   1      47.369  24.459  33.665  1.00  0.00     0.198 A 
ATOM     93  F   UNL A   1      47.680  26.376  32.402  1.00  0.00    -0.203 F 
ATOM     94  F   UNL A   1      44.416  22.997  35.125  1.00  0.00    -0.200 F 
ATOM     95  C   UNL A   1      46.566  23.595  34.376  1.00  0.00     0.200 A 
ATOM     96  F   UNL A   1      48.681  24.213  33.545  1.00  0.00    -0.200 F 
ATOM     97  F   UNL A   1      47.097  22.528  34.988  1.00  0.00    -0.200 F 
ENDBRANCH  64  87
ENDBRANCH  38  39
ENDBRANCH  31  33
ENDBRANCH  30  31
ENDBRANCH  29  30
ENDBRANCH  28  29
ENDBRANCH  27  28
ENDBRANCH  26  27
ENDBRANCH   1  26
TORSDOF 20
ENDMDL
