MODEL 1
REMARK VINA RESULT:     -11.7      0.000      0.000
REMARK SMILES CC1(C)CCN(c2nc3c(cc2C(=O)OCCOCCOCCOC(=O)c2ccc(-c4c5nc(c(-c6c(F)c(F)c(F)c(F)c6F)c6ccc([nH]6)c(-c6c(F)c(F)c(F)c(F)c6F)c6nc(c(-c7c(F)c(F)c(F)c(F)c7F)c7ccc4[nH]7)C=C6)C=C5)cc2)CCC3)C1
REMARK SMILES IDX 20 1 19 2 18 3 17 4 16 5 15 6 13 7 14 8 12 9 7 10 8 11 9 12
REMARK SMILES IDX 11 13 10 14 92 15 90 16 91 17 6 18 1 19 2 20 3 21 4 22 93 23
REMARK SMILES IDX 5 24 21 25 22 26 23 27 24 28 25 29 26 30 27 31 28 32 89 33
REMARK SMILES IDX 29 34 88 35 30 36 31 37 32 38 82 39 33 40 87 41 81 42 83 43
REMARK SMILES IDX 34 44 86 45 80 46 79 47 35 49 67 50 47 51 66 52 48 53 51 54
REMARK SMILES IDX 65 55 84 56 49 57 50 58 64 60 85 61 52 62 36 63 37 64 45 65
REMARK SMILES IDX 38 66 39 67 43 68 46 69 40 70 41 71 44 72 42 73 68 74 69 75
REMARK SMILES IDX 77 76 70 77 71 78 75 79 78 80 72 81 73 82 76 83 74 84 53 85
REMARK SMILES IDX 54 86 62 87 55 88 56 89 60 90 63 91 57 92 58 93 61 94 59 95
REMARK H PARENT 83 48 51 59
REMARK Flexibility Score: inf
ROOT
ATOM      1  C   UNL A   1      35.163  33.210  28.156  1.00  0.00     0.188 C 
ENDROOT
BRANCH   1   2
ATOM      2  C   UNL A   1      33.904  32.328  27.980  1.00  0.00     0.188 C 
BRANCH   2   3
ATOM      3  O   UNL A   1      34.017  30.918  27.941  1.00  0.00    -0.376 OA
BRANCH   3   4
ATOM      4  C   UNL A   1      33.427  30.203  26.864  1.00  0.00     0.202 C 
BRANCH   4   5
ATOM      5  C   UNL A   1      33.927  28.806  26.482  1.00  0.00     0.261 C 
BRANCH   5   6
ATOM      6  O   UNL A   1      32.895  27.959  25.966  1.00  0.00    -0.460 OA
BRANCH   6   7
ATOM      7  C   UNL A   1      32.830  27.816  24.621  1.00  0.00     0.342 C 
ATOM      8  O   UNL A   1      33.746  27.471  23.890  1.00  0.00    -0.246 OA
BRANCH   7   9
ATOM      9  C   UNL A   1      31.438  27.934  24.139  1.00  0.00     0.102 A 
ATOM     10  C   UNL A   1      30.593  26.841  23.853  1.00  0.00     0.143 A 
ATOM     11  N   UNL A   1      29.313  27.054  23.435  1.00  0.00    -0.235 NA
ATOM     12  C   UNL A   1      28.904  28.325  23.282  1.00  0.00     0.046 A 
ATOM     13  C   UNL A   1      30.996  29.250  23.895  1.00  0.00     0.025 A 
ATOM     14  C   UNL A   1      29.709  29.435  23.441  1.00  0.00    -0.025 A 
ATOM     15  C   UNL A   1      27.476  28.732  23.060  1.00  0.00     0.057 C 
ATOM     16  C   UNL A   1      28.973  30.700  23.155  1.00  0.00     0.038 C 
ATOM     17  C   UNL A   1      27.645  30.178  22.577  1.00  0.00     0.011 C 
BRANCH  10  18
ATOM     18  N   UNL A   1      30.973  25.530  23.940  1.00  0.00    -0.355 N 
ATOM     19  C   UNL A   1      33.760  24.061  24.062  1.00  0.00     0.013 C 
ATOM     20  C   UNL A   1      32.347  23.633  23.640  1.00  0.00    -0.016 C 
ATOM     21  C   UNL A   1      32.423  22.374  22.773  1.00  0.00     0.013 C 
ATOM     22  C   UNL A   1      31.434  23.429  24.860  1.00  0.00     0.030 C 
ATOM     23  C   UNL A   1      31.640  24.778  22.890  1.00  0.00     0.124 C 
ATOM     24  C   UNL A   1      30.999  24.848  25.227  1.00  0.00     0.119 C 
ENDBRANCH  10  18
ENDBRANCH   7   9
ENDBRANCH   6   7
ENDBRANCH   5   6
ENDBRANCH   4   5
ENDBRANCH   3   4
ENDBRANCH   2   3
ENDBRANCH   1   2
BRANCH   1  25
ATOM     25  O   UNL A   1      35.126  34.313  29.030  1.00  0.00    -0.376 OA
BRANCH  25  26
ATOM     26  C   UNL A   1      34.204  34.341  30.104  1.00  0.00     0.202 C 
BRANCH  26  27
ATOM     27  C   UNL A   1      34.450  33.729  31.496  1.00  0.00     0.261 C 
BRANCH  27  28
ATOM     28  O   UNL A   1      34.830  32.350  31.553  1.00  0.00    -0.460 OA
BRANCH  28  29
ATOM     29  C   UNL A   1      35.800  32.049  32.455  1.00  0.00     0.338 C 
ATOM     30  O   UNL A   1      35.791  32.242  33.654  1.00  0.00    -0.246 OA
BRANCH  29  31
ATOM     31  C   UNL A   1      36.848  31.269  31.770  1.00  0.00     0.060 A 
ATOM     32  C   UNL A   1      37.818  30.606  32.537  1.00  0.00     0.016 A 
ATOM     33  C   UNL A   1      36.881  31.217  30.378  1.00  0.00     0.016 A 
ATOM     34  C   UNL A   1      38.823  29.874  31.909  1.00  0.00     0.010 A 
ATOM     35  C   UNL A   1      37.917  30.525  29.748  1.00  0.00     0.010 A 
ATOM     36  C   UNL A   1      38.902  29.871  30.511  1.00  0.00    -0.014 A 
BRANCH  36  37
ATOM     37  C   UNL A   1      40.136  29.391  29.850  1.00  0.00     0.031 A 
ATOM     38  C   UNL A   1      41.270  30.364  29.690  1.00  0.00     0.074 A 
ATOM     39  C   UNL A   1      40.255  28.128  29.405  1.00  0.00     0.049 A 
ATOM     40  N   UNL A   1      42.424  30.206  29.095  1.00  0.00    -0.248 NA
ATOM     41  C   UNL A   1      41.072  31.697  30.282  1.00  0.00     0.031 C 
ATOM     42  C   UNL A   1      39.247  27.082  29.552  1.00  0.00     0.029 A 
ATOM     43  N   UNL A   1      41.281  27.519  28.728  1.00  0.00    -0.354 N 
ATOM     44  C   UNL A   1      43.088  31.415  29.248  1.00  0.00     0.074 A 
ATOM     45  C   UNL A   1      42.202  32.308  29.960  1.00  0.00     0.031 C 
ATOM     46  C   UNL A   1      39.699  25.960  28.964  1.00  0.00     0.029 A 
ATOM     47  C   UNL A   1      41.012  26.220  28.373  1.00  0.00     0.049 A 
ATOM     48  H   UNL A   1      42.130  27.972  28.515  1.00  0.00     0.167 HD
ATOM     49  C   UNL A   1      44.334  31.747  28.837  1.00  0.00     0.037 A 
ATOM     50  C   UNL A   1      41.738  25.354  27.638  1.00  0.00     0.037 A 
ATOM     51  C   UNL A   1      45.205  30.864  28.110  1.00  0.00     0.049 A 
ATOM     52  C   UNL A   1      43.080  25.785  27.096  1.00  0.00     0.074 A 
ATOM     53  C   UNL A   1      46.486  31.108  27.650  1.00  0.00     0.029 A 
ATOM     54  N   UNL A   1      44.877  29.573  27.724  1.00  0.00    -0.354 N 
ATOM     55  N   UNL A   1      43.717  26.919  27.264  1.00  0.00    -0.248 NA
ATOM     56  C   UNL A   1      43.803  24.813  26.262  1.00  0.00     0.031 C 
ATOM     57  C   UNL A   1      46.912  29.986  26.934  1.00  0.00     0.029 A 
ATOM     58  C   UNL A   1      45.922  29.018  27.004  1.00  0.00     0.049 A 
ATOM     59  H   UNL A   1      44.029  29.118  27.932  1.00  0.00     0.167 HD
ATOM     60  C   UNL A   1      44.922  26.787  26.584  1.00  0.00     0.074 A 
ATOM     61  C   UNL A   1      44.935  25.458  26.012  1.00  0.00     0.031 C 
ATOM     62  C   UNL A   1      45.927  27.689  26.445  1.00  0.00     0.037 A 
BRANCH  49  63
ATOM     63  C   UNL A   1      44.824  33.129  29.150  1.00  0.00     0.064 A 
ATOM     64  C   UNL A   1      44.538  34.216  28.312  1.00  0.00     0.173 A 
ATOM     65  C   UNL A   1      45.538  33.378  30.331  1.00  0.00     0.173 A 
ATOM     66  F   UNL A   1      43.873  34.026  27.162  1.00  0.00    -0.203 F 
ATOM     67  C   UNL A   1      44.959  35.502  28.639  1.00  0.00     0.198 A 
ATOM     68  C   UNL A   1      45.930  34.671  30.671  1.00  0.00     0.198 A 
ATOM     69  F   UNL A   1      45.839  32.373  31.167  1.00  0.00    -0.203 F 
ATOM     70  F   UNL A   1      44.704  36.520  27.806  1.00  0.00    -0.200 F 
ATOM     71  C   UNL A   1      45.644  35.729  29.823  1.00  0.00     0.200 A 
ATOM     72  F   UNL A   1      46.581  34.891  31.822  1.00  0.00    -0.200 F 
ATOM     73  F   UNL A   1      46.030  36.971  30.147  1.00  0.00    -0.200 F 
ENDBRANCH  49  63
BRANCH  50  74
ATOM     74  C   UNL A   1      41.213  23.989  27.370  1.00  0.00     0.064 A 
ATOM     75  C   UNL A   1      40.109  23.793  26.530  1.00  0.00     0.173 A 
ATOM     76  C   UNL A   1      41.801  22.853  27.947  1.00  0.00     0.173 A 
ATOM     77  F   UNL A   1      39.494  24.849  25.978  1.00  0.00    -0.203 F 
ATOM     78  C   UNL A   1      39.607  22.517  26.283  1.00  0.00     0.198 A 
ATOM     79  C   UNL A   1      41.317  21.575  27.677  1.00  0.00     0.198 A 
ATOM     80  F   UNL A   1      42.854  22.984  28.767  1.00  0.00    -0.203 F 
ATOM     81  F   UNL A   1      38.526  22.363  25.508  1.00  0.00    -0.200 F 
ATOM     82  C   UNL A   1      40.217  21.408  26.849  1.00  0.00     0.200 A 
ATOM     83  F   UNL A   1      41.914  20.505  28.220  1.00  0.00    -0.200 F 
ATOM     84  F   UNL A   1      39.741  20.180  26.604  1.00  0.00    -0.200 F 
ENDBRANCH  50  74
BRANCH  62  85
ATOM     85  C   UNL A   1      47.144  27.275  25.666  1.00  0.00     0.064 A 
ATOM     86  C   UNL A   1      47.289  27.592  24.309  1.00  0.00     0.173 A 
ATOM     87  C   UNL A   1      48.217  26.638  26.310  1.00  0.00     0.173 A 
ATOM     88  F   UNL A   1      46.290  28.194  23.643  1.00  0.00    -0.203 F 
ATOM     89  C   UNL A   1      48.457  27.274  23.620  1.00  0.00     0.198 A 
ATOM     90  C   UNL A   1      49.395  26.352  25.627  1.00  0.00     0.198 A 
ATOM     91  F   UNL A   1      48.135  26.323  27.612  1.00  0.00    -0.203 F 
ATOM     92  F   UNL A   1      48.560  27.557  22.314  1.00  0.00    -0.200 F 
ATOM     93  C   UNL A   1      49.513  26.666  24.282  1.00  0.00     0.200 A 
ATOM     94  F   UNL A   1      50.423  25.785  26.275  1.00  0.00    -0.200 F 
ATOM     95  F   UNL A   1      50.646  26.382  23.623  1.00  0.00    -0.200 F 
ENDBRANCH  62  85
ENDBRANCH  36  37
ENDBRANCH  29  31
ENDBRANCH  28  29
ENDBRANCH  27  28
ENDBRANCH  26  27
ENDBRANCH  25  26
ENDBRANCH   1  25
TORSDOF 18
ENDMDL
MODEL 2
REMARK VINA RESULT:     -11.3      4.536      7.617
REMARK SMILES CC1(C)CCN(c2nc3c(cc2C(=O)OCCOCCOCCOC(=O)c2ccc(-c4c5nc(c(-c6c(F)c(F)c(F)c(F)c6F)c6ccc([nH]6)c(-c6c(F)c(F)c(F)c(F)c6F)c6nc(c(-c7c(F)c(F)c(F)c(F)c7F)c7ccc4[nH]7)C=C6)C=C5)cc2)CCC3)C1
REMARK SMILES IDX 20 1 19 2 18 3 17 4 16 5 15 6 13 7 14 8 12 9 7 10 8 11 9 12
REMARK SMILES IDX 11 13 10 14 92 15 90 16 91 17 6 18 1 19 2 20 3 21 4 22 93 23
REMARK SMILES IDX 5 24 21 25 22 26 23 27 24 28 25 29 26 30 27 31 28 32 89 33
REMARK SMILES IDX 29 34 88 35 30 36 31 37 32 38 82 39 33 40 87 41 81 42 83 43
REMARK SMILES IDX 34 44 86 45 80 46 79 47 35 49 67 50 47 51 66 52 48 53 51 54
REMARK SMILES IDX 65 55 84 56 49 57 50 58 64 60 85 61 52 62 36 63 37 64 45 65
REMARK SMILES IDX 38 66 39 67 43 68 46 69 40 70 41 71 44 72 42 73 68 74 69 75
REMARK SMILES IDX 77 76 70 77 71 78 75 79 78 80 72 81 73 82 76 83 74 84 53 85
REMARK SMILES IDX 54 86 62 87 55 88 56 89 60 90 63 91 57 92 58 93 61 94 59 95
REMARK H PARENT 83 48 51 59
REMARK Flexibility Score: inf
ROOT
ATOM      1  C   UNL A   1      33.064  29.147  26.460  1.00  0.00     0.188 C 
ENDROOT
BRANCH   1   2
ATOM      2  C   UNL A   1      33.261  27.861  25.623  1.00  0.00     0.188 C 
BRANCH   2   3
ATOM      3  O   UNL A   1      32.942  26.594  26.169  1.00  0.00    -0.376 OA
BRANCH   3   4
ATOM      4  C   UNL A   1      33.318  25.420  25.464  1.00  0.00     0.202 C 
BRANCH   4   5
ATOM      5  C   UNL A   1      32.282  24.612  24.676  1.00  0.00     0.261 C 
BRANCH   5   6
ATOM      6  O   UNL A   1      32.683  23.258  24.440  1.00  0.00    -0.460 OA
BRANCH   6   7
ATOM      7  C   UNL A   1      32.701  22.427  25.509  1.00  0.00     0.342 C 
ATOM      8  O   UNL A   1      32.144  22.620  26.579  1.00  0.00    -0.246 OA
BRANCH   7   9
ATOM      9  C   UNL A   1      33.320  21.129  25.166  1.00  0.00     0.102 A 
ATOM     10  C   UNL A   1      34.703  20.926  24.976  1.00  0.00     0.143 A 
ATOM     11  N   UNL A   1      35.180  19.682  24.685  1.00  0.00    -0.235 NA
ATOM     12  C   UNL A   1      34.293  18.681  24.559  1.00  0.00     0.046 A 
ATOM     13  C   UNL A   1      32.416  20.069  24.953  1.00  0.00     0.025 A 
ATOM     14  C   UNL A   1      32.922  18.831  24.627  1.00  0.00    -0.025 A 
ATOM     15  C   UNL A   1      34.665  17.228  24.476  1.00  0.00     0.057 C 
ATOM     16  C   UNL A   1      32.211  17.540  24.401  1.00  0.00     0.038 C 
ATOM     17  C   UNL A   1      33.357  16.611  23.962  1.00  0.00     0.011 C 
BRANCH  10  18
ATOM     18  N   UNL A   1      35.643  21.917  25.040  1.00  0.00    -0.355 N 
ATOM     19  C   UNL A   1      38.719  21.977  25.732  1.00  0.00     0.013 C 
ATOM     20  C   UNL A   1      37.598  23.026  25.767  1.00  0.00    -0.016 C 
ATOM     21  C   UNL A   1      38.008  24.197  26.663  1.00  0.00     0.013 C 
ATOM     22  C   UNL A   1      37.225  23.497  24.351  1.00  0.00     0.030 C 
ATOM     23  C   UNL A   1      36.282  22.391  26.256  1.00  0.00     0.124 C 
ATOM     24  C   UNL A   1      36.306  22.391  23.832  1.00  0.00     0.119 C 
ENDBRANCH  10  18
ENDBRANCH   7   9
ENDBRANCH   6   7
ENDBRANCH   5   6
ENDBRANCH   4   5
ENDBRANCH   3   4
ENDBRANCH   2   3
ENDBRANCH   1   2
BRANCH   1  25
ATOM     25  O   UNL A   1      32.506  30.292  25.860  1.00  0.00    -0.376 OA
BRANCH  25  26
ATOM     26  C   UNL A   1      31.569  31.084  26.569  1.00  0.00     0.202 C 
BRANCH  26  27
ATOM     27  C   UNL A   1      31.728  32.587  26.864  1.00  0.00     0.261 C 
BRANCH  27  28
ATOM     28  O   UNL A   1      33.053  33.129  26.833  1.00  0.00    -0.460 OA
BRANCH  28  29
ATOM     29  C   UNL A   1      33.508  33.627  28.012  1.00  0.00     0.338 C 
ATOM     30  O   UNL A   1      32.976  34.447  28.733  1.00  0.00    -0.246 OA
BRANCH  29  31
ATOM     31  C   UNL A   1      34.718  32.877  28.399  1.00  0.00     0.060 A 
ATOM     32  C   UNL A   1      34.609  31.513  28.707  1.00  0.00     0.016 A 
ATOM     33  C   UNL A   1      35.946  33.530  28.479  1.00  0.00     0.016 A 
ATOM     34  C   UNL A   1      35.738  30.790  29.086  1.00  0.00     0.010 A 
ATOM     35  C   UNL A   1      37.068  32.818  28.907  1.00  0.00     0.010 A 
ATOM     36  C   UNL A   1      36.963  31.453  29.233  1.00  0.00    -0.014 A 
BRANCH  36  37
ATOM     37  C   UNL A   1      38.073  30.786  29.949  1.00  0.00     0.031 A 
ATOM     38  C   UNL A   1      38.307  31.161  31.384  1.00  0.00     0.074 A 
ATOM     39  C   UNL A   1      38.852  29.870  29.348  1.00  0.00     0.049 A 
ATOM     40  N   UNL A   1      39.247  30.768  32.204  1.00  0.00    -0.248 NA
ATOM     41  C   UNL A   1      37.350  32.112  31.973  1.00  0.00     0.031 C 
ATOM     42  C   UNL A   1      38.688  29.386  27.980  1.00  0.00     0.029 A 
ATOM     43  N   UNL A   1      39.949  29.193  29.819  1.00  0.00    -0.354 N 
ATOM     44  C   UNL A   1      38.989  31.416  33.403  1.00  0.00     0.074 A 
ATOM     45  C   UNL A   1      37.828  32.254  33.200  1.00  0.00     0.031 C 
ATOM     46  C   UNL A   1      39.664  28.499  27.715  1.00  0.00     0.029 A 
ATOM     47  C   UNL A   1      40.537  28.378  28.883  1.00  0.00     0.049 A 
ATOM     48  H   UNL A   1      40.283  29.283  30.742  1.00  0.00     0.167 HD
ATOM     49  C   UNL A   1      39.657  31.314  34.575  1.00  0.00     0.037 A 
ATOM     50  C   UNL A   1      41.662  27.640  28.961  1.00  0.00     0.037 A 
ATOM     51  C   UNL A   1      40.824  30.497  34.769  1.00  0.00     0.049 A 
ATOM     52  C   UNL A   1      42.454  27.628  30.247  1.00  0.00     0.074 A 
ATOM     53  C   UNL A   1      41.572  30.327  35.920  1.00  0.00     0.029 A 
ATOM     54  N   UNL A   1      41.421  29.727  33.783  1.00  0.00    -0.354 N 
ATOM     55  N   UNL A   1      42.193  28.221  31.387  1.00  0.00    -0.248 NA
ATOM     56  C   UNL A   1      43.697  26.842  30.255  1.00  0.00     0.031 C 
ATOM     57  C   UNL A   1      42.656  29.500  35.615  1.00  0.00     0.029 A 
ATOM     58  C   UNL A   1      42.547  29.101  34.291  1.00  0.00     0.049 A 
ATOM     59  H   UNL A   1      41.092  29.636  32.859  1.00  0.00     0.167 HD
ATOM     60  C   UNL A   1      43.219  27.860  32.252  1.00  0.00     0.074 A 
ATOM     61  C   UNL A   1      44.100  26.984  31.510  1.00  0.00     0.031 C 
ATOM     62  C   UNL A   1      43.413  28.224  33.545  1.00  0.00     0.037 A 
BRANCH  49  63
ATOM     63  C   UNL A   1      39.153  32.119  35.736  1.00  0.00     0.064 A 
ATOM     64  C   UNL A   1      38.301  31.561  36.700  1.00  0.00     0.173 A 
ATOM     65  C   UNL A   1      39.574  33.444  35.918  1.00  0.00     0.173 A 
ATOM     66  F   UNL A   1      37.856  30.302  36.561  1.00  0.00    -0.203 F 
ATOM     67  C   UNL A   1      37.878  32.305  37.798  1.00  0.00     0.198 A 
ATOM     68  C   UNL A   1      39.174  34.175  37.033  1.00  0.00     0.198 A 
ATOM     69  F   UNL A   1      40.388  34.026  35.024  1.00  0.00    -0.203 F 
ATOM     70  F   UNL A   1      37.036  31.762  38.687  1.00  0.00    -0.200 F 
ATOM     71  C   UNL A   1      38.324  33.606  37.969  1.00  0.00     0.200 A 
ATOM     72  F   UNL A   1      39.617  35.429  37.205  1.00  0.00    -0.200 F 
ATOM     73  F   UNL A   1      37.934  34.314  39.037  1.00  0.00    -0.200 F 
ENDBRANCH  49  63
BRANCH  50  74
ATOM     74  C   UNL A   1      42.110  26.847  27.785  1.00  0.00     0.064 A 
ATOM     75  C   UNL A   1      41.615  25.556  27.557  1.00  0.00     0.173 A 
ATOM     76  C   UNL A   1      43.042  27.358  26.869  1.00  0.00     0.173 A 
ATOM     77  F   UNL A   1      40.747  25.011  28.421  1.00  0.00    -0.203 F 
ATOM     78  C   UNL A   1      42.039  24.804  26.463  1.00  0.00     0.198 A 
ATOM     79  C   UNL A   1      43.443  26.617  25.760  1.00  0.00     0.198 A 
ATOM     80  F   UNL A   1      43.554  28.585  27.046  1.00  0.00    -0.203 F 
ATOM     81  F   UNL A   1      41.580  23.557  26.292  1.00  0.00    -0.200 F 
ATOM     82  C   UNL A   1      42.945  25.338  25.560  1.00  0.00     0.200 A 
ATOM     83  F   UNL A   1      44.313  27.141  24.885  1.00  0.00    -0.200 F 
ATOM     84  F   UNL A   1      43.345  24.619  24.503  1.00  0.00    -0.200 F 
ENDBRANCH  50  74
BRANCH  62  85
ATOM     85  C   UNL A   1      44.609  27.664  34.263  1.00  0.00     0.064 A 
ATOM     86  C   UNL A   1      44.562  26.421  34.909  1.00  0.00     0.173 A 
ATOM     87  C   UNL A   1      45.841  28.337  34.224  1.00  0.00     0.173 A 
ATOM     88  F   UNL A   1      43.407  25.741  34.984  1.00  0.00    -0.203 F 
ATOM     89  C   UNL A   1      45.700  25.878  35.501  1.00  0.00     0.198 A 
ATOM     90  C   UNL A   1      46.984  27.775  34.787  1.00  0.00     0.198 A 
ATOM     91  F   UNL A   1      45.945  29.524  33.607  1.00  0.00    -0.203 F 
ATOM     92  F   UNL A   1      45.623  24.703  36.142  1.00  0.00    -0.200 F 
ATOM     93  C   UNL A   1      46.911  26.549  35.428  1.00  0.00     0.200 A 
ATOM     94  F   UNL A   1      48.158  28.415  34.695  1.00  0.00    -0.200 F 
ATOM     95  F   UNL A   1      48.010  26.014  35.978  1.00  0.00    -0.200 F 
ENDBRANCH  62  85
ENDBRANCH  36  37
ENDBRANCH  29  31
ENDBRANCH  28  29
ENDBRANCH  27  28
ENDBRANCH  26  27
ENDBRANCH  25  26
ENDBRANCH   1  25
TORSDOF 18
ENDMDL
MODEL 3
REMARK VINA RESULT:     -11.2      4.447      9.148
REMARK SMILES CC1(C)CCN(c2nc3c(cc2C(=O)OCCOCCOCCOC(=O)c2ccc(-c4c5nc(c(-c6c(F)c(F)c(F)c(F)c6F)c6ccc([nH]6)c(-c6c(F)c(F)c(F)c(F)c6F)c6nc(c(-c7c(F)c(F)c(F)c(F)c7F)c7ccc4[nH]7)C=C6)C=C5)cc2)CCC3)C1
REMARK SMILES IDX 20 1 19 2 18 3 17 4 16 5 15 6 13 7 14 8 12 9 7 10 8 11 9 12
REMARK SMILES IDX 11 13 10 14 92 15 90 16 91 17 6 18 1 19 2 20 3 21 4 22 93 23
REMARK SMILES IDX 5 24 21 25 22 26 23 27 24 28 25 29 26 30 27 31 28 32 89 33
REMARK SMILES IDX 29 34 88 35 30 36 31 37 32 38 82 39 33 40 87 41 81 42 83 43
REMARK SMILES IDX 34 44 86 45 80 46 79 47 35 49 67 50 47 51 66 52 48 53 51 54
REMARK SMILES IDX 65 55 84 56 49 57 50 58 64 60 85 61 52 62 36 63 37 64 45 65
REMARK SMILES IDX 38 66 39 67 43 68 46 69 40 70 41 71 44 72 42 73 68 74 69 75
REMARK SMILES IDX 77 76 70 77 71 78 75 79 78 80 72 81 73 82 76 83 74 84 53 85
REMARK SMILES IDX 54 86 62 87 55 88 56 89 60 90 63 91 57 92 58 93 61 94 59 95
REMARK H PARENT 83 48 51 59
REMARK Flexibility Score: inf
ROOT
ATOM      1  C   UNL A   1      32.590  27.598  23.460  1.00  0.00     0.188 C 
ENDROOT
BRANCH   1   2
ATOM      2  C   UNL A   1      31.494  27.113  22.481  1.00  0.00     0.188 C 
BRANCH   2   3
ATOM      3  O   UNL A   1      31.571  25.825  21.900  1.00  0.00    -0.376 OA
BRANCH   3   4
ATOM      4  C   UNL A   1      31.593  24.682  22.743  1.00  0.00     0.202 C 
BRANCH   4   5
ATOM      5  C   UNL A   1      32.857  23.825  22.871  1.00  0.00     0.261 C 
BRANCH   5   6
ATOM      6  O   UNL A   1      33.866  24.426  23.690  1.00  0.00    -0.460 OA
BRANCH   6   7
ATOM      7  C   UNL A   1      33.896  24.064  24.994  1.00  0.00     0.342 C 
ATOM      8  O   UNL A   1      32.966  24.141  25.783  1.00  0.00    -0.246 OA
BRANCH   7   9
ATOM      9  C   UNL A   1      35.152  23.358  25.323  1.00  0.00     0.102 A 
ATOM     10  C   UNL A   1      35.302  21.955  25.340  1.00  0.00     0.143 A 
ATOM     11  N   UNL A   1      36.512  21.399  25.633  1.00  0.00    -0.235 NA
ATOM     12  C   UNL A   1      37.531  22.224  25.927  1.00  0.00     0.046 A 
ATOM     13  C   UNL A   1      36.224  24.187  25.709  1.00  0.00     0.025 A 
ATOM     14  C   UNL A   1      37.426  23.596  26.032  1.00  0.00    -0.025 A 
ATOM     15  C   UNL A   1      38.964  21.791  26.039  1.00  0.00     0.057 C 
ATOM     16  C   UNL A   1      38.722  24.224  26.418  1.00  0.00     0.038 C 
ATOM     17  C   UNL A   1      39.589  22.997  26.752  1.00  0.00     0.011 C 
BRANCH  10  18
ATOM     18  N   UNL A   1      34.289  21.069  25.100  1.00  0.00    -0.355 N 
ATOM     19  C   UNL A   1      34.186  17.992  24.422  1.00  0.00     0.013 C 
ATOM     20  C   UNL A   1      33.224  19.166  24.191  1.00  0.00    -0.016 C 
ATOM     21  C   UNL A   1      32.216  18.807  23.098  1.00  0.00     0.013 C 
ATOM     22  C   UNL A   1      32.525  19.584  25.495  1.00  0.00     0.030 C 
ATOM     23  C   UNL A   1      34.010  20.439  23.820  1.00  0.00     0.124 C 
ATOM     24  C   UNL A   1      33.567  20.450  26.204  1.00  0.00     0.119 C 
ENDBRANCH  10  18
ENDBRANCH   7   9
ENDBRANCH   6   7
ENDBRANCH   5   6
ENDBRANCH   4   5
ENDBRANCH   3   4
ENDBRANCH   2   3
ENDBRANCH   1   2
BRANCH   1  25
ATOM     25  O   UNL A   1      32.533  28.905  23.979  1.00  0.00    -0.376 OA
BRANCH  25  26
ATOM     26  C   UNL A   1      32.126  29.124  25.319  1.00  0.00     0.202 C 
BRANCH  26  27
ATOM     27  C   UNL A   1      31.988  30.505  25.985  1.00  0.00     0.261 C 
BRANCH  27  28
ATOM     28  O   UNL A   1      32.591  30.681  27.272  1.00  0.00    -0.460 OA
BRANCH  28  29
ATOM     29  C   UNL A   1      33.336  31.807  27.418  1.00  0.00     0.338 C 
ATOM     30  O   UNL A   1      32.983  32.961  27.274  1.00  0.00    -0.246 OA
BRANCH  29  31
ATOM     31  C   UNL A   1      34.654  31.428  27.961  1.00  0.00     0.060 A 
ATOM     32  C   UNL A   1      34.875  30.100  28.356  1.00  0.00     0.016 A 
ATOM     33  C   UNL A   1      35.653  32.389  28.101  1.00  0.00     0.016 A 
ATOM     34  C   UNL A   1      36.108  29.724  28.883  1.00  0.00     0.010 A 
ATOM     35  C   UNL A   1      36.872  32.024  28.675  1.00  0.00     0.010 A 
ATOM     36  C   UNL A   1      37.095  30.697  29.087  1.00  0.00    -0.014 A 
BRANCH  36  37
ATOM     37  C   UNL A   1      38.262  30.385  29.942  1.00  0.00     0.031 A 
ATOM     38  C   UNL A   1      39.325  29.488  29.377  1.00  0.00     0.074 A 
ATOM     39  C   UNL A   1      38.380  30.883  31.185  1.00  0.00     0.049 A 
ATOM     40  N   UNL A   1      40.407  29.019  29.944  1.00  0.00    -0.248 NA
ATOM     41  C   UNL A   1      39.143  29.061  27.979  1.00  0.00     0.031 C 
ATOM     42  C   UNL A   1      37.442  31.804  31.820  1.00  0.00     0.029 A 
ATOM     43  N   UNL A   1      39.344  30.668  32.138  1.00  0.00    -0.354 N 
ATOM     44  C   UNL A   1      41.033  28.251  28.973  1.00  0.00     0.074 A 
ATOM     45  C   UNL A   1      40.200  28.286  27.792  1.00  0.00     0.031 C 
ATOM     46  C   UNL A   1      37.869  32.063  33.069  1.00  0.00     0.029 A 
ATOM     47  C   UNL A   1      39.091  31.301  33.330  1.00  0.00     0.049 A 
ATOM     48  H   UNL A   1      40.142  30.111  31.982  1.00  0.00     0.167 HD
ATOM     49  C   UNL A   1      42.206  27.582  29.057  1.00  0.00     0.037 A 
ATOM     50  C   UNL A   1      39.760  31.250  34.498  1.00  0.00     0.037 A 
ATOM     51  C   UNL A   1      43.022  27.531  30.240  1.00  0.00     0.049 A 
ATOM     52  C   UNL A   1      41.010  30.408  34.601  1.00  0.00     0.074 A 
ATOM     53  C   UNL A   1      44.228  26.880  30.423  1.00  0.00     0.029 A 
ATOM     54  N   UNL A   1      42.706  28.143  31.443  1.00  0.00    -0.354 N 
ATOM     55  N   UNL A   1      41.614  29.704  33.673  1.00  0.00    -0.248 NA
ATOM     56  C   UNL A   1      41.670  30.354  35.914  1.00  0.00     0.031 C 
ATOM     57  C   UNL A   1      44.614  27.048  31.756  1.00  0.00     0.029 A 
ATOM     58  C   UNL A   1      43.681  27.859  32.385  1.00  0.00     0.049 A 
ATOM     59  H   UNL A   1      41.908  28.697  31.604  1.00  0.00     0.167 HD
ATOM     60  C   UNL A   1      42.734  29.149  34.280  1.00  0.00     0.074 A 
ATOM     61  C   UNL A   1      42.735  29.609  35.652  1.00  0.00     0.031 C 
ATOM     62  C   UNL A   1      43.676  28.330  33.748  1.00  0.00     0.037 A 
BRANCH  49  63
ATOM     63  C   UNL A   1      42.670  26.837  27.842  1.00  0.00     0.064 A 
ATOM     64  C   UNL A   1      43.405  27.471  26.829  1.00  0.00     0.173 A 
ATOM     65  C   UNL A   1      42.428  25.461  27.716  1.00  0.00     0.173 A 
ATOM     66  F   UNL A   1      43.647  28.789  26.894  1.00  0.00    -0.203 F 
ATOM     67  C   UNL A   1      43.871  26.756  25.729  1.00  0.00     0.198 A 
ATOM     68  C   UNL A   1      42.922  24.744  26.630  1.00  0.00     0.198 A 
ATOM     69  F   UNL A   1      41.729  24.807  28.657  1.00  0.00    -0.203 F 
ATOM     70  F   UNL A   1      44.541  27.389  24.757  1.00  0.00    -0.200 F 
ATOM     71  C   UNL A   1      43.639  25.392  25.637  1.00  0.00     0.200 A 
ATOM     72  F   UNL A   1      42.709  23.423  26.549  1.00  0.00    -0.200 F 
ATOM     73  F   UNL A   1      44.106  24.702  24.588  1.00  0.00    -0.200 F 
ENDBRANCH  49  63
BRANCH  50  74
ATOM     74  C   UNL A   1      39.267  32.021  35.670  1.00  0.00     0.064 A 
ATOM     75  C   UNL A   1      39.664  33.349  35.877  1.00  0.00     0.173 A 
ATOM     76  C   UNL A   1      38.392  31.450  36.607  1.00  0.00     0.173 A 
ATOM     77  F   UNL A   1      40.523  33.930  35.027  1.00  0.00    -0.203 F 
ATOM     78  C   UNL A   1      39.213  34.074  36.979  1.00  0.00     0.198 A 
ATOM     79  C   UNL A   1      37.918  32.184  37.692  1.00  0.00     0.198 A 
ATOM     80  F   UNL A   1      37.988  30.180  36.461  1.00  0.00    -0.203 F 
ATOM     81  F   UNL A   1      39.641  35.328  37.173  1.00  0.00    -0.200 F 
ATOM     82  C   UNL A   1      38.332  33.494  37.880  1.00  0.00     0.200 A 
ATOM     83  F   UNL A   1      37.061  31.623  38.556  1.00  0.00    -0.200 F 
ATOM     84  F   UNL A   1      37.891  34.194  38.933  1.00  0.00    -0.200 F 
ENDBRANCH  50  74
BRANCH  62  85
ATOM     85  C   UNL A   1      44.809  27.888  34.631  1.00  0.00     0.064 A 
ATOM     86  C   UNL A   1      44.754  26.685  35.348  1.00  0.00     0.173 A 
ATOM     87  C   UNL A   1      45.999  28.632  34.687  1.00  0.00     0.173 A 
ATOM     88  F   UNL A   1      43.638  25.941  35.337  1.00  0.00    -0.203 F 
ATOM     89  C   UNL A   1      45.844  26.249  36.099  1.00  0.00     0.198 A 
ATOM     90  C   UNL A   1      47.097  28.176  35.410  1.00  0.00     0.198 A 
ATOM     91  F   UNL A   1      46.108  29.785  34.009  1.00  0.00    -0.203 F 
ATOM     92  F   UNL A   1      45.757  25.112  36.803  1.00  0.00    -0.200 F 
ATOM     93  C   UNL A   1      47.017  26.988  36.118  1.00  0.00     0.200 A 
ATOM     94  F   UNL A   1      48.237  28.881  35.409  1.00  0.00    -0.200 F 
ATOM     95  F   UNL A   1      48.073  26.555  36.822  1.00  0.00    -0.200 F 
ENDBRANCH  62  85
ENDBRANCH  36  37
ENDBRANCH  29  31
ENDBRANCH  28  29
ENDBRANCH  27  28
ENDBRANCH  26  27
ENDBRANCH  25  26
ENDBRANCH   1  25
TORSDOF 18
ENDMDL
