MODEL 1
REMARK VINA RESULT:      -8.7      0.000      0.000
REMARK SMILES O=C(OCCOCCOCCOC(=O)[C@@H]1CC=CC[C@@H]1C(=O)Nc1sc2c(c1C(=O)N1CCCCC1)CCCC2)c1ccc(-c2c3nc(c(-c4c(F)c(F)c(F)c(F)c4F)c4ccc([nH]4)c(-c4c(F)c(F)c(F)c(F)c4F)c4nc(c(-c5c(F)c(F)c(F)c(F)c5F)c5ccc2[nH]5)C=C4)C=C3)cc1
REMARK SMILES IDX 8 1 7 2 6 3 5 4 4 5 3 6 2 7 1 8 41 9 42 10 103 11 43 12
REMARK SMILES IDX 102 13 44 14 45 15 46 16 96 17 47 18 101 19 95 20 97 21
REMARK SMILES IDX 48 22 100 23 94 24 93 25 49 27 81 28 61 29 80 30 62 31 65 32
REMARK SMILES IDX 79 33 98 34 63 35 64 36 78 38 99 39 66 40 50 41 51 42 59 43
REMARK SMILES IDX 52 44 53 45 57 46 60 47 54 48 55 49 58 50 56 51 82 52 83 53
REMARK SMILES IDX 91 54 84 55 85 56 89 57 92 58 86 59 87 60 90 61 88 62 67 63
REMARK SMILES IDX 68 64 76 65 69 66 70 67 74 68 77 69 71 70 72 71 75 72 73 73
REMARK SMILES IDX 9 74 10 75 11 76 12 77 13 78 14 79 15 80 16 81 20 82 17 83
REMARK SMILES IDX 19 84 18 85 21 86 22 87 23 88 24 90 25 91 28 92 26 93 27 94
REMARK SMILES IDX 40 95 37 96 39 97 38 98 29 99 30 100 31 101 32 102 36 103
REMARK SMILES IDX 33 104 35 105 34 106
REMARK H PARENT 97 26 65 37 23 89
REMARK Flexibility Score: inf
ROOT
ATOM      1  C   UNL A   1      45.114  22.753  25.818  1.00  0.00     0.188 C 
ENDROOT
BRANCH   1   2
ATOM      2  C   UNL A   1      43.953  23.427  26.548  1.00  0.00     0.188 C 
BRANCH   2   3
ATOM      3  O   UNL A   1      42.888  22.543  26.920  1.00  0.00    -0.376 OA
BRANCH   3   4
ATOM      4  C   UNL A   1      42.331  21.809  25.822  1.00  0.00     0.202 C 
BRANCH   4   5
ATOM      5  C   UNL A   1      41.098  20.936  26.116  1.00  0.00     0.261 C 
BRANCH   5   6
ATOM      6  O   UNL A   1      40.057  21.603  26.843  1.00  0.00    -0.460 OA
BRANCH   6   7
ATOM      7  C   UNL A   1      39.340  22.701  26.501  1.00  0.00     0.338 C 
ATOM      8  O   UNL A   1      38.447  22.570  25.665  1.00  0.00    -0.246 OA
BRANCH   7   9
ATOM      9  C   UNL A   1      39.574  24.071  27.056  1.00  0.00     0.060 A 
ATOM     10  C   UNL A   1      40.236  25.117  26.410  1.00  0.00     0.016 A 
ATOM     11  C   UNL A   1      39.023  24.334  28.323  1.00  0.00     0.016 A 
ATOM     12  C   UNL A   1      40.429  26.352  27.019  1.00  0.00     0.010 A 
ATOM     13  C   UNL A   1      39.186  25.579  28.936  1.00  0.00     0.010 A 
ATOM     14  C   UNL A   1      39.931  26.577  28.296  1.00  0.00    -0.014 A 
BRANCH  14  15
ATOM     15  C   UNL A   1      40.371  27.769  29.038  1.00  0.00     0.031 A 
ATOM     16  C   UNL A   1      41.743  27.749  29.628  1.00  0.00     0.074 A 
ATOM     17  C   UNL A   1      39.612  28.873  29.104  1.00  0.00     0.049 A 
ATOM     18  N   UNL A   1      42.309  28.594  30.443  1.00  0.00    -0.248 NA
ATOM     19  C   UNL A   1      42.603  26.625  29.223  1.00  0.00     0.031 C 
ATOM     20  C   UNL A   1      38.348  29.060  28.401  1.00  0.00     0.029 A 
ATOM     21  N   UNL A   1      39.792  30.041  29.797  1.00  0.00    -0.354 N 
ATOM     22  C   UNL A   1      43.580  28.091  30.671  1.00  0.00     0.074 A 
ATOM     23  C   UNL A   1      43.700  26.861  29.920  1.00  0.00     0.031 C 
ATOM     24  C   UNL A   1      37.850  30.263  28.725  1.00  0.00     0.029 A 
ATOM     25  C   UNL A   1      38.700  30.870  29.733  1.00  0.00     0.049 A 
ATOM     26  H   UNL A   1      40.615  30.263  30.288  1.00  0.00     0.167 HD
ATOM     27  C   UNL A   1      44.550  28.618  31.450  1.00  0.00     0.037 A 
ATOM     28  C   UNL A   1      38.379  31.953  30.463  1.00  0.00     0.037 A 
ATOM     29  C   UNL A   1      44.380  29.838  32.191  1.00  0.00     0.049 A 
ATOM     30  C   UNL A   1      39.391  32.443  31.453  1.00  0.00     0.074 A 
ATOM     31  C   UNL A   1      45.263  30.463  33.047  1.00  0.00     0.029 A 
ATOM     32  N   UNL A   1      43.224  30.612  32.166  1.00  0.00    -0.354 N 
ATOM     33  N   UNL A   1      40.572  31.941  31.726  1.00  0.00    -0.248 NA
ATOM     34  C   UNL A   1      39.048  33.642  32.222  1.00  0.00     0.031 C 
ATOM     35  C   UNL A   1      44.618  31.582  33.588  1.00  0.00     0.029 A 
ATOM     36  C   UNL A   1      43.358  31.693  33.017  1.00  0.00     0.049 A 
ATOM     37  H   UNL A   1      42.426  30.418  31.622  1.00  0.00     0.167 HD
ATOM     38  C   UNL A   1      41.137  32.784  32.667  1.00  0.00     0.074 A 
ATOM     39  C   UNL A   1      40.157  33.824  32.929  1.00  0.00     0.031 C 
ATOM     40  C   UNL A   1      42.362  32.714  33.244  1.00  0.00     0.037 A 
BRANCH  27  41
ATOM     41  C   UNL A   1      45.807  27.812  31.595  1.00  0.00     0.064 A 
ATOM     42  C   UNL A   1      46.883  27.932  30.701  1.00  0.00     0.173 A 
ATOM     43  C   UNL A   1      45.897  26.835  32.597  1.00  0.00     0.173 A 
ATOM     44  F   UNL A   1      46.836  28.828  29.703  1.00  0.00    -0.203 F 
ATOM     45  C   UNL A   1      47.973  27.067  30.772  1.00  0.00     0.198 A 
ATOM     46  C   UNL A   1      47.004  25.995  32.687  1.00  0.00     0.198 A 
ATOM     47  F   UNL A   1      44.894  26.671  33.474  1.00  0.00    -0.203 F 
ATOM     48  F   UNL A   1      48.945  27.140  29.850  1.00  0.00    -0.200 F 
ATOM     49  C   UNL A   1      48.033  26.101  31.763  1.00  0.00     0.200 A 
ATOM     50  F   UNL A   1      47.059  25.064  33.647  1.00  0.00    -0.200 F 
ATOM     51  F   UNL A   1      49.071  25.255  31.816  1.00  0.00    -0.200 F 
ENDBRANCH  27  41
BRANCH  28  52
ATOM     52  C   UNL A   1      37.032  32.564  30.314  1.00  0.00     0.064 A 
ATOM     53  C   UNL A   1      36.011  32.333  31.241  1.00  0.00     0.173 A 
ATOM     54  C   UNL A   1      36.762  33.456  29.260  1.00  0.00     0.173 A 
ATOM     55  F   UNL A   1      36.212  31.484  32.260  1.00  0.00    -0.203 F 
ATOM     56  C   UNL A   1      34.772  32.967  31.122  1.00  0.00     0.198 A 
ATOM     57  C   UNL A   1      35.534  34.107  29.155  1.00  0.00     0.198 A 
ATOM     58  F   UNL A   1      37.707  33.719  28.346  1.00  0.00    -0.203 F 
ATOM     59  F   UNL A   1      33.805  32.711  32.013  1.00  0.00    -0.200 F 
ATOM     60  C   UNL A   1      34.538  33.859  30.085  1.00  0.00     0.200 A 
ATOM     61  F   UNL A   1      35.322  34.979  28.159  1.00  0.00    -0.200 F 
ATOM     62  F   UNL A   1      33.353  34.474  29.981  1.00  0.00    -0.200 F 
ENDBRANCH  28  52
BRANCH  40  63
ATOM     63  C   UNL A   1      42.738  33.827  34.170  1.00  0.00     0.064 A 
ATOM     64  C   UNL A   1      42.621  33.702  35.560  1.00  0.00     0.173 A 
ATOM     65  C   UNL A   1      43.308  35.000  33.652  1.00  0.00     0.173 A 
ATOM     66  F   UNL A   1      42.063  32.606  36.096  1.00  0.00    -0.203 F 
ATOM     67  C   UNL A   1      43.059  34.719  36.402  1.00  0.00     0.198 A 
ATOM     68  C   UNL A   1      43.772  35.999  34.497  1.00  0.00     0.198 A 
ATOM     69  F   UNL A   1      43.440  35.158  32.326  1.00  0.00    -0.203 F 
ATOM     70  F   UNL A   1      42.915  34.595  37.728  1.00  0.00    -0.200 F 
ATOM     71  C   UNL A   1      43.647  35.859  35.871  1.00  0.00     0.200 A 
ATOM     72  F   UNL A   1      44.355  37.091  33.983  1.00  0.00    -0.200 F 
ATOM     73  F   UNL A   1      44.094  36.824  36.686  1.00  0.00    -0.200 F 
ENDBRANCH  40  63
ENDBRANCH  14  15
ENDBRANCH   7   9
ENDBRANCH   6   7
ENDBRANCH   5   6
ENDBRANCH   4   5
ENDBRANCH   3   4
ENDBRANCH   2   3
ENDBRANCH   1   2
BRANCH   1  74
ATOM     74  O   UNL A   1      46.377  23.403  25.917  1.00  0.00    -0.376 OA
BRANCH  74  75
ATOM     75  C   UNL A   1      46.626  24.479  25.018  1.00  0.00     0.202 C 
BRANCH  75  76
ATOM     76  C   UNL A   1      47.424  25.662  25.569  1.00  0.00     0.261 C 
BRANCH  76  77
ATOM     77  O   UNL A   1      46.762  26.922  25.380  1.00  0.00    -0.463 OA
BRANCH  77  78
ATOM     78  C   UNL A   1      46.751  27.760  26.452  1.00  0.00     0.310 C 
ATOM     79  O   UNL A   1      47.744  28.305  26.921  1.00  0.00    -0.252 OA
BRANCH  78  80
ATOM     80  C   UNL A   1      45.336  27.953  26.986  1.00  0.00     0.116 C 
ATOM     81  C   UNL A   1      44.390  27.170  26.045  1.00  0.00     0.043 C 
ATOM     82  C   UNL A   1      45.007  29.441  27.250  1.00  0.00     0.097 C 
ATOM     83  C   UNL A   1      43.074  27.787  25.721  1.00  0.00    -0.030 C 
ATOM     84  C   UNL A   1      43.538  29.849  27.014  1.00  0.00     0.041 C 
ATOM     85  C   UNL A   1      42.700  28.996  26.135  1.00  0.00    -0.030 C 
BRANCH  82  86
ATOM     86  C   UNL A   1      45.935  30.429  26.546  1.00  0.00     0.229 C 
ATOM     87  O   UNL A   1      46.044  30.379  25.313  1.00  0.00    -0.274 OA
ATOM     88  N   UNL A   1      46.671  31.388  27.178  1.00  0.00    -0.317 N 
ATOM     89  H   UNL A   1      47.186  31.931  26.538  1.00  0.00     0.170 HD
BRANCH  88  90
ATOM     90  C   UNL A   1      46.884  31.801  28.487  1.00  0.00     0.108 A 
ATOM     91  S   UNL A   1      48.219  31.306  29.402  1.00  0.00    -0.122 S 
ATOM     92  C   UNL A   1      46.029  32.632  29.225  1.00  0.00     0.078 A 
ATOM     93  C   UNL A   1      47.897  32.417  30.628  1.00  0.00     0.011 A 
ATOM     94  C   UNL A   1      46.664  33.021  30.480  1.00  0.00    -0.019 A 
ATOM     95  C   UNL A   1      48.875  32.694  31.723  1.00  0.00     0.047 C 
ATOM     96  C   UNL A   1      46.151  33.958  31.538  1.00  0.00     0.037 C 
ATOM     97  C   UNL A   1      48.154  33.245  32.954  1.00  0.00     0.006 C 
ATOM     98  C   UNL A   1      47.209  34.383  32.568  1.00  0.00     0.005 C 
BRANCH  92  99
ATOM     99  C   UNL A   1      44.701  33.015  28.704  1.00  0.00     0.257 C 
ATOM    100  O   UNL A   1      43.675  32.389  29.005  1.00  0.00    -0.269 OA
ATOM    101  N   UNL A   1      44.632  34.202  28.002  1.00  0.00    -0.339 N 
ATOM    102  C   UNL A   1      44.030  35.358  28.655  1.00  0.00     0.120 C 
ATOM    103  C   UNL A   1      44.664  34.193  26.546  1.00  0.00     0.120 C 
ATOM    104  C   UNL A   1      42.714  35.788  28.012  1.00  0.00     0.022 C 
ATOM    105  C   UNL A   1      43.342  34.602  25.911  1.00  0.00     0.022 C 
ATOM    106  C   UNL A   1      42.860  35.924  26.499  1.00  0.00     0.004 C 
ENDBRANCH  92  99
ENDBRANCH  88  90
ENDBRANCH  82  86
ENDBRANCH  78  80
ENDBRANCH  77  78
ENDBRANCH  76  77
ENDBRANCH  75  76
ENDBRANCH  74  75
ENDBRANCH   1  74
TORSDOF 20
ENDMDL
MODEL 2
REMARK VINA RESULT:      -8.7      5.660     12.349
REMARK SMILES O=C(OCCOCCOCCOC(=O)[C@@H]1CC=CC[C@@H]1C(=O)Nc1sc2c(c1C(=O)N1CCCCC1)CCCC2)c1ccc(-c2c3nc(c(-c4c(F)c(F)c(F)c(F)c4F)c4ccc([nH]4)c(-c4c(F)c(F)c(F)c(F)c4F)c4nc(c(-c5c(F)c(F)c(F)c(F)c5F)c5ccc2[nH]5)C=C4)C=C3)cc1
REMARK SMILES IDX 8 1 7 2 6 3 5 4 4 5 3 6 2 7 1 8 41 9 42 10 103 11 43 12
REMARK SMILES IDX 102 13 44 14 45 15 46 16 96 17 47 18 101 19 95 20 97 21
REMARK SMILES IDX 48 22 100 23 94 24 93 25 49 27 81 28 61 29 80 30 62 31 65 32
REMARK SMILES IDX 79 33 98 34 63 35 64 36 78 38 99 39 66 40 50 41 51 42 59 43
REMARK SMILES IDX 52 44 53 45 57 46 60 47 54 48 55 49 58 50 56 51 82 52 83 53
REMARK SMILES IDX 91 54 84 55 85 56 89 57 92 58 86 59 87 60 90 61 88 62 67 63
REMARK SMILES IDX 68 64 76 65 69 66 70 67 74 68 77 69 71 70 72 71 75 72 73 73
REMARK SMILES IDX 9 74 10 75 11 76 12 77 13 78 14 79 15 80 16 81 20 82 17 83
REMARK SMILES IDX 19 84 18 85 21 86 22 87 23 88 24 90 25 91 28 92 26 93 27 94
REMARK SMILES IDX 40 95 37 96 39 97 38 98 29 99 30 100 31 101 32 102 36 103
REMARK SMILES IDX 33 104 35 105 34 106
REMARK H PARENT 97 26 65 37 23 89
REMARK Flexibility Score: inf
ROOT
ATOM      1  C   UNL A   1      34.211  31.584  28.051  1.00  0.00     0.188 C 
ENDROOT
BRANCH   1   2
ATOM      2  C   UNL A   1      34.511  33.081  27.986  1.00  0.00     0.188 C 
BRANCH   2   3
ATOM      3  O   UNL A   1      34.270  33.791  29.208  1.00  0.00    -0.376 OA
BRANCH   3   4
ATOM      4  C   UNL A   1      34.228  35.216  29.053  1.00  0.00     0.202 C 
BRANCH   4   5
ATOM      5  C   UNL A   1      32.895  35.916  29.373  1.00  0.00     0.261 C 
BRANCH   5   6
ATOM      6  O   UNL A   1      32.284  35.497  30.602  1.00  0.00    -0.460 OA
BRANCH   6   7
ATOM      7  C   UNL A   1      32.702  35.689  31.876  1.00  0.00     0.338 C 
ATOM      8  O   UNL A   1      32.058  36.461  32.586  1.00  0.00    -0.246 OA
BRANCH   7   9
ATOM      9  C   UNL A   1      33.910  35.040  32.477  1.00  0.00     0.060 A 
ATOM     10  C   UNL A   1      35.183  35.607  32.574  1.00  0.00     0.016 A 
ATOM     11  C   UNL A   1      33.720  33.767  33.041  1.00  0.00     0.016 A 
ATOM     12  C   UNL A   1      36.255  34.914  33.127  1.00  0.00     0.010 A 
ATOM     13  C   UNL A   1      34.781  33.070  33.624  1.00  0.00     0.010 A 
ATOM     14  C   UNL A   1      36.063  33.632  33.626  1.00  0.00    -0.014 A 
BRANCH  14  15
ATOM     15  C   UNL A   1      37.238  32.806  33.950  1.00  0.00     0.031 A 
ATOM     16  C   UNL A   1      37.944  33.082  35.235  1.00  0.00     0.074 A 
ATOM     17  C   UNL A   1      37.608  31.779  33.170  1.00  0.00     0.049 A 
ATOM     18  N   UNL A   1      39.075  32.610  35.680  1.00  0.00    -0.248 NA
ATOM     19  C   UNL A   1      37.266  34.008  36.159  1.00  0.00     0.031 C 
ATOM     20  C   UNL A   1      36.871  31.309  32.002  1.00  0.00     0.029 A 
ATOM     21  N   UNL A   1      38.697  30.950  33.241  1.00  0.00    -0.354 N 
ATOM     22  C   UNL A   1      39.259  33.202  36.920  1.00  0.00     0.074 A 
ATOM     23  C   UNL A   1      38.132  34.076  37.155  1.00  0.00     0.031 C 
ATOM     24  C   UNL A   1      37.549  30.293  31.447  1.00  0.00     0.029 A 
ATOM     25  C   UNL A   1      38.806  30.121  32.153  1.00  0.00     0.049 A 
ATOM     26  H   UNL A   1      39.333  30.948  33.992  1.00  0.00     0.167 HD
ATOM     27  C   UNL A   1      40.291  33.025  37.775  1.00  0.00     0.037 A 
ATOM     28  C   UNL A   1      39.835  29.370  31.724  1.00  0.00     0.037 A 
ATOM     29  C   UNL A   1      41.399  32.154  37.492  1.00  0.00     0.049 A 
ATOM     30  C   UNL A   1      41.053  29.307  32.594  1.00  0.00     0.074 A 
ATOM     31  C   UNL A   1      42.526  31.912  38.250  1.00  0.00     0.029 A 
ATOM     32  N   UNL A   1      41.515  31.389  36.336  1.00  0.00    -0.354 N 
ATOM     33  N   UNL A   1      41.267  29.910  33.740  1.00  0.00    -0.248 NA
ATOM     34  C   UNL A   1      42.158  28.461  32.137  1.00  0.00     0.031 C 
ATOM     35  C   UNL A   1      43.355  31.049  37.523  1.00  0.00     0.029 A 
ATOM     36  C   UNL A   1      42.713  30.698  36.343  1.00  0.00     0.049 A 
ATOM     37  H   UNL A   1      40.844  31.347  35.617  1.00  0.00     0.167 HD
ATOM     38  C   UNL A   1      42.513  29.486  34.167  1.00  0.00     0.074 A 
ATOM     39  C   UNL A   1      43.014  28.583  33.144  1.00  0.00     0.031 C 
ATOM     40  C   UNL A   1      43.172  29.799  35.309  1.00  0.00     0.037 A 
BRANCH  27  41
ATOM     41  C   UNL A   1      40.286  33.867  39.017  1.00  0.00     0.064 A 
ATOM     42  C   UNL A   1      39.572  33.500  40.169  1.00  0.00     0.173 A 
ATOM     43  C   UNL A   1      40.935  35.110  39.018  1.00  0.00     0.173 A 
ATOM     44  F   UNL A   1      38.905  32.336  40.209  1.00  0.00    -0.203 F 
ATOM     45  C   UNL A   1      39.464  34.371  41.251  1.00  0.00     0.198 A 
ATOM     46  C   UNL A   1      40.853  35.963  40.116  1.00  0.00     0.198 A 
ATOM     47  F   UNL A   1      41.624  35.515  37.940  1.00  0.00    -0.203 F 
ATOM     48  F   UNL A   1      38.700  34.038  42.303  1.00  0.00    -0.200 F 
ATOM     49  C   UNL A   1      40.104  35.600  41.225  1.00  0.00     0.200 A 
ATOM     50  F   UNL A   1      41.474  37.149  40.087  1.00  0.00    -0.200 F 
ATOM     51  F   UNL A   1      39.979  36.445  42.257  1.00  0.00    -0.200 F 
ENDBRANCH  27  41
BRANCH  28  52
ATOM     52  C   UNL A   1      39.754  28.705  30.397  1.00  0.00     0.064 A 
ATOM     53  C   UNL A   1      40.226  29.321  29.233  1.00  0.00     0.173 A 
ATOM     54  C   UNL A   1      39.255  27.395  30.280  1.00  0.00     0.173 A 
ATOM     55  F   UNL A   1      40.703  30.574  29.287  1.00  0.00    -0.203 F 
ATOM     56  C   UNL A   1      40.203  28.657  28.005  1.00  0.00     0.198 A 
ATOM     57  C   UNL A   1      39.255  26.723  29.059  1.00  0.00     0.198 A 
ATOM     58  F   UNL A   1      38.796  26.754  31.365  1.00  0.00    -0.203 F 
ATOM     59  F   UNL A   1      40.643  29.279  26.903  1.00  0.00    -0.200 F 
ATOM     60  C   UNL A   1      39.726  27.357  27.921  1.00  0.00     0.200 A 
ATOM     61  F   UNL A   1      38.806  25.462  28.989  1.00  0.00    -0.200 F 
ATOM     62  F   UNL A   1      39.716  26.718  26.744  1.00  0.00    -0.200 F 
ENDBRANCH  28  52
BRANCH  40  63
ATOM     63  C   UNL A   1      44.480  29.113  35.547  1.00  0.00     0.064 A 
ATOM     64  C   UNL A   1      45.697  29.691  35.166  1.00  0.00     0.173 A 
ATOM     65  C   UNL A   1      44.510  27.898  36.248  1.00  0.00     0.173 A 
ATOM     66  F   UNL A   1      45.712  30.842  34.476  1.00  0.00    -0.203 F 
ATOM     67  C   UNL A   1      46.903  29.073  35.477  1.00  0.00     0.198 A 
ATOM     68  C   UNL A   1      45.717  27.300  36.584  1.00  0.00     0.198 A 
ATOM     69  F   UNL A   1      43.366  27.311  36.634  1.00  0.00    -0.203 F 
ATOM     70  F   UNL A   1      48.058  29.626  35.081  1.00  0.00    -0.200 F 
ATOM     71  C   UNL A   1      46.913  27.886  36.197  1.00  0.00     0.200 A 
ATOM     72  F   UNL A   1      45.725  26.163  37.294  1.00  0.00    -0.200 F 
ATOM     73  F   UNL A   1      48.078  27.307  36.519  1.00  0.00    -0.200 F 
ENDBRANCH  40  63
ENDBRANCH  14  15
ENDBRANCH   7   9
ENDBRANCH   6   7
ENDBRANCH   5   6
ENDBRANCH   4   5
ENDBRANCH   3   4
ENDBRANCH   2   3
ENDBRANCH   1   2
BRANCH   1  74
ATOM     74  O   UNL A   1      35.261  30.716  27.637  1.00  0.00    -0.376 OA
BRANCH  74  75
ATOM     75  C   UNL A   1      35.000  29.317  27.673  1.00  0.00     0.202 C 
BRANCH  75  76
ATOM     76  C   UNL A   1      34.200  28.738  26.505  1.00  0.00     0.261 C 
BRANCH  76  77
ATOM     77  O   UNL A   1      33.407  27.601  26.878  1.00  0.00    -0.463 OA
BRANCH  77  78
ATOM     78  C   UNL A   1      32.101  27.630  26.496  1.00  0.00     0.310 C 
ATOM     79  O   UNL A   1      31.149  27.589  27.268  1.00  0.00    -0.252 OA
BRANCH  78  80
ATOM     80  C   UNL A   1      31.972  27.737  24.982  1.00  0.00     0.116 C 
ATOM     81  C   UNL A   1      30.917  28.832  24.697  1.00  0.00     0.043 C 
ATOM     82  C   UNL A   1      31.766  26.359  24.312  1.00  0.00     0.097 C 
ATOM     83  C   UNL A   1      29.973  28.604  23.567  1.00  0.00    -0.030 C 
ATOM     84  C   UNL A   1      30.884  26.359  23.046  1.00  0.00     0.041 C 
ATOM     85  C   UNL A   1      29.941  27.487  22.842  1.00  0.00    -0.030 C 
BRANCH  82  86
ATOM     86  C   UNL A   1      31.304  25.256  25.262  1.00  0.00     0.229 C 
ATOM     87  O   UNL A   1      30.133  25.261  25.665  1.00  0.00    -0.274 OA
ATOM     88  N   UNL A   1      32.092  24.237  25.711  1.00  0.00    -0.317 N 
ATOM     89  H   UNL A   1      31.592  23.624  26.298  1.00  0.00     0.170 HD
BRANCH  88  90
ATOM     90  C   UNL A   1      33.413  23.836  25.557  1.00  0.00     0.108 A 
ATOM     91  S   UNL A   1      34.710  24.926  25.555  1.00  0.00    -0.122 S 
ATOM     92  C   UNL A   1      33.843  22.518  25.352  1.00  0.00     0.078 A 
ATOM     93  C   UNL A   1      35.854  23.692  25.634  1.00  0.00     0.011 A 
ATOM     94  C   UNL A   1      35.298  22.443  25.439  1.00  0.00    -0.019 A 
ATOM     95  C   UNL A   1      37.298  23.967  25.903  1.00  0.00     0.047 C 
ATOM     96  C   UNL A   1      36.179  21.228  25.361  1.00  0.00     0.037 C 
ATOM     97  C   UNL A   1      38.168  22.832  25.360  1.00  0.00     0.006 C 
ATOM     98  C   UNL A   1      37.629  21.473  25.807  1.00  0.00     0.005 C 
BRANCH  92  99
ATOM     99  C   UNL A   1      32.875  21.430  25.107  1.00  0.00     0.257 C 
ATOM    100  O   UNL A   1      31.696  21.508  25.477  1.00  0.00    -0.269 OA
ATOM    101  N   UNL A   1      33.303  20.393  24.301  1.00  0.00    -0.339 N 
ATOM    102  C   UNL A   1      32.794  20.324  22.936  1.00  0.00     0.120 C 
ATOM    103  C   UNL A   1      33.801  19.161  24.896  1.00  0.00     0.120 C 
ATOM    104  C   UNL A   1      31.886  19.119  22.699  1.00  0.00     0.022 C 
ATOM    105  C   UNL A   1      32.882  17.968  24.674  1.00  0.00     0.022 C 
ATOM    106  C   UNL A   1      32.541  17.832  23.194  1.00  0.00     0.004 C 
ENDBRANCH  92  99
ENDBRANCH  88  90
ENDBRANCH  82  86
ENDBRANCH  78  80
ENDBRANCH  77  78
ENDBRANCH  76  77
ENDBRANCH  75  76
ENDBRANCH  74  75
ENDBRANCH   1  74
TORSDOF 20
ENDMDL
MODEL 3
REMARK VINA RESULT:      -8.2      4.610     11.706
REMARK SMILES O=C(OCCOCCOCCOC(=O)[C@@H]1CC=CC[C@@H]1C(=O)Nc1sc2c(c1C(=O)N1CCCCC1)CCCC2)c1ccc(-c2c3nc(c(-c4c(F)c(F)c(F)c(F)c4F)c4ccc([nH]4)c(-c4c(F)c(F)c(F)c(F)c4F)c4nc(c(-c5c(F)c(F)c(F)c(F)c5F)c5ccc2[nH]5)C=C4)C=C3)cc1
REMARK SMILES IDX 8 1 7 2 6 3 5 4 4 5 3 6 2 7 1 8 41 9 42 10 103 11 43 12
REMARK SMILES IDX 102 13 44 14 45 15 46 16 96 17 47 18 101 19 95 20 97 21
REMARK SMILES IDX 48 22 100 23 94 24 93 25 49 27 81 28 61 29 80 30 62 31 65 32
REMARK SMILES IDX 79 33 98 34 63 35 64 36 78 38 99 39 66 40 50 41 51 42 59 43
REMARK SMILES IDX 52 44 53 45 57 46 60 47 54 48 55 49 58 50 56 51 82 52 83 53
REMARK SMILES IDX 91 54 84 55 85 56 89 57 92 58 86 59 87 60 90 61 88 62 67 63
REMARK SMILES IDX 68 64 76 65 69 66 70 67 74 68 77 69 71 70 72 71 75 72 73 73
REMARK SMILES IDX 9 74 10 75 11 76 12 77 13 78 14 79 15 80 16 81 20 82 17 83
REMARK SMILES IDX 19 84 18 85 21 86 22 87 23 88 24 90 25 91 28 92 26 93 27 94
REMARK SMILES IDX 40 95 37 96 39 97 38 98 29 99 30 100 31 101 32 102 36 103
REMARK SMILES IDX 33 104 35 105 34 106
REMARK H PARENT 97 26 65 37 23 89
REMARK Flexibility Score: inf
ROOT
ATOM      1  C   UNL A   1      37.770  30.869  37.267  1.00  0.00     0.188 C 
ENDROOT
BRANCH   1   2
ATOM      2  C   UNL A   1      37.888  32.266  37.876  1.00  0.00     0.188 C 
BRANCH   2   3
ATOM      3  O   UNL A   1      38.259  32.284  39.260  1.00  0.00    -0.376 OA
BRANCH   3   4
ATOM      4  C   UNL A   1      38.297  33.597  39.835  1.00  0.00     0.202 C 
BRANCH   4   5
ATOM      5  C   UNL A   1      39.675  34.273  39.947  1.00  0.00     0.261 C 
BRANCH   5   6
ATOM      6  O   UNL A   1      39.691  35.656  39.565  1.00  0.00    -0.460 OA
BRANCH   6   7
ATOM      7  C   UNL A   1      40.487  36.289  38.670  1.00  0.00     0.338 C 
ATOM      8  O   UNL A   1      40.814  37.452  38.908  1.00  0.00    -0.246 OA
BRANCH   7   9
ATOM      9  C   UNL A   1      40.980  35.678  37.395  1.00  0.00     0.060 A 
ATOM     10  C   UNL A   1      40.184  35.208  36.348  1.00  0.00     0.016 A 
ATOM     11  C   UNL A   1      42.375  35.630  37.225  1.00  0.00     0.016 A 
ATOM     12  C   UNL A   1      40.736  34.629  35.210  1.00  0.00     0.010 A 
ATOM     13  C   UNL A   1      42.942  35.076  36.075  1.00  0.00     0.010 A 
ATOM     14  C   UNL A   1      42.116  34.534  35.083  1.00  0.00    -0.014 A 
BRANCH  14  15
ATOM     15  C   UNL A   1      42.681  33.683  34.024  1.00  0.00     0.031 A 
ATOM     16  C   UNL A   1      42.971  34.320  32.706  1.00  0.00     0.074 A 
ATOM     17  C   UNL A   1      43.016  32.405  34.257  1.00  0.00     0.049 A 
ATOM     18  N   UNL A   1      43.323  33.771  31.577  1.00  0.00    -0.248 NA
ATOM     19  C   UNL A   1      42.867  35.789  32.662  1.00  0.00     0.031 C 
ATOM     20  C   UNL A   1      42.954  31.749  35.559  1.00  0.00     0.029 A 
ATOM     21  N   UNL A   1      43.471  31.431  33.408  1.00  0.00    -0.354 N 
ATOM     22  C   UNL A   1      43.455  34.821  30.682  1.00  0.00     0.074 A 
ATOM     23  C   UNL A   1      43.135  36.039  31.392  1.00  0.00     0.031 C 
ATOM     24  C   UNL A   1      43.327  30.469  35.413  1.00  0.00     0.029 A 
ATOM     25  C   UNL A   1      43.543  30.197  34.003  1.00  0.00     0.049 A 
ATOM     26  H   UNL A   1      43.721  31.598  32.470  1.00  0.00     0.167 HD
ATOM     27  C   UNL A   1      43.809  34.757  29.379  1.00  0.00     0.037 A 
ATOM     28  C   UNL A   1      43.684  28.972  33.466  1.00  0.00     0.037 A 
ATOM     29  C   UNL A   1      44.105  33.520  28.711  1.00  0.00     0.049 A 
ATOM     30  C   UNL A   1      43.908  28.889  31.988  1.00  0.00     0.074 A 
ATOM     31  C   UNL A   1      44.437  33.306  27.389  1.00  0.00     0.029 A 
ATOM     32  N   UNL A   1      44.087  32.274  29.330  1.00  0.00    -0.354 N 
ATOM     33  N   UNL A   1      43.974  29.869  31.118  1.00  0.00    -0.248 NA
ATOM     34  C   UNL A   1      44.093  27.554  31.414  1.00  0.00     0.031 C 
ATOM     35  C   UNL A   1      44.559  31.926  27.194  1.00  0.00     0.029 A 
ATOM     36  C   UNL A   1      44.371  31.282  28.409  1.00  0.00     0.049 A 
ATOM     37  H   UNL A   1      43.899  32.120  30.284  1.00  0.00     0.167 HD
ATOM     38  C   UNL A   1      44.251  29.278  29.897  1.00  0.00     0.074 A 
ATOM     39  C   UNL A   1      44.325  27.847  30.140  1.00  0.00     0.031 C 
ATOM     40  C   UNL A   1      44.446  29.867  28.692  1.00  0.00     0.037 A 
BRANCH  27  41
ATOM     41  C   UNL A   1      43.783  36.046  28.612  1.00  0.00     0.064 A 
ATOM     42  C   UNL A   1      42.620  36.523  27.985  1.00  0.00     0.173 A 
ATOM     43  C   UNL A   1      44.969  36.770  28.425  1.00  0.00     0.173 A 
ATOM     44  F   UNL A   1      41.465  35.850  28.102  1.00  0.00    -0.203 F 
ATOM     45  C   UNL A   1      42.661  37.642  27.156  1.00  0.00     0.198 A 
ATOM     46  C   UNL A   1      44.999  37.909  27.625  1.00  0.00     0.198 A 
ATOM     47  F   UNL A   1      46.112  36.355  28.994  1.00  0.00    -0.203 F 
ATOM     48  F   UNL A   1      41.559  38.023  26.494  1.00  0.00    -0.200 F 
ATOM     49  C   UNL A   1      43.849  38.334  26.977  1.00  0.00     0.200 A 
ATOM     50  F   UNL A   1      46.148  38.575  27.455  1.00  0.00    -0.200 F 
ATOM     51  F   UNL A   1      43.892  39.396  26.161  1.00  0.00    -0.200 F 
ENDBRANCH  27  41
BRANCH  28  52
ATOM     52  C   UNL A   1      43.541  27.772  34.332  1.00  0.00     0.064 A 
ATOM     53  C   UNL A   1      42.320  27.103  34.468  1.00  0.00     0.173 A 
ATOM     54  C   UNL A   1      44.656  27.229  34.994  1.00  0.00     0.173 A 
ATOM     55  F   UNL A   1      41.223  27.584  33.866  1.00  0.00    -0.203 F 
ATOM     56  C   UNL A   1      42.218  25.938  35.232  1.00  0.00     0.198 A 
ATOM     57  C   UNL A   1      44.559  26.053  35.737  1.00  0.00     0.198 A 
ATOM     58  F   UNL A   1      45.853  27.826  34.892  1.00  0.00    -0.203 F 
ATOM     59  F   UNL A   1      41.032  25.329  35.363  1.00  0.00    -0.200 F 
ATOM     60  C   UNL A   1      43.338  25.411  35.859  1.00  0.00     0.200 A 
ATOM     61  F   UNL A   1      45.649  25.542  36.326  1.00  0.00    -0.200 F 
ATOM     62  F   UNL A   1      43.239  24.287  36.581  1.00  0.00    -0.200 F 
ENDBRANCH  28  52
BRANCH  40  63
ATOM     63  C   UNL A   1      44.821  28.973  27.554  1.00  0.00     0.064 A 
ATOM     64  C   UNL A   1      46.130  28.506  27.382  1.00  0.00     0.173 A 
ATOM     65  C   UNL A   1      43.827  28.511  26.677  1.00  0.00     0.173 A 
ATOM     66  F   UNL A   1      47.113  28.938  28.185  1.00  0.00    -0.203 F 
ATOM     67  C   UNL A   1      46.433  27.605  26.365  1.00  0.00     0.198 A 
ATOM     68  C   UNL A   1      44.129  27.588  25.683  1.00  0.00     0.198 A 
ATOM     69  F   UNL A   1      42.560  28.932  26.809  1.00  0.00    -0.203 F 
ATOM     70  F   UNL A   1      47.696  27.189  26.198  1.00  0.00    -0.200 F 
ATOM     71  C   UNL A   1      45.430  27.137  25.527  1.00  0.00     0.200 A 
ATOM     72  F   UNL A   1      43.156  27.124  24.885  1.00  0.00    -0.200 F 
ATOM     73  F   UNL A   1      45.721  26.249  24.566  1.00  0.00    -0.200 F 
ENDBRANCH  40  63
ENDBRANCH  14  15
ENDBRANCH   7   9
ENDBRANCH   6   7
ENDBRANCH   5   6
ENDBRANCH   4   5
ENDBRANCH   3   4
ENDBRANCH   2   3
ENDBRANCH   1   2
BRANCH   1  74
ATOM     74  O   UNL A   1      38.934  30.369  36.617  1.00  0.00    -0.376 OA
BRANCH  74  75
ATOM     75  C   UNL A   1      39.497  31.171  35.585  1.00  0.00     0.202 C 
BRANCH  75  76
ATOM     76  C   UNL A   1      39.849  30.459  34.277  1.00  0.00     0.261 C 
BRANCH  76  77
ATOM     77  O   UNL A   1      38.711  30.260  33.424  1.00  0.00    -0.463 OA
BRANCH  77  78
ATOM     78  C   UNL A   1      37.989  31.372  33.118  1.00  0.00     0.310 C 
ATOM     79  O   UNL A   1      36.971  31.725  33.704  1.00  0.00    -0.252 OA
BRANCH  78  80
ATOM     80  C   UNL A   1      38.618  32.136  31.959  1.00  0.00     0.116 C 
ATOM     81  C   UNL A   1      38.204  33.617  32.120  1.00  0.00     0.043 C 
ATOM     82  C   UNL A   1      38.340  31.463  30.594  1.00  0.00     0.097 C 
ATOM     83  C   UNL A   1      37.875  34.380  30.884  1.00  0.00    -0.030 C 
ATOM     84  C   UNL A   1      38.194  32.424  29.396  1.00  0.00     0.041 C 
ATOM     85  C   UNL A   1      37.847  33.842  29.666  1.00  0.00    -0.030 C 
BRANCH  82  86
ATOM     86  C   UNL A   1      37.180  30.470  30.602  1.00  0.00     0.229 C 
ATOM     87  O   UNL A   1      37.426  29.256  30.636  1.00  0.00    -0.274 OA
ATOM     88  N   UNL A   1      35.860  30.817  30.579  1.00  0.00    -0.317 N 
ATOM     89  H   UNL A   1      35.277  30.025  30.610  1.00  0.00     0.170 HD
BRANCH  88  90
ATOM     90  C   UNL A   1      35.125  31.994  30.525  1.00  0.00     0.108 A 
ATOM     91  S   UNL A   1      34.692  32.872  31.907  1.00  0.00    -0.122 S 
ATOM     92  C   UNL A   1      34.622  32.584  29.358  1.00  0.00     0.078 A 
ATOM     93  C   UNL A   1      34.154  34.189  31.003  1.00  0.00     0.011 A 
ATOM     94  C   UNL A   1      34.082  33.908  29.653  1.00  0.00    -0.019 A 
ATOM     95  C   UNL A   1      33.819  35.500  31.637  1.00  0.00     0.047 C 
ATOM     96  C   UNL A   1      33.516  34.921  28.700  1.00  0.00     0.037 C 
ATOM     97  C   UNL A   1      32.846  36.285  30.754  1.00  0.00     0.006 C 
ATOM     98  C   UNL A   1      33.335  36.322  29.306  1.00  0.00     0.005 C 
BRANCH  92  99
ATOM     99  C   UNL A   1      34.695  31.886  28.058  1.00  0.00     0.257 C 
ATOM    100  O   UNL A   1      35.575  32.143  27.226  1.00  0.00    -0.269 OA
ATOM    101  N   UNL A   1      33.839  30.816  27.884  1.00  0.00    -0.339 N 
ATOM    102  C   UNL A   1      34.394  29.469  27.945  1.00  0.00     0.120 C 
ATOM    103  C   UNL A   1      32.583  30.994  27.168  1.00  0.00     0.120 C 
ATOM    104  C   UNL A   1      34.345  28.743  26.603  1.00  0.00     0.022 C 
ATOM    105  C   UNL A   1      32.549  30.285  25.822  1.00  0.00     0.022 C 
ATOM    106  C   UNL A   1      32.952  28.823  25.984  1.00  0.00     0.004 C 
ENDBRANCH  92  99
ENDBRANCH  88  90
ENDBRANCH  82  86
ENDBRANCH  78  80
ENDBRANCH  77  78
ENDBRANCH  76  77
ENDBRANCH  75  76
ENDBRANCH  74  75
ENDBRANCH   1  74
TORSDOF 20
ENDMDL
