MODEL 1
REMARK VINA RESULT:      -9.6      0.000      0.000
REMARK SMILES C[NH+](C)CCCNC(=O)[C@@H]1[C@@H](C(=O)OCCOCCOCCOC(=O)c2ccc(-c3c4nc(c(-c5c(F)c(F)c(F)c(F)c5F)c5ccc([nH]5)c(-c5c(F)c(F)c(F)c(F)c5F)c5nc(c(-c6c(F)c(F)c(F)c(F)c6F)c6ccc3[nH]6)C=C5)C=C4)cc2)C1(C)C
REMARK SMILES IDX 17 1 16 2 15 3 14 4 12 5 13 6 11 7 10 8 89 9 90 10 91 11
REMARK SMILES IDX 8 12 7 13 9 15 6 16 5 17 4 18 2 19 1 20 3 21 18 23 19 24
REMARK SMILES IDX 20 25 21 26 22 27 23 28 24 29 25 30 26 31 27 32 88 33 28 34
REMARK SMILES IDX 87 35 29 36 30 37 31 38 81 39 32 40 86 41 80 42 82 43 33 44
REMARK SMILES IDX 85 45 79 46 78 47 34 49 66 50 46 51 65 52 47 53 50 54 64 55
REMARK SMILES IDX 83 56 48 57 49 58 63 60 84 61 51 62 35 63 36 64 44 65 37 66
REMARK SMILES IDX 38 67 42 68 45 69 39 70 40 71 43 72 41 73 67 74 68 75 76 76
REMARK SMILES IDX 69 77 70 78 74 79 77 80 71 81 72 82 75 83 73 84 52 85 53 86
REMARK SMILES IDX 61 87 54 88 55 89 59 90 62 91 56 92 57 93 60 94 58 95
REMARK H PARENT 7 14 2 22 82 48 50 59
REMARK Flexibility Score: inf
ROOT
ATOM      1  O   UNL A   1      33.811  21.552  26.462  1.00  0.00    -0.376 OA
ENDROOT
BRANCH   1   2
ATOM      2  C   UNL A   1      33.609  20.295  25.815  1.00  0.00     0.202 C 
BRANCH   2   3
ATOM      3  C   UNL A   1      32.889  20.271  24.459  1.00  0.00     0.261 C 
BRANCH   3   4
ATOM      4  O   UNL A   1      33.245  21.385  23.621  1.00  0.00    -0.463 OA
BRANCH   4   5
ATOM      5  C   UNL A   1      32.280  21.802  22.770  1.00  0.00     0.310 C 
ATOM      6  O   UNL A   1      31.780  21.125  21.884  1.00  0.00    -0.252 OA
BRANCH   5   7
ATOM      7  C   UNL A   1      31.737  23.152  23.062  1.00  0.00     0.118 C 
ATOM      8  C   UNL A   1      32.594  23.931  24.046  1.00  0.00     0.100 C 
ATOM      9  C   UNL A   1      31.115  23.854  24.270  1.00  0.00    -0.009 C 
ATOM     10  C   UNL A   1      30.738  23.144  25.553  1.00  0.00     0.013 C 
ATOM     11  C   UNL A   1      30.278  25.089  24.013  1.00  0.00     0.013 C 
BRANCH   8  12
ATOM     12  C   UNL A   1      33.427  24.978  23.428  1.00  0.00     0.224 C 
ATOM     13  N   UNL A   1      33.974  25.890  24.293  1.00  0.00    -0.356 N 
ATOM     14  H   UNL A   1      34.592  26.554  23.912  1.00  0.00     0.163 HD
ATOM     15  O   UNL A   1      33.666  24.998  22.226  1.00  0.00    -0.275 OA
BRANCH  13  16
ATOM     16  C   UNL A   1      33.722  25.965  25.724  1.00  0.00     0.121 C 
BRANCH  16  17
ATOM     17  C   UNL A   1      32.820  27.105  26.151  1.00  0.00     0.083 C 
BRANCH  17  18
ATOM     18  C   UNL A   1      33.505  28.305  26.807  1.00  0.00     0.263 C 
BRANCH  18  19
ATOM     19  N   UNL A   1      32.826  29.601  26.828  1.00  0.00    -0.340 N 
ATOM     20  C   UNL A   1      33.653  30.722  27.253  1.00  0.00     0.332 C 
ATOM     21  C   UNL A   1      32.087  29.903  25.608  1.00  0.00     0.332 C 
ATOM     22  H   UNL A   1      32.133  29.480  27.566  1.00  0.00     0.347 HD
ENDBRANCH  18  19
ENDBRANCH  17  18
ENDBRANCH  16  17
ENDBRANCH  13  16
ENDBRANCH   8  12
ENDBRANCH   5   7
ENDBRANCH   4   5
ENDBRANCH   3   4
ENDBRANCH   2   3
ENDBRANCH   1   2
BRANCH   1  23
ATOM     23  C   UNL A   1      35.091  22.172  26.392  1.00  0.00     0.188 C 
BRANCH  23  24
ATOM     24  C   UNL A   1      36.232  21.450  25.656  1.00  0.00     0.188 C 
BRANCH  24  25
ATOM     25  O   UNL A   1      37.345  22.250  25.345  1.00  0.00    -0.376 OA
BRANCH  25  26
ATOM     26  C   UNL A   1      38.637  21.849  25.756  1.00  0.00     0.202 C 
BRANCH  26  27
ATOM     27  C   UNL A   1      39.160  20.404  25.638  1.00  0.00     0.261 C 
BRANCH  27  28
ATOM     28  O   UNL A   1      40.018  19.907  26.671  1.00  0.00    -0.460 OA
BRANCH  28  29
ATOM     29  C   UNL A   1      41.298  19.630  26.326  1.00  0.00     0.338 C 
ATOM     30  O   UNL A   1      41.710  18.640  25.752  1.00  0.00    -0.246 OA
BRANCH  29  31
ATOM     31  C   UNL A   1      42.101  20.850  26.571  1.00  0.00     0.060 A 
ATOM     32  C   UNL A   1      42.316  21.272  27.891  1.00  0.00     0.016 A 
ATOM     33  C   UNL A   1      42.633  21.570  25.501  1.00  0.00     0.016 A 
ATOM     34  C   UNL A   1      43.036  22.441  28.143  1.00  0.00     0.010 A 
ATOM     35  C   UNL A   1      43.331  22.754  25.754  1.00  0.00     0.010 A 
ATOM     36  C   UNL A   1      43.505  23.213  27.072  1.00  0.00    -0.014 A 
BRANCH  36  37
ATOM     37  C   UNL A   1      43.977  24.599  27.309  1.00  0.00     0.031 A 
ATOM     38  C   UNL A   1      42.974  25.616  27.780  1.00  0.00     0.074 A 
ATOM     39  C   UNL A   1      45.258  24.954  27.113  1.00  0.00     0.049 A 
ATOM     40  N   UNL A   1      43.114  26.903  27.970  1.00  0.00    -0.248 NA
ATOM     41  C   UNL A   1      41.623  25.108  28.070  1.00  0.00     0.031 C 
ATOM     42  C   UNL A   1      46.334  24.055  26.706  1.00  0.00     0.029 A 
ATOM     43  N   UNL A   1      45.864  26.182  27.220  1.00  0.00    -0.354 N 
ATOM     44  C   UNL A   1      41.871  27.357  28.388  1.00  0.00     0.074 A 
ATOM     45  C   UNL A   1      40.980  26.218  28.397  1.00  0.00     0.031 C 
ATOM     46  C   UNL A   1      47.468  24.765  26.578  1.00  0.00     0.029 A 
ATOM     47  C   UNL A   1      47.190  26.173  26.859  1.00  0.00     0.049 A 
ATOM     48  H   UNL A   1      45.394  26.991  27.526  1.00  0.00     0.167 HD
ATOM     49  C   UNL A   1      41.505  28.613  28.741  1.00  0.00     0.037 A 
ATOM     50  C   UNL A   1      48.064  27.193  26.745  1.00  0.00     0.037 A 
ATOM     51  C   UNL A   1      42.392  29.746  28.730  1.00  0.00     0.049 A 
ATOM     52  C   UNL A   1      47.612  28.597  27.067  1.00  0.00     0.074 A 
ATOM     53  C   UNL A   1      42.123  31.055  29.083  1.00  0.00     0.029 A 
ATOM     54  N   UNL A   1      43.721  29.702  28.334  1.00  0.00    -0.354 N 
ATOM     55  N   UNL A   1      46.442  29.018  27.482  1.00  0.00    -0.248 NA
ATOM     56  C   UNL A   1      48.607  29.667  26.904  1.00  0.00     0.031 C 
ATOM     57  C   UNL A   1      43.272  31.816  28.847  1.00  0.00     0.029 A 
ATOM     58  C   UNL A   1      44.277  30.968  28.409  1.00  0.00     0.049 A 
ATOM     59  H   UNL A   1      44.198  28.891  28.044  1.00  0.00     0.167 HD
ATOM     60  C   UNL A   1      46.571  30.391  27.664  1.00  0.00     0.074 A 
ATOM     61  C   UNL A   1      47.936  30.729  27.324  1.00  0.00     0.031 C 
ATOM     62  C   UNL A   1      45.643  31.288  28.080  1.00  0.00     0.037 A 
BRANCH  49  63
ATOM     63  C   UNL A   1      40.075  28.831  29.139  1.00  0.00     0.064 A 
ATOM     64  C   UNL A   1      39.642  28.671  30.464  1.00  0.00     0.173 A 
ATOM     65  C   UNL A   1      39.127  29.230  28.184  1.00  0.00     0.173 A 
ATOM     66  F   UNL A   1      40.504  28.273  31.413  1.00  0.00    -0.203 F 
ATOM     67  C   UNL A   1      38.309  28.876  30.813  1.00  0.00     0.198 A 
ATOM     68  C   UNL A   1      37.803  29.466  28.542  1.00  0.00     0.198 A 
ATOM     69  F   UNL A   1      39.488  29.399  26.902  1.00  0.00    -0.203 F 
ATOM     70  F   UNL A   1      37.909  28.667  32.074  1.00  0.00    -0.200 F 
ATOM     71  C   UNL A   1      37.394  29.280  29.853  1.00  0.00     0.200 A 
ATOM     72  F   UNL A   1      36.922  29.869  27.616  1.00  0.00    -0.200 F 
ATOM     73  F   UNL A   1      36.113  29.484  30.191  1.00  0.00    -0.200 F 
ENDBRANCH  49  63
BRANCH  50  74
ATOM     74  C   UNL A   1      49.456  26.935  26.288  1.00  0.00     0.064 A 
ATOM     75  C   UNL A   1      49.801  27.029  24.932  1.00  0.00     0.173 A 
ATOM     76  C   UNL A   1      50.461  26.557  27.191  1.00  0.00     0.173 A 
ATOM     77  F   UNL A   1      48.868  27.357  24.026  1.00  0.00    -0.203 F 
ATOM     78  C   UNL A   1      51.091  26.733  24.495  1.00  0.00     0.198 A 
ATOM     79  C   UNL A   1      51.758  26.292  26.756  1.00  0.00     0.198 A 
ATOM     80  F   UNL A   1      50.183  26.445  28.497  1.00  0.00    -0.203 F 
ATOM     81  F   UNL A   1      51.378  26.775  23.187  1.00  0.00    -0.200 F 
ATOM     82  C   UNL A   1      52.070  26.370  25.408  1.00  0.00     0.200 A 
ATOM     83  F   UNL A   1      52.702  25.950  27.642  1.00  0.00    -0.200 F 
ATOM     84  F   UNL A   1      53.309  26.084  24.986  1.00  0.00    -0.200 F 
ENDBRANCH  50  74
BRANCH  62  85
ATOM     85  C   UNL A   1      46.080  32.718  28.239  1.00  0.00     0.064 A 
ATOM     86  C   UNL A   1      45.953  33.653  27.202  1.00  0.00     0.173 A 
ATOM     87  C   UNL A   1      46.590  33.168  29.468  1.00  0.00     0.173 A 
ATOM     88  F   UNL A   1      45.483  33.273  26.004  1.00  0.00    -0.203 F 
ATOM     89  C   UNL A   1      46.344  34.977  27.379  1.00  0.00     0.198 A 
ATOM     90  C   UNL A   1      46.947  34.501  29.652  1.00  0.00     0.198 A 
ATOM     91  F   UNL A   1      46.723  32.318  30.497  1.00  0.00    -0.203 F 
ATOM     92  F   UNL A   1      46.259  35.842  26.358  1.00  0.00    -0.200 F 
ATOM     93  C   UNL A   1      46.833  35.402  28.606  1.00  0.00     0.200 A 
ATOM     94  F   UNL A   1      47.403  34.913  30.844  1.00  0.00    -0.200 F 
ATOM     95  F   UNL A   1      47.199  36.680  28.777  1.00  0.00    -0.200 F 
ENDBRANCH  62  85
ENDBRANCH  36  37
ENDBRANCH  29  31
ENDBRANCH  28  29
ENDBRANCH  27  28
ENDBRANCH  26  27
ENDBRANCH  25  26
ENDBRANCH  24  25
ENDBRANCH  23  24
ENDBRANCH   1  23
TORSDOF 22
ENDMDL
MODEL 2
REMARK VINA RESULT:      -9.6      0.432      2.021
REMARK SMILES C[NH+](C)CCCNC(=O)[C@@H]1[C@@H](C(=O)OCCOCCOCCOC(=O)c2ccc(-c3c4nc(c(-c5c(F)c(F)c(F)c(F)c5F)c5ccc([nH]5)c(-c5c(F)c(F)c(F)c(F)c5F)c5nc(c(-c6c(F)c(F)c(F)c(F)c6F)c6ccc3[nH]6)C=C5)C=C4)cc2)C1(C)C
REMARK SMILES IDX 17 1 16 2 15 3 14 4 12 5 13 6 11 7 10 8 89 9 90 10 91 11
REMARK SMILES IDX 8 12 7 13 9 15 6 16 5 17 4 18 2 19 1 20 3 21 18 23 19 24
REMARK SMILES IDX 20 25 21 26 22 27 23 28 24 29 25 30 26 31 27 32 88 33 28 34
REMARK SMILES IDX 87 35 29 36 30 37 31 38 81 39 32 40 86 41 80 42 82 43 33 44
REMARK SMILES IDX 85 45 79 46 78 47 34 49 66 50 46 51 65 52 47 53 50 54 64 55
REMARK SMILES IDX 83 56 48 57 49 58 63 60 84 61 51 62 35 63 36 64 44 65 37 66
REMARK SMILES IDX 38 67 42 68 45 69 39 70 40 71 43 72 41 73 67 74 68 75 76 76
REMARK SMILES IDX 69 77 70 78 74 79 77 80 71 81 72 82 75 83 73 84 52 85 53 86
REMARK SMILES IDX 61 87 54 88 55 89 59 90 62 91 56 92 57 93 60 94 58 95
REMARK H PARENT 7 14 2 22 82 48 50 59
REMARK Flexibility Score: inf
ROOT
ATOM      1  O   UNL A   1      33.819  21.557  26.601  1.00  0.00    -0.376 OA
ENDROOT
BRANCH   1   2
ATOM      2  C   UNL A   1      33.582  20.337  25.898  1.00  0.00     0.202 C 
BRANCH   2   3
ATOM      3  C   UNL A   1      32.761  20.380  24.600  1.00  0.00     0.261 C 
BRANCH   3   4
ATOM      4  O   UNL A   1      33.176  21.436  23.716  1.00  0.00    -0.463 OA
BRANCH   4   5
ATOM      5  C   UNL A   1      32.249  21.837  22.817  1.00  0.00     0.310 C 
ATOM      6  O   UNL A   1      31.772  21.139  21.935  1.00  0.00    -0.252 OA
BRANCH   5   7
ATOM      7  C   UNL A   1      31.714  23.203  23.045  1.00  0.00     0.118 C 
ATOM      8  C   UNL A   1      32.601  24.037  23.956  1.00  0.00     0.100 C 
ATOM      9  C   UNL A   1      31.129  23.976  24.228  1.00  0.00    -0.009 C 
ATOM     10  C   UNL A   1      30.790  23.343  25.561  1.00  0.00     0.013 C 
ATOM     11  C   UNL A   1      30.284  25.195  23.924  1.00  0.00     0.013 C 
BRANCH   8  12
ATOM     12  C   UNL A   1      33.415  25.045  23.254  1.00  0.00     0.224 C 
ATOM     13  N   UNL A   1      33.930  26.043  24.038  1.00  0.00    -0.356 N 
ATOM     14  H   UNL A   1      34.537  26.686  23.604  1.00  0.00     0.163 HD
ATOM     15  O   UNL A   1      33.666  24.962  22.057  1.00  0.00    -0.275 OA
BRANCH  13  16
ATOM     16  C   UNL A   1      33.661  26.240  25.454  1.00  0.00     0.121 C 
BRANCH  16  17
ATOM     17  C   UNL A   1      33.017  27.566  25.800  1.00  0.00     0.083 C 
BRANCH  17  18
ATOM     18  C   UNL A   1      33.193  28.694  24.781  1.00  0.00     0.263 C 
BRANCH  18  19
ATOM     19  N   UNL A   1      32.119  29.670  24.592  1.00  0.00    -0.340 N 
ATOM     20  C   UNL A   1      30.933  29.157  23.919  1.00  0.00     0.332 C 
ATOM     21  C   UNL A   1      31.779  30.420  25.794  1.00  0.00     0.332 C 
ATOM     22  H   UNL A   1      32.533  30.337  23.940  1.00  0.00     0.347 HD
ENDBRANCH  18  19
ENDBRANCH  17  18
ENDBRANCH  16  17
ENDBRANCH  13  16
ENDBRANCH   8  12
ENDBRANCH   5   7
ENDBRANCH   4   5
ENDBRANCH   3   4
ENDBRANCH   2   3
ENDBRANCH   1   2
BRANCH   1  23
ATOM     23  C   UNL A   1      35.105  22.163  26.526  1.00  0.00     0.188 C 
BRANCH  23  24
ATOM     24  C   UNL A   1      36.229  21.440  25.766  1.00  0.00     0.188 C 
BRANCH  24  25
ATOM     25  O   UNL A   1      37.325  22.245  25.409  1.00  0.00    -0.376 OA
BRANCH  25  26
ATOM     26  C   UNL A   1      38.631  21.868  25.797  1.00  0.00     0.202 C 
BRANCH  26  27
ATOM     27  C   UNL A   1      39.178  20.432  25.672  1.00  0.00     0.261 C 
BRANCH  27  28
ATOM     28  O   UNL A   1      40.049  19.946  26.700  1.00  0.00    -0.460 OA
BRANCH  28  29
ATOM     29  C   UNL A   1      41.325  19.669  26.342  1.00  0.00     0.338 C 
ATOM     30  O   UNL A   1      41.729  18.684  25.753  1.00  0.00    -0.246 OA
BRANCH  29  31
ATOM     31  C   UNL A   1      42.134  20.882  26.596  1.00  0.00     0.060 A 
ATOM     32  C   UNL A   1      42.280  21.342  27.914  1.00  0.00     0.016 A 
ATOM     33  C   UNL A   1      42.742  21.560  25.539  1.00  0.00     0.016 A 
ATOM     34  C   UNL A   1      43.005  22.506  28.172  1.00  0.00     0.010 A 
ATOM     35  C   UNL A   1      43.446  22.739  25.796  1.00  0.00     0.010 A 
ATOM     36  C   UNL A   1      43.551  23.236  27.108  1.00  0.00    -0.014 A 
BRANCH  36  37
ATOM     37  C   UNL A   1      44.033  24.621  27.330  1.00  0.00     0.031 A 
ATOM     38  C   UNL A   1      43.037  25.651  27.787  1.00  0.00     0.074 A 
ATOM     39  C   UNL A   1      45.318  24.963  27.133  1.00  0.00     0.049 A 
ATOM     40  N   UNL A   1      43.187  26.939  27.963  1.00  0.00    -0.248 NA
ATOM     41  C   UNL A   1      41.682  25.157  28.081  1.00  0.00     0.031 C 
ATOM     42  C   UNL A   1      46.386  24.051  26.737  1.00  0.00     0.029 A 
ATOM     43  N   UNL A   1      45.933  26.187  27.227  1.00  0.00    -0.354 N 
ATOM     44  C   UNL A   1      41.947  27.408  28.374  1.00  0.00     0.074 A 
ATOM     45  C   UNL A   1      41.047  26.276  28.394  1.00  0.00     0.031 C 
ATOM     46  C   UNL A   1      47.527  24.750  26.604  1.00  0.00     0.029 A 
ATOM     47  C   UNL A   1      47.259  26.163  26.869  1.00  0.00     0.049 A 
ATOM     48  H   UNL A   1      45.469  27.003  27.522  1.00  0.00     0.167 HD
ATOM     49  C   UNL A   1      41.591  28.670  28.711  1.00  0.00     0.037 A 
ATOM     50  C   UNL A   1      48.142  27.174  26.745  1.00  0.00     0.037 A 
ATOM     51  C   UNL A   1      42.488  29.796  28.689  1.00  0.00     0.049 A 
ATOM     52  C   UNL A   1      47.701  28.586  27.050  1.00  0.00     0.074 A 
ATOM     53  C   UNL A   1      42.228  31.112  29.027  1.00  0.00     0.029 A 
ATOM     54  N   UNL A   1      43.817  29.736  28.297  1.00  0.00    -0.354 N 
ATOM     55  N   UNL A   1      46.533  29.021  27.458  1.00  0.00    -0.248 NA
ATOM     56  C   UNL A   1      48.705  29.646  26.876  1.00  0.00     0.031 C 
ATOM     57  C   UNL A   1      43.385  31.860  28.785  1.00  0.00     0.029 A 
ATOM     58  C   UNL A   1      44.383  30.999  28.358  1.00  0.00     0.049 A 
ATOM     59  H   UNL A   1      44.288  28.919  28.016  1.00  0.00     0.167 HD
ATOM     60  C   UNL A   1      46.674  30.395  27.625  1.00  0.00     0.074 A 
ATOM     61  C   UNL A   1      48.042  30.718  27.283  1.00  0.00     0.031 C 
ATOM     62  C   UNL A   1      45.752  31.305  28.029  1.00  0.00     0.037 A 
BRANCH  49  63
ATOM     63  C   UNL A   1      40.162  28.905  29.104  1.00  0.00     0.064 A 
ATOM     64  C   UNL A   1      39.173  29.207  28.155  1.00  0.00     0.173 A 
ATOM     65  C   UNL A   1      39.771  28.803  30.447  1.00  0.00     0.173 A 
ATOM     66  F   UNL A   1      39.497  29.333  26.858  1.00  0.00    -0.203 F 
ATOM     67  C   UNL A   1      37.852  29.423  28.540  1.00  0.00     0.198 A 
ATOM     68  C   UNL A   1      38.444  28.987  30.825  1.00  0.00     0.198 A 
ATOM     69  F   UNL A   1      40.676  28.516  31.395  1.00  0.00    -0.203 F 
ATOM     70  F   UNL A   1      36.936  29.760  27.622  1.00  0.00    -0.200 F 
ATOM     71  C   UNL A   1      37.489  29.306  29.872  1.00  0.00     0.200 A 
ATOM     72  F   UNL A   1      38.091  28.862  32.111  1.00  0.00    -0.200 F 
ATOM     73  F   UNL A   1      36.215  29.507  30.241  1.00  0.00    -0.200 F 
ENDBRANCH  49  63
BRANCH  50  74
ATOM     74  C   UNL A   1      49.533  26.900  26.293  1.00  0.00     0.064 A 
ATOM     75  C   UNL A   1      50.553  26.630  27.216  1.00  0.00     0.173 A 
ATOM     76  C   UNL A   1      49.877  26.935  24.934  1.00  0.00     0.173 A 
ATOM     77  F   UNL A   1      50.280  26.617  28.529  1.00  0.00    -0.203 F 
ATOM     78  C   UNL A   1      51.868  26.430  26.799  1.00  0.00     0.198 A 
ATOM     79  C   UNL A   1      51.187  26.702  24.515  1.00  0.00     0.198 A 
ATOM     80  F   UNL A   1      48.942  27.195  24.010  1.00  0.00    -0.203 F 
ATOM     81  F   UNL A   1      52.833  26.232  27.707  1.00  0.00    -0.200 F 
ATOM     82  C   UNL A   1      52.182  26.460  25.449  1.00  0.00     0.200 A 
ATOM     83  F   UNL A   1      51.484  26.725  23.210  1.00  0.00    -0.200 F 
ATOM     84  F   UNL A   1      53.447  26.268  25.049  1.00  0.00    -0.200 F 
ENDBRANCH  50  74
BRANCH  62  85
ATOM     85  C   UNL A   1      46.201  32.732  28.172  1.00  0.00     0.064 A 
ATOM     86  C   UNL A   1      46.863  33.190  29.320  1.00  0.00     0.173 A 
ATOM     87  C   UNL A   1      46.005  33.643  27.121  1.00  0.00     0.173 A 
ATOM     88  F   UNL A   1      47.064  32.365  30.359  1.00  0.00    -0.203 F 
ATOM     89  C   UNL A   1      47.289  34.512  29.423  1.00  0.00     0.198 A 
ATOM     90  C   UNL A   1      46.464  34.954  27.213  1.00  0.00     0.198 A 
ATOM     91  F   UNL A   1      45.387  33.255  25.996  1.00  0.00    -0.203 F 
ATOM     92  F   UNL A   1      47.876  34.940  30.548  1.00  0.00    -0.200 F 
ATOM     93  C   UNL A   1      47.097  35.390  28.366  1.00  0.00     0.200 A 
ATOM     94  F   UNL A   1      46.292  35.796  26.184  1.00  0.00    -0.200 F 
ATOM     95  F   UNL A   1      47.517  36.659  28.462  1.00  0.00    -0.200 F 
ENDBRANCH  62  85
ENDBRANCH  36  37
ENDBRANCH  29  31
ENDBRANCH  28  29
ENDBRANCH  27  28
ENDBRANCH  26  27
ENDBRANCH  25  26
ENDBRANCH  24  25
ENDBRANCH  23  24
ENDBRANCH   1  23
TORSDOF 22
ENDMDL
MODEL 3
REMARK VINA RESULT:      -9.6      3.693      9.177
REMARK SMILES C[NH+](C)CCCNC(=O)[C@@H]1[C@@H](C(=O)OCCOCCOCCOC(=O)c2ccc(-c3c4nc(c(-c5c(F)c(F)c(F)c(F)c5F)c5ccc([nH]5)c(-c5c(F)c(F)c(F)c(F)c5F)c5nc(c(-c6c(F)c(F)c(F)c(F)c6F)c6ccc3[nH]6)C=C5)C=C4)cc2)C1(C)C
REMARK SMILES IDX 17 1 16 2 15 3 14 4 12 5 13 6 11 7 10 8 89 9 90 10 91 11
REMARK SMILES IDX 8 12 7 13 9 15 6 16 5 17 4 18 2 19 1 20 3 21 18 23 19 24
REMARK SMILES IDX 20 25 21 26 22 27 23 28 24 29 25 30 26 31 27 32 88 33 28 34
REMARK SMILES IDX 87 35 29 36 30 37 31 38 81 39 32 40 86 41 80 42 82 43 33 44
REMARK SMILES IDX 85 45 79 46 78 47 34 49 66 50 46 51 65 52 47 53 50 54 64 55
REMARK SMILES IDX 83 56 48 57 49 58 63 60 84 61 51 62 35 63 36 64 44 65 37 66
REMARK SMILES IDX 38 67 42 68 45 69 39 70 40 71 43 72 41 73 67 74 68 75 76 76
REMARK SMILES IDX 69 77 70 78 74 79 77 80 71 81 72 82 75 83 73 84 52 85 53 86
REMARK SMILES IDX 61 87 54 88 55 89 59 90 62 91 56 92 57 93 60 94 58 95
REMARK H PARENT 7 14 2 22 82 48 50 59
REMARK Flexibility Score: inf
ROOT
ATOM      1  O   UNL A   1      33.011  32.692  27.561  1.00  0.00    -0.376 OA
ENDROOT
BRANCH   1   2
ATOM      2  C   UNL A   1      33.311  31.299  27.654  1.00  0.00     0.202 C 
BRANCH   2   3
ATOM      3  C   UNL A   1      32.453  30.305  26.856  1.00  0.00     0.261 C 
BRANCH   3   4
ATOM      4  O   UNL A   1      32.508  28.971  27.390  1.00  0.00    -0.463 OA
BRANCH   4   5
ATOM      5  C   UNL A   1      32.880  28.010  26.514  1.00  0.00     0.310 C 
ATOM      6  O   UNL A   1      34.022  27.808  26.131  1.00  0.00    -0.252 OA
BRANCH   5   7
ATOM      7  C   UNL A   1      31.794  27.079  26.118  1.00  0.00     0.118 C 
ATOM      8  C   UNL A   1      32.319  25.788  25.511  1.00  0.00     0.100 C 
ATOM      9  C   UNL A   1      31.230  26.536  24.804  1.00  0.00    -0.009 C 
ATOM     10  C   UNL A   1      31.641  27.045  23.438  1.00  0.00     0.013 C 
ATOM     11  C   UNL A   1      29.828  25.965  24.822  1.00  0.00     0.013 C 
BRANCH   8  12
ATOM     12  C   UNL A   1      32.265  24.626  26.416  1.00  0.00     0.224 C 
ATOM     13  N   UNL A   1      33.303  23.739  26.307  1.00  0.00    -0.356 N 
ATOM     14  H   UNL A   1      33.327  22.995  26.951  1.00  0.00     0.163 HD
ATOM     15  O   UNL A   1      31.382  24.494  27.256  1.00  0.00    -0.275 OA
BRANCH  13  16
ATOM     16  C   UNL A   1      34.374  23.797  25.323  1.00  0.00     0.121 C 
BRANCH  16  17
ATOM     17  C   UNL A   1      35.179  22.521  25.186  1.00  0.00     0.083 C 
BRANCH  17  18
ATOM     18  C   UNL A   1      34.494  21.232  25.644  1.00  0.00     0.263 C 
BRANCH  18  19
ATOM     19  N   UNL A   1      33.701  20.458  24.690  1.00  0.00    -0.340 N 
ATOM     20  C   UNL A   1      34.028  19.039  24.626  1.00  0.00     0.332 C 
ATOM     21  C   UNL A   1      32.264  20.679  24.793  1.00  0.00     0.332 C 
ATOM     22  H   UNL A   1      33.990  20.843  23.791  1.00  0.00     0.347 HD
ENDBRANCH  18  19
ENDBRANCH  17  18
ENDBRANCH  16  17
ENDBRANCH  13  16
ENDBRANCH   8  12
ENDBRANCH   5   7
ENDBRANCH   4   5
ENDBRANCH   3   4
ENDBRANCH   2   3
ENDBRANCH   1   2
BRANCH   1  23
ATOM     23  C   UNL A   1      33.948  33.639  28.063  1.00  0.00     0.188 C 
BRANCH  23  24
ATOM     24  C   UNL A   1      33.429  34.900  28.774  1.00  0.00     0.188 C 
BRANCH  24  25
ATOM     25  O   UNL A   1      33.003  34.707  30.100  1.00  0.00    -0.376 OA
BRANCH  25  26
ATOM     26  C   UNL A   1      33.594  35.454  31.145  1.00  0.00     0.202 C 
BRANCH  26  27
ATOM     27  C   UNL A   1      34.777  34.946  31.992  1.00  0.00     0.261 C 
BRANCH  27  28
ATOM     28  O   UNL A   1      35.624  33.934  31.436  1.00  0.00    -0.460 OA
BRANCH  28  29
ATOM     29  C   UNL A   1      35.373  32.655  31.802  1.00  0.00     0.338 C 
ATOM     30  O   UNL A   1      34.360  32.219  32.315  1.00  0.00    -0.246 OA
BRANCH  29  31
ATOM     31  C   UNL A   1      36.466  31.814  31.266  1.00  0.00     0.060 A 
ATOM     32  C   UNL A   1      37.303  31.130  32.161  1.00  0.00     0.016 A 
ATOM     33  C   UNL A   1      36.664  31.705  29.889  1.00  0.00     0.016 A 
ATOM     34  C   UNL A   1      38.365  30.364  31.679  1.00  0.00     0.010 A 
ATOM     35  C   UNL A   1      37.743  30.958  29.409  1.00  0.00     0.010 A 
ATOM     36  C   UNL A   1      38.618  30.314  30.302  1.00  0.00    -0.014 A 
BRANCH  36  37
ATOM     37  C   UNL A   1      39.911  29.783  29.804  1.00  0.00     0.031 A 
ATOM     38  C   UNL A   1      41.088  30.719  29.759  1.00  0.00     0.074 A 
ATOM     39  C   UNL A   1      40.045  28.508  29.403  1.00  0.00     0.049 A 
ATOM     40  N   UNL A   1      42.292  30.526  29.285  1.00  0.00    -0.248 NA
ATOM     41  C   UNL A   1      40.871  32.062  30.322  1.00  0.00     0.031 C 
ATOM     42  C   UNL A   1      38.998  27.493  29.442  1.00  0.00     0.029 A 
ATOM     43  N   UNL A   1      41.128  27.858  28.865  1.00  0.00    -0.354 N 
ATOM     44  C   UNL A   1      42.969  31.721  29.481  1.00  0.00     0.074 A 
ATOM     45  C   UNL A   1      42.036  32.645  30.089  1.00  0.00     0.031 C 
ATOM     46  C   UNL A   1      39.483  26.347  28.932  1.00  0.00     0.029 A 
ATOM     47  C   UNL A   1      40.863  26.561  28.496  1.00  0.00     0.049 A 
ATOM     48  H   UNL A   1      42.011  28.280  28.754  1.00  0.00     0.167 HD
ATOM     49  C   UNL A   1      44.256  32.022  29.186  1.00  0.00     0.037 A 
ATOM     50  C   UNL A   1      41.640  25.665  27.856  1.00  0.00     0.037 A 
ATOM     51  C   UNL A   1      45.181  31.102  28.580  1.00  0.00     0.049 A 
ATOM     52  C   UNL A   1      43.047  26.049  27.466  1.00  0.00     0.074 A 
ATOM     53  C   UNL A   1      46.510  31.305  28.255  1.00  0.00     0.029 A 
ATOM     54  N   UNL A   1      44.868  29.806  28.198  1.00  0.00    -0.354 N 
ATOM     55  N   UNL A   1      43.689  27.174  27.672  1.00  0.00    -0.248 NA
ATOM     56  C   UNL A   1      43.838  25.034  26.753  1.00  0.00     0.031 C 
ATOM     57  C   UNL A   1      46.986  30.151  27.625  1.00  0.00     0.029 A 
ATOM     58  C   UNL A   1      45.972  29.206  27.615  1.00  0.00     0.049 A 
ATOM     59  H   UNL A   1      43.991  29.376  28.323  1.00  0.00     0.167 HD
ATOM     60  C   UNL A   1      44.965  26.989  27.149  1.00  0.00     0.074 A 
ATOM     61  C   UNL A   1      45.008  25.641  26.626  1.00  0.00     0.031 C 
ATOM     62  C   UNL A   1      46.006  27.857  27.111  1.00  0.00     0.037 A 
BRANCH  49  63
ATOM     63  C   UNL A   1      44.728  33.414  29.489  1.00  0.00     0.064 A 
ATOM     64  C   UNL A   1      45.350  33.737  30.704  1.00  0.00     0.173 A 
ATOM     65  C   UNL A   1      44.578  34.434  28.539  1.00  0.00     0.173 A 
ATOM     66  F   UNL A   1      45.503  32.801  31.655  1.00  0.00    -0.203 F 
ATOM     67  C   UNL A   1      45.780  35.035  30.967  1.00  0.00     0.198 A 
ATOM     68  C   UNL A   1      45.038  35.724  28.791  1.00  0.00     0.198 A 
ATOM     69  F   UNL A   1      43.991  34.180  27.359  1.00  0.00    -0.203 F 
ATOM     70  F   UNL A   1      46.325  35.331  32.155  1.00  0.00    -0.200 F 
ATOM     71  C   UNL A   1      45.630  36.024  30.008  1.00  0.00     0.200 A 
ATOM     72  F   UNL A   1      44.904  36.676  27.858  1.00  0.00    -0.200 F 
ATOM     73  F   UNL A   1      46.051  37.272  30.259  1.00  0.00    -0.200 F 
ENDBRANCH  49  63
BRANCH  50  74
ATOM     74  C   UNL A   1      41.107  24.317  27.523  1.00  0.00     0.064 A 
ATOM     75  C   UNL A   1      40.079  24.158  26.583  1.00  0.00     0.173 A 
ATOM     76  C   UNL A   1      41.589  23.165  28.162  1.00  0.00     0.173 A 
ATOM     77  F   UNL A   1      39.563  25.232  25.968  1.00  0.00    -0.203 F 
ATOM     78  C   UNL A   1      39.539  22.902  26.311  1.00  0.00     0.198 A 
ATOM     79  C   UNL A   1      41.070  21.905  27.866  1.00  0.00     0.198 A 
ATOM     80  F   UNL A   1      42.566  23.261  29.074  1.00  0.00    -0.203 F 
ATOM     81  F   UNL A   1      38.518  22.786  25.451  1.00  0.00    -0.200 F 
ATOM     82  C   UNL A   1      40.039  21.776  26.949  1.00  0.00     0.200 A 
ATOM     83  F   UNL A   1      41.561  20.820  28.478  1.00  0.00    -0.200 F 
ATOM     84  F   UNL A   1      39.518  20.569  26.688  1.00  0.00    -0.200 F 
ENDBRANCH  50  74
BRANCH  62  85
ATOM     85  C   UNL A   1      47.301  27.365  26.527  1.00  0.00     0.064 A 
ATOM     86  C   UNL A   1      48.249  26.676  27.297  1.00  0.00     0.173 A 
ATOM     87  C   UNL A   1      47.573  27.544  25.161  1.00  0.00     0.173 A 
ATOM     88  F   UNL A   1      48.044  26.489  28.610  1.00  0.00    -0.203 F 
ATOM     89  C   UNL A   1      49.432  26.210  26.730  1.00  0.00     0.198 A 
ATOM     90  C   UNL A   1      48.740  27.046  24.589  1.00  0.00     0.198 A 
ATOM     91  F   UNL A   1      46.695  28.186  24.375  1.00  0.00    -0.203 F 
ATOM     92  F   UNL A   1      50.345  25.599  27.496  1.00  0.00    -0.200 F 
ATOM     93  C   UNL A   1      49.673  26.388  25.375  1.00  0.00     0.200 A 
ATOM     94  F   UNL A   1      48.962  27.204  23.277  1.00  0.00    -0.200 F 
ATOM     95  F   UNL A   1      50.807  25.930  24.829  1.00  0.00    -0.200 F 
ENDBRANCH  62  85
ENDBRANCH  36  37
ENDBRANCH  29  31
ENDBRANCH  28  29
ENDBRANCH  27  28
ENDBRANCH  26  27
ENDBRANCH  25  26
ENDBRANCH  24  25
ENDBRANCH  23  24
ENDBRANCH   1  23
TORSDOF 22
ENDMDL
