MODEL 1
REMARK VINA RESULT:     -11.4      0.000      0.000
REMARK SMILES CCSc1ccc(-c2cc(Cl)cc3c2O[C@H](C(F)(F)F)C(C(=O)OCCOCCOCCOC(=O)c2ccc(-c4c5nc(c(-c6c(F)c(F)c(F)c(F)c6F)c6ccc([nH]6)c(-c6c(F)c(F)c(F)c(F)c6F)c6nc(c(-c7c(F)c(F)c(F)c(F)c7F)c7ccc4[nH]7)C=C6)C=C5)cc2)=C3)cc1
REMARK SMILES IDX 28 1 27 2 26 3 25 4 24 5 22 6 23 7 21 8 8 9 9 10 14 11 10 12
REMARK SMILES IDX 13 13 15 14 11 15 12 16 99 17 16 18 7 19 4 20 5 21 101 22
REMARK SMILES IDX 6 23 100 24 3 25 2 26 1 27 17 28 18 29 19 30 20 31 29 32
REMARK SMILES IDX 30 33 31 34 32 35 33 36 34 37 35 38 36 39 37 40 98 41 38 42
REMARK SMILES IDX 97 43 39 44 40 45 41 46 91 47 42 48 96 49 90 50 92 51 43 52
REMARK SMILES IDX 95 53 89 54 88 55 44 57 76 58 56 59 75 60 57 61 60 62 74 63
REMARK SMILES IDX 93 64 58 65 59 66 73 68 94 69 61 70 45 71 46 72 54 73 47 74
REMARK SMILES IDX 48 75 52 76 55 77 49 78 50 79 53 80 51 81 77 82 78 83 86 84
REMARK SMILES IDX 79 85 80 86 84 87 87 88 81 89 82 90 85 91 83 92 62 93 63 94
REMARK SMILES IDX 71 95 64 96 65 97 69 98 72 99 66 100 67 101 70 102 68 103
REMARK H PARENT 92 56 60 67
REMARK Flexibility Score: inf
ROOT
ATOM      1  C   UNL A   1      30.949  25.912  25.832  1.00  0.00     0.188 C 
ENDROOT
BRANCH   1   2
ATOM      2  O   UNL A   1      30.623  24.584  25.470  1.00  0.00    -0.376 OA
BRANCH   2   3
ATOM      3  C   UNL A   1      31.726  23.715  25.215  1.00  0.00     0.202 C 
BRANCH   3   4
ATOM      4  C   UNL A   1      32.970  24.381  24.608  1.00  0.00     0.261 C 
BRANCH   4   5
ATOM      5  O   UNL A   1      33.962  24.700  25.620  1.00  0.00    -0.460 OA
BRANCH   5   6
ATOM      6  C   UNL A   1      34.472  23.633  26.270  1.00  0.00     0.338 C 
ATOM      7  O   UNL A   1      34.151  23.299  27.404  1.00  0.00    -0.246 OA
BRANCH   6   8
ATOM      8  C   UNL A   1      35.368  22.808  25.412  1.00  0.00     0.087 C 
ATOM      9  C   UNL A   1      39.314  21.962  26.364  1.00  0.00     0.026 A 
ATOM     10  C   UNL A   1      39.699  22.990  27.251  1.00  0.00     0.033 A 
ATOM     11  C   UNL A   1      38.054  22.130  25.772  1.00  0.00     0.135 A 
ATOM     12  C   UNL A   1      38.985  24.180  27.392  1.00  0.00     0.042 A 
ATOM     13  C   UNL A   1      37.488  23.419  25.719  1.00  0.00     0.019 A 
ATOM     14  O   UNL A   1      37.227  21.095  25.343  1.00  0.00    -0.475 OA
ATOM     15  Cl  UNL A   1      39.477  25.378  28.518  1.00  0.00    -0.084 Cl
ATOM     16  C   UNL A   1      37.917  24.436  26.559  1.00  0.00     0.032 A 
ATOM     17  C   UNL A   1      36.301  23.597  24.857  1.00  0.00     0.027 C 
ATOM     18  C   UNL A   1      35.789  21.372  25.730  1.00  0.00     0.316 C 
BRANCH   9  19
ATOM     19  C   UNL A   1      40.448  21.120  25.879  1.00  0.00    -0.015 A 
ATOM     20  C   UNL A   1      42.853  19.522  25.841  1.00  0.00     0.007 A 
ATOM     21  C   UNL A   1      41.597  18.921  25.872  1.00  0.00     0.015 A 
ATOM     22  C   UNL A   1      42.894  20.921  25.801  1.00  0.00     0.015 A 
ATOM     23  C   UNL A   1      40.421  19.712  25.890  1.00  0.00     0.010 A 
ATOM     24  C   UNL A   1      41.723  21.702  25.808  1.00  0.00     0.010 A 
BRANCH  20  25
ATOM     25  S   UNL A   1      44.442  18.695  25.823  1.00  0.00    -0.126 SA
BRANCH  25  26
ATOM     26  C   UNL A   1      45.323  19.287  24.338  1.00  0.00     0.071 C 
ATOM     27  C   UNL A   1      46.608  19.998  24.693  1.00  0.00     0.016 C 
ENDBRANCH  25  26
ENDBRANCH  20  25
ENDBRANCH   9  19
BRANCH  18  28
ATOM     28  C   UNL A   1      34.806  20.405  25.061  1.00  0.00     0.430 C 
ATOM     29  F   UNL A   1      35.408  19.264  24.658  1.00  0.00    -0.167 F 
ATOM     30  F   UNL A   1      33.789  20.072  25.886  1.00  0.00    -0.167 F 
ATOM     31  F   UNL A   1      34.247  20.973  23.961  1.00  0.00    -0.167 F 
ENDBRANCH  18  28
ENDBRANCH   6   8
ENDBRANCH   5   6
ENDBRANCH   4   5
ENDBRANCH   3   4
ENDBRANCH   2   3
ENDBRANCH   1   2
BRANCH   1  32
ATOM     32  C   UNL A   1      30.870  26.941  24.681  1.00  0.00     0.188 C 
BRANCH  32  33
ATOM     33  O   UNL A   1      31.844  27.964  24.566  1.00  0.00    -0.376 OA
BRANCH  33  34
ATOM     34  C   UNL A   1      31.428  29.322  24.506  1.00  0.00     0.202 C 
BRANCH  34  35
ATOM     35  C   UNL A   1      31.707  30.239  25.704  1.00  0.00     0.261 C 
BRANCH  35  36
ATOM     36  O   UNL A   1      33.055  30.184  26.211  1.00  0.00    -0.460 OA
BRANCH  36  37
ATOM     37  C   UNL A   1      33.418  31.217  27.012  1.00  0.00     0.338 C 
ATOM     38  O   UNL A   1      32.735  32.168  27.346  1.00  0.00    -0.246 OA
BRANCH  37  39
ATOM     39  C   UNL A   1      34.752  30.971  27.600  1.00  0.00     0.060 A 
ATOM     40  C   UNL A   1      35.100  29.650  27.903  1.00  0.00     0.016 A 
ATOM     41  C   UNL A   1      35.605  32.017  27.954  1.00  0.00     0.016 A 
ATOM     42  C   UNL A   1      36.289  29.381  28.584  1.00  0.00     0.010 A 
ATOM     43  C   UNL A   1      36.798  31.740  28.642  1.00  0.00     0.010 A 
ATOM     44  C   UNL A   1      37.146  30.420  28.977  1.00  0.00    -0.014 A 
BRANCH  44  45
ATOM     45  C   UNL A   1      38.307  30.144  29.871  1.00  0.00     0.031 A 
ATOM     46  C   UNL A   1      39.535  29.512  29.294  1.00  0.00     0.074 A 
ATOM     47  C   UNL A   1      38.290  30.435  31.185  1.00  0.00     0.049 A 
ATOM     48  N   UNL A   1      40.681  29.248  29.868  1.00  0.00    -0.248 NA
ATOM     49  C   UNL A   1      39.447  29.103  27.887  1.00  0.00     0.031 C 
ATOM     50  C   UNL A   1      37.172  31.057  31.867  1.00  0.00     0.029 A 
ATOM     51  N   UNL A   1      39.245  30.301  32.167  1.00  0.00    -0.354 N 
ATOM     52  C   UNL A   1      41.430  28.579  28.912  1.00  0.00     0.074 A 
ATOM     53  C   UNL A   1      40.621  28.517  27.711  1.00  0.00     0.031 C 
ATOM     54  C   UNL A   1      37.550  31.402  33.110  1.00  0.00     0.029 A 
ATOM     55  C   UNL A   1      38.904  30.913  33.353  1.00  0.00     0.049 A 
ATOM     56  H   UNL A   1      40.091  29.814  32.035  1.00  0.00     0.167 HD
ATOM     57  C   UNL A   1      42.659  28.026  29.040  1.00  0.00     0.037 A 
ATOM     58  C   UNL A   1      39.606  31.073  34.495  1.00  0.00     0.037 A 
ATOM     59  C   UNL A   1      43.450  28.057  30.244  1.00  0.00     0.049 A 
ATOM     60  C   UNL A   1      40.940  30.383  34.642  1.00  0.00     0.074 A 
ATOM     61  C   UNL A   1      44.738  27.588  30.435  1.00  0.00     0.029 A 
ATOM     62  N   UNL A   1      43.018  28.546  31.471  1.00  0.00    -0.354 N 
ATOM     63  N   UNL A   1      41.624  29.705  33.752  1.00  0.00    -0.248 NA
ATOM     64  C   UNL A   1      41.595  30.479  35.954  1.00  0.00     0.031 C 
ATOM     65  C   UNL A   1      45.053  27.714  31.792  1.00  0.00     0.029 A 
ATOM     66  C   UNL A   1      44.006  28.362  32.430  1.00  0.00     0.049 A 
ATOM     67  H   UNL A   1      42.141  28.961  31.636  1.00  0.00     0.167 HD
ATOM     68  C   UNL A   1      42.831  29.384  34.361  1.00  0.00     0.074 A 
ATOM     69  C   UNL A   1      42.754  29.876  35.721  1.00  0.00     0.031 C 
ATOM     70  C   UNL A   1      43.928  28.810  33.803  1.00  0.00     0.037 A 
BRANCH  57  71
ATOM     71  C   UNL A   1      43.165  27.235  27.867  1.00  0.00     0.064 A 
ATOM     72  C   UNL A   1      43.102  25.834  27.816  1.00  0.00     0.173 A 
ATOM     73  C   UNL A   1      43.776  27.904  26.794  1.00  0.00     0.173 A 
ATOM     74  F   UNL A   1      42.547  25.146  28.825  1.00  0.00    -0.203 F 
ATOM     75  C   UNL A   1      43.684  25.131  26.764  1.00  0.00     0.198 A 
ATOM     76  C   UNL A   1      44.321  27.199  25.726  1.00  0.00     0.198 A 
ATOM     77  F   UNL A   1      43.861  29.242  26.790  1.00  0.00    -0.203 F 
ATOM     78  F   UNL A   1      43.691  23.791  26.779  1.00  0.00    -0.200 F 
ATOM     79  C   UNL A   1      44.292  25.814  25.720  1.00  0.00     0.200 A 
ATOM     80  F   UNL A   1      44.896  27.862  24.714  1.00  0.00    -0.200 F 
ATOM     81  F   UNL A   1      44.865  25.135  24.717  1.00  0.00    -0.200 F 
ENDBRANCH  57  71
BRANCH  58  82
ATOM     82  C   UNL A   1      39.135  32.033  35.537  1.00  0.00     0.064 A 
ATOM     83  C   UNL A   1      38.351  31.569  36.609  1.00  0.00     0.173 A 
ATOM     84  C   UNL A   1      39.471  33.392  35.533  1.00  0.00     0.173 A 
ATOM     85  F   UNL A   1      37.966  30.287  36.652  1.00  0.00    -0.203 F 
ATOM     86  C   UNL A   1      37.935  32.420  37.632  1.00  0.00     0.198 A 
ATOM     87  C   UNL A   1      39.079  34.237  36.572  1.00  0.00     0.198 A 
ATOM     88  F   UNL A   1      40.204  33.898  34.531  1.00  0.00    -0.203 F 
ATOM     89  F   UNL A   1      37.164  31.949  38.623  1.00  0.00    -0.200 F 
ATOM     90  C   UNL A   1      38.311  33.752  37.619  1.00  0.00     0.200 A 
ATOM     91  F   UNL A   1      39.457  35.523  36.565  1.00  0.00    -0.200 F 
ATOM     92  F   UNL A   1      37.932  34.566  38.614  1.00  0.00    -0.200 F 
ENDBRANCH  58  82
BRANCH  70  93
ATOM     93  C   UNL A   1      45.185  28.734  34.632  1.00  0.00     0.064 A 
ATOM     94  C   UNL A   1      45.520  27.615  35.408  1.00  0.00     0.173 A 
ATOM     95  C   UNL A   1      46.102  29.801  34.602  1.00  0.00     0.173 A 
ATOM     96  F   UNL A   1      44.679  26.573  35.488  1.00  0.00    -0.203 F 
ATOM     97  C   UNL A   1      46.708  27.577  36.139  1.00  0.00     0.198 A 
ATOM     98  C   UNL A   1      47.307  29.741  35.296  1.00  0.00     0.198 A 
ATOM     99  F   UNL A   1      45.836  30.901  33.879  1.00  0.00    -0.203 F 
ATOM    100  F   UNL A   1      46.979  26.520  36.916  1.00  0.00    -0.200 F 
ATOM    101  C   UNL A   1      47.604  28.633  36.072  1.00  0.00     0.200 A 
ATOM    102  F   UNL A   1      48.179  30.755  35.211  1.00  0.00    -0.200 F 
ATOM    103  F   UNL A   1      48.753  28.585  36.760  1.00  0.00    -0.200 F 
ENDBRANCH  70  93
ENDBRANCH  44  45
ENDBRANCH  37  39
ENDBRANCH  36  37
ENDBRANCH  35  36
ENDBRANCH  34  35
ENDBRANCH  33  34
ENDBRANCH  32  33
ENDBRANCH   1  32
TORSDOF 21
ENDMDL
MODEL 2
REMARK VINA RESULT:     -11.2      0.730      6.843
REMARK SMILES CCSc1ccc(-c2cc(Cl)cc3c2O[C@H](C(F)(F)F)C(C(=O)OCCOCCOCCOC(=O)c2ccc(-c4c5nc(c(-c6c(F)c(F)c(F)c(F)c6F)c6ccc([nH]6)c(-c6c(F)c(F)c(F)c(F)c6F)c6nc(c(-c7c(F)c(F)c(F)c(F)c7F)c7ccc4[nH]7)C=C6)C=C5)cc2)=C3)cc1
REMARK SMILES IDX 28 1 27 2 26 3 25 4 24 5 22 6 23 7 21 8 8 9 9 10 14 11 10 12
REMARK SMILES IDX 13 13 15 14 11 15 12 16 99 17 16 18 7 19 4 20 5 21 101 22
REMARK SMILES IDX 6 23 100 24 3 25 2 26 1 27 17 28 18 29 19 30 20 31 29 32
REMARK SMILES IDX 30 33 31 34 32 35 33 36 34 37 35 38 36 39 37 40 98 41 38 42
REMARK SMILES IDX 97 43 39 44 40 45 41 46 91 47 42 48 96 49 90 50 92 51 43 52
REMARK SMILES IDX 95 53 89 54 88 55 44 57 76 58 56 59 75 60 57 61 60 62 74 63
REMARK SMILES IDX 93 64 58 65 59 66 73 68 94 69 61 70 45 71 46 72 54 73 47 74
REMARK SMILES IDX 48 75 52 76 55 77 49 78 50 79 53 80 51 81 77 82 78 83 86 84
REMARK SMILES IDX 79 85 80 86 84 87 87 88 81 89 82 90 85 91 83 92 62 93 63 94
REMARK SMILES IDX 71 95 64 96 65 97 69 98 72 99 66 100 67 101 70 102 68 103
REMARK H PARENT 92 56 60 67
REMARK Flexibility Score: inf
ROOT
ATOM      1  C   UNL A   1      30.695  26.179  25.980  1.00  0.00     0.188 C 
ENDROOT
BRANCH   1   2
ATOM      2  O   UNL A   1      30.550  24.963  25.272  1.00  0.00    -0.376 OA
BRANCH   2   3
ATOM      3  C   UNL A   1      31.540  23.968  25.524  1.00  0.00     0.202 C 
BRANCH   3   4
ATOM      4  C   UNL A   1      32.834  24.097  24.705  1.00  0.00     0.261 C 
BRANCH   4   5
ATOM      5  O   UNL A   1      33.946  24.559  25.518  1.00  0.00    -0.460 OA
BRANCH   5   6
ATOM      6  C   UNL A   1      34.573  23.593  26.223  1.00  0.00     0.338 C 
ATOM      7  O   UNL A   1      34.350  23.346  27.401  1.00  0.00    -0.246 OA
BRANCH   6   8
ATOM      8  C   UNL A   1      35.470  22.753  25.379  1.00  0.00     0.087 C 
ATOM      9  C   UNL A   1      39.418  21.933  26.342  1.00  0.00     0.026 A 
ATOM     10  C   UNL A   1      39.803  22.979  27.208  1.00  0.00     0.033 A 
ATOM     11  C   UNL A   1      38.158  22.087  25.748  1.00  0.00     0.135 A 
ATOM     12  C   UNL A   1      39.086  24.171  27.327  1.00  0.00     0.042 A 
ATOM     13  C   UNL A   1      37.589  23.374  25.671  1.00  0.00     0.019 A 
ATOM     14  O   UNL A   1      37.332  21.043  25.340  1.00  0.00    -0.475 OA
ATOM     15  Cl  UNL A   1      39.578  25.390  28.429  1.00  0.00    -0.084 Cl
ATOM     16  C   UNL A   1      38.017  24.408  26.490  1.00  0.00     0.032 A 
ATOM     17  C   UNL A   1      36.400  23.534  24.808  1.00  0.00     0.027 C 
ATOM     18  C   UNL A   1      35.894  21.325  25.724  1.00  0.00     0.316 C 
BRANCH   9  19
ATOM     19  C   UNL A   1      40.553  21.084  25.872  1.00  0.00    -0.015 A 
ATOM     20  C   UNL A   1      42.941  19.460  25.867  1.00  0.00     0.007 A 
ATOM     21  C   UNL A   1      41.679  18.873  25.866  1.00  0.00     0.015 A 
ATOM     22  C   UNL A   1      42.998  20.859  25.843  1.00  0.00     0.015 A 
ATOM     23  C   UNL A   1      40.511  19.676  25.867  1.00  0.00     0.010 A 
ATOM     24  C   UNL A   1      41.836  21.653  25.833  1.00  0.00     0.010 A 
BRANCH  20  25
ATOM     25  S   UNL A   1      44.521  18.617  25.873  1.00  0.00    -0.126 SA
BRANCH  25  26
ATOM     26  C   UNL A   1      45.410  19.157  24.373  1.00  0.00     0.071 C 
ATOM     27  C   UNL A   1      46.406  20.252  24.674  1.00  0.00     0.016 C 
ENDBRANCH  25  26
ENDBRANCH  20  25
ENDBRANCH   9  19
BRANCH  18  28
ATOM     28  C   UNL A   1      34.911  20.343  25.075  1.00  0.00     0.430 C 
ATOM     29  F   UNL A   1      35.508  19.182  24.724  1.00  0.00    -0.167 F 
ATOM     30  F   UNL A   1      33.878  20.051  25.896  1.00  0.00    -0.167 F 
ATOM     31  F   UNL A   1      34.376  20.875  23.947  1.00  0.00    -0.167 F 
ENDBRANCH  18  28
ENDBRANCH   6   8
ENDBRANCH   5   6
ENDBRANCH   4   5
ENDBRANCH   3   4
ENDBRANCH   2   3
ENDBRANCH   1   2
BRANCH   1  32
ATOM     32  C   UNL A   1      31.259  27.355  25.150  1.00  0.00     0.188 C 
BRANCH  32  33
ATOM     33  O   UNL A   1      31.971  28.404  25.785  1.00  0.00    -0.376 OA
BRANCH  33  34
ATOM     34  C   UNL A   1      31.609  29.753  25.524  1.00  0.00     0.202 C 
BRANCH  34  35
ATOM     35  C   UNL A   1      32.031  30.843  26.518  1.00  0.00     0.261 C 
BRANCH  35  36
ATOM     36  O   UNL A   1      33.253  30.573  27.233  1.00  0.00    -0.460 OA
BRANCH  36  37
ATOM     37  C   UNL A   1      33.898  31.665  27.715  1.00  0.00     0.338 C 
ATOM     38  O   UNL A   1      33.427  32.767  27.927  1.00  0.00    -0.246 OA
BRANCH  37  39
ATOM     39  C   UNL A   1      35.272  31.311  28.131  1.00  0.00     0.060 A 
ATOM     40  C   UNL A   1      35.510  30.000  28.556  1.00  0.00     0.016 A 
ATOM     41  C   UNL A   1      36.285  32.267  28.213  1.00  0.00     0.016 A 
ATOM     42  C   UNL A   1      36.754  29.654  29.088  1.00  0.00     0.010 A 
ATOM     43  C   UNL A   1      37.533  31.914  28.751  1.00  0.00     0.010 A 
ATOM     44  C   UNL A   1      37.777  30.607  29.207  1.00  0.00    -0.014 A 
BRANCH  44  45
ATOM     45  C   UNL A   1      39.027  30.283  29.953  1.00  0.00     0.031 A 
ATOM     46  C   UNL A   1      39.126  30.649  31.401  1.00  0.00     0.074 A 
ATOM     47  C   UNL A   1      40.079  29.680  29.369  1.00  0.00     0.049 A 
ATOM     48  N   UNL A   1      40.085  30.402  32.257  1.00  0.00    -0.248 NA
ATOM     49  C   UNL A   1      38.000  31.417  31.948  1.00  0.00     0.031 C 
ATOM     50  C   UNL A   1      40.112  29.264  27.980  1.00  0.00     0.029 A 
ATOM     51  N   UNL A   1      41.293  29.264  29.868  1.00  0.00    -0.354 N 
ATOM     52  C   UNL A   1      39.711  31.043  33.428  1.00  0.00     0.074 A 
ATOM     53  C   UNL A   1      38.420  31.652  33.181  1.00  0.00     0.031 C 
ATOM     54  C   UNL A   1      41.205  28.512  27.772  1.00  0.00     0.029 A 
ATOM     55  C   UNL A   1      42.017  28.495  28.985  1.00  0.00     0.049 A 
ATOM     56  H   UNL A   1      41.612  29.495  30.771  1.00  0.00     0.167 HD
ATOM     57  C   UNL A   1      40.404  31.153  34.586  1.00  0.00     0.037 A 
ATOM     58  C   UNL A   1      43.188  27.843  29.141  1.00  0.00     0.037 A 
ATOM     59  C   UNL A   1      41.703  30.576  34.821  1.00  0.00     0.049 A 
ATOM     60  C   UNL A   1      43.978  28.042  30.410  1.00  0.00     0.074 A 
ATOM     61  C   UNL A   1      42.441  30.574  35.992  1.00  0.00     0.029 A 
ATOM     62  N   UNL A   1      42.479  29.936  33.861  1.00  0.00    -0.354 N 
ATOM     63  N   UNL A   1      43.646  28.693  31.498  1.00  0.00    -0.248 NA
ATOM     64  C   UNL A   1      45.308  27.419  30.468  1.00  0.00     0.031 C 
ATOM     65  C   UNL A   1      43.693  30.012  35.720  1.00  0.00     0.029 A 
ATOM     66  C   UNL A   1      43.699  29.563  34.409  1.00  0.00     0.049 A 
ATOM     67  H   UNL A   1      42.204  29.772  32.931  1.00  0.00     0.167 HD
ATOM     68  C   UNL A   1      44.676  28.471  32.406  1.00  0.00     0.074 A 
ATOM     69  C   UNL A   1      45.678  27.688  31.713  1.00  0.00     0.031 C 
ATOM     70  C   UNL A   1      44.729  28.818  33.718  1.00  0.00     0.037 A 
BRANCH  57  71
ATOM     71  C   UNL A   1      39.806  32.034  35.646  1.00  0.00     0.064 A 
ATOM     72  C   UNL A   1      38.800  31.593  36.518  1.00  0.00     0.173 A 
ATOM     73  C   UNL A   1      40.222  33.372  35.748  1.00  0.00     0.173 A 
ATOM     74  F   UNL A   1      38.353  30.329  36.448  1.00  0.00    -0.203 F 
ATOM     75  C   UNL A   1      38.191  32.473  37.410  1.00  0.00     0.198 A 
ATOM     76  C   UNL A   1      39.639  34.237  36.668  1.00  0.00     0.198 A 
ATOM     77  F   UNL A   1      41.183  33.846  34.940  1.00  0.00    -0.203 F 
ATOM     78  F   UNL A   1      37.171  32.052  38.171  1.00  0.00    -0.200 F 
ATOM     79  C   UNL A   1      38.612  33.792  37.485  1.00  0.00     0.200 A 
ATOM     80  F   UNL A   1      40.056  35.508  36.745  1.00  0.00    -0.200 F 
ATOM     81  F   UNL A   1      38.015  34.640  38.332  1.00  0.00    -0.200 F 
ENDBRANCH  57  71
BRANCH  58  82
ATOM     82  C   UNL A   1      43.623  26.830  28.133  1.00  0.00     0.064 A 
ATOM     83  C   UNL A   1      43.376  25.465  28.363  1.00  0.00     0.173 A 
ATOM     84  C   UNL A   1      44.238  27.172  26.922  1.00  0.00     0.173 A 
ATOM     85  F   UNL A   1      42.823  25.071  29.518  1.00  0.00    -0.203 F 
ATOM     86  C   UNL A   1      43.716  24.492  27.426  1.00  0.00     0.198 A 
ATOM     87  C   UNL A   1      44.551  26.201  25.970  1.00  0.00     0.198 A 
ATOM     88  F   UNL A   1      44.512  28.456  26.649  1.00  0.00    -0.203 F 
ATOM     89  F   UNL A   1      43.492  23.197  27.692  1.00  0.00    -0.200 F 
ATOM     90  C   UNL A   1      44.291  24.862  26.222  1.00  0.00     0.200 A 
ATOM     91  F   UNL A   1      45.096  26.564  24.801  1.00  0.00    -0.200 F 
ATOM     92  F   UNL A   1      44.598  23.931  25.309  1.00  0.00    -0.200 F 
ENDBRANCH  58  82
BRANCH  70  93
ATOM     93  C   UNL A   1      45.881  28.298  34.540  1.00  0.00     0.064 A 
ATOM     94  C   UNL A   1      47.102  28.979  34.656  1.00  0.00     0.173 A 
ATOM     95  C   UNL A   1      45.731  27.105  35.271  1.00  0.00     0.173 A 
ATOM     96  F   UNL A   1      47.311  30.114  33.971  1.00  0.00    -0.203 F 
ATOM     97  C   UNL A   1      48.133  28.475  35.450  1.00  0.00     0.198 A 
ATOM     98  C   UNL A   1      46.745  26.629  36.097  1.00  0.00     0.198 A 
ATOM     99  F   UNL A   1      44.586  26.407  35.198  1.00  0.00    -0.203 F 
ATOM    100  F   UNL A   1      49.309  29.114  35.501  1.00  0.00    -0.200 F 
ATOM    101  C   UNL A   1      47.949  27.310  36.178  1.00  0.00     0.200 A 
ATOM    102  F   UNL A   1      46.554  25.514  36.814  1.00  0.00    -0.200 F 
ATOM    103  F   UNL A   1      48.934  26.838  36.954  1.00  0.00    -0.200 F 
ENDBRANCH  70  93
ENDBRANCH  44  45
ENDBRANCH  37  39
ENDBRANCH  36  37
ENDBRANCH  35  36
ENDBRANCH  34  35
ENDBRANCH  33  34
ENDBRANCH  32  33
ENDBRANCH   1  32
TORSDOF 21
ENDMDL
MODEL 3
REMARK VINA RESULT:     -10.7      4.705      9.676
REMARK SMILES CCSc1ccc(-c2cc(Cl)cc3c2O[C@H](C(F)(F)F)C(C(=O)OCCOCCOCCOC(=O)c2ccc(-c4c5nc(c(-c6c(F)c(F)c(F)c(F)c6F)c6ccc([nH]6)c(-c6c(F)c(F)c(F)c(F)c6F)c6nc(c(-c7c(F)c(F)c(F)c(F)c7F)c7ccc4[nH]7)C=C6)C=C5)cc2)=C3)cc1
REMARK SMILES IDX 28 1 27 2 26 3 25 4 24 5 22 6 23 7 21 8 8 9 9 10 14 11 10 12
REMARK SMILES IDX 13 13 15 14 11 15 12 16 99 17 16 18 7 19 4 20 5 21 101 22
REMARK SMILES IDX 6 23 100 24 3 25 2 26 1 27 17 28 18 29 19 30 20 31 29 32
REMARK SMILES IDX 30 33 31 34 32 35 33 36 34 37 35 38 36 39 37 40 98 41 38 42
REMARK SMILES IDX 97 43 39 44 40 45 41 46 91 47 42 48 96 49 90 50 92 51 43 52
REMARK SMILES IDX 95 53 89 54 88 55 44 57 76 58 56 59 75 60 57 61 60 62 74 63
REMARK SMILES IDX 93 64 58 65 59 66 73 68 94 69 61 70 45 71 46 72 54 73 47 74
REMARK SMILES IDX 48 75 52 76 55 77 49 78 50 79 53 80 51 81 77 82 78 83 86 84
REMARK SMILES IDX 79 85 80 86 84 87 87 88 81 89 82 90 85 91 83 92 62 93 63 94
REMARK SMILES IDX 71 95 64 96 65 97 69 98 72 99 66 100 67 101 70 102 68 103
REMARK H PARENT 92 56 60 67
REMARK Flexibility Score: inf
ROOT
ATOM      1  C   UNL A   1      44.483  18.951  24.433  1.00  0.00     0.188 C 
ENDROOT
BRANCH   1   2
ATOM      2  O   UNL A   1      44.278  18.338  25.692  1.00  0.00    -0.376 OA
BRANCH   2   3
ATOM      3  C   UNL A   1      42.925  18.259  26.138  1.00  0.00     0.202 C 
BRANCH   3   4
ATOM      4  C   UNL A   1      42.132  19.574  26.090  1.00  0.00     0.261 C 
BRANCH   4   5
ATOM      5  O   UNL A   1      42.777  20.625  26.856  1.00  0.00    -0.460 OA
BRANCH   5   6
ATOM      6  C   UNL A   1      41.934  21.435  27.530  1.00  0.00     0.338 C 
ATOM      7  O   UNL A   1      40.916  21.054  28.094  1.00  0.00    -0.246 OA
BRANCH   6   8
ATOM      8  C   UNL A   1      42.442  22.832  27.643  1.00  0.00     0.087 C 
ATOM      9  C   UNL A   1      39.987  26.130  28.177  1.00  0.00     0.026 A 
ATOM     10  C   UNL A   1      38.725  25.723  27.691  1.00  0.00     0.033 A 
ATOM     11  C   UNL A   1      41.032  25.224  27.947  1.00  0.00     0.135 A 
ATOM     12  C   UNL A   1      38.549  24.604  26.875  1.00  0.00     0.042 A 
ATOM     13  C   UNL A   1      40.895  24.264  26.925  1.00  0.00     0.019 A 
ATOM     14  O   UNL A   1      42.165  25.091  28.745  1.00  0.00    -0.475 OA
ATOM     15  Cl  UNL A   1      36.986  24.132  26.350  1.00  0.00    -0.084 Cl
ATOM     16  C   UNL A   1      39.652  23.915  26.417  1.00  0.00     0.032 A 
ATOM     17  C   UNL A   1      42.109  23.516  26.538  1.00  0.00     0.027 C 
ATOM     18  C   UNL A   1      42.500  23.628  28.948  1.00  0.00     0.316 C 
BRANCH   9  19
ATOM     19  C   UNL A   1      40.088  27.594  28.453  1.00  0.00    -0.015 A 
ATOM     20  C   UNL A   1      39.758  30.175  29.706  1.00  0.00     0.007 A 
ATOM     21  C   UNL A   1      40.904  29.416  29.926  1.00  0.00     0.015 A 
ATOM     22  C   UNL A   1      38.797  29.647  28.835  1.00  0.00     0.015 A 
ATOM     23  C   UNL A   1      41.060  28.150  29.308  1.00  0.00     0.010 A 
ATOM     24  C   UNL A   1      38.960  28.394  28.215  1.00  0.00     0.010 A 
BRANCH  20  25
ATOM     25  S   UNL A   1      39.381  31.782  30.400  1.00  0.00    -0.126 SA
BRANCH  25  26
ATOM     26  C   UNL A   1      38.655  31.484  32.048  1.00  0.00     0.071 C 
ATOM     27  C   UNL A   1      39.610  30.748  32.958  1.00  0.00     0.016 C 
ENDBRANCH  25  26
ENDBRANCH  20  25
ENDBRANCH   9  19
BRANCH  18  28
ATOM     28  C   UNL A   1      43.876  23.426  29.593  1.00  0.00     0.430 C 
ATOM     29  F   UNL A   1      44.239  22.124  29.623  1.00  0.00    -0.167 F 
ATOM     30  F   UNL A   1      44.841  24.114  28.943  1.00  0.00    -0.167 F 
ATOM     31  F   UNL A   1      43.875  23.870  30.876  1.00  0.00    -0.167 F 
ENDBRANCH  18  28
ENDBRANCH   6   8
ENDBRANCH   5   6
ENDBRANCH   4   5
ENDBRANCH   3   4
ENDBRANCH   2   3
ENDBRANCH   1   2
BRANCH   1  32
ATOM     32  C   UNL A   1      45.308  20.258  24.471  1.00  0.00     0.188 C 
BRANCH  32  33
ATOM     33  O   UNL A   1      44.773  21.457  23.935  1.00  0.00    -0.376 OA
BRANCH  33  34
ATOM     34  C   UNL A   1      45.041  22.693  24.586  1.00  0.00     0.202 C 
BRANCH  34  35
ATOM     35  C   UNL A   1      45.706  22.677  25.969  1.00  0.00     0.261 C 
BRANCH  35  36
ATOM     36  O   UNL A   1      46.660  23.733  26.197  1.00  0.00    -0.460 OA
BRANCH  36  37
ATOM     37  C   UNL A   1      46.535  24.814  25.386  1.00  0.00     0.338 C 
ATOM     38  O   UNL A   1      46.676  24.851  24.178  1.00  0.00    -0.246 OA
BRANCH  37  39
ATOM     39  C   UNL A   1      46.022  25.973  26.147  1.00  0.00     0.060 A 
ATOM     40  C   UNL A   1      46.951  26.788  26.804  1.00  0.00     0.016 A 
ATOM     41  C   UNL A   1      44.655  26.200  26.310  1.00  0.00     0.016 A 
ATOM     42  C   UNL A   1      46.509  27.811  27.646  1.00  0.00     0.010 A 
ATOM     43  C   UNL A   1      44.217  27.228  27.160  1.00  0.00     0.010 A 
ATOM     44  C   UNL A   1      45.139  28.036  27.848  1.00  0.00    -0.014 A 
BRANCH  44  45
ATOM     45  C   UNL A   1      44.677  28.994  28.894  1.00  0.00     0.031 A 
ATOM     46  C   UNL A   1      44.519  28.512  30.303  1.00  0.00     0.074 A 
ATOM     47  C   UNL A   1      44.388  30.279  28.617  1.00  0.00     0.049 A 
ATOM     48  N   UNL A   1      44.200  29.184  31.379  1.00  0.00    -0.248 NA
ATOM     49  C   UNL A   1      44.727  27.075  30.518  1.00  0.00     0.031 C 
ATOM     50  C   UNL A   1      44.508  30.876  27.301  1.00  0.00     0.029 A 
ATOM     51  N   UNL A   1      43.989  31.323  29.421  1.00  0.00    -0.354 N 
ATOM     52  C   UNL A   1      44.101  28.240  32.390  1.00  0.00     0.074 A 
ATOM     53  C   UNL A   1      44.435  26.958  31.803  1.00  0.00     0.031 C 
ATOM     54  C   UNL A   1      44.351  32.206  27.406  1.00  0.00     0.029 A 
ATOM     55  C   UNL A   1      43.997  32.543  28.781  1.00  0.00     0.049 A 
ATOM     56  H   UNL A   1      43.723  31.209  30.362  1.00  0.00     0.167 HD
ATOM     57  C   UNL A   1      43.720  28.421  33.677  1.00  0.00     0.037 A 
ATOM     58  C   UNL A   1      43.761  33.786  29.252  1.00  0.00     0.037 A 
ATOM     59  C   UNL A   1      43.355  29.690  34.252  1.00  0.00     0.049 A 
ATOM     60  C   UNL A   1      43.264  33.954  30.666  1.00  0.00     0.074 A 
ATOM     61  C   UNL A   1      43.031  29.973  35.568  1.00  0.00     0.029 A 
ATOM     62  N   UNL A   1      43.222  30.880  33.546  1.00  0.00    -0.354 N 
ATOM     63  N   UNL A   1      43.120  33.052  31.607  1.00  0.00    -0.248 NA
ATOM     64  C   UNL A   1      42.892  35.315  31.081  1.00  0.00     0.031 C 
ATOM     65  C   UNL A   1      42.621  31.308  35.641  1.00  0.00     0.029 A 
ATOM     66  C   UNL A   1      42.793  31.891  34.395  1.00  0.00     0.049 A 
ATOM     67  H   UNL A   1      43.406  30.989  32.585  1.00  0.00     0.167 HD
ATOM     68  C   UNL A   1      42.744  33.748  32.750  1.00  0.00     0.074 A 
ATOM     69  C   UNL A   1      42.608  35.137  32.364  1.00  0.00     0.031 C 
ATOM     70  C   UNL A   1      42.612  33.275  34.016  1.00  0.00     0.037 A 
BRANCH  57  71
ATOM     71  C   UNL A   1      43.568  27.182  34.513  1.00  0.00     0.064 A 
ATOM     72  C   UNL A   1      44.657  26.544  35.125  1.00  0.00     0.173 A 
ATOM     73  C   UNL A   1      42.300  26.595  34.655  1.00  0.00     0.173 A 
ATOM     74  F   UNL A   1      45.893  27.052  35.004  1.00  0.00    -0.203 F 
ATOM     75  C   UNL A   1      44.492  25.334  35.796  1.00  0.00     0.198 A 
ATOM     76  C   UNL A   1      42.133  25.407  35.359  1.00  0.00     0.198 A 
ATOM     77  F   UNL A   1      41.224  27.164  34.091  1.00  0.00    -0.203 F 
ATOM     78  F   UNL A   1      45.559  24.697  36.297  1.00  0.00    -0.200 F 
ATOM     79  C   UNL A   1      43.231  24.769  35.914  1.00  0.00     0.200 A 
ATOM     80  F   UNL A   1      40.912  24.870  35.481  1.00  0.00    -0.200 F 
ATOM     81  F   UNL A   1      43.076  23.598  36.546  1.00  0.00    -0.200 F 
ENDBRANCH  57  71
BRANCH  58  82
ATOM     82  C   UNL A   1      44.123  34.980  28.432  1.00  0.00     0.064 A 
ATOM     83  C   UNL A   1      43.128  35.655  27.704  1.00  0.00     0.173 A 
ATOM     84  C   UNL A   1      45.420  35.505  28.379  1.00  0.00     0.173 A 
ATOM     85  F   UNL A   1      41.875  35.181  27.686  1.00  0.00    -0.203 F 
ATOM     86  C   UNL A   1      43.411  36.805  26.970  1.00  0.00     0.198 A 
ATOM     87  C   UNL A   1      45.698  36.674  27.668  1.00  0.00     0.198 A 
ATOM     88  F   UNL A   1      46.417  34.900  29.041  1.00  0.00    -0.203 F 
ATOM     89  F   UNL A   1      42.442  37.405  26.264  1.00  0.00    -0.200 F 
ATOM     90  C   UNL A   1      44.695  37.322  26.963  1.00  0.00     0.200 A 
ATOM     91  F   UNL A   1      46.939  37.179  27.675  1.00  0.00    -0.200 F 
ATOM     92  F   UNL A   1      44.966  38.440  26.276  1.00  0.00    -0.200 F 
ENDBRANCH  58  82
BRANCH  70  93
ATOM     93  C   UNL A   1      42.371  34.273  35.121  1.00  0.00     0.064 A 
ATOM     94  C   UNL A   1      43.413  34.903  35.817  1.00  0.00     0.173 A 
ATOM     95  C   UNL A   1      41.054  34.640  35.451  1.00  0.00     0.173 A 
ATOM     96  F   UNL A   1      44.690  34.583  35.558  1.00  0.00    -0.203 F 
ATOM     97  C   UNL A   1      43.145  35.841  36.815  1.00  0.00     0.198 A 
ATOM     98  C   UNL A   1      40.792  35.610  36.415  1.00  0.00     0.198 A 
ATOM     99  F   UNL A   1      40.015  34.069  34.821  1.00  0.00    -0.203 F 
ATOM    100  F   UNL A   1      44.156  36.389  37.504  1.00  0.00    -0.200 F 
ATOM    101  C   UNL A   1      41.838  36.202  37.103  1.00  0.00     0.200 A 
ATOM    102  F   UNL A   1      39.528  35.969  36.674  1.00  0.00    -0.200 F 
ATOM    103  F   UNL A   1      41.585  37.118  38.048  1.00  0.00    -0.200 F 
ENDBRANCH  70  93
ENDBRANCH  44  45
ENDBRANCH  37  39
ENDBRANCH  36  37
ENDBRANCH  35  36
ENDBRANCH  34  35
ENDBRANCH  33  34
ENDBRANCH  32  33
ENDBRANCH   1  32
TORSDOF 21
ENDMDL
