MODEL 1
REMARK VINA RESULT:     -12.3      0.000      0.000
REMARK SMILES COC(=O)c1ccc([C@H]2CC(=O)Nc3c(C(=O)OCCOCCOCCOC(=O)c4ccc(-c5c6nc(c(-c7c(F)c(F)c(F)c(F)c7F)c7ccc([nH]7)c(-c7c(F)c(F)c(F)c(F)c7F)c7nc(c(-c8c(F)c(F)c(F)c(F)c8F)c8ccc5[nH]8)C=C7)C=C6)cc4)cn(-c4ccccc4)c32)cc1
REMARK SMILES IDX 22 1 21 2 20 3 19 4 18 5 16 6 17 7 15 8 9 9 10 10 101 11
REMARK SMILES IDX 11 12 14 13 94 14 12 15 13 16 93 17 8 19 5 20 6 21 103 22
REMARK SMILES IDX 7 23 102 24 3 25 4 26 2 27 1 28 95 29 96 30 100 31 97 32
REMARK SMILES IDX 99 33 98 34 23 35 24 36 25 37 26 38 27 39 28 40 29 41 30 42
REMARK SMILES IDX 31 43 92 44 32 45 91 46 33 47 34 48 35 49 85 50 36 51 90 52
REMARK SMILES IDX 84 53 86 54 37 55 89 56 83 57 82 58 38 60 70 61 50 62 69 63
REMARK SMILES IDX 51 64 54 65 68 66 87 67 52 68 53 69 67 71 88 72 55 73 39 74
REMARK SMILES IDX 40 75 48 76 41 77 42 78 46 79 49 80 43 81 44 82 47 83 45 84
REMARK SMILES IDX 71 85 72 86 80 87 73 88 74 89 78 90 81 91 75 92 76 93 79 94
REMARK SMILES IDX 77 95 56 96 57 97 65 98 58 99 59 100 63 101 66 102 60 103
REMARK SMILES IDX 61 104 64 105 62 106
REMARK H PARENT 13 18 86 59 54 70
REMARK Flexibility Score: inf
ROOT
ATOM      1  C   UNL A   1      33.496  31.239  27.331  1.00  0.00     0.188 C 
ENDROOT
BRANCH   1   2
ATOM      2  O   UNL A   1      32.142  31.539  27.044  1.00  0.00    -0.376 OA
BRANCH   2   3
ATOM      3  C   UNL A   1      31.504  31.031  25.882  1.00  0.00     0.202 C 
BRANCH   3   4
ATOM      4  C   UNL A   1      31.887  29.696  25.208  1.00  0.00     0.261 C 
BRANCH   4   5
ATOM      5  O   UNL A   1      30.857  28.709  25.072  1.00  0.00    -0.460 OA
BRANCH   5   6
ATOM      6  C   UNL A   1      30.823  28.051  23.877  1.00  0.00     0.341 C 
ATOM      7  O   UNL A   1      30.383  28.521  22.840  1.00  0.00    -0.246 OA
BRANCH   6   8
ATOM      8  C   UNL A   1      31.520  26.770  23.928  1.00  0.00     0.102 A 
ATOM      9  C   UNL A   1      33.395  23.795  22.683  1.00  0.00     0.078 C 
ATOM     10  C   UNL A   1      33.033  23.912  21.192  1.00  0.00     0.115 C 
ATOM     11  C   UNL A   1      32.650  24.842  23.474  1.00  0.00     0.055 A 
ATOM     12  C   UNL A   1      32.786  25.326  20.695  1.00  0.00     0.225 C 
ATOM     13  C   UNL A   1      32.098  25.975  22.909  1.00  0.00     0.078 A 
ATOM     14  N   UNL A   1      32.457  24.928  24.842  1.00  0.00    -0.317 N 
ATOM     15  O   UNL A   1      32.998  25.640  19.524  1.00  0.00    -0.275 OA
ATOM     16  N   UNL A   1      32.208  26.216  21.561  1.00  0.00    -0.324 N 
ATOM     17  C   UNL A   1      31.690  26.044  25.097  1.00  0.00     0.109 A 
ATOM     18  H   UNL A   1      31.858  27.063  21.203  1.00  0.00     0.170 HD
BRANCH   9  19
ATOM     19  C   UNL A   1      33.261  22.327  23.097  1.00  0.00    -0.038 A 
ATOM     20  C   UNL A   1      33.059  19.669  24.054  1.00  0.00     0.060 A 
ATOM     21  C   UNL A   1      34.159  20.462  24.395  1.00  0.00     0.016 A 
ATOM     22  C   UNL A   1      32.093  20.184  23.183  1.00  0.00     0.016 A 
ATOM     23  C   UNL A   1      34.255  21.775  23.925  1.00  0.00     0.005 A 
ATOM     24  C   UNL A   1      32.213  21.490  22.682  1.00  0.00     0.005 A 
BRANCH  20  25
ATOM     25  C   UNL A   1      32.961  18.312  24.658  1.00  0.00     0.337 C 
ATOM     26  O   UNL A   1      32.008  17.944  25.329  1.00  0.00    -0.246 OA
BRANCH  25  27
ATOM     27  O   UNL A   1      34.059  17.570  24.369  1.00  0.00    -0.465 OA
ATOM     28  C   UNL A   1      33.960  16.843  23.142  1.00  0.00     0.282 C 
ENDBRANCH  25  27
ENDBRANCH  20  25
ENDBRANCH   9  19
BRANCH  14  29
ATOM     29  C   UNL A   1      32.941  24.066  25.848  1.00  0.00     0.045 A 
ATOM     30  C   UNL A   1      32.045  23.254  26.549  1.00  0.00     0.026 A 
ATOM     31  C   UNL A   1      34.304  24.075  26.166  1.00  0.00     0.026 A 
ATOM     32  C   UNL A   1      32.513  22.471  27.600  1.00  0.00     0.002 A 
ATOM     33  C   UNL A   1      34.755  23.319  27.248  1.00  0.00     0.002 A 
ATOM     34  C   UNL A   1      33.861  22.520  27.963  1.00  0.00     0.000 A 
ENDBRANCH  14  29
ENDBRANCH   6   8
ENDBRANCH   5   6
ENDBRANCH   4   5
ENDBRANCH   3   4
ENDBRANCH   2   3
ENDBRANCH   1   2
BRANCH   1  35
ATOM     35  C   UNL A   1      34.321  32.115  28.297  1.00  0.00     0.188 C 
BRANCH  35  36
ATOM     36  O   UNL A   1      34.845  33.306  27.756  1.00  0.00    -0.376 OA
BRANCH  36  37
ATOM     37  C   UNL A   1      34.747  34.555  28.420  1.00  0.00     0.202 C 
BRANCH  37  38
ATOM     38  C   UNL A   1      33.494  35.105  29.100  1.00  0.00     0.261 C 
BRANCH  38  39
ATOM     39  O   UNL A   1      33.133  34.523  30.334  1.00  0.00    -0.460 OA
BRANCH  39  40
ATOM     40  C   UNL A   1      33.603  35.194  31.405  1.00  0.00     0.338 C 
ATOM     41  O   UNL A   1      33.305  36.319  31.763  1.00  0.00    -0.246 OA
BRANCH  40  42
ATOM     42  C   UNL A   1      34.628  34.381  32.057  1.00  0.00     0.060 A 
ATOM     43  C   UNL A   1      35.807  35.037  32.411  1.00  0.00     0.016 A 
ATOM     44  C   UNL A   1      34.532  32.983  31.986  1.00  0.00     0.016 A 
ATOM     45  C   UNL A   1      36.965  34.298  32.448  1.00  0.00     0.010 A 
ATOM     46  C   UNL A   1      35.692  32.249  32.007  1.00  0.00     0.010 A 
ATOM     47  C   UNL A   1      36.894  32.936  32.135  1.00  0.00    -0.014 A 
BRANCH  47  48
ATOM     48  C   UNL A   1      38.144  32.251  31.906  1.00  0.00     0.031 A 
ATOM     49  C   UNL A   1      38.981  32.106  33.110  1.00  0.00     0.074 A 
ATOM     50  C   UNL A   1      38.461  31.750  30.699  1.00  0.00     0.049 A 
ATOM     51  N   UNL A   1      40.143  32.619  33.329  1.00  0.00    -0.248 NA
ATOM     52  C   UNL A   1      38.393  31.408  34.263  1.00  0.00     0.031 C 
ATOM     53  C   UNL A   1      37.602  31.593  29.523  1.00  0.00     0.029 A 
ATOM     54  N   UNL A   1      39.625  31.172  30.310  1.00  0.00    -0.354 N 
ATOM     55  C   UNL A   1      40.515  32.172  34.590  1.00  0.00     0.074 A 
ATOM     56  C   UNL A   1      39.349  31.564  35.176  1.00  0.00     0.031 C 
ATOM     57  C   UNL A   1      38.204  30.757  28.647  1.00  0.00     0.029 A 
ATOM     58  C   UNL A   1      39.529  30.425  29.147  1.00  0.00     0.049 A 
ATOM     59  H   UNL A   1      40.468  31.275  30.810  1.00  0.00     0.167 HD
ATOM     60  C   UNL A   1      41.819  32.129  34.964  1.00  0.00     0.037 A 
ATOM     61  C   UNL A   1      40.442  29.526  28.708  1.00  0.00     0.037 A 
ATOM     62  C   UNL A   1      42.642  32.969  34.137  1.00  0.00     0.049 A 
ATOM     63  C   UNL A   1      41.730  29.824  29.391  1.00  0.00     0.074 A 
ATOM     64  C   UNL A   1      42.672  34.324  33.868  1.00  0.00     0.029 A 
ATOM     65  N   UNL A   1      43.396  32.378  33.153  1.00  0.00    -0.354 N 
ATOM     66  N   UNL A   1      42.450  30.887  29.159  1.00  0.00    -0.248 NA
ATOM     67  C   UNL A   1      41.997  29.157  30.657  1.00  0.00     0.031 C 
ATOM     68  C   UNL A   1      43.031  34.422  32.491  1.00  0.00     0.029 A 
ATOM     69  C   UNL A   1      43.239  33.129  32.016  1.00  0.00     0.049 A 
ATOM     70  H   UNL A   1      43.945  31.567  33.247  1.00  0.00     0.167 HD
ATOM     71  C   UNL A   1      42.936  31.262  30.403  1.00  0.00     0.074 A 
ATOM     72  C   UNL A   1      42.708  30.109  31.268  1.00  0.00     0.031 C 
ATOM     73  C   UNL A   1      43.213  32.569  30.685  1.00  0.00     0.037 A 
BRANCH  60  74
ATOM     74  C   UNL A   1      42.384  31.053  35.848  1.00  0.00     0.064 A 
ATOM     75  C   UNL A   1      43.198  31.412  36.937  1.00  0.00     0.173 A 
ATOM     76  C   UNL A   1      42.396  29.686  35.494  1.00  0.00     0.173 A 
ATOM     77  F   UNL A   1      43.283  32.691  37.332  1.00  0.00    -0.203 F 
ATOM     78  C   UNL A   1      44.010  30.477  37.583  1.00  0.00     0.198 A 
ATOM     79  C   UNL A   1      43.160  28.747  36.179  1.00  0.00     0.198 A 
ATOM     80  F   UNL A   1      41.763  29.226  34.406  1.00  0.00    -0.203 F 
ATOM     81  F   UNL A   1      44.862  30.884  38.533  1.00  0.00    -0.200 F 
ATOM     82  C   UNL A   1      43.992  29.147  37.202  1.00  0.00     0.200 A 
ATOM     83  F   UNL A   1      43.146  27.467  35.779  1.00  0.00    -0.200 F 
ATOM     84  F   UNL A   1      44.812  28.262  37.782  1.00  0.00    -0.200 F 
ENDBRANCH  60  74
BRANCH  61  85
ATOM     85  C   UNL A   1      40.186  28.239  28.017  1.00  0.00     0.064 A 
ATOM     86  C   UNL A   1      40.817  27.938  26.799  1.00  0.00     0.173 A 
ATOM     87  C   UNL A   1      39.536  27.168  28.665  1.00  0.00     0.173 A 
ATOM     88  F   UNL A   1      41.498  28.886  26.140  1.00  0.00    -0.203 F 
ATOM     89  C   UNL A   1      40.820  26.640  26.276  1.00  0.00     0.198 A 
ATOM     90  C   UNL A   1      39.529  25.878  28.136  1.00  0.00     0.198 A 
ATOM     91  F   UNL A   1      38.978  27.327  29.873  1.00  0.00    -0.203 F 
ATOM     92  F   UNL A   1      41.489  26.377  25.145  1.00  0.00    -0.200 F 
ATOM     93  C   UNL A   1      40.183  25.610  26.950  1.00  0.00     0.200 A 
ATOM     94  F   UNL A   1      38.939  24.886  28.817  1.00  0.00    -0.200 F 
ATOM     95  F   UNL A   1      40.238  24.356  26.480  1.00  0.00    -0.200 F 
ENDBRANCH  61  85
BRANCH  73  96
ATOM     96  C   UNL A   1      43.241  33.540  29.539  1.00  0.00     0.064 A 
ATOM     97  C   UNL A   1      42.140  34.322  29.150  1.00  0.00     0.173 A 
ATOM     98  C   UNL A   1      44.465  33.787  28.903  1.00  0.00     0.173 A 
ATOM     99  F   UNL A   1      40.965  34.225  29.784  1.00  0.00    -0.203 F 
ATOM    100  C   UNL A   1      42.249  35.267  28.130  1.00  0.00     0.198 A 
ATOM    101  C   UNL A   1      44.581  34.758  27.913  1.00  0.00     0.198 A 
ATOM    102  F   UNL A   1      45.565  33.113  29.276  1.00  0.00    -0.203 F 
ATOM    103  F   UNL A   1      41.180  35.988  27.765  1.00  0.00    -0.200 F 
ATOM    104  C   UNL A   1      43.471  35.488  27.517  1.00  0.00     0.200 A 
ATOM    105  F   UNL A   1      45.776  35.005  27.359  1.00  0.00    -0.200 F 
ATOM    106  F   UNL A   1      43.587  36.426  26.567  1.00  0.00    -0.200 F 
ENDBRANCH  73  96
ENDBRANCH  47  48
ENDBRANCH  40  42
ENDBRANCH  39  40
ENDBRANCH  38  39
ENDBRANCH  37  38
ENDBRANCH  36  37
ENDBRANCH  35  36
ENDBRANCH   1  35
TORSDOF 21
ENDMDL
MODEL 2
REMARK VINA RESULT:     -12.2      3.413      7.805
REMARK SMILES COC(=O)c1ccc([C@H]2CC(=O)Nc3c(C(=O)OCCOCCOCCOC(=O)c4ccc(-c5c6nc(c(-c7c(F)c(F)c(F)c(F)c7F)c7ccc([nH]7)c(-c7c(F)c(F)c(F)c(F)c7F)c7nc(c(-c8c(F)c(F)c(F)c(F)c8F)c8ccc5[nH]8)C=C7)C=C6)cc4)cn(-c4ccccc4)c32)cc1
REMARK SMILES IDX 22 1 21 2 20 3 19 4 18 5 16 6 17 7 15 8 9 9 10 10 101 11
REMARK SMILES IDX 11 12 14 13 94 14 12 15 13 16 93 17 8 19 5 20 6 21 103 22
REMARK SMILES IDX 7 23 102 24 3 25 4 26 2 27 1 28 95 29 96 30 100 31 97 32
REMARK SMILES IDX 99 33 98 34 23 35 24 36 25 37 26 38 27 39 28 40 29 41 30 42
REMARK SMILES IDX 31 43 92 44 32 45 91 46 33 47 34 48 35 49 85 50 36 51 90 52
REMARK SMILES IDX 84 53 86 54 37 55 89 56 83 57 82 58 38 60 70 61 50 62 69 63
REMARK SMILES IDX 51 64 54 65 68 66 87 67 52 68 53 69 67 71 88 72 55 73 39 74
REMARK SMILES IDX 40 75 48 76 41 77 42 78 46 79 49 80 43 81 44 82 47 83 45 84
REMARK SMILES IDX 71 85 72 86 80 87 73 88 74 89 78 90 81 91 75 92 76 93 79 94
REMARK SMILES IDX 77 95 56 96 57 97 65 98 58 99 59 100 63 101 66 102 60 103
REMARK SMILES IDX 61 104 64 105 62 106
REMARK H PARENT 13 18 86 59 54 70
REMARK Flexibility Score: inf
ROOT
ATOM      1  C   UNL A   1      33.924  33.340  28.364  1.00  0.00     0.188 C 
ENDROOT
BRANCH   1   2
ATOM      2  O   UNL A   1      34.928  32.621  27.669  1.00  0.00    -0.376 OA
BRANCH   2   3
ATOM      3  C   UNL A   1      34.860  31.211  27.528  1.00  0.00     0.202 C 
BRANCH   3   4
ATOM      4  C   UNL A   1      33.733  30.477  26.769  1.00  0.00     0.261 C 
BRANCH   4   5
ATOM      5  O   UNL A   1      33.913  29.078  26.516  1.00  0.00    -0.460 OA
BRANCH   5   6
ATOM      6  C   UNL A   1      32.842  28.283  26.806  1.00  0.00     0.341 C 
ATOM      7  O   UNL A   1      31.889  28.626  27.487  1.00  0.00    -0.246 OA
BRANCH   6   8
ATOM      8  C   UNL A   1      32.876  27.018  26.078  1.00  0.00     0.102 A 
ATOM      9  C   UNL A   1      31.686  24.266  23.860  1.00  0.00     0.078 C 
ATOM     10  C   UNL A   1      30.179  24.572  23.915  1.00  0.00     0.115 C 
ATOM     11  C   UNL A   1      32.429  25.187  24.796  1.00  0.00     0.055 A 
ATOM     12  C   UNL A   1      29.822  26.035  24.116  1.00  0.00     0.225 C 
ATOM     13  C   UNL A   1      31.908  26.375  25.270  1.00  0.00     0.078 A 
ATOM     14  N   UNL A   1      33.727  25.089  25.268  1.00  0.00    -0.317 N 
ATOM     15  O   UNL A   1      28.770  26.504  23.685  1.00  0.00    -0.275 OA
ATOM     16  N   UNL A   1      30.654  26.793  24.898  1.00  0.00    -0.324 N 
ATOM     17  C   UNL A   1      33.955  26.148  26.119  1.00  0.00     0.109 A 
ATOM     18  H   UNL A   1      30.339  27.674  25.204  1.00  0.00     0.170 HD
BRANCH   9  19
ATOM     19  C   UNL A   1      31.875  22.754  24.011  1.00  0.00    -0.038 A 
ATOM     20  C   UNL A   1      32.387  19.973  24.163  1.00  0.00     0.060 A 
ATOM     21  C   UNL A   1      32.357  20.620  22.924  1.00  0.00     0.016 A 
ATOM     22  C   UNL A   1      32.099  20.705  25.320  1.00  0.00     0.016 A 
ATOM     23  C   UNL A   1      32.108  21.993  22.851  1.00  0.00     0.005 A 
ATOM     24  C   UNL A   1      31.811  22.076  25.238  1.00  0.00     0.005 A 
BRANCH  20  25
ATOM     25  C   UNL A   1      32.749  18.529  24.190  1.00  0.00     0.337 C 
ATOM     26  O   UNL A   1      33.516  18.016  23.389  1.00  0.00    -0.246 OA
BRANCH  25  27
ATOM     27  O   UNL A   1      32.113  17.886  25.201  1.00  0.00    -0.465 OA
ATOM     28  C   UNL A   1      32.577  16.553  25.422  1.00  0.00     0.282 C 
ENDBRANCH  25  27
ENDBRANCH  20  25
ENDBRANCH   9  19
BRANCH  14  29
ATOM     29  C   UNL A   1      34.695  24.110  24.961  1.00  0.00     0.045 A 
ATOM     30  C   UNL A   1      35.183  24.009  23.656  1.00  0.00     0.026 A 
ATOM     31  C   UNL A   1      35.111  23.218  25.957  1.00  0.00     0.026 A 
ATOM     32  C   UNL A   1      36.072  22.986  23.337  1.00  0.00     0.002 A 
ATOM     33  C   UNL A   1      35.968  22.171  25.616  1.00  0.00     0.002 A 
ATOM     34  C   UNL A   1      36.446  22.056  24.309  1.00  0.00     0.000 A 
ENDBRANCH  14  29
ENDBRANCH   6   8
ENDBRANCH   5   6
ENDBRANCH   4   5
ENDBRANCH   3   4
ENDBRANCH   2   3
ENDBRANCH   1   2
BRANCH   1  35
ATOM     35  C   UNL A   1      34.277  34.566  29.234  1.00  0.00     0.188 C 
BRANCH  35  36
ATOM     36  O   UNL A   1      34.613  34.295  30.575  1.00  0.00    -0.376 OA
BRANCH  36  37
ATOM     37  C   UNL A   1      34.738  32.975  31.079  1.00  0.00     0.202 C 
BRANCH  37  38
ATOM     38  C   UNL A   1      36.053  32.224  31.291  1.00  0.00     0.261 C 
BRANCH  38  39
ATOM     39  O   UNL A   1      36.181  30.974  30.652  1.00  0.00    -0.460 OA
BRANCH  39  40
ATOM     40  C   UNL A   1      36.597  29.988  31.472  1.00  0.00     0.338 C 
ATOM     41  O   UNL A   1      36.393  29.885  32.669  1.00  0.00    -0.246 OA
BRANCH  40  42
ATOM     42  C   UNL A   1      37.436  29.064  30.711  1.00  0.00     0.060 A 
ATOM     43  C   UNL A   1      38.187  28.152  31.454  1.00  0.00     0.016 A 
ATOM     44  C   UNL A   1      37.708  29.347  29.364  1.00  0.00     0.016 A 
ATOM     45  C   UNL A   1      39.371  27.709  30.918  1.00  0.00     0.010 A 
ATOM     46  C   UNL A   1      38.899  28.916  28.836  1.00  0.00     0.010 A 
ATOM     47  C   UNL A   1      39.753  28.192  29.662  1.00  0.00    -0.014 A 
BRANCH  47  48
ATOM     48  C   UNL A   1      41.112  27.939  29.248  1.00  0.00     0.031 A 
ATOM     49  C   UNL A   1      41.321  26.612  28.643  1.00  0.00     0.074 A 
ATOM     50  C   UNL A   1      42.069  28.877  29.366  1.00  0.00     0.049 A 
ATOM     51  N   UNL A   1      42.051  25.648  29.091  1.00  0.00    -0.248 NA
ATOM     52  C   UNL A   1      40.516  26.273  27.461  1.00  0.00     0.031 C 
ATOM     53  C   UNL A   1      41.919  30.298  29.687  1.00  0.00     0.029 A 
ATOM     54  N   UNL A   1      43.397  28.757  29.113  1.00  0.00    -0.354 N 
ATOM     55  C   UNL A   1      41.932  24.628  28.156  1.00  0.00     0.074 A 
ATOM     56  C   UNL A   1      40.867  25.004  27.263  1.00  0.00     0.031 C 
ATOM     57  C   UNL A   1      43.067  30.943  29.380  1.00  0.00     0.029 A 
ATOM     58  C   UNL A   1      44.058  29.964  28.961  1.00  0.00     0.049 A 
ATOM     59  H   UNL A   1      43.853  27.886  29.045  1.00  0.00     0.167 HD
ATOM     60  C   UNL A   1      42.877  23.659  28.048  1.00  0.00     0.037 A 
ATOM     61  C   UNL A   1      45.292  30.128  28.426  1.00  0.00     0.037 A 
ATOM     62  C   UNL A   1      43.693  23.572  29.230  1.00  0.00     0.049 A 
ATOM     63  C   UNL A   1      45.984  28.811  28.483  1.00  0.00     0.074 A 
ATOM     64  C   UNL A   1      43.436  23.300  30.560  1.00  0.00     0.029 A 
ATOM     65  N   UNL A   1      44.944  24.136  29.201  1.00  0.00    -0.354 N 
ATOM     66  N   UNL A   1      46.380  28.242  29.588  1.00  0.00    -0.248 NA
ATOM     67  C   UNL A   1      45.840  27.918  27.342  1.00  0.00     0.031 C 
ATOM     68  C   UNL A   1      44.326  24.140  31.291  1.00  0.00     0.029 A 
ATOM     69  C   UNL A   1      45.099  24.842  30.367  1.00  0.00     0.049 A 
ATOM     70  H   UNL A   1      45.606  24.049  28.478  1.00  0.00     0.167 HD
ATOM     71  C   UNL A   1      46.121  26.892  29.403  1.00  0.00     0.074 A 
ATOM     72  C   UNL A   1      45.883  26.740  27.971  1.00  0.00     0.031 C 
ATOM     73  C   UNL A   1      45.840  26.077  30.462  1.00  0.00     0.037 A 
BRANCH  60  74
ATOM     74  C   UNL A   1      43.277  23.045  26.737  1.00  0.00     0.064 A 
ATOM     75  C   UNL A   1      43.086  21.665  26.535  1.00  0.00     0.173 A 
ATOM     76  C   UNL A   1      44.101  23.697  25.794  1.00  0.00     0.173 A 
ATOM     77  F   UNL A   1      42.348  20.947  27.394  1.00  0.00    -0.203 F 
ATOM     78  C   UNL A   1      43.725  20.983  25.499  1.00  0.00     0.198 A 
ATOM     79  C   UNL A   1      44.687  23.024  24.727  1.00  0.00     0.198 A 
ATOM     80  F   UNL A   1      44.463  24.980  25.931  1.00  0.00    -0.203 F 
ATOM     81  F   UNL A   1      43.616  19.650  25.416  1.00  0.00    -0.200 F 
ATOM     82  C   UNL A   1      44.526  21.662  24.597  1.00  0.00     0.200 A 
ATOM     83  F   UNL A   1      45.478  23.697  23.879  1.00  0.00    -0.200 F 
ATOM     84  F   UNL A   1      45.185  20.999  23.638  1.00  0.00    -0.200 F 
ENDBRANCH  60  74
BRANCH  61  85
ATOM     85  C   UNL A   1      45.768  31.240  27.568  1.00  0.00     0.064 A 
ATOM     86  C   UNL A   1      44.945  31.779  26.566  1.00  0.00     0.173 A 
ATOM     87  C   UNL A   1      46.927  31.977  27.889  1.00  0.00     0.173 A 
ATOM     88  F   UNL A   1      43.800  31.167  26.233  1.00  0.00    -0.203 F 
ATOM     89  C   UNL A   1      45.249  32.995  25.943  1.00  0.00     0.198 A 
ATOM     90  C   UNL A   1      47.235  33.182  27.257  1.00  0.00     0.198 A 
ATOM     91  F   UNL A   1      47.734  31.597  28.888  1.00  0.00    -0.203 F 
ATOM     92  F   UNL A   1      44.405  33.511  25.039  1.00  0.00    -0.200 F 
ATOM     93  C   UNL A   1      46.389  33.698  26.295  1.00  0.00     0.200 A 
ATOM     94  F   UNL A   1      48.323  33.869  27.634  1.00  0.00    -0.200 F 
ATOM     95  F   UNL A   1      46.648  34.891  25.742  1.00  0.00    -0.200 F 
ENDBRANCH  61  85
BRANCH  73  96
ATOM     96  C   UNL A   1      46.088  26.615  31.842  1.00  0.00     0.064 A 
ATOM     97  C   UNL A   1      45.151  27.369  32.569  1.00  0.00     0.173 A 
ATOM     98  C   UNL A   1      47.264  26.238  32.504  1.00  0.00     0.173 A 
ATOM     99  F   UNL A   1      43.957  27.676  32.046  1.00  0.00    -0.203 F 
ATOM    100  C   UNL A   1      45.406  27.772  33.879  1.00  0.00     0.198 A 
ATOM    101  C   UNL A   1      47.500  26.608  33.825  1.00  0.00     0.198 A 
ATOM    102  F   UNL A   1      48.169  25.467  31.880  1.00  0.00    -0.203 F 
ATOM    103  F   UNL A   1      44.503  28.505  34.545  1.00  0.00    -0.200 F 
ATOM    104  C   UNL A   1      46.578  27.385  34.508  1.00  0.00     0.200 A 
ATOM    105  F   UNL A   1      48.610  26.187  34.446  1.00  0.00    -0.200 F 
ATOM    106  F   UNL A   1      46.806  27.736  35.781  1.00  0.00    -0.200 F 
ENDBRANCH  73  96
ENDBRANCH  47  48
ENDBRANCH  40  42
ENDBRANCH  39  40
ENDBRANCH  38  39
ENDBRANCH  37  38
ENDBRANCH  36  37
ENDBRANCH  35  36
ENDBRANCH   1  35
TORSDOF 21
ENDMDL
MODEL 3
REMARK VINA RESULT:     -12.2      2.552      3.863
REMARK SMILES COC(=O)c1ccc([C@H]2CC(=O)Nc3c(C(=O)OCCOCCOCCOC(=O)c4ccc(-c5c6nc(c(-c7c(F)c(F)c(F)c(F)c7F)c7ccc([nH]7)c(-c7c(F)c(F)c(F)c(F)c7F)c7nc(c(-c8c(F)c(F)c(F)c(F)c8F)c8ccc5[nH]8)C=C7)C=C6)cc4)cn(-c4ccccc4)c32)cc1
REMARK SMILES IDX 22 1 21 2 20 3 19 4 18 5 16 6 17 7 15 8 9 9 10 10 101 11
REMARK SMILES IDX 11 12 14 13 94 14 12 15 13 16 93 17 8 19 5 20 6 21 103 22
REMARK SMILES IDX 7 23 102 24 3 25 4 26 2 27 1 28 95 29 96 30 100 31 97 32
REMARK SMILES IDX 99 33 98 34 23 35 24 36 25 37 26 38 27 39 28 40 29 41 30 42
REMARK SMILES IDX 31 43 92 44 32 45 91 46 33 47 34 48 35 49 85 50 36 51 90 52
REMARK SMILES IDX 84 53 86 54 37 55 89 56 83 57 82 58 38 60 70 61 50 62 69 63
REMARK SMILES IDX 51 64 54 65 68 66 87 67 52 68 53 69 67 71 88 72 55 73 39 74
REMARK SMILES IDX 40 75 48 76 41 77 42 78 46 79 49 80 43 81 44 82 47 83 45 84
REMARK SMILES IDX 71 85 72 86 80 87 73 88 74 89 78 90 81 91 75 92 76 93 79 94
REMARK SMILES IDX 77 95 56 96 57 97 65 98 58 99 59 100 63 101 66 102 60 103
REMARK SMILES IDX 61 104 64 105 62 106
REMARK H PARENT 13 18 86 59 54 70
REMARK Flexibility Score: inf
ROOT
ATOM      1  C   UNL A   1      33.293  33.392  27.945  1.00  0.00     0.188 C 
ENDROOT
BRANCH   1   2
ATOM      2  O   UNL A   1      34.392  32.500  27.877  1.00  0.00    -0.376 OA
BRANCH   2   3
ATOM      3  C   UNL A   1      34.210  31.097  27.985  1.00  0.00     0.202 C 
BRANCH   3   4
ATOM      4  C   UNL A   1      33.748  30.198  26.817  1.00  0.00     0.261 C 
BRANCH   4   5
ATOM      5  O   UNL A   1      33.941  28.786  26.958  1.00  0.00    -0.460 OA
BRANCH   5   6
ATOM      6  C   UNL A   1      32.802  28.035  26.992  1.00  0.00     0.341 C 
ATOM      7  O   UNL A   1      31.769  28.369  27.548  1.00  0.00    -0.246 OA
BRANCH   6   8
ATOM      8  C   UNL A   1      32.895  26.846  26.151  1.00  0.00     0.102 A 
ATOM      9  C   UNL A   1      31.844  24.271  23.665  1.00  0.00     0.078 C 
ATOM     10  C   UNL A   1      30.326  24.515  23.722  1.00  0.00     0.115 C 
ATOM     11  C   UNL A   1      32.538  25.127  24.696  1.00  0.00     0.055 A 
ATOM     12  C   UNL A   1      29.910  25.938  24.052  1.00  0.00     0.225 C 
ATOM     13  C   UNL A   1      31.965  26.245  25.269  1.00  0.00     0.078 A 
ATOM     14  N   UNL A   1      33.832  25.033  25.180  1.00  0.00    -0.317 N 
ATOM     15  O   UNL A   1      28.847  26.406  23.647  1.00  0.00    -0.275 OA
ATOM     16  N   UNL A   1      30.701  26.650  24.915  1.00  0.00    -0.324 N 
ATOM     17  C   UNL A   1      34.006  26.016  26.130  1.00  0.00     0.109 A 
ATOM     18  H   UNL A   1      30.349  27.486  25.297  1.00  0.00     0.170 HD
BRANCH   9  19
ATOM     19  C   UNL A   1      32.090  22.760  23.678  1.00  0.00    -0.038 A 
ATOM     20  C   UNL A   1      32.401  19.949  23.848  1.00  0.00     0.060 A 
ATOM     21  C   UNL A   1      32.363  20.728  25.008  1.00  0.00     0.016 A 
ATOM     22  C   UNL A   1      32.345  20.583  22.602  1.00  0.00     0.016 A 
ATOM     23  C   UNL A   1      32.206  22.115  24.923  1.00  0.00     0.005 A 
ATOM     24  C   UNL A   1      32.227  21.979  22.520  1.00  0.00     0.005 A 
BRANCH  20  25
ATOM     25  C   UNL A   1      32.474  18.470  24.000  1.00  0.00     0.337 C 
ATOM     26  O   UNL A   1      32.977  17.735  23.163  1.00  0.00    -0.246 OA
BRANCH  25  27
ATOM     27  O   UNL A   1      31.909  18.072  25.167  1.00  0.00    -0.465 OA
ATOM     28  C   UNL A   1      32.519  16.913  25.739  1.00  0.00     0.282 C 
ENDBRANCH  25  27
ENDBRANCH  20  25
ENDBRANCH   9  19
BRANCH  14  29
ATOM     29  C   UNL A   1      34.841  24.124  24.801  1.00  0.00     0.045 A 
ATOM     30  C   UNL A   1      35.191  24.006  23.454  1.00  0.00     0.026 A 
ATOM     31  C   UNL A   1      35.438  23.314  25.774  1.00  0.00     0.026 A 
ATOM     32  C   UNL A   1      36.124  23.045  23.073  1.00  0.00     0.002 A 
ATOM     33  C   UNL A   1      36.339  22.325  25.376  1.00  0.00     0.002 A 
ATOM     34  C   UNL A   1      36.680  22.192  24.029  1.00  0.00     0.000 A 
ENDBRANCH  14  29
ENDBRANCH   6   8
ENDBRANCH   5   6
ENDBRANCH   4   5
ENDBRANCH   3   4
ENDBRANCH   2   3
ENDBRANCH   1   2
BRANCH   1  35
ATOM     35  C   UNL A   1      33.442  34.796  28.571  1.00  0.00     0.188 C 
BRANCH  35  36
ATOM     36  O   UNL A   1      34.419  34.923  29.577  1.00  0.00    -0.376 OA
BRANCH  36  37
ATOM     37  C   UNL A   1      34.104  34.870  30.959  1.00  0.00     0.202 C 
BRANCH  37  38
ATOM     38  C   UNL A   1      34.242  33.640  31.857  1.00  0.00     0.261 C 
BRANCH  38  39
ATOM     39  O   UNL A   1      34.769  32.474  31.262  1.00  0.00    -0.460 OA
BRANCH  39  40
ATOM     40  C   UNL A   1      35.778  31.919  31.963  1.00  0.00     0.338 C 
ATOM     41  O   UNL A   1      35.965  31.979  33.165  1.00  0.00    -0.246 OA
BRANCH  40  42
ATOM     42  C   UNL A   1      36.703  31.278  31.030  1.00  0.00     0.060 A 
ATOM     43  C   UNL A   1      36.626  29.888  30.937  1.00  0.00     0.016 A 
ATOM     44  C   UNL A   1      37.805  32.008  30.559  1.00  0.00     0.016 A 
ATOM     45  C   UNL A   1      37.769  29.204  30.598  1.00  0.00     0.010 A 
ATOM     46  C   UNL A   1      38.949  31.323  30.236  1.00  0.00     0.010 A 
ATOM     47  C   UNL A   1      38.936  29.937  30.363  1.00  0.00    -0.014 A 
BRANCH  47  48
ATOM     48  C   UNL A   1      40.172  29.195  30.288  1.00  0.00     0.031 A 
ATOM     49  C   UNL A   1      40.849  29.020  31.585  1.00  0.00     0.074 A 
ATOM     50  C   UNL A   1      40.611  28.674  29.128  1.00  0.00     0.049 A 
ATOM     51  N   UNL A   1      41.998  29.483  31.943  1.00  0.00    -0.248 NA
ATOM     52  C   UNL A   1      40.094  28.356  32.657  1.00  0.00     0.031 C 
ATOM     53  C   UNL A   1      39.895  28.548  27.857  1.00  0.00     0.029 A 
ATOM     54  N   UNL A   1      41.787  28.042  28.884  1.00  0.00    -0.354 N 
ATOM     55  C   UNL A   1      42.193  29.027  33.240  1.00  0.00     0.074 A 
ATOM     56  C   UNL A   1      40.938  28.475  33.681  1.00  0.00     0.031 C 
ATOM     57  C   UNL A   1      40.561  27.681  27.061  1.00  0.00     0.029 A 
ATOM     58  C   UNL A   1      41.799  27.294  27.719  1.00  0.00     0.049 A 
ATOM     59  H   UNL A   1      42.566  28.110  29.483  1.00  0.00     0.167 HD
ATOM     60  C   UNL A   1      43.439  28.928  33.771  1.00  0.00     0.037 A 
ATOM     61  C   UNL A   1      42.717  26.352  27.394  1.00  0.00     0.037 A 
ATOM     62  C   UNL A   1      44.394  29.726  33.049  1.00  0.00     0.049 A 
ATOM     63  C   UNL A   1      43.925  26.597  28.228  1.00  0.00     0.074 A 
ATOM     64  C   UNL A   1      44.517  31.077  32.785  1.00  0.00     0.029 A 
ATOM     65  N   UNL A   1      45.234  29.096  32.164  1.00  0.00    -0.354 N 
ATOM     66  N   UNL A   1      44.715  27.624  28.085  1.00  0.00    -0.248 NA
ATOM     67  C   UNL A   1      44.006  25.926  29.518  1.00  0.00     0.031 C 
ATOM     68  C   UNL A   1      45.045  31.151  31.463  1.00  0.00     0.029 A 
ATOM     69  C   UNL A   1      45.250  29.846  31.016  1.00  0.00     0.049 A 
ATOM     70  H   UNL A   1      45.731  28.262  32.325  1.00  0.00     0.167 HD
ATOM     71  C   UNL A   1      45.062  27.985  29.380  1.00  0.00     0.074 A 
ATOM     72  C   UNL A   1      44.679  26.849  30.210  1.00  0.00     0.031 C 
ATOM     73  C   UNL A   1      45.362  29.280  29.693  1.00  0.00     0.037 A 
BRANCH  60  74
ATOM     74  C   UNL A   1      43.843  27.833  34.717  1.00  0.00     0.064 A 
ATOM     75  C   UNL A   1      43.736  26.492  34.306  1.00  0.00     0.173 A 
ATOM     76  C   UNL A   1      44.051  28.039  36.098  1.00  0.00     0.173 A 
ATOM     77  F   UNL A   1      43.505  26.190  33.020  1.00  0.00    -0.203 F 
ATOM     78  C   UNL A   1      43.773  25.440  35.224  1.00  0.00     0.198 A 
ATOM     79  C   UNL A   1      44.147  26.986  37.002  1.00  0.00     0.198 A 
ATOM     80  F   UNL A   1      44.052  29.263  36.643  1.00  0.00    -0.203 F 
ATOM     81  F   UNL A   1      43.543  24.188  34.807  1.00  0.00    -0.200 F 
ATOM     82  C   UNL A   1      43.977  25.688  36.570  1.00  0.00     0.200 A 
ATOM     83  F   UNL A   1      44.322  27.249  38.304  1.00  0.00    -0.200 F 
ATOM     84  F   UNL A   1      43.955  24.686  37.457  1.00  0.00    -0.200 F 
ENDBRANCH  60  74
BRANCH  61  85
ATOM     85  C   UNL A   1      42.490  25.074  26.678  1.00  0.00     0.064 A 
ATOM     86  C   UNL A   1      43.240  24.743  25.538  1.00  0.00     0.173 A 
ATOM     87  C   UNL A   1      41.730  24.032  27.248  1.00  0.00     0.173 A 
ATOM     88  F   UNL A   1      44.027  25.662  24.960  1.00  0.00    -0.203 F 
ATOM     89  C   UNL A   1      43.251  23.445  25.018  1.00  0.00     0.198 A 
ATOM     90  C   UNL A   1      41.731  22.740  26.720  1.00  0.00     0.198 A 
ATOM     91  F   UNL A   1      41.046  24.216  28.386  1.00  0.00    -0.203 F 
ATOM     92  F   UNL A   1      44.032  23.152  23.969  1.00  0.00    -0.200 F 
ATOM     93  C   UNL A   1      42.502  22.443  25.615  1.00  0.00     0.200 A 
ATOM     94  F   UNL A   1      41.029  21.775  27.330  1.00  0.00    -0.200 F 
ATOM     95  F   UNL A   1      42.560  21.186  25.153  1.00  0.00    -0.200 F 
ENDBRANCH  61  85
BRANCH  73  96
ATOM     96  C   UNL A   1      45.572  30.243  28.558  1.00  0.00     0.064 A 
ATOM     97  C   UNL A   1      44.530  30.926  27.909  1.00  0.00     0.173 A 
ATOM     98  C   UNL A   1      46.885  30.587  28.210  1.00  0.00     0.173 A 
ATOM     99  F   UNL A   1      43.253  30.734  28.262  1.00  0.00    -0.203 F 
ATOM    100  C   UNL A   1      44.793  31.869  26.916  1.00  0.00     0.198 A 
ATOM    101  C   UNL A   1      47.145  31.558  27.248  1.00  0.00     0.198 A 
ATOM    102  F   UNL A   1      47.921  30.011  28.840  1.00  0.00    -0.203 F 
ATOM    103  F   UNL A   1      43.780  32.496  26.299  1.00  0.00    -0.200 F 
ATOM    104  C   UNL A   1      46.101  32.189  26.591  1.00  0.00     0.200 A 
ATOM    105  F   UNL A   1      48.411  31.901  26.974  1.00  0.00    -0.200 F 
ATOM    106  F   UNL A   1      46.355  33.126  25.668  1.00  0.00    -0.200 F 
ENDBRANCH  73  96
ENDBRANCH  47  48
ENDBRANCH  40  42
ENDBRANCH  39  40
ENDBRANCH  38  39
ENDBRANCH  37  38
ENDBRANCH  36  37
ENDBRANCH  35  36
ENDBRANCH   1  35
TORSDOF 21
ENDMDL
