MODEL 1
REMARK VINA RESULT:     -10.1      0.000      0.000
REMARK SMILES O=C(OCCOCCOCCOC(=O)[C@H]1c2[nH]cnc2CC[N@H+]1Cc1ccoc1)c1ccc(-c2c3nc(c(-c4c(F)c(F)c(F)c(F)c4F)c4ccc([nH]4)c(-c4c(F)c(F)c(F)c(F)c4F)c4nc(c(-c5c(F)c(F)c(F)c(F)c5F)c5ccc2[nH]5)C=C4)C=C3)cc1
REMARK SMILES IDX 7 1 6 2 5 3 4 4 3 5 2 6 1 7 30 8 31 9 92 10 32 11 91 12
REMARK SMILES IDX 33 13 34 14 35 15 85 16 36 17 90 18 84 19 86 20 37 21 89 22
REMARK SMILES IDX 83 23 82 24 38 26 70 27 50 28 69 29 51 30 54 31 68 32 87 33
REMARK SMILES IDX 52 34 53 35 67 37 88 38 55 39 39 40 40 41 48 42 41 43 42 44
REMARK SMILES IDX 46 45 49 46 43 47 44 48 47 49 45 50 71 51 72 52 80 53 73 54
REMARK SMILES IDX 74 55 78 56 81 57 75 58 76 59 79 60 77 61 56 62 57 63 65 64
REMARK SMILES IDX 58 65 59 66 63 67 66 68 60 69 61 70 64 71 62 72 8 73 9 74
REMARK SMILES IDX 10 75 11 76 12 77 13 78 14 79 15 80 16 81 23 82 17 83 20 84
REMARK SMILES IDX 22 85 18 87 19 89 21 90 24 91 25 92 26 93 29 94 27 95 28 96
REMARK H PARENT 86 25 54 36 23 86 17 88
REMARK Flexibility Score: inf
ROOT
ATOM      1  C   UNL A   1      33.237  36.408  29.946  1.00  0.00     0.188 C 
ENDROOT
BRANCH   1   2
ATOM      2  O   UNL A   1      33.268  34.993  29.825  1.00  0.00    -0.376 OA
BRANCH   2   3
ATOM      3  C   UNL A   1      33.258  34.497  28.500  1.00  0.00     0.202 C 
BRANCH   3   4
ATOM      4  C   UNL A   1      34.460  33.609  28.180  1.00  0.00     0.261 C 
BRANCH   4   5
ATOM      5  O   UNL A   1      34.470  32.334  28.845  1.00  0.00    -0.460 OA
BRANCH   5   6
ATOM      6  C   UNL A   1      35.038  31.169  28.466  1.00  0.00     0.338 C 
ATOM      7  O   UNL A   1      34.401  30.350  27.825  1.00  0.00    -0.246 OA
BRANCH   6   8
ATOM      8  C   UNL A   1      36.337  30.740  29.042  1.00  0.00     0.060 A 
ATOM      9  C   UNL A   1      37.569  31.297  28.709  1.00  0.00     0.016 A 
ATOM     10  C   UNL A   1      36.290  29.630  29.909  1.00  0.00     0.016 A 
ATOM     11  C   UNL A   1      38.741  30.707  29.164  1.00  0.00     0.010 A 
ATOM     12  C   UNL A   1      37.462  29.033  30.359  1.00  0.00     0.010 A 
ATOM     13  C   UNL A   1      38.685  29.532  29.919  1.00  0.00    -0.014 A 
BRANCH  13  14
ATOM     14  C   UNL A   1      39.932  28.782  30.059  1.00  0.00     0.031 A 
ATOM     15  C   UNL A   1      40.596  28.757  31.391  1.00  0.00     0.074 A 
ATOM     16  C   UNL A   1      40.490  28.156  29.003  1.00  0.00     0.049 A 
ATOM     17  N   UNL A   1      41.798  29.146  31.691  1.00  0.00    -0.248 NA
ATOM     18  C   UNL A   1      39.828  28.251  32.533  1.00  0.00     0.031 C 
ATOM     19  C   UNL A   1      39.890  27.881  27.692  1.00  0.00     0.029 A 
ATOM     20  N   UNL A   1      41.712  27.557  28.917  1.00  0.00    -0.354 N 
ATOM     21  C   UNL A   1      41.998  28.799  33.025  1.00  0.00     0.074 A 
ATOM     22  C   UNL A   1      40.730  28.317  33.514  1.00  0.00     0.031 C 
ATOM     23  C   UNL A   1      40.660  26.994  27.028  1.00  0.00     0.029 A 
ATOM     24  C   UNL A   1      41.865  26.752  27.801  1.00  0.00     0.049 A 
ATOM     25  H   UNL A   1      42.422  27.685  29.587  1.00  0.00     0.167 HD
ATOM     26  C   UNL A   1      43.240  28.774  33.585  1.00  0.00     0.037 A 
ATOM     27  C   UNL A   1      42.878  25.893  27.549  1.00  0.00     0.037 A 
ATOM     28  C   UNL A   1      44.159  29.629  32.882  1.00  0.00     0.049 A 
ATOM     29  C   UNL A   1      44.047  26.310  28.355  1.00  0.00     0.074 A 
ATOM     30  C   UNL A   1      44.205  30.981  32.595  1.00  0.00     0.029 A 
ATOM     31  N   UNL A   1      45.140  29.068  32.106  1.00  0.00    -0.354 N 
ATOM     32  N   UNL A   1      44.749  27.386  28.133  1.00  0.00    -0.248 NA
ATOM     33  C   UNL A   1      44.219  25.714  29.671  1.00  0.00     0.031 C 
ATOM     34  C   UNL A   1      44.845  31.072  31.323  1.00  0.00     0.029 A 
ATOM     35  C   UNL A   1      45.160  29.772  30.931  1.00  0.00     0.049 A 
ATOM     36  H   UNL A   1      45.718  28.308  32.347  1.00  0.00     0.167 HD
ATOM     37  C   UNL A   1      45.118  27.832  29.392  1.00  0.00     0.074 A 
ATOM     38  C   UNL A   1      44.867  26.707  30.284  1.00  0.00     0.031 C 
ATOM     39  C   UNL A   1      45.329  29.158  29.638  1.00  0.00     0.037 A 
BRANCH  26  40
ATOM     40  C   UNL A   1      43.706  27.735  34.582  1.00  0.00     0.064 A 
ATOM     41  C   UNL A   1      43.589  26.365  34.261  1.00  0.00     0.173 A 
ATOM     42  C   UNL A   1      43.960  28.016  35.941  1.00  0.00     0.173 A 
ATOM     43  F   UNL A   1      43.342  25.974  33.002  1.00  0.00    -0.203 F 
ATOM     44  C   UNL A   1      43.617  25.369  35.240  1.00  0.00     0.198 A 
ATOM     45  C   UNL A   1      44.039  27.014  36.909  1.00  0.00     0.198 A 
ATOM     46  F   UNL A   1      44.032  29.268  36.407  1.00  0.00    -0.203 F 
ATOM     47  F   UNL A   1      43.359  24.098  34.903  1.00  0.00    -0.200 F 
ATOM     48  C   UNL A   1      43.830  25.695  36.566  1.00  0.00     0.200 A 
ATOM     49  F   UNL A   1      44.236  27.350  38.191  1.00  0.00    -0.200 F 
ATOM     50  F   UNL A   1      43.784  24.753  37.516  1.00  0.00    -0.200 F 
ENDBRANCH  26  40
BRANCH  27  51
ATOM     51  C   UNL A   1      42.786  24.586  26.865  1.00  0.00     0.064 A 
ATOM     52  C   UNL A   1      43.303  24.395  25.576  1.00  0.00     0.173 A 
ATOM     53  C   UNL A   1      42.401  23.425  27.569  1.00  0.00     0.173 A 
ATOM     54  F   UNL A   1      43.741  25.442  24.863  1.00  0.00    -0.203 F 
ATOM     55  C   UNL A   1      43.436  23.115  25.027  1.00  0.00     0.198 A 
ATOM     56  C   UNL A   1      42.521  22.152  27.015  1.00  0.00     0.198 A 
ATOM     57  F   UNL A   1      41.987  23.496  28.842  1.00  0.00    -0.203 F 
ATOM     58  F   UNL A   1      43.986  22.963  23.814  1.00  0.00    -0.200 F 
ATOM     59  C   UNL A   1      43.049  21.996  25.748  1.00  0.00     0.200 A 
ATOM     60  F   UNL A   1      42.176  21.079  27.739  1.00  0.00    -0.200 F 
ATOM     61  F   UNL A   1      43.223  20.769  25.241  1.00  0.00    -0.200 F 
ENDBRANCH  27  51
BRANCH  39  62
ATOM     62  C   UNL A   1      45.439  30.081  28.460  1.00  0.00     0.064 A 
ATOM     63  C   UNL A   1      44.325  30.631  27.804  1.00  0.00     0.173 A 
ATOM     64  C   UNL A   1      46.707  30.536  28.077  1.00  0.00     0.173 A 
ATOM     65  F   UNL A   1      43.079  30.329  28.191  1.00  0.00    -0.203 F 
ATOM     66  C   UNL A   1      44.480  31.556  26.773  1.00  0.00     0.198 A 
ATOM     67  C   UNL A   1      46.858  31.487  27.071  1.00  0.00     0.198 A 
ATOM     68  F   UNL A   1      47.803  30.094  28.714  1.00  0.00    -0.203 F 
ATOM     69  F   UNL A   1      43.402  32.061  26.155  1.00  0.00    -0.200 F 
ATOM     70  C   UNL A   1      45.746  31.987  26.412  1.00  0.00     0.200 A 
ATOM     71  F   UNL A   1      48.080  31.942  26.760  1.00  0.00    -0.200 F 
ATOM     72  F   UNL A   1      45.893  32.909  25.450  1.00  0.00    -0.200 F 
ENDBRANCH  39  62
ENDBRANCH  13  14
ENDBRANCH   6   8
ENDBRANCH   5   6
ENDBRANCH   4   5
ENDBRANCH   3   4
ENDBRANCH   2   3
ENDBRANCH   1   2
BRANCH   1  73
ATOM     73  C   UNL A   1      33.203  36.940  31.396  1.00  0.00     0.188 C 
BRANCH  73  74
ATOM     74  O   UNL A   1      33.171  36.048  32.501  1.00  0.00    -0.376 OA
BRANCH  74  75
ATOM     75  C   UNL A   1      34.139  36.189  33.522  1.00  0.00     0.202 C 
BRANCH  75  76
ATOM     76  C   UNL A   1      35.143  35.052  33.692  1.00  0.00     0.261 C 
BRANCH  76  77
ATOM     77  O   UNL A   1      35.892  34.661  32.523  1.00  0.00    -0.459 OA
BRANCH  77  78
ATOM     78  C   UNL A   1      37.228  34.459  32.705  1.00  0.00     0.371 C 
ATOM     79  O   UNL A   1      37.904  35.046  33.548  1.00  0.00    -0.245 OA
BRANCH  78  80
ATOM     80  C   UNL A   1      37.855  33.413  31.764  1.00  0.00     0.345 C 
ATOM     81  C   UNL A   1      38.886  34.001  30.852  1.00  0.00     0.108 A 
ATOM     82  N   UNL A   1      38.418  32.213  32.433  1.00  0.00    -0.314 N 
ATOM     83  N   UNL A   1      38.725  34.926  29.858  1.00  0.00    -0.343 N 
ATOM     84  C   UNL A   1      40.213  33.642  30.793  1.00  0.00     0.074 A 
ATOM     85  C   UNL A   1      39.831  32.294  32.839  1.00  0.00     0.270 C 
ATOM     86  H   UNL A   1      38.493  31.559  31.654  1.00  0.00     0.349 HD
ATOM     87  C   UNL A   1      39.956  35.104  29.276  1.00  0.00     0.197 A 
ATOM     88  H   UNL A   1      37.888  35.378  29.607  1.00  0.00     0.167 HD
ATOM     89  N   UNL A   1      40.878  34.343  29.827  1.00  0.00    -0.241 NA
ATOM     90  C   UNL A   1      40.789  32.581  31.650  1.00  0.00     0.120 C 
BRANCH  82  91
ATOM     91  C   UNL A   1      37.512  31.465  33.298  1.00  0.00     0.303 C 
BRANCH  91  92
ATOM     92  C   UNL A   1      37.872  31.472  34.747  1.00  0.00     0.044 A 
ATOM     93  C   UNL A   1      37.723  32.548  35.672  1.00  0.00     0.051 A 
ATOM     94  C   UNL A   1      38.352  30.419  35.504  1.00  0.00     0.204 A 
ATOM     95  C   UNL A   1      38.162  32.087  36.891  1.00  0.00     0.195 A 
ATOM     96  O   UNL A   1      38.550  30.792  36.793  1.00  0.00    -0.472 OA
ENDBRANCH  91  92
ENDBRANCH  82  91
ENDBRANCH  78  80
ENDBRANCH  77  78
ENDBRANCH  76  77
ENDBRANCH  75  76
ENDBRANCH  74  75
ENDBRANCH  73  74
ENDBRANCH   1  73
TORSDOF 19
ENDMDL
MODEL 2
REMARK VINA RESULT:     -10.1      5.575     11.222
REMARK SMILES O=C(OCCOCCOCCOC(=O)[C@H]1c2[nH]cnc2CC[N@H+]1Cc1ccoc1)c1ccc(-c2c3nc(c(-c4c(F)c(F)c(F)c(F)c4F)c4ccc([nH]4)c(-c4c(F)c(F)c(F)c(F)c4F)c4nc(c(-c5c(F)c(F)c(F)c(F)c5F)c5ccc2[nH]5)C=C4)C=C3)cc1
REMARK SMILES IDX 7 1 6 2 5 3 4 4 3 5 2 6 1 7 30 8 31 9 92 10 32 11 91 12
REMARK SMILES IDX 33 13 34 14 35 15 85 16 36 17 90 18 84 19 86 20 37 21 89 22
REMARK SMILES IDX 83 23 82 24 38 26 70 27 50 28 69 29 51 30 54 31 68 32 87 33
REMARK SMILES IDX 52 34 53 35 67 37 88 38 55 39 39 40 40 41 48 42 41 43 42 44
REMARK SMILES IDX 46 45 49 46 43 47 44 48 47 49 45 50 71 51 72 52 80 53 73 54
REMARK SMILES IDX 74 55 78 56 81 57 75 58 76 59 79 60 77 61 56 62 57 63 65 64
REMARK SMILES IDX 58 65 59 66 63 67 66 68 60 69 61 70 64 71 62 72 8 73 9 74
REMARK SMILES IDX 10 75 11 76 12 77 13 78 14 79 15 80 16 81 23 82 17 83 20 84
REMARK SMILES IDX 22 85 18 87 19 89 21 90 24 91 25 92 26 93 29 94 27 95 28 96
REMARK H PARENT 86 25 54 36 23 86 17 88
REMARK Flexibility Score: inf
ROOT
ATOM      1  C   UNL A   1      35.324  20.812  25.087  1.00  0.00     0.188 C 
ENDROOT
BRANCH   1   2
ATOM      2  O   UNL A   1      36.098  21.742  25.830  1.00  0.00    -0.376 OA
BRANCH   2   3
ATOM      3  C   UNL A   1      37.465  21.814  25.474  1.00  0.00     0.202 C 
BRANCH   3   4
ATOM      4  C   UNL A   1      38.163  23.062  26.015  1.00  0.00     0.261 C 
BRANCH   4   5
ATOM      5  O   UNL A   1      39.312  22.807  26.843  1.00  0.00    -0.460 OA
BRANCH   5   6
ATOM      6  C   UNL A   1      40.596  23.187  26.675  1.00  0.00     0.338 C 
ATOM      7  O   UNL A   1      41.460  22.360  26.436  1.00  0.00    -0.246 OA
BRANCH   6   8
ATOM      8  C   UNL A   1      41.031  24.557  27.043  1.00  0.00     0.060 A 
ATOM      9  C   UNL A   1      41.705  24.883  28.216  1.00  0.00     0.016 A 
ATOM     10  C   UNL A   1      40.635  25.586  26.163  1.00  0.00     0.016 A 
ATOM     11  C   UNL A   1      41.908  26.216  28.552  1.00  0.00     0.010 A 
ATOM     12  C   UNL A   1      40.829  26.920  26.500  1.00  0.00     0.010 A 
ATOM     13  C   UNL A   1      41.398  27.228  27.734  1.00  0.00    -0.014 A 
BRANCH  13  14
ATOM     14  C   UNL A   1      41.333  28.569  28.312  1.00  0.00     0.031 A 
ATOM     15  C   UNL A   1      42.477  29.493  28.085  1.00  0.00     0.074 A 
ATOM     16  C   UNL A   1      40.281  28.952  29.064  1.00  0.00     0.049 A 
ATOM     17  N   UNL A   1      43.220  30.076  28.975  1.00  0.00    -0.248 NA
ATOM     18  C   UNL A   1      42.852  29.796  26.700  1.00  0.00     0.031 C 
ATOM     19  C   UNL A   1      38.983  28.283  29.215  1.00  0.00     0.029 A 
ATOM     20  N   UNL A   1      40.132  30.089  29.803  1.00  0.00    -0.354 N 
ATOM     21  C   UNL A   1      44.062  30.939  28.275  1.00  0.00     0.074 A 
ATOM     22  C   UNL A   1      43.842  30.673  26.876  1.00  0.00     0.031 C 
ATOM     23  C   UNL A   1      38.116  29.125  29.816  1.00  0.00     0.029 A 
ATOM     24  C   UNL A   1      38.831  30.325  30.214  1.00  0.00     0.049 A 
ATOM     25  H   UNL A   1      40.881  30.688  30.025  1.00  0.00     0.167 HD
ATOM     26  C   UNL A   1      44.758  31.931  28.899  1.00  0.00     0.037 A 
ATOM     27  C   UNL A   1      38.349  31.450  30.787  1.00  0.00     0.037 A 
ATOM     28  C   UNL A   1      44.965  31.642  30.293  1.00  0.00     0.049 A 
ATOM     29  C   UNL A   1      39.485  32.183  31.390  1.00  0.00     0.074 A 
ATOM     30  C   UNL A   1      45.587  30.626  30.995  1.00  0.00     0.029 A 
ATOM     31  N   UNL A   1      44.262  32.346  31.236  1.00  0.00    -0.354 N 
ATOM     32  N   UNL A   1      40.139  31.787  32.446  1.00  0.00    -0.248 NA
ATOM     33  C   UNL A   1      40.153  33.194  30.584  1.00  0.00     0.031 C 
ATOM     34  C   UNL A   1      44.831  30.483  32.196  1.00  0.00     0.029 A 
ATOM     35  C   UNL A   1      43.811  31.432  32.152  1.00  0.00     0.049 A 
ATOM     36  H   UNL A   1      44.111  33.319  31.253  1.00  0.00     0.167 HD
ATOM     37  C   UNL A   1      41.449  32.175  32.214  1.00  0.00     0.074 A 
ATOM     38  C   UNL A   1      41.374  33.134  31.118  1.00  0.00     0.031 C 
ATOM     39  C   UNL A   1      42.497  31.478  32.742  1.00  0.00     0.037 A 
BRANCH  26  40
ATOM     40  C   UNL A   1      44.982  33.311  28.319  1.00  0.00     0.064 A 
ATOM     41  C   UNL A   1      46.300  33.781  28.137  1.00  0.00     0.173 A 
ATOM     42  C   UNL A   1      43.974  34.295  28.236  1.00  0.00     0.173 A 
ATOM     43  F   UNL A   1      47.343  32.939  28.199  1.00  0.00    -0.203 F 
ATOM     44  C   UNL A   1      46.590  35.140  27.991  1.00  0.00     0.198 A 
ATOM     45  C   UNL A   1      44.263  35.645  28.039  1.00  0.00     0.198 A 
ATOM     46  F   UNL A   1      42.684  34.011  28.451  1.00  0.00    -0.203 F 
ATOM     47  F   UNL A   1      47.865  35.549  27.965  1.00  0.00    -0.200 F 
ATOM     48  C   UNL A   1      45.572  36.073  27.955  1.00  0.00     0.200 A 
ATOM     49  F   UNL A   1      43.264  36.537  28.017  1.00  0.00    -0.200 F 
ATOM     50  F   UNL A   1      45.848  37.381  27.890  1.00  0.00    -0.200 F 
ENDBRANCH  26  40
BRANCH  27  51
ATOM     51  C   UNL A   1      37.010  32.043  30.591  1.00  0.00     0.064 A 
ATOM     52  C   UNL A   1      36.042  32.018  31.604  1.00  0.00     0.173 A 
ATOM     53  C   UNL A   1      36.739  32.870  29.480  1.00  0.00     0.173 A 
ATOM     54  F   UNL A   1      36.248  31.301  32.717  1.00  0.00    -0.203 F 
ATOM     55  C   UNL A   1      34.873  32.782  31.514  1.00  0.00     0.198 A 
ATOM     56  C   UNL A   1      35.568  33.619  29.385  1.00  0.00     0.198 A 
ATOM     57  F   UNL A   1      37.646  33.036  28.506  1.00  0.00    -0.203 F 
ATOM     58  F   UNL A   1      33.993  32.779  32.525  1.00  0.00    -0.200 F 
ATOM     59  C   UNL A   1      34.640  33.584  30.407  1.00  0.00     0.200 A 
ATOM     60  F   UNL A   1      35.375  34.417  28.326  1.00  0.00    -0.200 F 
ATOM     61  F   UNL A   1      33.545  34.354  30.345  1.00  0.00    -0.200 F 
ENDBRANCH  27  51
BRANCH  39  62
ATOM     62  C   UNL A   1      42.199  30.466  33.810  1.00  0.00     0.064 A 
ATOM     63  C   UNL A   1      41.763  29.160  33.534  1.00  0.00     0.173 A 
ATOM     64  C   UNL A   1      42.503  30.781  35.141  1.00  0.00     0.173 A 
ATOM     65  F   UNL A   1      41.561  28.752  32.274  1.00  0.00    -0.203 F 
ATOM     66  C   UNL A   1      41.589  28.228  34.555  1.00  0.00     0.198 A 
ATOM     67  C   UNL A   1      42.362  29.838  36.155  1.00  0.00     0.198 A 
ATOM     68  F   UNL A   1      42.986  31.995  35.453  1.00  0.00    -0.203 F 
ATOM     69  F   UNL A   1      41.161  26.989  34.269  1.00  0.00    -0.200 F 
ATOM     70  C   UNL A   1      41.893  28.566  35.863  1.00  0.00     0.200 A 
ATOM     71  F   UNL A   1      42.708  30.151  37.411  1.00  0.00    -0.200 F 
ATOM     72  F   UNL A   1      41.766  27.657  36.841  1.00  0.00    -0.200 F 
ENDBRANCH  39  62
ENDBRANCH  13  14
ENDBRANCH   6   8
ENDBRANCH   5   6
ENDBRANCH   4   5
ENDBRANCH   3   4
ENDBRANCH   2   3
ENDBRANCH   1   2
BRANCH   1  73
ATOM     73  C   UNL A   1      34.013  21.376  24.493  1.00  0.00     0.188 C 
BRANCH  73  74
ATOM     74  O   UNL A   1      33.669  22.744  24.656  1.00  0.00    -0.376 OA
BRANCH  74  75
ATOM     75  C   UNL A   1      33.920  23.644  23.595  1.00  0.00     0.202 C 
BRANCH  75  76
ATOM     76  C   UNL A   1      33.088  23.476  22.326  1.00  0.00     0.261 C 
BRANCH  76  77
ATOM     77  O   UNL A   1      31.713  23.906  22.384  1.00  0.00    -0.459 OA
BRANCH  77  78
ATOM     78  C   UNL A   1      31.509  25.245  22.540  1.00  0.00     0.371 C 
ATOM     79  O   UNL A   1      32.078  26.110  21.877  1.00  0.00    -0.245 OA
BRANCH  78  80
ATOM     80  C   UNL A   1      30.485  25.618  23.630  1.00  0.00     0.345 C 
ATOM     81  C   UNL A   1      30.713  24.881  24.912  1.00  0.00     0.108 A 
ATOM     82  N   UNL A   1      30.359  27.070  23.913  1.00  0.00    -0.314 N 
ATOM     83  N   UNL A   1      30.618  23.540  25.160  1.00  0.00    -0.343 N 
ATOM     84  C   UNL A   1      30.987  25.452  26.135  1.00  0.00     0.074 A 
ATOM     85  C   UNL A   1      31.251  27.613  24.951  1.00  0.00     0.270 C 
ATOM     86  H   UNL A   1      29.467  27.107  24.406  1.00  0.00     0.349 HD
ATOM     87  C   UNL A   1      30.870  23.363  26.499  1.00  0.00     0.197 A 
ATOM     88  H   UNL A   1      30.410  22.836  24.506  1.00  0.00     0.167 HD
ATOM     89  N   UNL A   1      31.104  24.504  27.113  1.00  0.00    -0.241 NA
ATOM     90  C   UNL A   1      31.076  26.916  26.328  1.00  0.00     0.120 C 
BRANCH  82  91
ATOM     91  C   UNL A   1      30.048  27.930  22.775  1.00  0.00     0.303 C 
BRANCH  91  92
ATOM     92  C   UNL A   1      28.977  28.940  23.022  1.00  0.00     0.044 A 
ATOM     93  C   UNL A   1      29.142  30.338  23.261  1.00  0.00     0.051 A 
ATOM     94  C   UNL A   1      27.609  28.746  22.994  1.00  0.00     0.204 A 
ATOM     95  C   UNL A   1      27.880  30.867  23.407  1.00  0.00     0.195 A 
ATOM     96  O   UNL A   1      26.944  29.900  23.249  1.00  0.00    -0.472 OA
ENDBRANCH  91  92
ENDBRANCH  82  91
ENDBRANCH  78  80
ENDBRANCH  77  78
ENDBRANCH  76  77
ENDBRANCH  75  76
ENDBRANCH  74  75
ENDBRANCH  73  74
ENDBRANCH   1  73
TORSDOF 19
ENDMDL
MODEL 3
REMARK VINA RESULT:     -10.0      5.372     11.235
REMARK SMILES O=C(OCCOCCOCCOC(=O)[C@H]1c2[nH]cnc2CC[N@H+]1Cc1ccoc1)c1ccc(-c2c3nc(c(-c4c(F)c(F)c(F)c(F)c4F)c4ccc([nH]4)c(-c4c(F)c(F)c(F)c(F)c4F)c4nc(c(-c5c(F)c(F)c(F)c(F)c5F)c5ccc2[nH]5)C=C4)C=C3)cc1
REMARK SMILES IDX 7 1 6 2 5 3 4 4 3 5 2 6 1 7 30 8 31 9 92 10 32 11 91 12
REMARK SMILES IDX 33 13 34 14 35 15 85 16 36 17 90 18 84 19 86 20 37 21 89 22
REMARK SMILES IDX 83 23 82 24 38 26 70 27 50 28 69 29 51 30 54 31 68 32 87 33
REMARK SMILES IDX 52 34 53 35 67 37 88 38 55 39 39 40 40 41 48 42 41 43 42 44
REMARK SMILES IDX 46 45 49 46 43 47 44 48 47 49 45 50 71 51 72 52 80 53 73 54
REMARK SMILES IDX 74 55 78 56 81 57 75 58 76 59 79 60 77 61 56 62 57 63 65 64
REMARK SMILES IDX 58 65 59 66 63 67 66 68 60 69 61 70 64 71 62 72 8 73 9 74
REMARK SMILES IDX 10 75 11 76 12 77 13 78 14 79 15 80 16 81 23 82 17 83 20 84
REMARK SMILES IDX 22 85 18 87 19 89 21 90 24 91 25 92 26 93 29 94 27 95 28 96
REMARK H PARENT 86 25 54 36 23 86 17 88
REMARK Flexibility Score: inf
ROOT
ATOM      1  C   UNL A   1      40.577  21.345  27.378  1.00  0.00     0.188 C 
ENDROOT
BRANCH   1   2
ATOM      2  O   UNL A   1      41.758  20.838  26.774  1.00  0.00    -0.376 OA
BRANCH   2   3
ATOM      3  C   UNL A   1      42.125  19.529  27.166  1.00  0.00     0.202 C 
BRANCH   3   4
ATOM      4  C   UNL A   1      42.845  18.750  26.065  1.00  0.00     0.261 C 
BRANCH   4   5
ATOM      5  O   UNL A   1      44.100  19.312  25.643  1.00  0.00    -0.460 OA
BRANCH   5   6
ATOM      6  C   UNL A   1      44.352  20.248  24.703  1.00  0.00     0.338 C 
ATOM      7  O   UNL A   1      44.647  19.920  23.566  1.00  0.00    -0.246 OA
BRANCH   6   8
ATOM      8  C   UNL A   1      44.544  21.669  25.087  1.00  0.00     0.060 A 
ATOM      9  C   UNL A   1      45.383  22.103  26.110  1.00  0.00     0.016 A 
ATOM     10  C   UNL A   1      43.736  22.604  24.410  1.00  0.00     0.016 A 
ATOM     11  C   UNL A   1      45.355  23.433  26.510  1.00  0.00     0.010 A 
ATOM     12  C   UNL A   1      43.700  23.934  24.814  1.00  0.00     0.010 A 
ATOM     13  C   UNL A   1      44.457  24.324  25.917  1.00  0.00    -0.014 A 
BRANCH  13  14
ATOM     14  C   UNL A   1      44.232  25.590  26.612  1.00  0.00     0.031 A 
ATOM     15  C   UNL A   1      45.228  26.681  26.436  1.00  0.00     0.074 A 
ATOM     16  C   UNL A   1      43.167  25.758  27.422  1.00  0.00     0.049 A 
ATOM     17  N   UNL A   1      45.919  27.286  27.354  1.00  0.00    -0.248 NA
ATOM     18  C   UNL A   1      45.504  27.147  25.074  1.00  0.00     0.031 C 
ATOM     19  C   UNL A   1      41.979  24.904  27.549  1.00  0.00     0.029 A 
ATOM     20  N   UNL A   1      42.892  26.797  28.262  1.00  0.00    -0.354 N 
ATOM     21  C   UNL A   1      46.607  28.313  26.710  1.00  0.00     0.074 A 
ATOM     22  C   UNL A   1      46.371  28.136  25.299  1.00  0.00     0.031 C 
ATOM     23  C   UNL A   1      41.029  25.564  28.244  1.00  0.00     0.029 A 
ATOM     24  C   UNL A   1      41.588  26.814  28.727  1.00  0.00     0.049 A 
ATOM     25  H   UNL A   1      43.560  27.475  28.515  1.00  0.00     0.167 HD
ATOM     26  C   UNL A   1      47.184  29.337  27.399  1.00  0.00     0.037 A 
ATOM     27  C   UNL A   1      40.979  27.809  29.409  1.00  0.00     0.037 A 
ATOM     28  C   UNL A   1      47.482  28.965  28.757  1.00  0.00     0.049 A 
ATOM     29  C   UNL A   1      42.026  28.642  30.043  1.00  0.00     0.074 A 
ATOM     30  C   UNL A   1      48.264  27.991  29.350  1.00  0.00     0.029 A 
ATOM     31  N   UNL A   1      46.726  29.483  29.776  1.00  0.00    -0.354 N 
ATOM     32  N   UNL A   1      42.769  28.254  31.043  1.00  0.00    -0.248 NA
ATOM     33  C   UNL A   1      42.518  29.799  29.312  1.00  0.00     0.031 C 
ATOM     34  C   UNL A   1      47.582  27.644  30.553  1.00  0.00     0.029 A 
ATOM     35  C   UNL A   1      46.440  28.442  30.620  1.00  0.00     0.049 A 
ATOM     36  H   UNL A   1      46.444  30.420  29.883  1.00  0.00     0.167 HD
ATOM     37  C   UNL A   1      44.003  28.839  30.811  1.00  0.00     0.074 A 
ATOM     38  C   UNL A   1      43.756  29.866  29.805  1.00  0.00     0.031 C 
ATOM     39  C   UNL A   1      45.156  28.254  31.247  1.00  0.00     0.037 A 
BRANCH  26  40
ATOM     40  C   UNL A   1      47.194  30.778  26.937  1.00  0.00     0.064 A 
ATOM     41  C   UNL A   1      48.394  31.518  26.999  1.00  0.00     0.173 A 
ATOM     42  C   UNL A   1      46.024  31.542  26.742  1.00  0.00     0.173 A 
ATOM     43  F   UNL A   1      49.571  30.901  27.187  1.00  0.00    -0.203 F 
ATOM     44  C   UNL A   1      48.408  32.914  26.974  1.00  0.00     0.198 A 
ATOM     45  C   UNL A   1      46.046  32.935  26.666  1.00  0.00     0.198 A 
ATOM     46  F   UNL A   1      44.806  30.988  26.727  1.00  0.00    -0.203 F 
ATOM     47  F   UNL A   1      49.556  33.573  27.179  1.00  0.00    -0.200 F 
ATOM     48  C   UNL A   1      47.231  33.623  26.820  1.00  0.00     0.200 A 
ATOM     49  F   UNL A   1      44.895  33.606  26.526  1.00  0.00    -0.200 F 
ATOM     50  F   UNL A   1      47.230  34.961  26.869  1.00  0.00    -0.200 F 
ENDBRANCH  26  40
BRANCH  27  51
ATOM     51  C   UNL A   1      39.565  28.224  29.301  1.00  0.00     0.064 A 
ATOM     52  C   UNL A   1      38.724  28.261  30.422  1.00  0.00     0.173 A 
ATOM     53  C   UNL A   1      39.075  28.832  28.126  1.00  0.00     0.173 A 
ATOM     54  F   UNL A   1      39.138  27.754  31.592  1.00  0.00    -0.203 F 
ATOM     55  C   UNL A   1      37.469  28.877  30.373  1.00  0.00     0.198 A 
ATOM     56  C   UNL A   1      37.819  29.433  28.074  1.00  0.00     0.198 A 
ATOM     57  F   UNL A   1      39.842  28.933  27.031  1.00  0.00    -0.203 F 
ATOM     58  F   UNL A   1      36.714  28.944  31.477  1.00  0.00    -0.200 F 
ATOM     59  C   UNL A   1      37.021  29.466  29.200  1.00  0.00     0.200 A 
ATOM     60  F   UNL A   1      37.415  30.028  26.943  1.00  0.00    -0.200 F 
ATOM     61  F   UNL A   1      35.840  30.099  29.168  1.00  0.00    -0.200 F 
ENDBRANCH  27  51
BRANCH  39  62
ATOM     62  C   UNL A   1      45.041  27.126  32.230  1.00  0.00     0.064 A 
ATOM     63  C   UNL A   1      44.817  25.792  31.850  1.00  0.00     0.173 A 
ATOM     64  C   UNL A   1      45.311  27.378  33.581  1.00  0.00     0.173 A 
ATOM     65  F   UNL A   1      44.663  25.459  30.561  1.00  0.00    -0.203 F 
ATOM     66  C   UNL A   1      44.810  24.765  32.792  1.00  0.00     0.198 A 
ATOM     67  C   UNL A   1      45.339  26.346  34.515  1.00  0.00     0.198 A 
ATOM     68  F   UNL A   1      45.598  28.624  33.990  1.00  0.00    -0.203 F 
ATOM     69  F   UNL A   1      44.583  23.501  32.406  1.00  0.00    -0.200 F 
ATOM     70  C   UNL A   1      45.077  25.043  34.122  1.00  0.00     0.200 A 
ATOM     71  F   UNL A   1      45.651  26.610  35.792  1.00  0.00    -0.200 F 
ATOM     72  F   UNL A   1      45.112  24.050  35.022  1.00  0.00    -0.200 F 
ENDBRANCH  39  62
ENDBRANCH  13  14
ENDBRANCH   6   8
ENDBRANCH   5   6
ENDBRANCH   4   5
ENDBRANCH   3   4
ENDBRANCH   2   3
ENDBRANCH   1   2
BRANCH   1  73
ATOM     73  C   UNL A   1      39.638  22.123  26.429  1.00  0.00     0.188 C 
BRANCH  73  74
ATOM     74  O   UNL A   1      38.509  21.492  25.842  1.00  0.00    -0.376 OA
BRANCH  74  75
ATOM     75  C   UNL A   1      37.609  22.272  25.079  1.00  0.00     0.202 C 
BRANCH  75  76
ATOM     76  C   UNL A   1      37.312  23.683  25.579  1.00  0.00     0.261 C 
BRANCH  76  77
ATOM     77  O   UNL A   1      35.975  24.181  25.376  1.00  0.00    -0.459 OA
BRANCH  77  78
ATOM     78  C   UNL A   1      34.967  23.429  25.903  1.00  0.00     0.371 C 
ATOM     79  O   UNL A   1      34.908  23.087  27.083  1.00  0.00    -0.245 OA
BRANCH  78  80
ATOM     80  C   UNL A   1      33.870  23.028  24.898  1.00  0.00     0.345 C 
ATOM     81  C   UNL A   1      33.508  21.578  24.987  1.00  0.00     0.108 A 
ATOM     82  N   UNL A   1      32.633  23.846  24.947  1.00  0.00    -0.314 N 
ATOM     83  N   UNL A   1      34.280  20.482  24.716  1.00  0.00    -0.343 N 
ATOM     84  C   UNL A   1      32.264  21.072  25.290  1.00  0.00     0.074 A 
ATOM     85  C   UNL A   1      31.579  23.384  25.865  1.00  0.00     0.270 C 
ATOM     86  H   UNL A   1      32.201  23.621  24.051  1.00  0.00     0.349 HD
ATOM     87  C   UNL A   1      33.484  19.379  24.897  1.00  0.00     0.197 A 
ATOM     88  H   UNL A   1      35.225  20.484  24.442  1.00  0.00     0.167 HD
ATOM     89  N   UNL A   1      32.259  19.706  25.253  1.00  0.00    -0.241 NA
ATOM     90  C   UNL A   1      31.096  21.940  25.557  1.00  0.00     0.120 C 
BRANCH  82  91
ATOM     91  C   UNL A   1      32.799  25.288  24.786  1.00  0.00     0.303 C 
BRANCH  91  92
ATOM     92  C   UNL A   1      32.979  25.749  23.378  1.00  0.00     0.044 A 
ATOM     93  C   UNL A   1      32.355  25.224  22.207  1.00  0.00     0.051 A 
ATOM     94  C   UNL A   1      33.724  26.824  22.929  1.00  0.00     0.204 A 
ATOM     95  C   UNL A   1      32.801  25.978  21.147  1.00  0.00     0.195 A 
ATOM     96  O   UNL A   1      33.638  26.951  21.581  1.00  0.00    -0.472 OA
ENDBRANCH  91  92
ENDBRANCH  82  91
ENDBRANCH  78  80
ENDBRANCH  77  78
ENDBRANCH  76  77
ENDBRANCH  75  76
ENDBRANCH  74  75
ENDBRANCH  73  74
ENDBRANCH   1  73
TORSDOF 19
ENDMDL
