MODEL 1
REMARK VINA RESULT:     -10.5      0.000      0.000
REMARK SMILES O=C(OCCOCCOCCOC(=O)c1cccc(N2CCCCC2)n1)c1ccc(-c2c3nc(c(-c4c(F)c(F)c(F)c(F)c4F)c4ccc([nH]4)c(-c4c(F)c(F)c(F)c(F)c4F)c4nc(c(-c5c(F)c(F)c(F)c(F)c5F)c5ccc2[nH]5)C=C4)C=C3)cc1
REMARK SMILES IDX 7 1 6 2 5 3 4 4 3 5 2 6 1 7 27 8 28 9 89 10 29 11 88 12
REMARK SMILES IDX 30 13 31 14 32 15 82 16 33 17 87 18 81 19 83 20 34 21 86 22
REMARK SMILES IDX 80 23 79 24 35 26 67 27 47 28 66 29 48 30 51 31 65 32 84 33
REMARK SMILES IDX 49 34 50 35 64 37 85 38 52 39 36 40 37 41 45 42 38 43 39 44
REMARK SMILES IDX 43 45 46 46 40 47 41 48 44 49 42 50 68 51 69 52 77 53 70 54
REMARK SMILES IDX 71 55 75 56 78 57 72 58 73 59 76 60 74 61 53 62 54 63 62 64
REMARK SMILES IDX 55 65 56 66 60 67 63 68 57 69 58 70 61 71 59 72 8 73 9 74
REMARK SMILES IDX 10 75 11 76 12 77 13 78 14 79 15 80 16 81 26 82 17 83 19 84
REMARK SMILES IDX 18 85 20 86 21 87 25 88 22 89 24 90 23 91
REMARK H PARENT 83 25 51 36
REMARK Flexibility Score: inf
ROOT
ATOM      1  C   UNL A   1      35.515  33.381  28.673  1.00  0.00     0.188 C 
ENDROOT
BRANCH   1   2
ATOM      2  O   UNL A   1      34.955  34.656  29.019  1.00  0.00    -0.376 OA
BRANCH   2   3
ATOM      3  C   UNL A   1      33.544  34.747  28.805  1.00  0.00     0.202 C 
BRANCH   3   4
ATOM      4  C   UNL A   1      32.892  35.974  29.449  1.00  0.00     0.261 C 
BRANCH   4   5
ATOM      5  O   UNL A   1      32.175  35.632  30.646  1.00  0.00    -0.460 OA
BRANCH   5   6
ATOM      6  C   UNL A   1      32.621  35.685  31.925  1.00  0.00     0.338 C 
ATOM      7  O   UNL A   1      31.928  36.246  32.773  1.00  0.00    -0.246 OA
BRANCH   6   8
ATOM      8  C   UNL A   1      33.889  35.039  32.385  1.00  0.00     0.060 A 
ATOM      9  C   UNL A   1      35.143  35.649  32.398  1.00  0.00     0.016 A 
ATOM     10  C   UNL A   1      33.785  33.739  32.911  1.00  0.00     0.016 A 
ATOM     11  C   UNL A   1      36.281  34.955  32.799  1.00  0.00     0.010 A 
ATOM     12  C   UNL A   1      34.913  33.064  33.392  1.00  0.00     0.010 A 
ATOM     13  C   UNL A   1      36.177  33.658  33.299  1.00  0.00    -0.014 A 
BRANCH  13  14
ATOM     14  C   UNL A   1      37.408  32.902  33.620  1.00  0.00     0.031 A 
ATOM     15  C   UNL A   1      38.085  33.146  34.935  1.00  0.00     0.074 A 
ATOM     16  C   UNL A   1      37.861  31.945  32.788  1.00  0.00     0.049 A 
ATOM     17  N   UNL A   1      39.208  32.660  35.394  1.00  0.00    -0.248 NA
ATOM     18  C   UNL A   1      37.396  34.054  35.866  1.00  0.00     0.031 C 
ATOM     19  C   UNL A   1      37.219  31.543  31.538  1.00  0.00     0.029 A 
ATOM     20  N   UNL A   1      38.955  31.122  32.882  1.00  0.00    -0.354 N 
ATOM     21  C   UNL A   1      39.369  33.218  36.654  1.00  0.00     0.074 A 
ATOM     22  C   UNL A   1      38.242  34.095  36.882  1.00  0.00     0.031 C 
ATOM     23  C   UNL A   1      37.921  30.538  30.993  1.00  0.00     0.029 A 
ATOM     24  C   UNL A   1      39.102  30.284  31.805  1.00  0.00     0.049 A 
ATOM     25  H   UNL A   1      39.575  31.133  33.647  1.00  0.00     0.167 HD
ATOM     26  C   UNL A   1      40.365  33.006  37.545  1.00  0.00     0.037 A 
ATOM     27  C   UNL A   1      40.099  29.436  31.489  1.00  0.00     0.037 A 
ATOM     28  C   UNL A   1      41.471  32.119  37.314  1.00  0.00     0.049 A 
ATOM     29  C   UNL A   1      41.253  29.301  32.441  1.00  0.00     0.074 A 
ATOM     30  C   UNL A   1      42.555  31.855  38.129  1.00  0.00     0.029 A 
ATOM     31  N   UNL A   1      41.626  31.344  36.173  1.00  0.00    -0.354 N 
ATOM     32  N   UNL A   1      41.429  29.873  33.607  1.00  0.00    -0.248 NA
ATOM     33  C   UNL A   1      42.350  28.413  32.034  1.00  0.00     0.031 C 
ATOM     34  C   UNL A   1      43.384  30.941  37.467  1.00  0.00     0.029 A 
ATOM     35  C   UNL A   1      42.798  30.612  36.254  1.00  0.00     0.049 A 
ATOM     36  H   UNL A   1      40.995  31.317  35.418  1.00  0.00     0.167 HD
ATOM     37  C   UNL A   1      42.642  29.404  34.084  1.00  0.00     0.074 A 
ATOM     38  C   UNL A   1      43.156  28.488  33.085  1.00  0.00     0.031 C 
ATOM     39  C   UNL A   1      43.275  29.702  35.245  1.00  0.00     0.037 A 
BRANCH  26  40
ATOM     40  C   UNL A   1      40.308  33.791  38.820  1.00  0.00     0.064 A 
ATOM     41  C   UNL A   1      39.539  33.365  39.914  1.00  0.00     0.173 A 
ATOM     42  C   UNL A   1      40.997  35.006  38.931  1.00  0.00     0.173 A 
ATOM     43  F   UNL A   1      38.839  32.224  39.844  1.00  0.00    -0.203 F 
ATOM     44  C   UNL A   1      39.437  34.148  41.062  1.00  0.00     0.198 A 
ATOM     45  C   UNL A   1      40.911  35.774  40.090  1.00  0.00     0.198 A 
ATOM     46  F   UNL A   1      41.739  35.459  37.910  1.00  0.00    -0.203 F 
ATOM     47  F   UNL A   1      38.648  33.753  42.071  1.00  0.00    -0.200 F 
ATOM     48  C   UNL A   1      40.123  35.349  41.149  1.00  0.00     0.200 A 
ATOM     49  F   UNL A   1      41.574  36.936  40.172  1.00  0.00    -0.200 F 
ATOM     50  F   UNL A   1      40.012  36.108  42.248  1.00  0.00    -0.200 F 
ENDBRANCH  26  40
BRANCH  27  51
ATOM     51  C   UNL A   1      40.069  28.700  30.196  1.00  0.00     0.064 A 
ATOM     52  C   UNL A   1      40.660  29.228  29.041  1.00  0.00     0.173 A 
ATOM     53  C   UNL A   1      39.449  27.444  30.093  1.00  0.00     0.173 A 
ATOM     54  F   UNL A   1      41.248  30.432  29.080  1.00  0.00    -0.203 F 
ATOM     55  C   UNL A   1      40.621  28.535  27.830  1.00  0.00     0.198 A 
ATOM     56  C   UNL A   1      39.436  26.740  28.892  1.00  0.00     0.198 A 
ATOM     57  F   UNL A   1      38.873  26.887  31.169  1.00  0.00    -0.203 F 
ATOM     58  F   UNL A   1      41.163  29.079  26.732  1.00  0.00    -0.200 F 
ATOM     59  C   UNL A   1      40.015  27.290  27.759  1.00  0.00     0.200 A 
ATOM     60  F   UNL A   1      38.869  25.527  28.835  1.00  0.00    -0.200 F 
ATOM     61  F   UNL A   1      39.987  26.620  26.599  1.00  0.00    -0.200 F 
ENDBRANCH  27  51
BRANCH  39  62
ATOM     62  C   UNL A   1      44.576  29.008  35.503  1.00  0.00     0.064 A 
ATOM     63  C   UNL A   1      44.627  27.771  36.160  1.00  0.00     0.173 A 
ATOM     64  C   UNL A   1      45.779  29.567  35.047  1.00  0.00     0.173 A 
ATOM     65  F   UNL A   1      43.502  27.210  36.630  1.00  0.00    -0.203 F 
ATOM     66  C   UNL A   1      45.841  27.123  36.363  1.00  0.00     0.198 A 
ATOM     67  C   UNL A   1      46.987  28.905  35.232  1.00  0.00     0.198 A 
ATOM     68  F   UNL A   1      45.776  30.749  34.412  1.00  0.00    -0.203 F 
ATOM     69  F   UNL A   1      45.873  25.957  37.024  1.00  0.00    -0.200 F 
ATOM     70  C   UNL A   1      47.018  27.687  35.892  1.00  0.00     0.200 A 
ATOM     71  F   UNL A   1      48.123  29.447  34.770  1.00  0.00    -0.200 F 
ATOM     72  F   UNL A   1      48.185  27.057  36.083  1.00  0.00    -0.200 F 
ENDBRANCH  39  62
ENDBRANCH  13  14
ENDBRANCH   6   8
ENDBRANCH   5   6
ENDBRANCH   4   5
ENDBRANCH   3   4
ENDBRANCH   2   3
ENDBRANCH   1   2
BRANCH   1  73
ATOM     73  C   UNL A   1      34.444  32.286  28.705  1.00  0.00     0.188 C 
BRANCH  73  74
ATOM     74  O   UNL A   1      34.254  31.598  27.462  1.00  0.00    -0.376 OA
BRANCH  74  75
ATOM     75  C   UNL A   1      34.742  30.263  27.389  1.00  0.00     0.202 C 
BRANCH  75  76
ATOM     76  C   UNL A   1      33.963  29.300  26.487  1.00  0.00     0.261 C 
BRANCH  76  77
ATOM     77  O   UNL A   1      33.337  28.199  27.169  1.00  0.00    -0.459 OA
BRANCH  77  78
ATOM     78  C   UNL A   1      31.984  28.162  27.034  1.00  0.00     0.357 C 
ATOM     79  O   UNL A   1      31.166  28.092  27.940  1.00  0.00    -0.244 OA
BRANCH  78  80
ATOM     80  C   UNL A   1      31.568  28.002  25.619  1.00  0.00     0.150 A 
ATOM     81  C   UNL A   1      31.507  26.693  25.153  1.00  0.00     0.036 A 
ATOM     82  N   UNL A   1      31.082  29.080  24.947  1.00  0.00    -0.224 NA
ATOM     83  C   UNL A   1      30.896  26.469  23.935  1.00  0.00     0.006 A 
ATOM     84  C   UNL A   1      30.417  28.839  23.791  1.00  0.00     0.129 A 
ATOM     85  C   UNL A   1      30.343  27.548  23.255  1.00  0.00     0.047 A 
BRANCH  84  86
ATOM     86  N   UNL A   1      29.724  29.880  23.201  1.00  0.00    -0.357 N 
ATOM     87  C   UNL A   1      29.364  31.020  24.031  1.00  0.00     0.118 C 
ATOM     88  C   UNL A   1      29.787  30.077  21.758  1.00  0.00     0.118 C 
ATOM     89  C   UNL A   1      28.073  31.669  23.525  1.00  0.00     0.022 C 
ATOM     90  C   UNL A   1      28.457  30.638  21.265  1.00  0.00     0.022 C 
ATOM     91  C   UNL A   1      28.092  31.915  22.016  1.00  0.00     0.004 C 
ENDBRANCH  84  86
ENDBRANCH  78  80
ENDBRANCH  77  78
ENDBRANCH  76  77
ENDBRANCH  75  76
ENDBRANCH  74  75
ENDBRANCH  73  74
ENDBRANCH   1  73
TORSDOF 18
ENDMDL
MODEL 2
REMARK VINA RESULT:     -10.4      6.953     11.314
REMARK SMILES O=C(OCCOCCOCCOC(=O)c1cccc(N2CCCCC2)n1)c1ccc(-c2c3nc(c(-c4c(F)c(F)c(F)c(F)c4F)c4ccc([nH]4)c(-c4c(F)c(F)c(F)c(F)c4F)c4nc(c(-c5c(F)c(F)c(F)c(F)c5F)c5ccc2[nH]5)C=C4)C=C3)cc1
REMARK SMILES IDX 7 1 6 2 5 3 4 4 3 5 2 6 1 7 27 8 28 9 89 10 29 11 88 12
REMARK SMILES IDX 30 13 31 14 32 15 82 16 33 17 87 18 81 19 83 20 34 21 86 22
REMARK SMILES IDX 80 23 79 24 35 26 67 27 47 28 66 29 48 30 51 31 65 32 84 33
REMARK SMILES IDX 49 34 50 35 64 37 85 38 52 39 36 40 37 41 45 42 38 43 39 44
REMARK SMILES IDX 43 45 46 46 40 47 41 48 44 49 42 50 68 51 69 52 77 53 70 54
REMARK SMILES IDX 71 55 75 56 78 57 72 58 73 59 76 60 74 61 53 62 54 63 62 64
REMARK SMILES IDX 55 65 56 66 60 67 63 68 57 69 58 70 61 71 59 72 8 73 9 74
REMARK SMILES IDX 10 75 11 76 12 77 13 78 14 79 15 80 16 81 26 82 17 83 19 84
REMARK SMILES IDX 18 85 20 86 21 87 25 88 22 89 24 90 23 91
REMARK H PARENT 83 25 51 36
REMARK Flexibility Score: inf
ROOT
ATOM      1  C   UNL A   1      37.060  22.922  24.910  1.00  0.00     0.188 C 
ENDROOT
BRANCH   1   2
ATOM      2  O   UNL A   1      38.082  21.998  25.313  1.00  0.00    -0.376 OA
BRANCH   2   3
ATOM      3  C   UNL A   1      37.654  20.634  25.337  1.00  0.00     0.202 C 
BRANCH   3   4
ATOM      4  C   UNL A   1      38.760  19.626  25.012  1.00  0.00     0.261 C 
BRANCH   4   5
ATOM      5  O   UNL A   1      39.668  19.457  26.113  1.00  0.00    -0.460 OA
BRANCH   5   6
ATOM      6  C   UNL A   1      41.014  19.623  26.112  1.00  0.00     0.338 C 
ATOM      7  O   UNL A   1      41.728  18.685  25.760  1.00  0.00    -0.246 OA
BRANCH   6   8
ATOM      8  C   UNL A   1      41.686  20.914  26.455  1.00  0.00     0.060 A 
ATOM      9  C   UNL A   1      42.174  21.255  27.717  1.00  0.00     0.016 A 
ATOM     10  C   UNL A   1      41.905  21.817  25.400  1.00  0.00     0.016 A 
ATOM     11  C   UNL A   1      42.744  22.501  27.959  1.00  0.00     0.010 A 
ATOM     12  C   UNL A   1      42.551  23.038  25.620  1.00  0.00     0.010 A 
ATOM     13  C   UNL A   1      42.939  23.403  26.915  1.00  0.00    -0.014 A 
BRANCH  13  14
ATOM     14  C   UNL A   1      43.450  24.760  27.211  1.00  0.00     0.031 A 
ATOM     15  C   UNL A   1      42.517  25.770  27.810  1.00  0.00     0.074 A 
ATOM     16  C   UNL A   1      44.750  25.058  27.033  1.00  0.00     0.049 A 
ATOM     17  N   UNL A   1      42.720  27.032  28.078  1.00  0.00    -0.248 NA
ATOM     18  C   UNL A   1      41.173  25.286  28.166  1.00  0.00     0.031 C 
ATOM     19  C   UNL A   1      45.771  24.122  26.565  1.00  0.00     0.029 A 
ATOM     20  N   UNL A   1      45.439  26.225  27.246  1.00  0.00    -0.354 N 
ATOM     21  C   UNL A   1      41.528  27.497  28.614  1.00  0.00     0.074 A 
ATOM     22  C   UNL A   1      40.597  26.390  28.613  1.00  0.00     0.031 C 
ATOM     23  C   UNL A   1      46.958  24.747  26.546  1.00  0.00     0.029 A 
ATOM     24  C   UNL A   1      46.769  26.142  26.915  1.00  0.00     0.049 A 
ATOM     25  H   UNL A   1      45.020  27.042  27.602  1.00  0.00     0.167 HD
ATOM     26  C   UNL A   1      41.241  28.736  29.075  1.00  0.00     0.037 A 
ATOM     27  C   UNL A   1      47.719  27.095  26.875  1.00  0.00     0.037 A 
ATOM     28  C   UNL A   1      42.180  29.824  29.085  1.00  0.00     0.049 A 
ATOM     29  C   UNL A   1      47.349  28.493  27.283  1.00  0.00     0.074 A 
ATOM     30  C   UNL A   1      41.988  31.130  29.494  1.00  0.00     0.029 A 
ATOM     31  N   UNL A   1      43.499  29.722  28.667  1.00  0.00    -0.354 N 
ATOM     32  N   UNL A   1      46.203  28.941  27.736  1.00  0.00    -0.248 NA
ATOM     33  C   UNL A   1      48.394  29.519  27.169  1.00  0.00     0.031 C 
ATOM     34  C   UNL A   1      43.186  31.828  29.293  1.00  0.00     0.029 A 
ATOM     35  C   UNL A   1      44.131  30.947  28.792  1.00  0.00     0.049 A 
ATOM     36  H   UNL A   1      43.924  28.898  28.332  1.00  0.00     0.167 HD
ATOM     37  C   UNL A   1      46.390  30.292  27.980  1.00  0.00     0.074 A 
ATOM     38  C   UNL A   1      47.766  30.590  27.635  1.00  0.00     0.031 C 
ATOM     39  C   UNL A   1      45.506  31.206  28.448  1.00  0.00     0.037 A 
BRANCH  26  40
ATOM     40  C   UNL A   1      39.841  28.971  29.554  1.00  0.00     0.064 A 
ATOM     41  C   UNL A   1      39.464  28.717  30.881  1.00  0.00     0.173 A 
ATOM     42  C   UNL A   1      38.855  29.414  28.662  1.00  0.00     0.173 A 
ATOM     43  F   UNL A   1      40.365  28.262  31.764  1.00  0.00    -0.203 F 
ATOM     44  C   UNL A   1      38.140  28.866  31.289  1.00  0.00     0.198 A 
ATOM     45  C   UNL A   1      37.537  29.586  29.079  1.00  0.00     0.198 A 
ATOM     46  F   UNL A   1      39.165  29.664  27.381  1.00  0.00    -0.203 F 
ATOM     47  F   UNL A   1      37.789  28.558  32.545  1.00  0.00    -0.200 F 
ATOM     48  C   UNL A   1      37.180  29.302  30.388  1.00  0.00     0.200 A 
ATOM     49  F   UNL A   1      36.610  30.006  28.207  1.00  0.00    -0.200 F 
ATOM     50  F   UNL A   1      35.904  29.432  30.778  1.00  0.00    -0.200 F 
ENDBRANCH  26  40
BRANCH  27  51
ATOM     51  C   UNL A   1      49.084  26.767  26.381  1.00  0.00     0.064 A 
ATOM     52  C   UNL A   1      50.080  26.296  27.246  1.00  0.00     0.173 A 
ATOM     53  C   UNL A   1      49.416  26.916  25.025  1.00  0.00     0.173 A 
ATOM     54  F   UNL A   1      49.819  26.153  28.553  1.00  0.00    -0.203 F 
ATOM     55  C   UNL A   1      51.359  25.998  26.776  1.00  0.00     0.198 A 
ATOM     56  C   UNL A   1      50.686  26.592  24.552  1.00  0.00     0.198 A 
ATOM     57  F   UNL A   1      48.501  27.358  24.150  1.00  0.00    -0.203 F 
ATOM     58  F   UNL A   1      52.304  25.582  27.631  1.00  0.00    -0.200 F 
ATOM     59  C   UNL A   1      51.659  26.140  25.430  1.00  0.00     0.200 A 
ATOM     60  F   UNL A   1      50.961  26.709  23.246  1.00  0.00    -0.200 F 
ATOM     61  F   UNL A   1      52.885  25.843  24.977  1.00  0.00    -0.200 F 
ENDBRANCH  27  51
BRANCH  39  62
ATOM     62  C   UNL A   1      46.011  32.602  28.637  1.00  0.00     0.064 A 
ATOM     63  C   UNL A   1      46.621  33.001  29.834  1.00  0.00     0.173 A 
ATOM     64  C   UNL A   1      45.924  33.534  27.593  1.00  0.00     0.173 A 
ATOM     65  F   UNL A   1      46.708  32.147  30.865  1.00  0.00    -0.203 F 
ATOM     66  C   UNL A   1      47.116  34.293  29.984  1.00  0.00     0.198 A 
ATOM     67  C   UNL A   1      46.440  34.817  27.738  1.00  0.00     0.198 A 
ATOM     68  F   UNL A   1      45.349  33.193  26.429  1.00  0.00    -0.203 F 
ATOM     69  F   UNL A   1      47.665  34.668  31.147  1.00  0.00    -0.200 F 
ATOM     70  C   UNL A   1      47.032  35.197  28.933  1.00  0.00     0.200 A 
ATOM     71  F   UNL A   1      46.366  35.687  26.721  1.00  0.00    -0.200 F 
ATOM     72  F   UNL A   1      47.515  36.438  29.077  1.00  0.00    -0.200 F 
ENDBRANCH  39  62
ENDBRANCH  13  14
ENDBRANCH   6   8
ENDBRANCH   5   6
ENDBRANCH   4   5
ENDBRANCH   3   4
ENDBRANCH   2   3
ENDBRANCH   1   2
BRANCH   1  73
ATOM     73  C   UNL A   1      36.216  23.362  26.111  1.00  0.00     0.188 C 
BRANCH  73  74
ATOM     74  O   UNL A   1      34.880  22.844  26.127  1.00  0.00    -0.376 OA
BRANCH  74  75
ATOM     75  C   UNL A   1      34.518  22.046  27.248  1.00  0.00     0.202 C 
BRANCH  75  76
ATOM     76  C   UNL A   1      33.248  22.460  27.999  1.00  0.00     0.261 C 
BRANCH  76  77
ATOM     77  O   UNL A   1      32.479  23.499  27.367  1.00  0.00    -0.459 OA
BRANCH  77  78
ATOM     78  C   UNL A   1      31.282  23.080  26.876  1.00  0.00     0.357 C 
ATOM     79  O   UNL A   1      30.243  22.950  27.509  1.00  0.00    -0.244 OA
BRANCH  78  80
ATOM     80  C   UNL A   1      31.393  22.577  25.485  1.00  0.00     0.150 A 
ATOM     81  C   UNL A   1      31.315  23.542  24.487  1.00  0.00     0.036 A 
ATOM     82  N   UNL A   1      31.765  21.285  25.277  1.00  0.00    -0.224 NA
ATOM     83  C   UNL A   1      31.655  23.170  23.201  1.00  0.00     0.006 A 
ATOM     84  C   UNL A   1      32.170  20.952  24.028  1.00  0.00     0.129 A 
ATOM     85  C   UNL A   1      32.091  21.869  22.973  1.00  0.00     0.047 A 
BRANCH  84  86
ATOM     86  N   UNL A   1      32.759  19.716  23.834  1.00  0.00    -0.357 N 
ATOM     87  C   UNL A   1      32.526  19.037  22.568  1.00  0.00     0.118 C 
ATOM     88  C   UNL A   1      33.935  19.337  24.607  1.00  0.00     0.118 C 
ATOM     89  C   UNL A   1      32.574  17.518  22.755  1.00  0.00     0.022 C 
ATOM     90  C   UNL A   1      33.912  17.833  24.860  1.00  0.00     0.022 C 
ATOM     91  C   UNL A   1      33.800  17.063  23.548  1.00  0.00     0.004 C 
ENDBRANCH  84  86
ENDBRANCH  78  80
ENDBRANCH  77  78
ENDBRANCH  76  77
ENDBRANCH  75  76
ENDBRANCH  74  75
ENDBRANCH  73  74
ENDBRANCH   1  73
TORSDOF 18
ENDMDL
MODEL 3
REMARK VINA RESULT:     -10.4      4.034      9.299
REMARK SMILES O=C(OCCOCCOCCOC(=O)c1cccc(N2CCCCC2)n1)c1ccc(-c2c3nc(c(-c4c(F)c(F)c(F)c(F)c4F)c4ccc([nH]4)c(-c4c(F)c(F)c(F)c(F)c4F)c4nc(c(-c5c(F)c(F)c(F)c(F)c5F)c5ccc2[nH]5)C=C4)C=C3)cc1
REMARK SMILES IDX 7 1 6 2 5 3 4 4 3 5 2 6 1 7 27 8 28 9 89 10 29 11 88 12
REMARK SMILES IDX 30 13 31 14 32 15 82 16 33 17 87 18 81 19 83 20 34 21 86 22
REMARK SMILES IDX 80 23 79 24 35 26 67 27 47 28 66 29 48 30 51 31 65 32 84 33
REMARK SMILES IDX 49 34 50 35 64 37 85 38 52 39 36 40 37 41 45 42 38 43 39 44
REMARK SMILES IDX 43 45 46 46 40 47 41 48 44 49 42 50 68 51 69 52 77 53 70 54
REMARK SMILES IDX 71 55 75 56 78 57 72 58 73 59 76 60 74 61 53 62 54 63 62 64
REMARK SMILES IDX 55 65 56 66 60 67 63 68 57 69 58 70 61 71 59 72 8 73 9 74
REMARK SMILES IDX 10 75 11 76 12 77 13 78 14 79 15 80 16 81 26 82 17 83 19 84
REMARK SMILES IDX 18 85 20 86 21 87 25 88 22 89 24 90 23 91
REMARK H PARENT 83 25 51 36
REMARK Flexibility Score: inf
ROOT
ATOM      1  C   UNL A   1      40.472  20.945  27.157  1.00  0.00     0.188 C 
ENDROOT
BRANCH   1   2
ATOM      2  O   UNL A   1      41.907  20.917  27.159  1.00  0.00    -0.376 OA
BRANCH   2   3
ATOM      3  C   UNL A   1      42.479  20.465  25.929  1.00  0.00     0.202 C 
BRANCH   3   4
ATOM      4  C   UNL A   1      43.611  21.353  25.404  1.00  0.00     0.261 C 
BRANCH   4   5
ATOM      5  O   UNL A   1      43.115  22.589  24.866  1.00  0.00    -0.460 OA
BRANCH   5   6
ATOM      6  C   UNL A   1      43.629  23.833  25.032  1.00  0.00     0.338 C 
ATOM      7  O   UNL A   1      44.540  24.203  24.293  1.00  0.00    -0.246 OA
BRANCH   6   8
ATOM      8  C   UNL A   1      43.103  24.818  26.027  1.00  0.00     0.060 A 
ATOM      9  C   UNL A   1      43.410  26.179  26.049  1.00  0.00     0.016 A 
ATOM     10  C   UNL A   1      42.172  24.339  26.964  1.00  0.00     0.016 A 
ATOM     11  C   UNL A   1      42.912  27.016  27.044  1.00  0.00     0.010 A 
ATOM     12  C   UNL A   1      41.604  25.192  27.917  1.00  0.00     0.010 A 
ATOM     13  C   UNL A   1      42.006  26.532  27.985  1.00  0.00    -0.014 A 
BRANCH  13  14
ATOM     14  C   UNL A   1      41.571  27.409  29.095  1.00  0.00     0.031 A 
ATOM     15  C   UNL A   1      42.382  27.439  30.355  1.00  0.00     0.074 A 
ATOM     16  C   UNL A   1      40.519  28.236  28.943  1.00  0.00     0.049 A 
ATOM     17  N   UNL A   1      42.152  28.067  31.477  1.00  0.00    -0.248 NA
ATOM     18  C   UNL A   1      43.633  26.663  30.344  1.00  0.00     0.031 C 
ATOM     19  C   UNL A   1      39.726  28.375  27.723  1.00  0.00     0.029 A 
ATOM     20  N   UNL A   1      39.951  29.130  29.815  1.00  0.00    -0.354 N 
ATOM     21  C   UNL A   1      43.214  27.746  32.310  1.00  0.00     0.074 A 
ATOM     22  C   UNL A   1      44.080  26.851  31.575  1.00  0.00     0.031 C 
ATOM     23  C   UNL A   1      38.788  29.314  27.919  1.00  0.00     0.029 A 
ATOM     24  C   UNL A   1      38.858  29.779  29.296  1.00  0.00     0.049 A 
ATOM     25  H   UNL A   1      40.294  29.291  30.724  1.00  0.00     0.167 HD
ATOM     26  C   UNL A   1      43.449  28.171  33.573  1.00  0.00     0.037 A 
ATOM     27  C   UNL A   1      37.984  30.621  29.880  1.00  0.00     0.037 A 
ATOM     28  C   UNL A   1      42.589  29.074  34.287  1.00  0.00     0.049 A 
ATOM     29  C   UNL A   1      38.201  30.992  31.320  1.00  0.00     0.074 A 
ATOM     30  C   UNL A   1      42.708  29.543  35.581  1.00  0.00     0.029 A 
ATOM     31  N   UNL A   1      41.444  29.650  33.753  1.00  0.00    -0.354 N 
ATOM     32  N   UNL A   1      39.176  30.641  32.122  1.00  0.00    -0.248 NA
ATOM     33  C   UNL A   1      37.195  31.865  31.940  1.00  0.00     0.031 C 
ATOM     34  C   UNL A   1      41.616  30.380  35.842  1.00  0.00     0.029 A 
ATOM     35  C   UNL A   1      40.837  30.458  34.698  1.00  0.00     0.049 A 
ATOM     36  H   UNL A   1      41.113  29.505  32.837  1.00  0.00     0.167 HD
ATOM     37  C   UNL A   1      38.918  31.262  33.333  1.00  0.00     0.074 A 
ATOM     38  C   UNL A   1      37.697  32.023  33.158  1.00  0.00     0.031 C 
ATOM     39  C   UNL A   1      39.626  31.209  34.487  1.00  0.00     0.037 A 
BRANCH  26  40
ATOM     40  C   UNL A   1      44.659  27.615  34.257  1.00  0.00     0.064 A 
ATOM     41  C   UNL A   1      45.905  28.258  34.189  1.00  0.00     0.173 A 
ATOM     42  C   UNL A   1      44.581  26.401  34.954  1.00  0.00     0.173 A 
ATOM     43  F   UNL A   1      46.036  29.406  33.509  1.00  0.00    -0.203 F 
ATOM     44  C   UNL A   1      47.037  27.686  34.767  1.00  0.00     0.198 A 
ATOM     45  C   UNL A   1      45.710  25.844  35.550  1.00  0.00     0.198 A 
ATOM     46  F   UNL A   1      43.415  25.746  35.041  1.00  0.00    -0.203 F 
ATOM     47  F   UNL A   1      48.228  28.284  34.637  1.00  0.00    -0.200 F 
ATOM     48  C   UNL A   1      46.937  26.482  35.448  1.00  0.00     0.200 A 
ATOM     49  F   UNL A   1      45.612  24.680  36.207  1.00  0.00    -0.200 F 
ATOM     50  F   UNL A   1      48.029  25.925  35.990  1.00  0.00    -0.200 F 
ENDBRANCH  26  40
BRANCH  27  51
ATOM     51  C   UNL A   1      36.808  31.121  29.119  1.00  0.00     0.064 A 
ATOM     52  C   UNL A   1      35.736  30.278  28.795  1.00  0.00     0.173 A 
ATOM     53  C   UNL A   1      36.731  32.459  28.703  1.00  0.00     0.173 A 
ATOM     54  F   UNL A   1      35.769  28.987  29.152  1.00  0.00    -0.203 F 
ATOM     55  C   UNL A   1      34.640  30.752  28.074  1.00  0.00     0.198 A 
ATOM     56  C   UNL A   1      35.623  32.938  28.008  1.00  0.00     0.198 A 
ATOM     57  F   UNL A   1      37.725  33.313  28.990  1.00  0.00    -0.203 F 
ATOM     58  F   UNL A   1      33.644  29.916  27.746  1.00  0.00    -0.200 F 
ATOM     59  C   UNL A   1      34.582  32.082  27.687  1.00  0.00     0.200 A 
ATOM     60  F   UNL A   1      35.562  34.230  27.658  1.00  0.00    -0.200 F 
ATOM     61  F   UNL A   1      33.523  32.539  27.004  1.00  0.00    -0.200 F 
ENDBRANCH  27  51
BRANCH  39  62
ATOM     62  C   UNL A   1      39.109  32.018  35.635  1.00  0.00     0.064 A 
ATOM     63  C   UNL A   1      38.262  31.458  36.601  1.00  0.00     0.173 A 
ATOM     64  C   UNL A   1      39.501  33.356  35.792  1.00  0.00     0.173 A 
ATOM     65  F   UNL A   1      37.846  30.188  36.479  1.00  0.00    -0.203 F 
ATOM     66  C   UNL A   1      37.815  32.214  37.681  1.00  0.00     0.198 A 
ATOM     67  C   UNL A   1      39.071  34.101  36.885  1.00  0.00     0.198 A 
ATOM     68  F   UNL A   1      40.312  33.932  34.891  1.00  0.00    -0.203 F 
ATOM     69  F   UNL A   1      36.979  31.671  38.576  1.00  0.00    -0.200 F 
ATOM     70  C   UNL A   1      38.226  33.532  37.825  1.00  0.00     0.200 A 
ATOM     71  F   UNL A   1      39.475  35.371  37.028  1.00  0.00    -0.200 F 
ATOM     72  F   UNL A   1      37.800  34.255  38.869  1.00  0.00    -0.200 F 
ENDBRANCH  39  62
ENDBRANCH  13  14
ENDBRANCH   6   8
ENDBRANCH   5   6
ENDBRANCH   4   5
ENDBRANCH   3   4
ENDBRANCH   2   3
ENDBRANCH   1   2
BRANCH   1  73
ATOM     73  C   UNL A   1      39.946  22.007  26.186  1.00  0.00     0.188 C 
BRANCH  73  74
ATOM     74  O   UNL A   1      38.518  22.088  26.102  1.00  0.00    -0.376 OA
BRANCH  74  75
ATOM     75  C   UNL A   1      37.865  21.083  25.334  1.00  0.00     0.202 C 
BRANCH  75  76
ATOM     76  C   UNL A   1      36.441  21.400  24.866  1.00  0.00     0.261 C 
BRANCH  76  77
ATOM     77  O   UNL A   1      35.540  21.829  25.904  1.00  0.00    -0.459 OA
BRANCH  77  78
ATOM     78  C   UNL A   1      35.145  23.125  25.791  1.00  0.00     0.357 C 
ATOM     79  O   UNL A   1      35.871  24.110  25.809  1.00  0.00    -0.244 OA
BRANCH  78  80
ATOM     80  C   UNL A   1      33.669  23.268  25.851  1.00  0.00     0.150 A 
ATOM     81  C   UNL A   1      33.048  22.651  26.931  1.00  0.00     0.036 A 
ATOM     82  N   UNL A   1      33.054  24.136  25.004  1.00  0.00    -0.224 NA
ATOM     83  C   UNL A   1      31.722  22.952  27.172  1.00  0.00     0.006 A 
ATOM     84  C   UNL A   1      31.777  24.483  25.295  1.00  0.00     0.129 A 
ATOM     85  C   UNL A   1      31.087  23.879  26.352  1.00  0.00     0.047 A 
BRANCH  84  86
ATOM     86  N   UNL A   1      31.200  25.523  24.589  1.00  0.00    -0.357 N 
ATOM     87  C   UNL A   1      29.927  26.047  25.060  1.00  0.00     0.118 C 
ATOM     88  C   UNL A   1      32.024  26.382  23.747  1.00  0.00     0.118 C 
ATOM     89  C   UNL A   1      29.104  26.594  23.891  1.00  0.00     0.022 C 
ATOM     90  C   UNL A   1      31.210  26.839  22.541  1.00  0.00     0.022 C 
ATOM     91  C   UNL A   1      29.917  27.517  22.982  1.00  0.00     0.004 C 
ENDBRANCH  84  86
ENDBRANCH  78  80
ENDBRANCH  77  78
ENDBRANCH  76  77
ENDBRANCH  75  76
ENDBRANCH  74  75
ENDBRANCH  73  74
ENDBRANCH   1  73
TORSDOF 18
ENDMDL
