MODEL 1
REMARK VINA RESULT:     -13.9      0.000      0.000
REMARK SMILES Cc1ccccc1[C@@H]1[NH2+][C@@H](C(=O)OCCOCCOCCOC(=O)c2ccc(-c3c4nc(c(-c5c(F)c(F)c(F)c(F)c5F)c5ccc([nH]5)c(-c5c(F)c(F)c(F)c(F)c5F)c5nc(c(-c6c(F)c(F)c(F)c(F)c6F)c6ccc3[nH]6)C=C5)C=C4)cc2)CC2=c3ccccc3=N[C@H]21
REMARK SMILES IDX 18 1 17 2 16 3 15 4 14 5 13 6 11 7 12 8 10 9 8 10 9 11 97 12
REMARK SMILES IDX 89 15 96 16 88 17 90 18 95 19 91 20 94 21 92 22 93 23 7 24
REMARK SMILES IDX 1 25 2 26 3 27 4 28 6 29 5 30 19 31 20 32 21 33 22 34 23 35
REMARK SMILES IDX 24 36 25 37 26 38 87 39 27 40 86 41 28 42 29 43 30 44 80 45
REMARK SMILES IDX 31 46 85 47 79 48 81 49 32 50 84 51 78 52 77 53 33 55 65 56
REMARK SMILES IDX 45 57 64 58 46 59 49 60 63 61 82 62 47 63 48 64 62 66 83 67
REMARK SMILES IDX 50 68 34 69 35 70 43 71 36 72 37 73 41 74 44 75 38 76 39 77
REMARK SMILES IDX 42 78 40 79 66 80 67 81 75 82 68 83 69 84 73 85 76 86 70 87
REMARK SMILES IDX 71 88 74 89 72 90 51 91 52 92 60 93 53 94 54 95 58 96 61 97
REMARK SMILES IDX 55 98 56 99 59 100 57 101
REMARK H PARENT 9 13 9 14 81 54 49 65
REMARK Flexibility Score: inf
ROOT
ATOM      1  C   UNL A   1      33.706  35.542  28.522  1.00  0.00     0.188 C 
ENDROOT
BRANCH   1   2
ATOM      2  C   UNL A   1      33.084  34.147  28.321  1.00  0.00     0.188 C 
BRANCH   2   3
ATOM      3  O   UNL A   1      33.747  33.030  27.678  1.00  0.00    -0.376 OA
BRANCH   3   4
ATOM      4  C   UNL A   1      34.085  31.775  28.317  1.00  0.00     0.202 C 
BRANCH   4   5
ATOM      5  C   UNL A   1      34.862  30.512  27.498  1.00  0.00     0.261 C 
BRANCH   5   6
ATOM      6  O   UNL A   1      34.387  28.961  27.379  1.00  0.00    -0.459 OA
BRANCH   6   7
ATOM      7  C   UNL A   1      33.388  28.270  26.650  1.00  0.00     0.365 C 
ATOM      8  O   UNL A   1      32.699  27.304  26.989  1.00  0.00    -0.245 OA
BRANCH   7   9
ATOM      9  C   UNL A   1      32.990  28.743  25.262  1.00  0.00     0.298 C 
ATOM     10  C   UNL A   1      31.085  27.754  23.736  1.00  0.00     0.243 C 
ATOM     11  N   UNL A   1      31.525  28.338  25.042  1.00  0.00    -0.326 N 
ATOM     12  C   UNL A   1      32.204  27.453  22.692  1.00  0.00     0.196 C 
ATOM     13  H   UNL A   1      31.300  27.650  25.760  1.00  0.00     0.347 HD
ATOM     14  H   UNL A   1      31.033  29.232  25.069  1.00  0.00     0.347 HD
ATOM     15  C   UNL A   1      33.423  27.051  23.468  1.00  0.00    -0.024 C 
ATOM     16  N   UNL A   1      31.887  26.254  21.853  1.00  0.00    -0.270 NA
ATOM     17  C   UNL A   1      34.017  28.106  24.327  1.00  0.00     0.111 C 
ATOM     18  C   UNL A   1      33.657  25.749  23.353  1.00  0.00     0.002 A 
ATOM     19  C   UNL A   1      32.732  25.361  22.275  1.00  0.00     0.066 A 
ATOM     20  C   UNL A   1      34.477  24.792  24.019  1.00  0.00     0.010 A 
ATOM     21  C   UNL A   1      32.885  23.985  21.754  1.00  0.00     0.028 A 
ATOM     22  C   UNL A   1      34.478  23.527  23.569  1.00  0.00     0.001 A 
ATOM     23  C   UNL A   1      33.728  23.146  22.381  1.00  0.00     0.002 A 
BRANCH  10  24
ATOM     24  C   UNL A   1      29.902  28.523  23.125  1.00  0.00     0.015 A 
ATOM     25  C   UNL A   1      28.125  26.825  23.877  1.00  0.00     0.045 C 
ATOM     26  C   UNL A   1      28.558  28.104  23.227  1.00  0.00    -0.042 A 
ATOM     27  C   UNL A   1      27.528  28.936  22.748  1.00  0.00     0.004 A 
ATOM     28  C   UNL A   1      27.803  30.150  22.129  1.00  0.00     0.000 A 
ATOM     29  C   UNL A   1      30.158  29.749  22.464  1.00  0.00     0.010 A 
ATOM     30  C   UNL A   1      29.122  30.551  21.970  1.00  0.00     0.001 A 
ENDBRANCH  10  24
ENDBRANCH   7   9
ENDBRANCH   6   7
ENDBRANCH   5   6
ENDBRANCH   4   5
ENDBRANCH   3   4
ENDBRANCH   2   3
ENDBRANCH   1   2
BRANCH   1  31
ATOM     31  O   UNL A   1      32.775  36.451  29.075  1.00  0.00    -0.376 OA
BRANCH  31  32
ATOM     32  C   UNL A   1      33.312  37.559  29.789  1.00  0.00     0.202 C 
BRANCH  32  33
ATOM     33  C   UNL A   1      33.068  37.526  31.320  1.00  0.00     0.261 C 
BRANCH  33  34
ATOM     34  O   UNL A   1      33.801  36.447  31.964  1.00  0.00    -0.460 OA
BRANCH  34  35
ATOM     35  C   UNL A   1      33.090  35.325  32.369  1.00  0.00     0.338 C 
ATOM     36  O   UNL A   1      31.912  35.312  32.583  1.00  0.00    -0.246 OA
BRANCH  35  37
ATOM     37  C   UNL A   1      34.054  34.187  32.659  1.00  0.00     0.060 A 
ATOM     38  C   UNL A   1      34.803  33.888  33.811  1.00  0.00     0.016 A 
ATOM     39  C   UNL A   1      34.425  33.482  31.573  1.00  0.00     0.016 A 
ATOM     40  C   UNL A   1      35.935  32.925  33.790  1.00  0.00     0.010 A 
ATOM     41  C   UNL A   1      35.644  32.817  31.591  1.00  0.00     0.010 A 
ATOM     42  C   UNL A   1      36.432  32.354  32.616  1.00  0.00    -0.014 A 
BRANCH  42  43
ATOM     43  C   UNL A   1      37.733  31.541  32.201  1.00  0.00     0.031 A 
ATOM     44  C   UNL A   1      38.066  30.214  31.254  1.00  0.00     0.074 A 
ATOM     45  C   UNL A   1      38.854  32.230  32.523  1.00  0.00     0.049 A 
ATOM     46  N   UNL A   1      39.243  29.605  31.279  1.00  0.00    -0.248 NA
ATOM     47  C   UNL A   1      37.257  29.420  30.271  1.00  0.00     0.031 C 
ATOM     48  C   UNL A   1      40.207  32.076  31.994  1.00  0.00     0.029 A 
ATOM     49  N   UNL A   1      39.004  33.174  33.551  1.00  0.00    -0.354 N 
ATOM     50  C   UNL A   1      39.327  28.658  30.245  1.00  0.00     0.074 A 
ATOM     51  C   UNL A   1      38.008  28.421  29.844  1.00  0.00     0.031 C 
ATOM     52  C   UNL A   1      41.073  32.589  32.878  1.00  0.00     0.029 A 
ATOM     53  C   UNL A   1      40.307  32.975  34.044  1.00  0.00     0.049 A 
ATOM     54  H   UNL A   1      38.341  33.832  33.861  1.00  0.00     0.167 HD
ATOM     55  C   UNL A   1      40.499  28.242  29.684  1.00  0.00     0.037 A 
ATOM     56  C   UNL A   1      40.515  32.562  35.324  1.00  0.00     0.037 A 
ATOM     57  C   UNL A   1      41.588  28.643  30.538  1.00  0.00     0.049 A 
ATOM     58  C   UNL A   1      41.343  31.308  35.436  1.00  0.00     0.074 A 
ATOM     59  C   UNL A   1      42.610  29.565  30.451  1.00  0.00     0.029 A 
ATOM     60  N   UNL A   1      41.559  28.192  31.846  1.00  0.00    -0.354 N 
ATOM     61  N   UNL A   1      41.655  30.547  34.425  1.00  0.00    -0.248 NA
ATOM     62  C   UNL A   1      41.877  30.797  36.691  1.00  0.00     0.031 C 
ATOM     63  C   UNL A   1      43.188  29.681  31.745  1.00  0.00     0.029 A 
ATOM     64  C   UNL A   1      42.531  28.805  32.594  1.00  0.00     0.049 A 
ATOM     65  H   UNL A   1      40.924  27.524  32.193  1.00  0.00     0.167 HD
ATOM     66  C   UNL A   1      42.343  29.442  34.861  1.00  0.00     0.074 A 
ATOM     67  C   UNL A   1      42.495  29.673  36.283  1.00  0.00     0.031 C 
ATOM     68  C   UNL A   1      42.672  28.436  33.993  1.00  0.00     0.037 A 
BRANCH  55  69
ATOM     69  C   UNL A   1      40.709  27.567  28.308  1.00  0.00     0.064 A 
ATOM     70  C   UNL A   1      40.285  26.227  28.114  1.00  0.00     0.173 A 
ATOM     71  C   UNL A   1      41.391  28.095  27.181  1.00  0.00     0.173 A 
ATOM     72  F   UNL A   1      39.608  25.570  29.063  1.00  0.00    -0.203 F 
ATOM     73  C   UNL A   1      40.552  25.491  26.946  1.00  0.00     0.198 A 
ATOM     74  C   UNL A   1      41.617  27.373  25.997  1.00  0.00     0.198 A 
ATOM     75  F   UNL A   1      41.928  29.315  27.156  1.00  0.00    -0.203 F 
ATOM     76  F   UNL A   1      40.173  24.208  26.866  1.00  0.00    -0.200 F 
ATOM     77  C   UNL A   1      41.216  26.065  25.885  1.00  0.00     0.200 A 
ATOM     78  F   UNL A   1      42.261  27.963  24.976  1.00  0.00    -0.200 F 
ATOM     79  F   UNL A   1      41.484  25.363  24.774  1.00  0.00    -0.200 F 
ENDBRANCH  55  69
BRANCH  56  80
ATOM     80  C   UNL A   1      39.440  33.028  36.246  1.00  0.00     0.064 A 
ATOM     81  C   UNL A   1      38.483  32.073  36.657  1.00  0.00     0.173 A 
ATOM     82  C   UNL A   1      39.577  34.176  37.035  1.00  0.00     0.173 A 
ATOM     83  F   UNL A   1      38.322  30.943  35.947  1.00  0.00    -0.203 F 
ATOM     84  C   UNL A   1      37.801  32.194  37.865  1.00  0.00     0.198 A 
ATOM     85  C   UNL A   1      38.854  34.315  38.227  1.00  0.00     0.198 A 
ATOM     86  F   UNL A   1      40.498  35.101  36.732  1.00  0.00    -0.203 F 
ATOM     87  F   UNL A   1      37.017  31.193  38.293  1.00  0.00    -0.200 F 
ATOM     88  C   UNL A   1      38.006  33.304  38.662  1.00  0.00     0.200 A 
ATOM     89  F   UNL A   1      39.083  35.366  39.028  1.00  0.00    -0.200 F 
ATOM     90  F   UNL A   1      37.441  33.371  39.877  1.00  0.00    -0.200 F 
ENDBRANCH  56  80
BRANCH  68  91
ATOM     91  C   UNL A   1      43.128  27.016  34.312  1.00  0.00     0.064 A 
ATOM     92  C   UNL A   1      42.310  26.006  34.841  1.00  0.00     0.173 A 
ATOM     93  C   UNL A   1      44.431  26.578  33.932  1.00  0.00     0.173 A 
ATOM     94  F   UNL A   1      41.029  26.224  35.150  1.00  0.00    -0.203 F 
ATOM     95  C   UNL A   1      42.762  24.692  35.019  1.00  0.00     0.198 A 
ATOM     96  C   UNL A   1      44.852  25.252  34.042  1.00  0.00     0.198 A 
ATOM     97  F   UNL A   1      45.338  27.413  33.408  1.00  0.00    -0.203 F 
ATOM     98  F   UNL A   1      41.944  23.784  35.570  1.00  0.00    -0.200 F 
ATOM     99  C   UNL A   1      44.022  24.310  34.603  1.00  0.00     0.200 A 
ATOM    100  F   UNL A   1      46.058  24.895  33.577  1.00  0.00    -0.200 F 
ATOM    101  F   UNL A   1      44.425  23.039  34.724  1.00  0.00    -0.200 F 
ENDBRANCH  68  91
ENDBRANCH  42  43
ENDBRANCH  35  37
ENDBRANCH  34  35
ENDBRANCH  33  34
ENDBRANCH  32  33
ENDBRANCH  31  32
ENDBRANCH   1  31
TORSDOF 18
ENDMDL
MODEL 2
REMARK VINA RESULT:     -13.4      3.558      9.502
REMARK SMILES Cc1ccccc1[C@@H]1[NH2+][C@@H](C(=O)OCCOCCOCCOC(=O)c2ccc(-c3c4nc(c(-c5c(F)c(F)c(F)c(F)c5F)c5ccc([nH]5)c(-c5c(F)c(F)c(F)c(F)c5F)c5nc(c(-c6c(F)c(F)c(F)c(F)c6F)c6ccc3[nH]6)C=C5)C=C4)cc2)CC2=c3ccccc3=N[C@H]21
REMARK SMILES IDX 18 1 17 2 16 3 15 4 14 5 13 6 11 7 12 8 10 9 8 10 9 11 97 12
REMARK SMILES IDX 89 15 96 16 88 17 90 18 95 19 91 20 94 21 92 22 93 23 7 24
REMARK SMILES IDX 1 25 2 26 3 27 4 28 6 29 5 30 19 31 20 32 21 33 22 34 23 35
REMARK SMILES IDX 24 36 25 37 26 38 87 39 27 40 86 41 28 42 29 43 30 44 80 45
REMARK SMILES IDX 31 46 85 47 79 48 81 49 32 50 84 51 78 52 77 53 33 55 65 56
REMARK SMILES IDX 45 57 64 58 46 59 49 60 63 61 82 62 47 63 48 64 62 66 83 67
REMARK SMILES IDX 50 68 34 69 35 70 43 71 36 72 37 73 41 74 44 75 38 76 39 77
REMARK SMILES IDX 42 78 40 79 66 80 67 81 75 82 68 83 69 84 73 85 76 86 70 87
REMARK SMILES IDX 71 88 74 89 72 90 51 91 52 92 60 93 53 94 54 95 58 96 61 97
REMARK SMILES IDX 55 98 56 99 59 100 57 101
REMARK H PARENT 9 13 9 14 81 54 49 65
REMARK Flexibility Score: inf
ROOT
ATOM      1  C   UNL A   1      34.765  23.028  26.590  1.00  0.00     0.188 C 
ENDROOT
BRANCH   1   2
ATOM      2  C   UNL A   1      33.464  22.687  27.342  1.00  0.00     0.188 C 
BRANCH   2   3
ATOM      3  O   UNL A   1      32.189  23.342  27.128  1.00  0.00    -0.376 OA
BRANCH   3   4
ATOM      4  C   UNL A   1      31.970  24.494  26.279  1.00  0.00     0.202 C 
BRANCH   4   5
ATOM      5  C   UNL A   1      32.204  26.085  26.815  1.00  0.00     0.261 C 
BRANCH   5   6
ATOM      6  O   UNL A   1      33.469  27.061  26.512  1.00  0.00    -0.459 OA
BRANCH   6   7
ATOM      7  C   UNL A   1      33.622  28.402  26.081  1.00  0.00     0.365 C 
ATOM      8  O   UNL A   1      34.189  29.344  26.641  1.00  0.00    -0.245 OA
BRANCH   7   9
ATOM      9  C   UNL A   1      33.100  28.832  24.720  1.00  0.00     0.298 C 
ATOM     10  C   UNL A   1      31.044  27.825  23.420  1.00  0.00     0.243 C 
ATOM     11  N   UNL A   1      31.615  28.448  24.655  1.00  0.00    -0.326 N 
ATOM     12  C   UNL A   1      32.054  27.466  22.286  1.00  0.00     0.196 C 
ATOM     13  H   UNL A   1      31.449  27.790  25.416  1.00  0.00     0.347 HD
ATOM     14  H   UNL A   1      31.142  29.351  24.696  1.00  0.00     0.347 HD
ATOM     15  C   UNL A   1      33.334  27.070  22.958  1.00  0.00    -0.024 C 
ATOM     16  N   UNL A   1      31.639  26.245  21.526  1.00  0.00    -0.270 NA
ATOM     17  C   UNL A   1      34.024  28.143  23.717  1.00  0.00     0.111 C 
ATOM     18  C   UNL A   1      33.536  25.760  22.870  1.00  0.00     0.002 A 
ATOM     19  C   UNL A   1      32.507  25.352  21.899  1.00  0.00     0.066 A 
ATOM     20  C   UNL A   1      34.402  24.813  23.491  1.00  0.00     0.010 A 
ATOM     21  C   UNL A   1      32.589  23.955  21.418  1.00  0.00     0.028 A 
ATOM     22  C   UNL A   1      34.340  23.532  23.090  1.00  0.00     0.001 A 
ATOM     23  C   UNL A   1      33.475  23.124  21.993  1.00  0.00     0.002 A 
BRANCH  10  24
ATOM     24  C   UNL A   1      29.820  28.594  22.895  1.00  0.00     0.015 A 
ATOM     25  C   UNL A   1      28.097  26.959  23.876  1.00  0.00     0.045 C 
ATOM     26  C   UNL A   1      28.485  28.205  23.140  1.00  0.00    -0.042 A 
ATOM     27  C   UNL A   1      27.428  29.039  22.730  1.00  0.00     0.004 A 
ATOM     28  C   UNL A   1      27.661  30.224  22.043  1.00  0.00     0.000 A 
ATOM     29  C   UNL A   1      30.030  29.791  22.167  1.00  0.00     0.010 A 
ATOM     30  C   UNL A   1      28.964  30.594  21.744  1.00  0.00     0.001 A 
ENDBRANCH  10  24
ENDBRANCH   7   9
ENDBRANCH   6   7
ENDBRANCH   5   6
ENDBRANCH   4   5
ENDBRANCH   3   4
ENDBRANCH   2   3
ENDBRANCH   1   2
BRANCH   1  31
ATOM     31  O   UNL A   1      35.612  21.902  26.481  1.00  0.00    -0.376 OA
BRANCH  31  32
ATOM     32  C   UNL A   1      36.573  21.926  25.432  1.00  0.00     0.202 C 
BRANCH  32  33
ATOM     33  C   UNL A   1      37.905  21.200  25.752  1.00  0.00     0.261 C 
BRANCH  33  34
ATOM     34  O   UNL A   1      39.060  22.045  25.490  1.00  0.00    -0.460 OA
BRANCH  34  35
ATOM     35  C   UNL A   1      39.816  22.471  26.575  1.00  0.00     0.338 C 
ATOM     36  O   UNL A   1      40.286  21.742  27.400  1.00  0.00    -0.246 OA
BRANCH  35  37
ATOM     37  C   UNL A   1      39.802  23.989  26.640  1.00  0.00     0.060 A 
ATOM     38  C   UNL A   1      40.707  24.940  26.137  1.00  0.00     0.016 A 
ATOM     39  C   UNL A   1      38.906  24.499  27.508  1.00  0.00     0.016 A 
ATOM     40  C   UNL A   1      40.696  26.356  26.585  1.00  0.00     0.010 A 
ATOM     41  C   UNL A   1      39.142  25.754  28.053  1.00  0.00     0.010 A 
ATOM     42  C   UNL A   1      39.892  26.823  27.628  1.00  0.00    -0.014 A 
BRANCH  42  43
ATOM     43  C   UNL A   1      39.818  28.140  28.515  1.00  0.00     0.031 A 
ATOM     44  C   UNL A   1      38.760  29.414  28.682  1.00  0.00     0.074 A 
ATOM     45  C   UNL A   1      40.722  28.094  29.522  1.00  0.00     0.049 A 
ATOM     46  N   UNL A   1      39.080  30.515  29.348  1.00  0.00    -0.248 NA
ATOM     47  C   UNL A   1      37.367  29.670  28.187  1.00  0.00     0.031 C 
ATOM     48  C   UNL A   1      40.743  28.854  30.769  1.00  0.00     0.029 A 
ATOM     49  N   UNL A   1      41.938  27.392  29.539  1.00  0.00    -0.354 N 
ATOM     50  C   UNL A   1      37.949  31.332  29.515  1.00  0.00     0.074 A 
ATOM     51  C   UNL A   1      37.018  30.884  28.572  1.00  0.00     0.031 C 
ATOM     52  C   UNL A   1      41.997  28.867  31.242  1.00  0.00     0.029 A 
ATOM     53  C   UNL A   1      42.828  28.219  30.250  1.00  0.00     0.049 A 
ATOM     54  H   UNL A   1      42.127  26.512  29.140  1.00  0.00     0.167 HD
ATOM     55  C   UNL A   1      37.802  32.232  30.529  1.00  0.00     0.037 A 
ATOM     56  C   UNL A   1      43.927  28.745  29.644  1.00  0.00     0.037 A 
ATOM     57  C   UNL A   1      39.087  32.449  31.145  1.00  0.00     0.049 A 
ATOM     58  C   UNL A   1      44.017  30.246  29.733  1.00  0.00     0.074 A 
ATOM     59  C   UNL A   1      39.654  32.131  32.361  1.00  0.00     0.029 A 
ATOM     60  N   UNL A   1      40.108  32.895  30.325  1.00  0.00    -0.354 N 
ATOM     61  N   UNL A   1      43.045  31.012  30.144  1.00  0.00    -0.248 NA
ATOM     62  C   UNL A   1      45.195  31.014  29.355  1.00  0.00     0.031 C 
ATOM     63  C   UNL A   1      41.050  32.373  32.254  1.00  0.00     0.029 A 
ATOM     64  C   UNL A   1      41.309  32.866  30.985  1.00  0.00     0.049 A 
ATOM     65  H   UNL A   1      39.989  33.192  29.394  1.00  0.00     0.167 HD
ATOM     66  C   UNL A   1      43.404  32.332  30.031  1.00  0.00     0.074 A 
ATOM     67  C   UNL A   1      44.778  32.274  29.577  1.00  0.00     0.031 C 
ATOM     68  C   UNL A   1      42.500  33.327  30.289  1.00  0.00     0.037 A 
BRANCH  55  69
ATOM     69  C   UNL A   1      36.492  32.855  31.067  1.00  0.00     0.064 A 
ATOM     70  C   UNL A   1      35.803  33.818  30.285  1.00  0.00     0.173 A 
ATOM     71  C   UNL A   1      35.901  32.659  32.342  1.00  0.00     0.173 A 
ATOM     72  F   UNL A   1      36.204  34.121  29.045  1.00  0.00    -0.203 F 
ATOM     73  C   UNL A   1      34.682  34.532  30.746  1.00  0.00     0.198 A 
ATOM     74  C   UNL A   1      34.754  33.340  32.784  1.00  0.00     0.198 A 
ATOM     75  F   UNL A   1      36.408  31.844  33.266  1.00  0.00    -0.203 F 
ATOM     76  F   UNL A   1      34.127  35.474  29.970  1.00  0.00    -0.200 F 
ATOM     77  C   UNL A   1      34.155  34.291  31.995  1.00  0.00     0.200 A 
ATOM     78  F   UNL A   1      34.258  33.078  34.004  1.00  0.00    -0.200 F 
ATOM     79  F   UNL A   1      33.094  34.978  32.443  1.00  0.00    -0.200 F 
ENDBRANCH  55  69
BRANCH  56  80
ATOM     80  C   UNL A   1      44.444  27.866  28.557  1.00  0.00     0.064 A 
ATOM     81  C   UNL A   1      45.021  26.634  28.942  1.00  0.00     0.173 A 
ATOM     82  C   UNL A   1      44.012  27.982  27.230  1.00  0.00     0.173 A 
ATOM     83  F   UNL A   1      45.438  26.461  30.207  1.00  0.00    -0.203 F 
ATOM     84  C   UNL A   1      45.036  25.534  28.087  1.00  0.00     0.198 A 
ATOM     85  C   UNL A   1      44.071  26.885  26.360  1.00  0.00     0.198 A 
ATOM     86  F   UNL A   1      43.412  29.104  26.808  1.00  0.00    -0.203 F 
ATOM     87  F   UNL A   1      45.450  24.342  28.540  1.00  0.00    -0.200 F 
ATOM     88  C   UNL A   1      44.536  25.654  26.804  1.00  0.00     0.200 A 
ATOM     89  F   UNL A   1      43.545  26.981  25.130  1.00  0.00    -0.200 F 
ATOM     90  F   UNL A   1      44.443  24.572  26.017  1.00  0.00    -0.200 F 
ENDBRANCH  56  80
BRANCH  68  91
ATOM     91  C   UNL A   1      42.581  34.805  29.922  1.00  0.00     0.064 A 
ATOM     92  C   UNL A   1      43.385  35.754  30.571  1.00  0.00     0.173 A 
ATOM     93  C   UNL A   1      41.926  35.292  28.753  1.00  0.00     0.173 A 
ATOM     94  F   UNL A   1      44.148  35.434  31.621  1.00  0.00    -0.203 F 
ATOM     95  C   UNL A   1      43.492  37.077  30.125  1.00  0.00     0.198 A 
ATOM     96  C   UNL A   1      42.094  36.590  28.270  1.00  0.00     0.198 A 
ATOM     97  F   UNL A   1      41.122  34.517  28.012  1.00  0.00    -0.203 F 
ATOM     98  F   UNL A   1      44.244  37.946  30.815  1.00  0.00    -0.200 F 
ATOM     99  C   UNL A   1      42.865  37.490  28.966  1.00  0.00     0.200 A 
ATOM    100  F   UNL A   1      41.521  36.949  27.111  1.00  0.00    -0.200 F 
ATOM    101  F   UNL A   1      43.019  38.742  28.515  1.00  0.00    -0.200 F 
ENDBRANCH  68  91
ENDBRANCH  42  43
ENDBRANCH  35  37
ENDBRANCH  34  35
ENDBRANCH  33  34
ENDBRANCH  32  33
ENDBRANCH  31  32
ENDBRANCH   1  31
TORSDOF 18
ENDMDL
MODEL 3
REMARK VINA RESULT:     -13.4      2.789      5.478
REMARK SMILES Cc1ccccc1[C@@H]1[NH2+][C@@H](C(=O)OCCOCCOCCOC(=O)c2ccc(-c3c4nc(c(-c5c(F)c(F)c(F)c(F)c5F)c5ccc([nH]5)c(-c5c(F)c(F)c(F)c(F)c5F)c5nc(c(-c6c(F)c(F)c(F)c(F)c6F)c6ccc3[nH]6)C=C5)C=C4)cc2)CC2=c3ccccc3=N[C@H]21
REMARK SMILES IDX 18 1 17 2 16 3 15 4 14 5 13 6 11 7 12 8 10 9 8 10 9 11 97 12
REMARK SMILES IDX 89 15 96 16 88 17 90 18 95 19 91 20 94 21 92 22 93 23 7 24
REMARK SMILES IDX 1 25 2 26 3 27 4 28 6 29 5 30 19 31 20 32 21 33 22 34 23 35
REMARK SMILES IDX 24 36 25 37 26 38 87 39 27 40 86 41 28 42 29 43 30 44 80 45
REMARK SMILES IDX 31 46 85 47 79 48 81 49 32 50 84 51 78 52 77 53 33 55 65 56
REMARK SMILES IDX 45 57 64 58 46 59 49 60 63 61 82 62 47 63 48 64 62 66 83 67
REMARK SMILES IDX 50 68 34 69 35 70 43 71 36 72 37 73 41 74 44 75 38 76 39 77
REMARK SMILES IDX 42 78 40 79 66 80 67 81 75 82 68 83 69 84 73 85 76 86 70 87
REMARK SMILES IDX 71 88 74 89 72 90 51 91 52 92 60 93 53 94 54 95 58 96 61 97
REMARK SMILES IDX 55 98 56 99 59 100 57 101
REMARK H PARENT 9 13 9 14 81 54 49 65
REMARK Flexibility Score: inf
ROOT
ATOM      1  C   UNL A   1      31.767  28.075  25.665  1.00  0.00     0.188 C 
ENDROOT
BRANCH   1   2
ATOM      2  C   UNL A   1      31.224  28.526  24.295  1.00  0.00     0.188 C 
BRANCH   2   3
ATOM      3  O   UNL A   1      32.045  28.844  23.144  1.00  0.00    -0.376 OA
BRANCH   3   4
ATOM      4  C   UNL A   1      33.129  28.029  22.636  1.00  0.00     0.202 C 
BRANCH   4   5
ATOM      5  C   UNL A   1      32.874  26.689  21.630  1.00  0.00     0.261 C 
BRANCH   5   6
ATOM      6  O   UNL A   1      32.508  25.167  22.072  1.00  0.00    -0.459 OA
BRANCH   6   7
ATOM      7  C   UNL A   1      33.252  23.988  22.320  1.00  0.00     0.365 C 
ATOM      8  O   UNL A   1      33.641  23.126  21.527  1.00  0.00    -0.245 OA
BRANCH   7   9
ATOM      9  C   UNL A   1      33.742  23.674  23.724  1.00  0.00     0.298 C 
ATOM     10  C   UNL A   1      35.711  22.058  24.392  1.00  0.00     0.243 C 
ATOM     11  N   UNL A   1      35.208  23.231  23.610  1.00  0.00    -0.326 N 
ATOM     12  C   UNL A   1      34.648  21.245  25.195  1.00  0.00     0.196 C 
ATOM     13  H   UNL A   1      35.375  23.019  22.627  1.00  0.00     0.347 HD
ATOM     14  H   UNL A   1      35.717  24.014  24.021  1.00  0.00     0.347 HD
ATOM     15  C   UNL A   1      33.378  21.291  24.400  1.00  0.00    -0.024 C 
ATOM     16  N   UNL A   1      34.988  19.789  25.267  1.00  0.00    -0.270 NA
ATOM     17  C   UNL A   1      32.757  22.632  24.253  1.00  0.00     0.111 C 
ATOM     18  C   UNL A   1      33.122  20.117  23.836  1.00  0.00     0.002 A 
ATOM     19  C   UNL A   1      34.100  19.236  24.495  1.00  0.00     0.066 A 
ATOM     20  C   UNL A   1      32.243  19.637  22.821  1.00  0.00     0.010 A 
ATOM     21  C   UNL A   1      33.947  17.787  24.233  1.00  0.00     0.028 A 
ATOM     22  C   UNL A   1      32.241  18.321  22.547  1.00  0.00     0.001 A 
ATOM     23  C   UNL A   1      33.050  17.388  23.315  1.00  0.00     0.002 A 
BRANCH  10  24
ATOM     24  C   UNL A   1      36.945  22.411  25.239  1.00  0.00     0.015 A 
ATOM     25  C   UNL A   1      38.120  20.157  24.864  1.00  0.00     0.045 C 
ATOM     26  C   UNL A   1      38.047  21.548  25.417  1.00  0.00    -0.042 A 
ATOM     27  C   UNL A   1      39.188  22.004  26.103  1.00  0.00     0.004 A 
ATOM     28  C   UNL A   1      39.244  23.277  26.657  1.00  0.00     0.000 A 
ATOM     29  C   UNL A   1      37.013  23.693  25.839  1.00  0.00     0.010 A 
ATOM     30  C   UNL A   1      38.147  24.119  26.541  1.00  0.00     0.001 A 
ENDBRANCH  10  24
ENDBRANCH   7   9
ENDBRANCH   6   7
ENDBRANCH   5   6
ENDBRANCH   4   5
ENDBRANCH   3   4
ENDBRANCH   2   3
ENDBRANCH   1   2
BRANCH   1  31
ATOM     31  O   UNL A   1      31.485  29.025  26.673  1.00  0.00    -0.376 OA
BRANCH  31  32
ATOM     32  C   UNL A   1      31.822  30.378  26.387  1.00  0.00     0.202 C 
BRANCH  32  33
ATOM     33  C   UNL A   1      33.312  30.740  26.617  1.00  0.00     0.261 C 
BRANCH  33  34
ATOM     34  O   UNL A   1      33.560  31.175  27.984  1.00  0.00    -0.460 OA
BRANCH  34  35
ATOM     35  C   UNL A   1      34.158  32.414  28.176  1.00  0.00     0.338 C 
ATOM     36  O   UNL A   1      33.701  33.452  27.794  1.00  0.00    -0.246 OA
BRANCH  35  37
ATOM     37  C   UNL A   1      35.538  32.224  28.782  1.00  0.00     0.060 A 
ATOM     38  C   UNL A   1      36.698  33.015  28.694  1.00  0.00     0.016 A 
ATOM     39  C   UNL A   1      35.756  30.998  29.297  1.00  0.00     0.016 A 
ATOM     40  C   UNL A   1      38.037  32.499  29.079  1.00  0.00     0.010 A 
ATOM     41  C   UNL A   1      37.060  30.527  29.376  1.00  0.00     0.010 A 
ATOM     42  C   UNL A   1      38.274  31.166  29.423  1.00  0.00    -0.014 A 
BRANCH  42  43
ATOM     43  C   UNL A   1      39.555  30.244  29.615  1.00  0.00     0.031 A 
ATOM     44  C   UNL A   1      39.964  28.672  29.254  1.00  0.00     0.074 A 
ATOM     45  C   UNL A   1      40.636  30.986  29.955  1.00  0.00     0.049 A 
ATOM     46  N   UNL A   1      41.046  28.091  29.754  1.00  0.00    -0.248 NA
ATOM     47  C   UNL A   1      39.323  27.605  28.417  1.00  0.00     0.031 C 
ATOM     48  C   UNL A   1      42.052  30.646  29.843  1.00  0.00     0.029 A 
ATOM     49  N   UNL A   1      40.641  32.218  30.629  1.00  0.00    -0.354 N 
ATOM     50  C   UNL A   1      41.269  26.852  29.131  1.00  0.00     0.074 A 
ATOM     51  C   UNL A   1      40.054  26.511  28.526  1.00  0.00     0.031 C 
ATOM     52  C   UNL A   1      42.745  31.414  30.694  1.00  0.00     0.029 A 
ATOM     53  C   UNL A   1      41.780  32.178  31.455  1.00  0.00     0.049 A 
ATOM     54  H   UNL A   1      39.989  32.950  30.543  1.00  0.00     0.167 HD
ATOM     55  C   UNL A   1      42.492  26.257  29.031  1.00  0.00     0.037 A 
ATOM     56  C   UNL A   1      41.661  32.214  32.810  1.00  0.00     0.037 A 
ATOM     57  C   UNL A   1      43.398  26.906  29.944  1.00  0.00     0.049 A 
ATOM     58  C   UNL A   1      42.326  31.060  33.514  1.00  0.00     0.074 A 
ATOM     59  C   UNL A   1      44.494  27.732  29.811  1.00  0.00     0.029 A 
ATOM     60  N   UNL A   1      43.040  26.919  31.281  1.00  0.00    -0.354 N 
ATOM     61  N   UNL A   1      42.782  30.000  32.908  1.00  0.00    -0.248 NA
ATOM     62  C   UNL A   1      42.520  30.991  34.956  1.00  0.00     0.031 C 
ATOM     63  C   UNL A   1      44.781  28.266  31.097  1.00  0.00     0.029 A 
ATOM     64  C   UNL A   1      43.876  27.733  32.000  1.00  0.00     0.049 A 
ATOM     65  H   UNL A   1      42.286  26.414  31.663  1.00  0.00     0.167 HD
ATOM     66  C   UNL A   1      43.251  29.095  33.827  1.00  0.00     0.074 A 
ATOM     67  C   UNL A   1      43.107  29.787  35.091  1.00  0.00     0.031 C 
ATOM     68  C   UNL A   1      43.670  27.852  33.435  1.00  0.00     0.037 A 
BRANCH  55  69
ATOM     69  C   UNL A   1      42.937  25.157  28.038  1.00  0.00     0.064 A 
ATOM     70  C   UNL A   1      43.589  25.525  26.833  1.00  0.00     0.173 A 
ATOM     71  C   UNL A   1      42.686  23.763  28.123  1.00  0.00     0.173 A 
ATOM     72  F   UNL A   1      43.924  26.796  26.585  1.00  0.00    -0.203 F 
ATOM     73  C   UNL A   1      43.910  24.609  25.815  1.00  0.00     0.198 A 
ATOM     74  C   UNL A   1      43.049  22.842  27.124  1.00  0.00     0.198 A 
ATOM     75  F   UNL A   1      42.036  23.196  29.139  1.00  0.00    -0.203 F 
ATOM     76  F   UNL A   1      44.466  25.047  24.676  1.00  0.00    -0.200 F 
ATOM     77  C   UNL A   1      43.642  23.266  25.961  1.00  0.00     0.200 A 
ATOM     78  F   UNL A   1      42.782  21.538  27.300  1.00  0.00    -0.200 F 
ATOM     79  F   UNL A   1      43.936  22.392  24.988  1.00  0.00    -0.200 F 
ENDBRANCH  55  69
BRANCH  56  80
ATOM     80  C   UNL A   1      40.457  32.976  33.249  1.00  0.00     0.064 A 
ATOM     81  C   UNL A   1      39.299  32.229  33.561  1.00  0.00     0.173 A 
ATOM     82  C   UNL A   1      40.541  34.274  33.768  1.00  0.00     0.173 A 
ATOM     83  F   UNL A   1      39.174  30.972  33.103  1.00  0.00    -0.203 F 
ATOM     84  C   UNL A   1      38.343  32.702  34.457  1.00  0.00     0.198 A 
ATOM     85  C   UNL A   1      39.553  34.762  34.634  1.00  0.00     0.198 A 
ATOM     86  F   UNL A   1      41.632  35.022  33.553  1.00  0.00    -0.203 F 
ATOM     87  F   UNL A   1      37.339  31.903  34.846  1.00  0.00    -0.200 F 
ATOM     88  C   UNL A   1      38.485  33.959  35.013  1.00  0.00     0.200 A 
ATOM     89  F   UNL A   1      39.708  35.961  35.213  1.00  0.00    -0.200 F 
ATOM     90  F   UNL A   1      37.631  34.373  35.961  1.00  0.00    -0.200 F 
ENDBRANCH  56  80
BRANCH  68  91
ATOM     91  C   UNL A   1      43.912  26.615  34.293  1.00  0.00     0.064 A 
ATOM     92  C   UNL A   1      42.907  25.788  34.816  1.00  0.00     0.173 A 
ATOM     93  C   UNL A   1      45.237  26.128  34.493  1.00  0.00     0.173 A 
ATOM     94  F   UNL A   1      41.610  26.045  34.626  1.00  0.00    -0.203 F 
ATOM     95  C   UNL A   1      43.196  24.608  35.514  1.00  0.00     0.198 A 
ATOM     96  C   UNL A   1      45.517  24.915  35.123  1.00  0.00     0.198 A 
ATOM     97  F   UNL A   1      46.315  26.793  34.054  1.00  0.00    -0.203 F 
ATOM     98  F   UNL A   1      42.191  23.884  36.027  1.00  0.00    -0.200 F 
ATOM     99  C   UNL A   1      44.495  24.161  35.651  1.00  0.00     0.200 A 
ATOM    100  F   UNL A   1      46.782  24.475  35.191  1.00  0.00    -0.200 F 
ATOM    101  F   UNL A   1      44.757  23.003  36.270  1.00  0.00    -0.200 F 
ENDBRANCH  68  91
ENDBRANCH  42  43
ENDBRANCH  35  37
ENDBRANCH  34  35
ENDBRANCH  33  34
ENDBRANCH  32  33
ENDBRANCH  31  32
ENDBRANCH   1  31
TORSDOF 18
ENDMDL
