MODEL 1
REMARK VINA RESULT:     -11.8      0.000      0.000
REMARK SMILES CCC(=O)Nc1cc(NC(=O)/C=C/C(=O)OCCOCCOCCOC(=O)c2ccc(-c3c4nc(c(-c5c(F)c(F)c(F)c(F)c5F)c5ccc([nH]5)c(-c5c(F)c(F)c(F)c(F)c5F)c5nc(c(-c6c(F)c(F)c(F)c(F)c6F)c6ccc3[nH]6)C=C5)C=C4)cc2)ccc1C
REMARK SMILES IDX 20 1 19 2 18 3 17 4 16 5 14 6 15 7 13 8 12 9 10 10 9 11
REMARK SMILES IDX 11 13 8 14 6 15 7 16 93 17 92 18 94 19 91 20 5 21 3 22 4 23
REMARK SMILES IDX 2 25 1 26 21 27 22 28 23 29 24 30 25 31 26 32 27 33 28 34
REMARK SMILES IDX 29 35 90 36 30 37 89 38 31 39 32 40 33 41 83 42 34 43 88 44
REMARK SMILES IDX 82 45 84 46 35 47 87 48 81 49 80 50 36 52 68 53 48 54 67 55
REMARK SMILES IDX 49 56 52 57 66 58 85 59 50 60 51 61 65 63 86 64 53 65 37 66
REMARK SMILES IDX 38 67 46 68 39 69 40 70 44 71 47 72 41 73 42 74 45 75 43 76
REMARK SMILES IDX 69 77 70 78 78 79 71 80 72 81 76 82 79 83 73 84 74 85 77 86
REMARK SMILES IDX 75 87 54 88 55 89 63 90 56 91 57 92 61 93 64 94 58 95 59 96
REMARK SMILES IDX 62 97 60 98
REMARK H PARENT 9 12 5 24 84 51 52 62
REMARK Flexibility Score: inf
ROOT
ATOM      1  C   UNL A   1      40.452  19.455  25.912  1.00  0.00     0.188 C 
ENDROOT
BRANCH   1   2
ATOM      2  O   UNL A   1      39.591  20.600  25.817  1.00  0.00    -0.376 OA
BRANCH   2   3
ATOM      3  C   UNL A   1      39.591  21.878  26.457  1.00  0.00     0.202 C 
BRANCH   3   4
ATOM      4  C   UNL A   1      38.522  23.268  26.273  1.00  0.00     0.261 C 
BRANCH   4   5
ATOM      5  O   UNL A   1      37.022  23.603  25.643  1.00  0.00    -0.460 OA
BRANCH   5   6
ATOM      6  C   UNL A   1      36.062  23.235  24.720  1.00  0.00     0.331 C 
ATOM      7  O   UNL A   1      35.964  22.198  24.082  1.00  0.00    -0.247 OA
BRANCH   6   8
ATOM      8  C   UNL A   1      34.913  24.072  24.358  1.00  0.00     0.099 C 
ATOM      9  C   UNL A   1      34.302  24.552  25.480  1.00  0.00     0.079 C 
BRANCH   9  10
ATOM     10  C   UNL A   1      32.828  24.666  25.609  1.00  0.00     0.248 C 
ATOM     11  N   UNL A   1      32.015  23.586  25.358  1.00  0.00    -0.322 N 
ATOM     12  H   UNL A   1      31.129  23.688  25.772  1.00  0.00     0.170 HD
ATOM     13  O   UNL A   1      32.327  25.691  26.072  1.00  0.00    -0.270 OA
BRANCH  11  14
ATOM     14  C   UNL A   1      32.132  22.363  24.653  1.00  0.00     0.043 A 
ATOM     15  C   UNL A   1      32.700  19.980  24.347  1.00  0.00     0.046 A 
ATOM     16  C   UNL A   1      32.489  21.118  25.195  1.00  0.00     0.052 A 
ATOM     17  C   UNL A   1      32.328  20.057  22.994  1.00  0.00    -0.027 A 
ATOM     18  C   UNL A   1      32.095  21.328  22.454  1.00  0.00     0.008 A 
ATOM     19  C   UNL A   1      32.168  18.897  22.051  1.00  0.00     0.046 C 
ATOM     20  C   UNL A   1      32.054  22.464  23.262  1.00  0.00     0.026 A 
BRANCH  15  21
ATOM     21  N   UNL A   1      33.469  18.906  24.882  1.00  0.00    -0.326 N 
ATOM     22  C   UNL A   1      33.018  17.662  25.284  1.00  0.00     0.224 C 
ATOM     23  O   UNL A   1      32.151  17.434  26.126  1.00  0.00    -0.275 OA
ATOM     24  H   UNL A   1      34.436  19.069  24.975  1.00  0.00     0.169 HD
BRANCH  22  25
ATOM     25  C   UNL A   1      33.708  16.492  24.627  1.00  0.00     0.097 C 
ATOM     26  C   UNL A   1      34.760  17.045  23.673  1.00  0.00     0.014 C 
ENDBRANCH  22  25
ENDBRANCH  15  21
ENDBRANCH  11  14
ENDBRANCH   9  10
ENDBRANCH   6   8
ENDBRANCH   5   6
ENDBRANCH   4   5
ENDBRANCH   3   4
ENDBRANCH   2   3
ENDBRANCH   1   2
BRANCH   1  27
ATOM     27  C   UNL A   1      41.934  19.492  26.205  1.00  0.00     0.188 C 
BRANCH  27  28
ATOM     28  O   UNL A   1      42.674  19.457  25.009  1.00  0.00    -0.376 OA
BRANCH  28  29
ATOM     29  C   UNL A   1      43.774  20.356  25.008  1.00  0.00     0.202 C 
BRANCH  29  30
ATOM     30  C   UNL A   1      43.544  21.647  25.827  1.00  0.00     0.261 C 
BRANCH  30  31
ATOM     31  O   UNL A   1      42.890  22.654  25.014  1.00  0.00    -0.460 OA
BRANCH  31  32
ATOM     32  C   UNL A   1      43.177  23.983  25.278  1.00  0.00     0.338 C 
ATOM     33  O   UNL A   1      44.231  24.511  25.083  1.00  0.00    -0.246 OA
BRANCH  32  34
ATOM     34  C   UNL A   1      42.055  24.564  26.121  1.00  0.00     0.060 A 
ATOM     35  C   UNL A   1      41.220  25.629  25.753  1.00  0.00     0.016 A 
ATOM     36  C   UNL A   1      42.128  24.336  27.447  1.00  0.00     0.016 A 
ATOM     37  C   UNL A   1      40.677  26.581  26.735  1.00  0.00     0.010 A 
ATOM     38  C   UNL A   1      41.830  25.438  28.254  1.00  0.00     0.010 A 
ATOM     39  C   UNL A   1      41.075  26.607  28.062  1.00  0.00    -0.014 A 
BRANCH  39  40
ATOM     40  C   UNL A   1      40.857  27.751  29.225  1.00  0.00     0.031 A 
ATOM     41  C   UNL A   1      39.768  28.900  29.329  1.00  0.00     0.074 A 
ATOM     42  C   UNL A   1      41.628  27.831  30.331  1.00  0.00     0.049 A 
ATOM     43  N   UNL A   1      39.882  30.163  28.977  1.00  0.00    -0.248 NA
ATOM     44  C   UNL A   1      38.408  28.669  29.872  1.00  0.00     0.031 C 
ATOM     45  C   UNL A   1      41.466  28.740  31.474  1.00  0.00     0.029 A 
ATOM     46  N   UNL A   1      42.778  27.112  30.647  1.00  0.00    -0.354 N 
ATOM     47  C   UNL A   1      38.628  30.761  29.202  1.00  0.00     0.074 A 
ATOM     48  C   UNL A   1      37.688  29.691  29.404  1.00  0.00     0.031 C 
ATOM     49  C   UNL A   1      42.622  28.768  32.158  1.00  0.00     0.029 A 
ATOM     50  C   UNL A   1      43.584  27.961  31.428  1.00  0.00     0.049 A 
ATOM     51  H   UNL A   1      42.987  26.189  30.378  1.00  0.00     0.167 HD
ATOM     52  C   UNL A   1      38.395  31.950  29.850  1.00  0.00     0.037 A 
ATOM     53  C   UNL A   1      44.759  28.391  30.891  1.00  0.00     0.037 A 
ATOM     54  C   UNL A   1      39.547  32.322  30.627  1.00  0.00     0.049 A 
ATOM     55  C   UNL A   1      44.708  29.862  30.488  1.00  0.00     0.074 A 
ATOM     56  C   UNL A   1      39.901  32.185  31.958  1.00  0.00     0.029 A 
ATOM     57  N   UNL A   1      40.700  32.584  29.946  1.00  0.00    -0.354 N 
ATOM     58  N   UNL A   1      43.713  30.674  30.727  1.00  0.00    -0.248 NA
ATOM     59  C   UNL A   1      45.763  30.513  29.712  1.00  0.00     0.031 C 
ATOM     60  C   UNL A   1      41.311  32.371  32.052  1.00  0.00     0.029 A 
ATOM     61  C   UNL A   1      41.782  32.650  30.783  1.00  0.00     0.049 A 
ATOM     62  H   UNL A   1      40.749  32.711  28.971  1.00  0.00     0.167 HD
ATOM     63  C   UNL A   1      43.949  31.884  30.128  1.00  0.00     0.074 A 
ATOM     64  C   UNL A   1      45.246  31.735  29.503  1.00  0.00     0.031 C 
ATOM     65  C   UNL A   1      43.058  32.916  30.163  1.00  0.00     0.037 A 
BRANCH  52  66
ATOM     66  C   UNL A   1      36.986  32.485  30.075  1.00  0.00     0.064 A 
ATOM     67  C   UNL A   1      36.280  33.237  29.117  1.00  0.00     0.173 A 
ATOM     68  C   UNL A   1      36.297  32.261  31.290  1.00  0.00     0.173 A 
ATOM     69  F   UNL A   1      36.778  33.453  27.893  1.00  0.00    -0.203 F 
ATOM     70  C   UNL A   1      35.035  33.820  29.394  1.00  0.00     0.198 A 
ATOM     71  C   UNL A   1      35.065  32.865  31.576  1.00  0.00     0.198 A 
ATOM     72  F   UNL A   1      36.836  31.484  32.242  1.00  0.00    -0.203 F 
ATOM     73  F   UNL A   1      34.426  34.563  28.460  1.00  0.00    -0.200 F 
ATOM     74  C   UNL A   1      34.443  33.660  30.632  1.00  0.00     0.200 A 
ATOM     75  F   UNL A   1      34.500  32.701  32.781  1.00  0.00    -0.200 F 
ATOM     76  F   UNL A   1      33.284  34.274  30.915  1.00  0.00    -0.200 F 
ENDBRANCH  52  66
BRANCH  53  77
ATOM     77  C   UNL A   1      45.423  27.294  30.115  1.00  0.00     0.064 A 
ATOM     78  C   UNL A   1      45.258  27.194  28.722  1.00  0.00     0.173 A 
ATOM     79  C   UNL A   1      46.518  26.630  30.658  1.00  0.00     0.173 A 
ATOM     80  F   UNL A   1      44.255  27.852  28.122  1.00  0.00    -0.203 F 
ATOM     81  C   UNL A   1      46.180  26.512  27.918  1.00  0.00     0.198 A 
ATOM     82  C   UNL A   1      47.427  25.927  29.856  1.00  0.00     0.198 A 
ATOM     83  F   UNL A   1      46.773  26.814  31.958  1.00  0.00    -0.203 F 
ATOM     84  F   UNL A   1      46.042  26.517  26.584  1.00  0.00    -0.200 F 
ATOM     85  C   UNL A   1      47.277  25.894  28.485  1.00  0.00     0.200 A 
ATOM     86  F   UNL A   1      48.506  25.347  30.393  1.00  0.00    -0.200 F 
ATOM     87  F   UNL A   1      48.212  25.319  27.715  1.00  0.00    -0.200 F 
ENDBRANCH  53  77
BRANCH  65  88
ATOM     88  C   UNL A   1      43.296  34.294  29.603  1.00  0.00     0.064 A 
ATOM     89  C   UNL A   1      43.523  34.487  28.236  1.00  0.00     0.173 A 
ATOM     90  C   UNL A   1      43.504  35.426  30.431  1.00  0.00     0.173 A 
ATOM     91  F   UNL A   1      43.405  33.467  27.374  1.00  0.00    -0.203 F 
ATOM     92  C   UNL A   1      43.910  35.729  27.729  1.00  0.00     0.198 A 
ATOM     93  C   UNL A   1      43.958  36.643  29.931  1.00  0.00     0.198 A 
ATOM     94  F   UNL A   1      43.252  35.402  31.747  1.00  0.00    -0.203 F 
ATOM     95  F   UNL A   1      44.069  35.881  26.407  1.00  0.00    -0.200 F 
ATOM     96  C   UNL A   1      44.149  36.798  28.576  1.00  0.00     0.200 A 
ATOM     97  F   UNL A   1      44.207  37.656  30.772  1.00  0.00    -0.200 F 
ATOM     98  F   UNL A   1      44.557  37.975  28.087  1.00  0.00    -0.200 F 
ENDBRANCH  65  88
ENDBRANCH  39  40
ENDBRANCH  32  34
ENDBRANCH  31  32
ENDBRANCH  30  31
ENDBRANCH  29  30
ENDBRANCH  28  29
ENDBRANCH  27  28
ENDBRANCH   1  27
TORSDOF 21
ENDMDL
MODEL 2
REMARK VINA RESULT:     -11.0      2.293      4.203
REMARK SMILES CCC(=O)Nc1cc(NC(=O)/C=C/C(=O)OCCOCCOCCOC(=O)c2ccc(-c3c4nc(c(-c5c(F)c(F)c(F)c(F)c5F)c5ccc([nH]5)c(-c5c(F)c(F)c(F)c(F)c5F)c5nc(c(-c6c(F)c(F)c(F)c(F)c6F)c6ccc3[nH]6)C=C5)C=C4)cc2)ccc1C
REMARK SMILES IDX 20 1 19 2 18 3 17 4 16 5 14 6 15 7 13 8 12 9 10 10 9 11
REMARK SMILES IDX 11 13 8 14 6 15 7 16 93 17 92 18 94 19 91 20 5 21 3 22 4 23
REMARK SMILES IDX 2 25 1 26 21 27 22 28 23 29 24 30 25 31 26 32 27 33 28 34
REMARK SMILES IDX 29 35 90 36 30 37 89 38 31 39 32 40 33 41 83 42 34 43 88 44
REMARK SMILES IDX 82 45 84 46 35 47 87 48 81 49 80 50 36 52 68 53 48 54 67 55
REMARK SMILES IDX 49 56 52 57 66 58 85 59 50 60 51 61 65 63 86 64 53 65 37 66
REMARK SMILES IDX 38 67 46 68 39 69 40 70 44 71 47 72 41 73 42 74 45 75 43 76
REMARK SMILES IDX 69 77 70 78 78 79 71 80 72 81 76 82 79 83 73 84 74 85 77 86
REMARK SMILES IDX 75 87 54 88 55 89 63 90 56 91 57 92 61 93 64 94 58 95 59 96
REMARK SMILES IDX 62 97 60 98
REMARK H PARENT 9 12 5 24 84 51 52 62
REMARK Flexibility Score: inf
ROOT
ATOM      1  C   UNL A   1      38.925  21.651  25.745  1.00  0.00     0.188 C 
ENDROOT
BRANCH   1   2
ATOM      2  O   UNL A   1      37.712  22.402  25.585  1.00  0.00    -0.376 OA
BRANCH   2   3
ATOM      3  C   UNL A   1      36.343  22.122  25.882  1.00  0.00     0.202 C 
BRANCH   3   4
ATOM      4  C   UNL A   1      35.126  21.207  24.994  1.00  0.00     0.261 C 
BRANCH   4   5
ATOM      5  O   UNL A   1      33.482  21.235  24.757  1.00  0.00    -0.460 OA
BRANCH   5   6
ATOM      6  C   UNL A   1      32.457  21.589  23.902  1.00  0.00     0.331 C 
ATOM      7  O   UNL A   1      32.102  21.057  22.862  1.00  0.00    -0.247 OA
BRANCH   6   8
ATOM      8  C   UNL A   1      31.550  22.719  24.137  1.00  0.00     0.099 C 
ATOM      9  C   UNL A   1      31.766  23.253  25.374  1.00  0.00     0.079 C 
BRANCH   9  10
ATOM     10  C   UNL A   1      30.667  23.732  26.249  1.00  0.00     0.248 C 
ATOM     11  N   UNL A   1      29.980  24.883  25.947  1.00  0.00    -0.322 N 
ATOM     12  H   UNL A   1      29.107  24.919  26.399  1.00  0.00     0.170 HD
ATOM     13  O   UNL A   1      30.272  23.031  27.180  1.00  0.00    -0.270 OA
BRANCH  11  14
ATOM     14  C   UNL A   1      30.212  26.032  25.151  1.00  0.00     0.043 A 
ATOM     15  C   UNL A   1      31.345  28.118  24.475  1.00  0.00     0.046 A 
ATOM     16  C   UNL A   1      31.297  26.916  25.257  1.00  0.00     0.052 A 
ATOM     17  C   UNL A   1      30.416  28.295  23.435  1.00  0.00    -0.027 A 
ATOM     18  C   UNL A   1      29.283  27.473  23.428  1.00  0.00     0.008 A 
ATOM     19  C   UNL A   1      30.510  29.304  22.325  1.00  0.00     0.046 C 
ATOM     20  C   UNL A   1      29.160  26.397  24.307  1.00  0.00     0.026 A 
BRANCH  15  21
ATOM     21  N   UNL A   1      32.205  29.157  24.934  1.00  0.00    -0.326 N 
ATOM     22  C   UNL A   1      31.887  30.209  25.774  1.00  0.00     0.224 C 
ATOM     23  O   UNL A   1      31.003  31.045  25.598  1.00  0.00    -0.275 OA
ATOM     24  H   UNL A   1      33.137  29.122  24.617  1.00  0.00     0.169 HD
BRANCH  22  25
ATOM     25  C   UNL A   1      32.756  30.329  27.002  1.00  0.00     0.097 C 
ATOM     26  C   UNL A   1      33.713  29.142  27.015  1.00  0.00     0.014 C 
ENDBRANCH  22  25
ENDBRANCH  15  21
ENDBRANCH  11  14
ENDBRANCH   9  10
ENDBRANCH   6   8
ENDBRANCH   5   6
ENDBRANCH   4   5
ENDBRANCH   3   4
ENDBRANCH   2   3
ENDBRANCH   1   2
BRANCH   1  27
ATOM     27  C   UNL A   1      40.034  21.971  26.721  1.00  0.00     0.188 C 
BRANCH  27  28
ATOM     28  O   UNL A   1      40.993  22.807  26.121  1.00  0.00    -0.376 OA
BRANCH  28  29
ATOM     29  C   UNL A   1      42.271  22.198  26.010  1.00  0.00     0.202 C 
BRANCH  29  30
ATOM     30  C   UNL A   1      43.215  22.875  24.991  1.00  0.00     0.261 C 
BRANCH  30  31
ATOM     31  O   UNL A   1      43.282  24.303  25.232  1.00  0.00    -0.460 OA
BRANCH  31  32
ATOM     32  C   UNL A   1      43.666  24.728  26.493  1.00  0.00     0.338 C 
ATOM     33  O   UNL A   1      44.581  24.284  27.120  1.00  0.00    -0.246 OA
BRANCH  32  34
ATOM     34  C   UNL A   1      42.571  25.615  27.060  1.00  0.00     0.060 A 
ATOM     35  C   UNL A   1      42.193  26.871  26.562  1.00  0.00     0.016 A 
ATOM     36  C   UNL A   1      42.228  25.391  28.344  1.00  0.00     0.016 A 
ATOM     37  C   UNL A   1      41.701  27.949  27.434  1.00  0.00     0.010 A 
ATOM     38  C   UNL A   1      42.051  26.541  29.118  1.00  0.00     0.010 A 
ATOM     39  C   UNL A   1      41.730  27.875  28.817  1.00  0.00    -0.014 A 
BRANCH  39  40
ATOM     40  C   UNL A   1      41.545  29.047  29.959  1.00  0.00     0.031 A 
ATOM     41  C   UNL A   1      40.329  30.034  30.213  1.00  0.00     0.074 A 
ATOM     42  C   UNL A   1      42.472  29.304  30.905  1.00  0.00     0.049 A 
ATOM     43  N   UNL A   1      40.190  31.276  29.801  1.00  0.00    -0.248 NA
ATOM     44  C   UNL A   1      39.132  29.647  30.997  1.00  0.00     0.031 C 
ATOM     45  C   UNL A   1      42.373  30.249  32.025  1.00  0.00     0.029 A 
ATOM     46  N   UNL A   1      43.754  28.776  31.038  1.00  0.00    -0.354 N 
ATOM     47  C   UNL A   1      38.917  31.703  30.224  1.00  0.00     0.074 A 
ATOM     48  C   UNL A   1      38.198  30.525  30.628  1.00  0.00     0.031 C 
ATOM     49  C   UNL A   1      43.611  30.484  32.492  1.00  0.00     0.029 A 
ATOM     50  C   UNL A   1      44.544  29.777  31.631  1.00  0.00     0.049 A 
ATOM     51  H   UNL A   1      44.050  27.876  30.769  1.00  0.00     0.167 HD
ATOM     52  C   UNL A   1      38.623  32.885  30.859  1.00  0.00     0.037 A 
ATOM     53  C   UNL A   1      45.533  30.335  30.878  1.00  0.00     0.037 A 
ATOM     54  C   UNL A   1      39.821  33.464  31.404  1.00  0.00     0.049 A 
ATOM     55  C   UNL A   1      45.192  31.756  30.438  1.00  0.00     0.074 A 
ATOM     56  C   UNL A   1      40.414  33.462  32.655  1.00  0.00     0.029 A 
ATOM     57  N   UNL A   1      40.788  33.844  30.520  1.00  0.00    -0.354 N 
ATOM     58  N   UNL A   1      44.142  32.432  30.820  1.00  0.00    -0.248 NA
ATOM     59  C   UNL A   1      45.990  32.500  29.463  1.00  0.00     0.031 C 
ATOM     60  C   UNL A   1      41.775  33.851  32.490  1.00  0.00     0.029 A 
ATOM     61  C   UNL A   1      41.975  34.115  31.148  1.00  0.00     0.049 A 
ATOM     62  H   UNL A   1      40.650  33.916  29.547  1.00  0.00     0.167 HD
ATOM     63  C   UNL A   1      44.088  33.624  30.145  1.00  0.00     0.074 A 
ATOM     64  C   UNL A   1      45.267  33.622  29.305  1.00  0.00     0.031 C 
ATOM     65  C   UNL A   1      43.071  34.520  30.301  1.00  0.00     0.037 A 
BRANCH  52  66
ATOM     66  C   UNL A   1      37.209  33.229  31.312  1.00  0.00     0.064 A 
ATOM     67  C   UNL A   1      36.248  33.822  30.472  1.00  0.00     0.173 A 
ATOM     68  C   UNL A   1      36.775  32.974  32.634  1.00  0.00     0.173 A 
ATOM     69  F   UNL A   1      36.495  34.042  29.174  1.00  0.00    -0.203 F 
ATOM     70  C   UNL A   1      34.995  34.238  30.946  1.00  0.00     0.198 A 
ATOM     71  C   UNL A   1      35.534  33.414  33.114  1.00  0.00     0.198 A 
ATOM     72  F   UNL A   1      37.576  32.332  33.498  1.00  0.00    -0.203 F 
ATOM     73  F   UNL A   1      34.134  34.838  30.112  1.00  0.00    -0.200 F 
ATOM     74  C   UNL A   1      34.651  34.063  32.272  1.00  0.00     0.200 A 
ATOM     75  F   UNL A   1      35.211  33.236  34.404  1.00  0.00    -0.200 F 
ATOM     76  F   UNL A   1      33.479  34.522  32.736  1.00  0.00    -0.200 F 
ENDBRANCH  52  66
BRANCH  53  77
ATOM     77  C   UNL A   1      46.211  29.298  30.036  1.00  0.00     0.064 A 
ATOM     78  C   UNL A   1      47.124  28.392  30.603  1.00  0.00     0.173 A 
ATOM     79  C   UNL A   1      45.661  28.936  28.810  1.00  0.00     0.173 A 
ATOM     80  F   UNL A   1      47.655  28.647  31.808  1.00  0.00    -0.203 F 
ATOM     81  C   UNL A   1      47.418  27.164  29.996  1.00  0.00     0.198 A 
ATOM     82  C   UNL A   1      45.974  27.719  28.190  1.00  0.00     0.198 A 
ATOM     83  F   UNL A   1      44.695  29.716  28.310  1.00  0.00    -0.203 F 
ATOM     84  F   UNL A   1      48.221  26.284  30.611  1.00  0.00    -0.200 F 
ATOM     85  C   UNL A   1      46.826  26.820  28.797  1.00  0.00     0.200 A 
ATOM     86  F   UNL A   1      45.386  27.367  27.042  1.00  0.00    -0.200 F 
ATOM     87  F   UNL A   1      47.030  25.610  28.255  1.00  0.00    -0.200 F 
ENDBRANCH  53  77
BRANCH  65  88
ATOM     88  C   UNL A   1      43.000  35.880  29.658  1.00  0.00     0.064 A 
ATOM     89  C   UNL A   1      42.610  36.026  28.323  1.00  0.00     0.173 A 
ATOM     90  C   UNL A   1      43.508  37.045  30.286  1.00  0.00     0.173 A 
ATOM     91  F   UNL A   1      42.165  34.973  27.622  1.00  0.00    -0.203 F 
ATOM     92  C   UNL A   1      42.700  37.255  27.666  1.00  0.00     0.198 A 
ATOM     93  C   UNL A   1      43.663  38.251  29.608  1.00  0.00     0.198 A 
ATOM     94  F   UNL A   1      43.848  37.065  31.582  1.00  0.00    -0.203 F 
ATOM     95  F   UNL A   1      42.270  37.361  26.402  1.00  0.00    -0.200 F 
ATOM     96  C   UNL A   1      43.247  38.359  28.299  1.00  0.00     0.200 A 
ATOM     97  F   UNL A   1      44.216  39.299  30.233  1.00  0.00    -0.200 F 
ATOM     98  F   UNL A   1      43.366  39.525  27.652  1.00  0.00    -0.200 F 
ENDBRANCH  65  88
ENDBRANCH  39  40
ENDBRANCH  32  34
ENDBRANCH  31  32
ENDBRANCH  30  31
ENDBRANCH  29  30
ENDBRANCH  28  29
ENDBRANCH  27  28
ENDBRANCH   1  27
TORSDOF 21
ENDMDL
MODEL 3
REMARK VINA RESULT:     -11.0      1.121      2.004
REMARK SMILES CCC(=O)Nc1cc(NC(=O)/C=C/C(=O)OCCOCCOCCOC(=O)c2ccc(-c3c4nc(c(-c5c(F)c(F)c(F)c(F)c5F)c5ccc([nH]5)c(-c5c(F)c(F)c(F)c(F)c5F)c5nc(c(-c6c(F)c(F)c(F)c(F)c6F)c6ccc3[nH]6)C=C5)C=C4)cc2)ccc1C
REMARK SMILES IDX 20 1 19 2 18 3 17 4 16 5 14 6 15 7 13 8 12 9 10 10 9 11
REMARK SMILES IDX 11 13 8 14 6 15 7 16 93 17 92 18 94 19 91 20 5 21 3 22 4 23
REMARK SMILES IDX 2 25 1 26 21 27 22 28 23 29 24 30 25 31 26 32 27 33 28 34
REMARK SMILES IDX 29 35 90 36 30 37 89 38 31 39 32 40 33 41 83 42 34 43 88 44
REMARK SMILES IDX 82 45 84 46 35 47 87 48 81 49 80 50 36 52 68 53 48 54 67 55
REMARK SMILES IDX 49 56 52 57 66 58 85 59 50 60 51 61 65 63 86 64 53 65 37 66
REMARK SMILES IDX 38 67 46 68 39 69 40 70 44 71 47 72 41 73 42 74 45 75 43 76
REMARK SMILES IDX 69 77 70 78 78 79 71 80 72 81 76 82 79 83 73 84 74 85 77 86
REMARK SMILES IDX 75 87 54 88 55 89 63 90 56 91 57 92 61 93 64 94 58 95 59 96
REMARK SMILES IDX 62 97 60 98
REMARK H PARENT 9 12 5 24 84 51 52 62
REMARK Flexibility Score: inf
ROOT
ATOM      1  C   UNL A   1      40.560  19.790  26.409  1.00  0.00     0.188 C 
ENDROOT
BRANCH   1   2
ATOM      2  O   UNL A   1      39.702  20.890  26.072  1.00  0.00    -0.376 OA
BRANCH   2   3
ATOM      3  C   UNL A   1      39.493  22.180  26.651  1.00  0.00     0.202 C 
BRANCH   3   4
ATOM      4  C   UNL A   1      38.664  23.608  26.035  1.00  0.00     0.261 C 
BRANCH   4   5
ATOM      5  O   UNL A   1      37.109  24.098  25.717  1.00  0.00    -0.460 OA
BRANCH   5   6
ATOM      6  C   UNL A   1      35.795  23.702  25.567  1.00  0.00     0.331 C 
ATOM      7  O   UNL A   1      35.349  22.601  25.282  1.00  0.00    -0.247 OA
BRANCH   6   8
ATOM      8  C   UNL A   1      34.645  24.591  25.766  1.00  0.00     0.099 C 
ATOM      9  C   UNL A   1      33.591  23.897  26.288  1.00  0.00     0.079 C 
BRANCH   9  10
ATOM     10  C   UNL A   1      32.186  24.131  25.872  1.00  0.00     0.248 C 
ATOM     11  N   UNL A   1      31.473  23.153  25.221  1.00  0.00    -0.322 N 
ATOM     12  H   UNL A   1      30.503  23.301  25.285  1.00  0.00     0.170 HD
ATOM     13  O   UNL A   1      31.603  25.156  26.226  1.00  0.00    -0.270 OA
BRANCH  11  14
ATOM     14  C   UNL A   1      31.783  21.986  24.481  1.00  0.00     0.043 A 
ATOM     15  C   UNL A   1      32.592  19.679  24.139  1.00  0.00     0.046 A 
ATOM     16  C   UNL A   1      32.178  20.745  25.006  1.00  0.00     0.052 A 
ATOM     17  C   UNL A   1      32.384  19.802  22.755  1.00  0.00    -0.027 A 
ATOM     18  C   UNL A   1      32.108  21.078  22.250  1.00  0.00     0.008 A 
ATOM     19  C   UNL A   1      32.444  18.689  21.747  1.00  0.00     0.046 C 
ATOM     20  C   UNL A   1      31.868  22.159  23.098  1.00  0.00     0.026 A 
BRANCH  15  21
ATOM     21  N   UNL A   1      33.381  18.642  24.717  1.00  0.00    -0.326 N 
ATOM     22  C   UNL A   1      32.941  17.456  25.276  1.00  0.00     0.224 C 
ATOM     23  O   UNL A   1      32.140  17.335  26.201  1.00  0.00    -0.275 OA
ATOM     24  H   UNL A   1      34.355  18.788  24.719  1.00  0.00     0.169 HD
BRANCH  22  25
ATOM     25  C   UNL A   1      33.553  16.209  24.687  1.00  0.00     0.097 C 
ATOM     26  C   UNL A   1      32.919  15.007  25.378  1.00  0.00     0.014 C 
ENDBRANCH  22  25
ENDBRANCH  15  21
ENDBRANCH  11  14
ENDBRANCH   9  10
ENDBRANCH   6   8
ENDBRANCH   5   6
ENDBRANCH   4   5
ENDBRANCH   3   4
ENDBRANCH   2   3
ENDBRANCH   1   2
BRANCH   1  27
ATOM     27  C   UNL A   1      41.944  19.906  27.006  1.00  0.00     0.188 C 
BRANCH  27  28
ATOM     28  O   UNL A   1      42.889  19.259  26.190  1.00  0.00    -0.376 OA
BRANCH  28  29
ATOM     29  C   UNL A   1      43.629  20.156  25.375  1.00  0.00     0.202 C 
BRANCH  29  30
ATOM     30  C   UNL A   1      43.096  21.607  25.375  1.00  0.00     0.261 C 
BRANCH  30  31
ATOM     31  O   UNL A   1      44.187  22.549  25.222  1.00  0.00    -0.460 OA
BRANCH  31  32
ATOM     32  C   UNL A   1      44.604  23.242  26.347  1.00  0.00     0.338 C 
ATOM     33  O   UNL A   1      45.547  22.955  27.021  1.00  0.00    -0.246 OA
BRANCH  32  34
ATOM     34  C   UNL A   1      43.513  24.220  26.747  1.00  0.00     0.060 A 
ATOM     35  C   UNL A   1      43.315  25.496  26.201  1.00  0.00     0.016 A 
ATOM     36  C   UNL A   1      42.967  24.037  27.966  1.00  0.00     0.016 A 
ATOM     37  C   UNL A   1      42.788  26.620  26.991  1.00  0.00     0.010 A 
ATOM     38  C   UNL A   1      42.771  25.205  28.707  1.00  0.00     0.010 A 
ATOM     39  C   UNL A   1      42.606  26.557  28.363  1.00  0.00    -0.014 A 
BRANCH  39  40
ATOM     40  C   UNL A   1      42.349  27.752  29.467  1.00  0.00     0.031 A 
ATOM     41  C   UNL A   1      41.095  28.706  29.658  1.00  0.00     0.074 A 
ATOM     42  C   UNL A   1      43.238  28.064  30.434  1.00  0.00     0.049 A 
ATOM     43  N   UNL A   1      40.930  29.932  29.209  1.00  0.00    -0.248 NA
ATOM     44  C   UNL A   1      39.887  28.301  30.417  1.00  0.00     0.031 C 
ATOM     45  C   UNL A   1      43.075  29.034  31.524  1.00  0.00     0.029 A 
ATOM     46  N   UNL A   1      44.532  27.581  30.618  1.00  0.00    -0.354 N 
ATOM     47  C   UNL A   1      39.632  30.328  29.582  1.00  0.00     0.074 A 
ATOM     48  C   UNL A   1      38.938  29.139  29.996  1.00  0.00     0.031 C 
ATOM     49  C   UNL A   1      44.291  29.321  32.020  1.00  0.00     0.029 A 
ATOM     50  C   UNL A   1      45.271  28.622  31.208  1.00  0.00     0.049 A 
ATOM     51  H   UNL A   1      44.864  26.685  30.383  1.00  0.00     0.167 HD
ATOM     52  C   UNL A   1      39.281  31.517  30.176  1.00  0.00     0.037 A 
ATOM     53  C   UNL A   1      46.264  29.192  30.470  1.00  0.00     0.037 A 
ATOM     54  C   UNL A   1      40.443  32.147  30.741  1.00  0.00     0.049 A 
ATOM     55  C   UNL A   1      45.893  30.589  29.981  1.00  0.00     0.074 A 
ATOM     56  C   UNL A   1      40.997  32.197  32.008  1.00  0.00     0.029 A 
ATOM     57  N   UNL A   1      41.424  32.536  29.875  1.00  0.00    -0.354 N 
ATOM     58  N   UNL A   1      44.811  31.241  30.314  1.00  0.00    -0.248 NA
ATOM     59  C   UNL A   1      46.696  31.333  29.010  1.00  0.00     0.031 C 
ATOM     60  C   UNL A   1      42.350  32.625  31.873  1.00  0.00     0.029 A 
ATOM     61  C   UNL A   1      42.583  32.861  30.531  1.00  0.00     0.049 A 
ATOM     62  H   UNL A   1      41.314  32.577  28.898  1.00  0.00     0.167 HD
ATOM     63  C   UNL A   1      44.740  32.413  29.605  1.00  0.00     0.074 A 
ATOM     64  C   UNL A   1      45.943  32.427  28.801  1.00  0.00     0.031 C 
ATOM     65  C   UNL A   1      43.691  33.279  29.706  1.00  0.00     0.037 A 
BRANCH  52  66
ATOM     66  C   UNL A   1      37.844  31.826  30.577  1.00  0.00     0.064 A 
ATOM     67  C   UNL A   1      36.876  32.317  29.680  1.00  0.00     0.173 A 
ATOM     68  C   UNL A   1      37.393  31.643  31.906  1.00  0.00     0.173 A 
ATOM     69  F   UNL A   1      37.142  32.458  28.375  1.00  0.00    -0.203 F 
ATOM     70  C   UNL A   1      35.597  32.707  30.101  1.00  0.00     0.198 A 
ATOM     71  C   UNL A   1      36.123  32.057  32.330  1.00  0.00     0.198 A 
ATOM     72  F   UNL A   1      38.202  31.097  32.827  1.00  0.00    -0.203 F 
ATOM     73  F   UNL A   1      34.729  33.209  29.211  1.00  0.00    -0.200 F 
ATOM     74  C   UNL A   1      35.232  32.607  31.429  1.00  0.00     0.200 A 
ATOM     75  F   UNL A   1      35.780  31.953  33.623  1.00  0.00    -0.200 F 
ATOM     76  F   UNL A   1      34.031  33.043  31.838  1.00  0.00    -0.200 F 
ENDBRANCH  52  66
BRANCH  53  77
ATOM     77  C   UNL A   1      47.000  28.156  29.676  1.00  0.00     0.064 A 
ATOM     78  C   UNL A   1      47.913  27.286  30.297  1.00  0.00     0.173 A 
ATOM     79  C   UNL A   1      46.507  27.755  28.438  1.00  0.00     0.173 A 
ATOM     80  F   UNL A   1      48.391  27.580  31.515  1.00  0.00    -0.203 F 
ATOM     81  C   UNL A   1      48.262  26.054  29.728  1.00  0.00     0.198 A 
ATOM     82  C   UNL A   1      46.874  26.533  27.858  1.00  0.00     0.198 A 
ATOM     83  F   UNL A   1      45.541  28.498  27.886  1.00  0.00    -0.203 F 
ATOM     84  F   UNL A   1      49.062  25.208  30.392  1.00  0.00    -0.200 F 
ATOM     85  C   UNL A   1      47.724  25.670  28.515  1.00  0.00     0.200 A 
ATOM     86  F   UNL A   1      46.339  26.142  26.696  1.00  0.00    -0.200 F 
ATOM     87  F   UNL A   1      47.980  24.454  28.008  1.00  0.00    -0.200 F 
ENDBRANCH  53  77
BRANCH  65  88
ATOM     88  C   UNL A   1      43.597  34.619  29.025  1.00  0.00     0.064 A 
ATOM     89  C   UNL A   1      43.569  35.804  29.768  1.00  0.00     0.173 A 
ATOM     90  C   UNL A   1      43.330  34.750  27.639  1.00  0.00     0.173 A 
ATOM     91  F   UNL A   1      43.756  35.783  31.095  1.00  0.00    -0.203 F 
ATOM     92  C   UNL A   1      43.313  37.037  29.164  1.00  0.00     0.198 A 
ATOM     93  C   UNL A   1      43.007  35.970  27.054  1.00  0.00     0.198 A 
ATOM     94  F   UNL A   1      43.398  33.708  26.799  1.00  0.00    -0.203 F 
ATOM     95  F   UNL A   1      43.344  38.153  29.905  1.00  0.00    -0.200 F 
ATOM     96  C   UNL A   1      43.010  37.118  27.815  1.00  0.00     0.200 A 
ATOM     97  F   UNL A   1      42.693  36.021  25.751  1.00  0.00    -0.200 F 
ATOM     98  F   UNL A   1      42.729  38.298  27.251  1.00  0.00    -0.200 F 
ENDBRANCH  65  88
ENDBRANCH  39  40
ENDBRANCH  32  34
ENDBRANCH  31  32
ENDBRANCH  30  31
ENDBRANCH  29  30
ENDBRANCH  28  29
ENDBRANCH  27  28
ENDBRANCH   1  27
TORSDOF 21
ENDMDL
