MODEL 1
REMARK VINA RESULT:     -11.2      0.000      0.000
REMARK SMILES C[C@]1(C(=O)Nc2ccc(C(=O)OCCOCCOCCOC(=O)c3ccc(-c4c5nc(c(-c6c(F)c(F)c(F)c(F)c6F)c6ccc([nH]6)c(-c6c(F)c(F)c(F)c(F)c6F)c6nc(c(-c7c(F)c(F)c(F)c(F)c7F)c7ccc4[nH]7)C=C6)C=C5)cc3)c(O)c2)CCCO1
REMARK SMILES IDX 16 1 15 2 14 3 13 4 12 5 10 6 11 7 9 8 6 9 7 10 89 11 8 12
REMARK SMILES IDX 87 13 5 14 3 15 4 16 2 18 1 19 90 20 93 21 91 22 92 23 88 24
REMARK SMILES IDX 17 26 18 27 19 28 20 29 21 30 22 31 23 32 24 33 25 34 86 35
REMARK SMILES IDX 26 36 85 37 27 38 28 39 29 40 79 41 30 42 84 43 78 44 80 45
REMARK SMILES IDX 31 46 83 47 77 48 76 49 32 51 64 52 44 53 63 54 45 55 48 56
REMARK SMILES IDX 62 57 81 58 46 59 47 60 61 62 82 63 49 64 33 65 34 66 42 67
REMARK SMILES IDX 35 68 36 69 40 70 43 71 37 72 38 73 41 74 39 75 65 76 66 77
REMARK SMILES IDX 74 78 67 79 68 80 72 81 75 82 69 83 70 84 73 85 71 86 50 87
REMARK SMILES IDX 51 88 59 89 52 90 53 91 57 92 60 93 54 94 55 95 58 96 56 97
REMARK H PARENT 5 17 88 25 80 50 48 61
REMARK Flexibility Score: inf
ROOT
ATOM      1  C   UNL A   1      40.397  21.687  26.527  1.00  0.00     0.188 C 
ENDROOT
BRANCH   1   2
ATOM      2  O   UNL A   1      39.236  22.245  25.926  1.00  0.00    -0.376 OA
BRANCH   2   3
ATOM      3  C   UNL A   1      38.051  21.473  25.798  1.00  0.00     0.202 C 
BRANCH   3   4
ATOM      4  C   UNL A   1      37.451  21.280  24.399  1.00  0.00     0.261 C 
BRANCH   4   5
ATOM      5  O   UNL A   1      36.069  21.671  24.284  1.00  0.00    -0.460 OA
BRANCH   5   6
ATOM      6  C   UNL A   1      35.846  22.810  23.576  1.00  0.00     0.341 C 
ATOM      7  O   UNL A   1      36.390  23.137  22.532  1.00  0.00    -0.246 OA
BRANCH   6   8
ATOM      8  C   UNL A   1      34.701  23.557  24.148  1.00  0.00     0.101 A 
ATOM      9  C   UNL A   1      32.640  24.991  25.396  1.00  0.00     0.045 A 
ATOM     10  C   UNL A   1      33.685  24.469  26.160  1.00  0.00     0.027 A 
ATOM     11  C   UNL A   1      32.596  24.760  24.020  1.00  0.00     0.073 A 
ATOM     12  C   UNL A   1      34.706  23.746  25.539  1.00  0.00     0.022 A 
ATOM     13  C   UNL A   1      33.649  24.087  23.392  1.00  0.00     0.132 A 
BRANCH   9  14
ATOM     14  N   UNL A   1      31.569  25.649  26.010  1.00  0.00    -0.323 N 
ATOM     15  C   UNL A   1      31.485  26.974  26.373  1.00  0.00     0.256 C 
ATOM     16  O   UNL A   1      30.866  27.237  27.408  1.00  0.00    -0.271 OA
ATOM     17  H   UNL A   1      30.779  25.097  26.207  1.00  0.00     0.170 HD
BRANCH  15  18
ATOM     18  C   UNL A   1      31.925  28.086  25.367  1.00  0.00     0.144 C 
ATOM     19  C   UNL A   1      33.423  28.224  25.115  1.00  0.00     0.053 C 
ATOM     20  C   UNL A   1      31.147  27.877  24.063  1.00  0.00     0.048 C 
ATOM     21  O   UNL A   1      31.510  29.391  25.833  1.00  0.00    -0.365 OA
ATOM     22  C   UNL A   1      31.013  29.274  23.509  1.00  0.00     0.032 C 
ATOM     23  C   UNL A   1      30.882  30.110  24.763  1.00  0.00     0.162 C 
ENDBRANCH  15  18
ENDBRANCH   9  14
BRANCH  13  24
ATOM     24  O   UNL A   1      33.584  24.011  22.028  1.00  0.00    -0.507 OA
ATOM     25  H   UNL A   1      34.253  23.559  21.553  1.00  0.00     0.293 HD
ENDBRANCH  13  24
ENDBRANCH   6   8
ENDBRANCH   5   6
ENDBRANCH   4   5
ENDBRANCH   3   4
ENDBRANCH   2   3
ENDBRANCH   1   2
BRANCH   1  26
ATOM     26  C   UNL A   1      40.887  20.274  26.146  1.00  0.00     0.188 C 
BRANCH  26  27
ATOM     27  O   UNL A   1      42.201  20.222  25.622  1.00  0.00    -0.376 OA
BRANCH  27  28
ATOM     28  C   UNL A   1      43.113  21.182  26.142  1.00  0.00     0.202 C 
BRANCH  28  29
ATOM     29  C   UNL A   1      43.898  21.978  25.090  1.00  0.00     0.261 C 
BRANCH  29  30
ATOM     30  O   UNL A   1      43.321  23.244  24.716  1.00  0.00    -0.460 OA
BRANCH  30  31
ATOM     31  C   UNL A   1      44.063  24.345  24.953  1.00  0.00     0.338 C 
ATOM     32  O   UNL A   1      45.081  24.685  24.366  1.00  0.00    -0.246 OA
BRANCH  31  33
ATOM     33  C   UNL A   1      43.344  25.197  25.920  1.00  0.00     0.060 A 
ATOM     34  C   UNL A   1      43.905  26.432  26.261  1.00  0.00     0.016 A 
ATOM     35  C   UNL A   1      42.143  24.786  26.503  1.00  0.00     0.016 A 
ATOM     36  C   UNL A   1      43.287  27.244  27.212  1.00  0.00     0.010 A 
ATOM     37  C   UNL A   1      41.531  25.596  27.470  1.00  0.00     0.010 A 
ATOM     38  C   UNL A   1      42.115  26.816  27.853  1.00  0.00    -0.014 A 
BRANCH  38  39
ATOM     39  C   UNL A   1      41.612  27.576  29.027  1.00  0.00     0.031 A 
ATOM     40  C   UNL A   1      42.353  27.472  30.332  1.00  0.00     0.074 A 
ATOM     41  C   UNL A   1      40.551  28.397  28.925  1.00  0.00     0.049 A 
ATOM     42  N   UNL A   1      42.134  28.086  31.468  1.00  0.00    -0.248 NA
ATOM     43  C   UNL A   1      43.498  26.548  30.360  1.00  0.00     0.031 C 
ATOM     44  C   UNL A   1      39.758  28.607  27.717  1.00  0.00     0.029 A 
ATOM     45  N   UNL A   1      39.962  29.212  29.861  1.00  0.00    -0.354 N 
ATOM     46  C   UNL A   1      43.115  27.632  32.340  1.00  0.00     0.074 A 
ATOM     47  C   UNL A   1      43.906  26.659  31.616  1.00  0.00     0.031 C 
ATOM     48  C   UNL A   1      38.786  29.497  27.984  1.00  0.00     0.029 A 
ATOM     49  C   UNL A   1      38.877  29.904  29.386  1.00  0.00     0.049 A 
ATOM     50  H   UNL A   1      40.288  29.291  30.787  1.00  0.00     0.167 HD
ATOM     51  C   UNL A   1      43.348  28.001  33.623  1.00  0.00     0.037 A 
ATOM     52  C   UNL A   1      38.050  30.765  30.012  1.00  0.00     0.037 A 
ATOM     53  C   UNL A   1      42.562  28.962  34.350  1.00  0.00     0.049 A 
ATOM     54  C   UNL A   1      38.298  31.120  31.457  1.00  0.00     0.074 A 
ATOM     55  C   UNL A   1      42.728  29.408  35.650  1.00  0.00     0.029 A 
ATOM     56  N   UNL A   1      41.451  29.620  33.842  1.00  0.00    -0.354 N 
ATOM     57  N   UNL A   1      39.251  30.714  32.260  1.00  0.00    -0.248 NA
ATOM     58  C   UNL A   1      37.357  32.064  32.078  1.00  0.00     0.031 C 
ATOM     59  C   UNL A   1      41.690  30.299  35.944  1.00  0.00     0.029 A 
ATOM     60  C   UNL A   1      40.909  30.451  34.810  1.00  0.00     0.049 A 
ATOM     61  H   UNL A   1      41.100  29.512  32.929  1.00  0.00     0.167 HD
ATOM     62  C   UNL A   1      39.045  31.376  33.464  1.00  0.00     0.074 A 
ATOM     63  C   UNL A   1      37.884  32.221  33.283  1.00  0.00     0.031 C 
ATOM     64  C   UNL A   1      39.756  31.292  34.617  1.00  0.00     0.037 A 
BRANCH  51  65
ATOM     65  C   UNL A   1      44.496  27.343  34.331  1.00  0.00     0.064 A 
ATOM     66  C   UNL A   1      45.780  27.909  34.334  1.00  0.00     0.173 A 
ATOM     67  C   UNL A   1      44.303  26.147  35.039  1.00  0.00     0.173 A 
ATOM     68  F   UNL A   1      46.022  29.043  33.660  1.00  0.00    -0.203 F 
ATOM     69  C   UNL A   1      46.834  27.288  35.001  1.00  0.00     0.198 A 
ATOM     70  C   UNL A   1      45.352  25.544  35.726  1.00  0.00     0.198 A 
ATOM     71  F   UNL A   1      43.095  25.566  35.069  1.00  0.00    -0.203 F 
ATOM     72  F   UNL A   1      48.063  27.820  34.951  1.00  0.00    -0.200 F 
ATOM     73  C   UNL A   1      46.619  26.110  35.701  1.00  0.00     0.200 A 
ATOM     74  F   UNL A   1      45.140  24.412  36.412  1.00  0.00    -0.200 F 
ATOM     75  F   UNL A   1      47.632  25.516  36.346  1.00  0.00    -0.200 F 
ENDBRANCH  51  65
BRANCH  52  76
ATOM     76  C   UNL A   1      36.905  31.367  29.277  1.00  0.00     0.064 A 
ATOM     77  C   UNL A   1      36.892  32.728  28.939  1.00  0.00     0.173 A 
ATOM     78  C   UNL A   1      35.785  30.597  28.926  1.00  0.00     0.173 A 
ATOM     79  F   UNL A   1      37.925  33.511  29.281  1.00  0.00    -0.203 F 
ATOM     80  C   UNL A   1      35.795  33.300  28.298  1.00  0.00     0.198 A 
ATOM     81  C   UNL A   1      34.702  31.165  28.260  1.00  0.00     0.198 A 
ATOM     82  F   UNL A   1      35.745  29.292  29.232  1.00  0.00    -0.203 F 
ATOM     83  F   UNL A   1      35.787  34.614  28.034  1.00  0.00    -0.200 F 
ATOM     84  C   UNL A   1      34.703  32.517  27.953  1.00  0.00     0.200 A 
ATOM     85  F   UNL A   1      33.653  30.404  27.921  1.00  0.00    -0.200 F 
ATOM     86  F   UNL A   1      33.650  33.069  27.337  1.00  0.00    -0.200 F 
ENDBRANCH  52  76
BRANCH  64  87
ATOM     87  C   UNL A   1      39.318  32.163  35.761  1.00  0.00     0.064 A 
ATOM     88  C   UNL A   1      39.809  33.466  35.928  1.00  0.00     0.173 A 
ATOM     89  C   UNL A   1      38.377  31.694  36.692  1.00  0.00     0.173 A 
ATOM     90  F   UNL A   1      40.718  33.961  35.074  1.00  0.00    -0.203 F 
ATOM     91  C   UNL A   1      39.404  34.254  37.004  1.00  0.00     0.198 A 
ATOM     92  C   UNL A   1      37.951  32.494  37.748  1.00  0.00     0.198 A 
ATOM     93  F   UNL A   1      37.866  30.459  36.574  1.00  0.00    -0.203 F 
ATOM     94  F   UNL A   1      39.931  35.473  37.177  1.00  0.00    -0.200 F 
ATOM     95  C   UNL A   1      38.472  33.769  37.910  1.00  0.00     0.200 A 
ATOM     96  F   UNL A   1      37.038  32.030  38.614  1.00  0.00    -0.200 F 
ATOM     97  F   UNL A   1      38.084  34.526  38.944  1.00  0.00    -0.200 F 
ENDBRANCH  64  87
ENDBRANCH  38  39
ENDBRANCH  31  33
ENDBRANCH  30  31
ENDBRANCH  29  30
ENDBRANCH  28  29
ENDBRANCH  27  28
ENDBRANCH  26  27
ENDBRANCH   1  26
TORSDOF 20
ENDMDL
MODEL 2
REMARK VINA RESULT:     -10.9      5.012     10.644
REMARK SMILES C[C@]1(C(=O)Nc2ccc(C(=O)OCCOCCOCCOC(=O)c3ccc(-c4c5nc(c(-c6c(F)c(F)c(F)c(F)c6F)c6ccc([nH]6)c(-c6c(F)c(F)c(F)c(F)c6F)c6nc(c(-c7c(F)c(F)c(F)c(F)c7F)c7ccc4[nH]7)C=C6)C=C5)cc3)c(O)c2)CCCO1
REMARK SMILES IDX 16 1 15 2 14 3 13 4 12 5 10 6 11 7 9 8 6 9 7 10 89 11 8 12
REMARK SMILES IDX 87 13 5 14 3 15 4 16 2 18 1 19 90 20 93 21 91 22 92 23 88 24
REMARK SMILES IDX 17 26 18 27 19 28 20 29 21 30 22 31 23 32 24 33 25 34 86 35
REMARK SMILES IDX 26 36 85 37 27 38 28 39 29 40 79 41 30 42 84 43 78 44 80 45
REMARK SMILES IDX 31 46 83 47 77 48 76 49 32 51 64 52 44 53 63 54 45 55 48 56
REMARK SMILES IDX 62 57 81 58 46 59 47 60 61 62 82 63 49 64 33 65 34 66 42 67
REMARK SMILES IDX 35 68 36 69 40 70 43 71 37 72 38 73 41 74 39 75 65 76 66 77
REMARK SMILES IDX 74 78 67 79 68 80 72 81 75 82 69 83 70 84 73 85 71 86 50 87
REMARK SMILES IDX 51 88 59 89 52 90 53 91 57 92 60 93 54 94 55 95 58 96 56 97
REMARK H PARENT 5 17 88 25 80 50 48 61
REMARK Flexibility Score: inf
ROOT
ATOM      1  C   UNL A   1      35.474  33.663  28.000  1.00  0.00     0.188 C 
ENDROOT
BRANCH   1   2
ATOM      2  O   UNL A   1      35.580  32.246  28.036  1.00  0.00    -0.376 OA
BRANCH   2   3
ATOM      3  C   UNL A   1      34.436  31.446  28.294  1.00  0.00     0.202 C 
BRANCH   3   4
ATOM      4  C   UNL A   1      34.043  30.377  27.265  1.00  0.00     0.261 C 
BRANCH   4   5
ATOM      5  O   UNL A   1      32.732  29.813  27.463  1.00  0.00    -0.460 OA
BRANCH   5   6
ATOM      6  C   UNL A   1      31.865  29.987  26.431  1.00  0.00     0.341 C 
ATOM      7  O   UNL A   1      31.553  31.047  25.912  1.00  0.00    -0.246 OA
BRANCH   6   8
ATOM      8  C   UNL A   1      31.456  28.675  25.875  1.00  0.00     0.101 A 
ATOM      9  C   UNL A   1      30.659  26.129  25.010  1.00  0.00     0.045 A 
ATOM     10  C   UNL A   1      31.021  26.328  26.343  1.00  0.00     0.027 A 
ATOM     11  C   UNL A   1      30.739  27.184  24.099  1.00  0.00     0.073 A 
ATOM     12  C   UNL A   1      31.428  27.594  26.771  1.00  0.00     0.022 A 
ATOM     13  C   UNL A   1      31.089  28.463  24.541  1.00  0.00     0.132 A 
BRANCH   9  14
ATOM     14  N   UNL A   1      30.325  24.853  24.546  1.00  0.00    -0.323 N 
ATOM     15  C   UNL A   1      31.092  24.000  23.786  1.00  0.00     0.256 C 
ATOM     16  O   UNL A   1      30.505  23.303  22.953  1.00  0.00    -0.271 OA
ATOM     17  H   UNL A   1      29.432  24.523  24.795  1.00  0.00     0.170 HD
BRANCH  15  18
ATOM     18  C   UNL A   1      32.587  23.750  24.165  1.00  0.00     0.144 C 
ATOM     19  C   UNL A   1      33.268  22.556  23.505  1.00  0.00     0.053 C 
ATOM     20  C   UNL A   1      33.360  25.052  23.919  1.00  0.00     0.048 C 
ATOM     21  O   UNL A   1      32.723  23.511  25.586  1.00  0.00    -0.365 OA
ATOM     22  C   UNL A   1      34.463  25.002  24.946  1.00  0.00     0.032 C 
ATOM     23  C   UNL A   1      33.793  24.308  26.111  1.00  0.00     0.162 C 
ENDBRANCH  15  18
ENDBRANCH   9  14
BRANCH  13  24
ATOM     24  O   UNL A   1      31.024  29.460  23.608  1.00  0.00    -0.507 OA
ATOM     25  H   UNL A   1      30.375  30.131  23.684  1.00  0.00     0.293 HD
ENDBRANCH  13  24
ENDBRANCH   6   8
ENDBRANCH   5   6
ENDBRANCH   4   5
ENDBRANCH   3   4
ENDBRANCH   2   3
ENDBRANCH   1   2
BRANCH   1  26
ATOM     26  C   UNL A   1      34.716  34.431  29.103  1.00  0.00     0.188 C 
BRANCH  26  27
ATOM     27  O   UNL A   1      35.200  34.217  30.416  1.00  0.00    -0.376 OA
BRANCH  27  28
ATOM     28  C   UNL A   1      34.218  34.229  31.446  1.00  0.00     0.202 C 
BRANCH  28  29
ATOM     29  C   UNL A   1      34.680  33.668  32.799  1.00  0.00     0.261 C 
BRANCH  29  30
ATOM     30  O   UNL A   1      35.244  32.343  32.758  1.00  0.00    -0.460 OA
BRANCH  30  31
ATOM     31  C   UNL A   1      36.401  32.153  33.423  1.00  0.00     0.338 C 
ATOM     32  O   UNL A   1      36.608  32.351  34.613  1.00  0.00    -0.246 OA
BRANCH  31  33
ATOM     33  C   UNL A   1      37.354  31.474  32.523  1.00  0.00     0.060 A 
ATOM     34  C   UNL A   1      38.476  30.857  33.087  1.00  0.00     0.016 A 
ATOM     35  C   UNL A   1      37.166  31.458  31.138  1.00  0.00     0.016 A 
ATOM     36  C   UNL A   1      39.430  30.252  32.268  1.00  0.00     0.010 A 
ATOM     37  C   UNL A   1      38.132  30.863  30.316  1.00  0.00     0.010 A 
ATOM     38  C   UNL A   1      39.285  30.284  30.873  1.00  0.00    -0.014 A 
BRANCH  38  39
ATOM     39  C   UNL A   1      40.422  29.854  30.018  1.00  0.00     0.031 A 
ATOM     40  C   UNL A   1      41.527  30.835  29.730  1.00  0.00     0.074 A 
ATOM     41  C   UNL A   1      40.510  28.595  29.553  1.00  0.00     0.049 A 
ATOM     42  N   UNL A   1      42.640  30.666  29.061  1.00  0.00    -0.248 NA
ATOM     43  C   UNL A   1      41.351  32.192  30.271  1.00  0.00     0.031 C 
ATOM     44  C   UNL A   1      39.523  27.541  29.775  1.00  0.00     0.029 A 
ATOM     45  N   UNL A   1      41.484  27.990  28.796  1.00  0.00    -0.354 N 
ATOM     46  C   UNL A   1      43.300  31.887  29.109  1.00  0.00     0.074 A 
ATOM     47  C   UNL A   1      42.444  32.801  29.835  1.00  0.00     0.031 C 
ATOM     48  C   UNL A   1      39.944  26.416  29.170  1.00  0.00     0.029 A 
ATOM     49  C   UNL A   1      41.219  26.676  28.502  1.00  0.00     0.049 A 
ATOM     50  H   UNL A   1      42.297  28.456  28.493  1.00  0.00     0.167 HD
ATOM     51  C   UNL A   1      44.515  32.217  28.607  1.00  0.00     0.037 A 
ATOM     52  C   UNL A   1      41.924  25.786  27.775  1.00  0.00     0.037 A 
ATOM     53  C   UNL A   1      45.367  31.314  27.878  1.00  0.00     0.049 A 
ATOM     54  C   UNL A   1      43.249  26.192  27.181  1.00  0.00     0.074 A 
ATOM     55  C   UNL A   1      46.620  31.555  27.340  1.00  0.00     0.029 A 
ATOM     56  N   UNL A   1      45.049  29.999  27.575  1.00  0.00    -0.354 N 
ATOM     57  N   UNL A   1      43.881  27.337  27.265  1.00  0.00    -0.248 NA
ATOM     58  C   UNL A   1      43.965  25.173  26.399  1.00  0.00     0.031 C 
ATOM     59  C   UNL A   1      47.039  30.399  26.671  1.00  0.00     0.029 A 
ATOM     60  C   UNL A   1      46.072  29.422  26.839  1.00  0.00     0.049 A 
ATOM     61  H   UNL A   1      44.219  29.542  27.844  1.00  0.00     0.167 HD
ATOM     62  C   UNL A   1      45.077  27.167  26.578  1.00  0.00     0.074 A 
ATOM     63  C   UNL A   1      45.090  25.803  26.095  1.00  0.00     0.031 C 
ATOM     64  C   UNL A   1      46.076  28.061  26.367  1.00  0.00     0.037 A 
BRANCH  51  65
ATOM     65  C   UNL A   1      44.986  33.626  28.814  1.00  0.00     0.064 A 
ATOM     66  C   UNL A   1      45.768  33.985  29.923  1.00  0.00     0.173 A 
ATOM     67  C   UNL A   1      44.677  34.624  27.878  1.00  0.00     0.173 A 
ATOM     68  F   UNL A   1      46.078  33.072  30.856  1.00  0.00    -0.203 F 
ATOM     69  C   UNL A   1      46.202  35.296  30.098  1.00  0.00     0.198 A 
ATOM     70  C   UNL A   1      45.136  35.928  28.042  1.00  0.00     0.198 A 
ATOM     71  F   UNL A   1      43.935  34.333  26.799  1.00  0.00    -0.203 F 
ATOM     72  F   UNL A   1      46.908  35.627  31.189  1.00  0.00    -0.200 F 
ATOM     73  C   UNL A   1      45.892  36.265  29.156  1.00  0.00     0.200 A 
ATOM     74  F   UNL A   1      44.845  36.860  27.124  1.00  0.00    -0.200 F 
ATOM     75  F   UNL A   1      46.314  37.526  29.323  1.00  0.00    -0.200 F 
ENDBRANCH  51  65
BRANCH  52  76
ATOM     76  C   UNL A   1      41.399  24.410  27.569  1.00  0.00     0.064 A 
ATOM     77  C   UNL A   1      42.023  23.298  28.154  1.00  0.00     0.173 A 
ATOM     78  C   UNL A   1      40.280  24.176  26.756  1.00  0.00     0.173 A 
ATOM     79  F   UNL A   1      43.114  23.468  28.914  1.00  0.00    -0.203 F 
ATOM     80  C   UNL A   1      41.561  22.005  27.916  1.00  0.00     0.198 A 
ATOM     81  C   UNL A   1      39.802  22.885  26.543  1.00  0.00     0.198 A 
ATOM     82  F   UNL A   1      39.651  25.203  26.168  1.00  0.00    -0.203 F 
ATOM     83  F   UNL A   1      42.208  20.957  28.445  1.00  0.00    -0.200 F 
ATOM     84  C   UNL A   1      40.448  21.800  27.116  1.00  0.00     0.200 A 
ATOM     85  F   UNL A   1      38.722  22.692  25.775  1.00  0.00    -0.200 F 
ATOM     86  F   UNL A   1      40.004  20.556  26.888  1.00  0.00    -0.200 F 
ENDBRANCH  52  76
BRANCH  64  87
ATOM     87  C   UNL A   1      47.284  27.579  25.612  1.00  0.00     0.064 A 
ATOM     88  C   UNL A   1      48.363  26.961  26.259  1.00  0.00     0.173 A 
ATOM     89  C   UNL A   1      47.350  27.720  24.216  1.00  0.00     0.173 A 
ATOM     90  F   UNL A   1      48.356  26.812  27.592  1.00  0.00    -0.203 F 
ATOM     91  C   UNL A   1      49.481  26.536  25.543  1.00  0.00     0.198 A 
ATOM     92  C   UNL A   1      48.454  27.266  23.501  1.00  0.00     0.198 A 
ATOM     93  F   UNL A   1      46.340  28.293  23.545  1.00  0.00    -0.203 F 
ATOM     94  F   UNL A   1      50.526  26.003  26.191  1.00  0.00    -0.200 F 
ATOM     95  C   UNL A   1      49.523  26.685  24.165  1.00  0.00     0.200 A 
ATOM     96  F   UNL A   1      48.487  27.395  22.167  1.00  0.00    -0.200 F 
ATOM     97  F   UNL A   1      50.599  26.276  23.479  1.00  0.00    -0.200 F 
ENDBRANCH  64  87
ENDBRANCH  38  39
ENDBRANCH  31  33
ENDBRANCH  30  31
ENDBRANCH  29  30
ENDBRANCH  28  29
ENDBRANCH  27  28
ENDBRANCH  26  27
ENDBRANCH   1  26
TORSDOF 20
ENDMDL
MODEL 3
REMARK VINA RESULT:     -10.6      2.861      8.792
REMARK SMILES C[C@]1(C(=O)Nc2ccc(C(=O)OCCOCCOCCOC(=O)c3ccc(-c4c5nc(c(-c6c(F)c(F)c(F)c(F)c6F)c6ccc([nH]6)c(-c6c(F)c(F)c(F)c(F)c6F)c6nc(c(-c7c(F)c(F)c(F)c(F)c7F)c7ccc4[nH]7)C=C6)C=C5)cc3)c(O)c2)CCCO1
REMARK SMILES IDX 16 1 15 2 14 3 13 4 12 5 10 6 11 7 9 8 6 9 7 10 89 11 8 12
REMARK SMILES IDX 87 13 5 14 3 15 4 16 2 18 1 19 90 20 93 21 91 22 92 23 88 24
REMARK SMILES IDX 17 26 18 27 19 28 20 29 21 30 22 31 23 32 24 33 25 34 86 35
REMARK SMILES IDX 26 36 85 37 27 38 28 39 29 40 79 41 30 42 84 43 78 44 80 45
REMARK SMILES IDX 31 46 83 47 77 48 76 49 32 51 64 52 44 53 63 54 45 55 48 56
REMARK SMILES IDX 62 57 81 58 46 59 47 60 61 62 82 63 49 64 33 65 34 66 42 67
REMARK SMILES IDX 35 68 36 69 40 70 43 71 37 72 38 73 41 74 39 75 65 76 66 77
REMARK SMILES IDX 74 78 67 79 68 80 72 81 75 82 69 83 70 84 73 85 71 86 50 87
REMARK SMILES IDX 51 88 59 89 52 90 53 91 57 92 60 93 54 94 55 95 58 96 56 97
REMARK H PARENT 5 17 88 25 80 50 48 61
REMARK Flexibility Score: inf
ROOT
ATOM      1  C   UNL A   1      32.163  29.317  25.335  1.00  0.00     0.188 C 
ENDROOT
BRANCH   1   2
ATOM      2  O   UNL A   1      31.187  28.284  25.331  1.00  0.00    -0.376 OA
BRANCH   2   3
ATOM      3  C   UNL A   1      30.607  27.848  24.110  1.00  0.00     0.202 C 
BRANCH   3   4
ATOM      4  C   UNL A   1      31.296  28.232  22.794  1.00  0.00     0.261 C 
BRANCH   4   5
ATOM      5  O   UNL A   1      31.733  27.111  22.001  1.00  0.00    -0.460 OA
BRANCH   5   6
ATOM      6  C   UNL A   1      33.039  26.769  22.153  1.00  0.00     0.341 C 
ATOM      7  O   UNL A   1      34.008  27.490  21.970  1.00  0.00    -0.246 OA
BRANCH   6   8
ATOM      8  C   UNL A   1      33.151  25.417  22.753  1.00  0.00     0.101 A 
ATOM      9  C   UNL A   1      33.324  22.944  24.063  1.00  0.00     0.045 A 
ATOM     10  C   UNL A   1      33.350  24.127  24.805  1.00  0.00     0.027 A 
ATOM     11  C   UNL A   1      33.260  22.994  22.670  1.00  0.00     0.073 A 
ATOM     12  C   UNL A   1      33.274  25.359  24.150  1.00  0.00     0.022 A 
ATOM     13  C   UNL A   1      33.125  24.225  22.020  1.00  0.00     0.132 A 
BRANCH   9  14
ATOM     14  N   UNL A   1      33.478  21.706  24.695  1.00  0.00    -0.323 N 
ATOM     15  C   UNL A   1      34.569  20.869  24.664  1.00  0.00     0.256 C 
ATOM     16  O   UNL A   1      34.350  19.654  24.665  1.00  0.00    -0.271 OA
ATOM     17  H   UNL A   1      32.711  21.394  25.226  1.00  0.00     0.170 HD
BRANCH  15  18
ATOM     18  C   UNL A   1      36.002  21.450  24.891  1.00  0.00     0.144 C 
ATOM     19  C   UNL A   1      37.137  20.439  25.015  1.00  0.00     0.053 C 
ATOM     20  C   UNL A   1      36.275  22.477  23.785  1.00  0.00     0.048 C 
ATOM     21  O   UNL A   1      36.057  22.215  26.118  1.00  0.00    -0.365 OA
ATOM     22  C   UNL A   1      37.201  23.466  24.448  1.00  0.00     0.032 C 
ATOM     23  C   UNL A   1      36.701  23.473  25.876  1.00  0.00     0.162 C 
ENDBRANCH  15  18
ENDBRANCH   9  14
BRANCH  13  24
ATOM     24  O   UNL A   1      32.946  24.173  20.666  1.00  0.00    -0.507 OA
ATOM     25  H   UNL A   1      33.554  23.702  20.132  1.00  0.00     0.293 HD
ENDBRANCH  13  24
ENDBRANCH   6   8
ENDBRANCH   5   6
ENDBRANCH   4   5
ENDBRANCH   3   4
ENDBRANCH   2   3
ENDBRANCH   1   2
BRANCH   1  26
ATOM     26  C   UNL A   1      32.245  30.328  26.496  1.00  0.00     0.188 C 
BRANCH  26  27
ATOM     27  O   UNL A   1      31.178  31.258  26.552  1.00  0.00    -0.376 OA
BRANCH  27  28
ATOM     28  C   UNL A   1      31.550  32.630  26.503  1.00  0.00     0.202 C 
BRANCH  28  29
ATOM     29  C   UNL A   1      32.509  33.090  27.611  1.00  0.00     0.261 C 
BRANCH  29  30
ATOM     30  O   UNL A   1      32.950  34.457  27.516  1.00  0.00    -0.460 OA
BRANCH  30  31
ATOM     31  C   UNL A   1      33.090  35.134  28.674  1.00  0.00     0.338 C 
ATOM     32  O   UNL A   1      32.305  35.942  29.152  1.00  0.00    -0.246 OA
BRANCH  31  33
ATOM     33  C   UNL A   1      34.265  34.602  29.391  1.00  0.00     0.060 A 
ATOM     34  C   UNL A   1      35.505  34.630  28.743  1.00  0.00     0.016 A 
ATOM     35  C   UNL A   1      34.155  34.063  30.675  1.00  0.00     0.016 A 
ATOM     36  C   UNL A   1      36.632  34.088  29.363  1.00  0.00     0.010 A 
ATOM     37  C   UNL A   1      35.285  33.506  31.290  1.00  0.00     0.010 A 
ATOM     38  C   UNL A   1      36.523  33.487  30.625  1.00  0.00    -0.014 A 
BRANCH  38  39
ATOM     39  C   UNL A   1      37.670  32.705  31.156  1.00  0.00     0.031 A 
ATOM     40  C   UNL A   1      38.201  33.030  32.526  1.00  0.00     0.074 A 
ATOM     41  C   UNL A   1      38.197  31.679  30.463  1.00  0.00     0.049 A 
ATOM     42  N   UNL A   1      39.151  32.447  33.214  1.00  0.00    -0.248 NA
ATOM     43  C   UNL A   1      37.574  34.170  33.213  1.00  0.00     0.031 C 
ATOM     44  C   UNL A   1      37.764  31.244  29.138  1.00  0.00     0.029 A 
ATOM     45  N   UNL A   1      39.213  30.812  30.787  1.00  0.00    -0.354 N 
ATOM     46  C   UNL A   1      39.228  33.141  34.415  1.00  0.00     0.074 A 
ATOM     47  C   UNL A   1      38.260  34.214  34.346  1.00  0.00     0.031 C 
ATOM     48  C   UNL A   1      38.508  30.188  28.761  1.00  0.00     0.029 A 
ATOM     49  C   UNL A   1      39.481  29.886  29.810  1.00  0.00     0.049 A 
ATOM     50  H   UNL A   1      39.702  30.852  31.640  1.00  0.00     0.167 HD
ATOM     51  C   UNL A   1      40.023  32.898  35.485  1.00  0.00     0.037 A 
ATOM     52  C   UNL A   1      40.409  28.909  29.768  1.00  0.00     0.037 A 
ATOM     53  C   UNL A   1      40.993  31.837  35.557  1.00  0.00     0.049 A 
ATOM     54  C   UNL A   1      41.319  28.692  30.951  1.00  0.00     0.074 A 
ATOM     55  C   UNL A   1      41.836  31.506  36.604  1.00  0.00     0.029 A 
ATOM     56  N   UNL A   1      41.256  30.937  34.534  1.00  0.00    -0.354 N 
ATOM     57  N   UNL A   1      41.358  29.329  32.096  1.00  0.00    -0.248 NA
ATOM     58  C   UNL A   1      42.308  27.610  30.837  1.00  0.00     0.031 C 
ATOM     59  C   UNL A   1      42.643  30.438  36.197  1.00  0.00     0.029 A 
ATOM     60  C   UNL A   1      42.264  30.067  34.917  1.00  0.00     0.049 A 
ATOM     61  H   UNL A   1      40.795  30.921  33.665  1.00  0.00     0.167 HD
ATOM     62  C   UNL A   1      42.347  28.706  32.848  1.00  0.00     0.074 A 
ATOM     63  C   UNL A   1      42.875  27.631  32.034  1.00  0.00     0.031 C 
ATOM     64  C   UNL A   1      42.779  28.998  34.101  1.00  0.00     0.037 A 
BRANCH  51  65
ATOM     65  C   UNL A   1      39.888  33.816  36.664  1.00  0.00     0.064 A 
ATOM     66  C   UNL A   1      40.611  35.016  36.748  1.00  0.00     0.173 A 
ATOM     67  C   UNL A   1      39.005  33.508  37.709  1.00  0.00     0.173 A 
ATOM     68  F   UNL A   1      41.482  35.351  35.784  1.00  0.00    -0.203 F 
ATOM     69  C   UNL A   1      40.471  35.861  37.847  1.00  0.00     0.198 A 
ATOM     70  C   UNL A   1      38.846  34.367  38.792  1.00  0.00     0.198 A 
ATOM     71  F   UNL A   1      38.288  32.374  37.676  1.00  0.00    -0.203 F 
ATOM     72  F   UNL A   1      41.207  36.978  37.930  1.00  0.00    -0.200 F 
ATOM     73  C   UNL A   1      39.585  35.539  38.865  1.00  0.00     0.200 A 
ATOM     74  F   UNL A   1      37.981  34.060  39.769  1.00  0.00    -0.200 F 
ATOM     75  F   UNL A   1      39.448  36.355  39.919  1.00  0.00    -0.200 F 
ENDBRANCH  51  65
BRANCH  52  76
ATOM     76  C   UNL A   1      40.527  28.045  28.562  1.00  0.00     0.064 A 
ATOM     77  C   UNL A   1      39.887  26.799  28.496  1.00  0.00     0.173 A 
ATOM     78  C   UNL A   1      41.308  28.437  27.465  1.00  0.00     0.173 A 
ATOM     79  F   UNL A   1      39.155  26.368  29.532  1.00  0.00    -0.203 F 
ATOM     80  C   UNL A   1      40.042  25.969  27.387  1.00  0.00     0.198 A 
ATOM     81  C   UNL A   1      41.439  27.618  26.346  1.00  0.00     0.198 A 
ATOM     82  F   UNL A   1      41.946  29.616  27.481  1.00  0.00    -0.203 F 
ATOM     83  F   UNL A   1      39.463  24.760  27.372  1.00  0.00    -0.200 F 
ATOM     84  C   UNL A   1      40.813  26.381  26.310  1.00  0.00     0.200 A 
ATOM     85  F   UNL A   1      42.177  28.024  25.304  1.00  0.00    -0.200 F 
ATOM     86  F   UNL A   1      40.961  25.582  25.245  1.00  0.00    -0.200 F 
ENDBRANCH  52  76
BRANCH  64  87
ATOM     87  C   UNL A   1      43.851  28.118  34.682  1.00  0.00     0.064 A 
ATOM     88  C   UNL A   1      45.211  28.442  34.577  1.00  0.00     0.173 A 
ATOM     89  C   UNL A   1      43.508  26.944  35.372  1.00  0.00     0.173 A 
ATOM     90  F   UNL A   1      45.594  29.547  33.919  1.00  0.00    -0.203 F 
ATOM     91  C   UNL A   1      46.191  27.606  35.108  1.00  0.00     0.198 A 
ATOM     92  C   UNL A   1      44.488  26.127  35.929  1.00  0.00     0.198 A 
ATOM     93  F   UNL A   1      42.221  26.592  35.512  1.00  0.00    -0.203 F 
ATOM     94  F   UNL A   1      47.487  27.906  34.944  1.00  0.00    -0.200 F 
ATOM     95  C   UNL A   1      45.828  26.452  35.787  1.00  0.00     0.200 A 
ATOM     96  F   UNL A   1      44.136  25.020  36.599  1.00  0.00    -0.200 F 
ATOM     97  F   UNL A   1      46.772  25.649  36.297  1.00  0.00    -0.200 F 
ENDBRANCH  64  87
ENDBRANCH  38  39
ENDBRANCH  31  33
ENDBRANCH  30  31
ENDBRANCH  29  30
ENDBRANCH  28  29
ENDBRANCH  27  28
ENDBRANCH  26  27
ENDBRANCH   1  26
TORSDOF 20
ENDMDL
