MODEL 1
REMARK VINA RESULT:     -10.9      0.000      0.000
REMARK SMILES COc1ncccc1C[C@H](C(=O)OCCOCCOCCOC(=O)c1ccc(-c2c3nc(c(-c4c(F)c(F)c(F)c(F)c4F)c4ccc([nH]4)c(-c4c(F)c(F)c(F)c(F)c4F)c4nc(c(-c5c(F)c(F)c(F)c(F)c5F)c5ccc2[nH]5)C=C4)C=C3)cc1)c1ccc(F)cc1
REMARK SMILES IDX 17 1 16 2 15 3 14 4 13 5 11 6 12 7 10 8 9 9 8 10 3 11 4 12
REMARK SMILES IDX 5 13 7 14 6 15 2 16 1 17 88 18 89 19 94 20 90 21 93 22 91 23
REMARK SMILES IDX 92 24 18 25 19 26 20 27 21 28 22 29 23 30 24 31 25 32 26 33
REMARK SMILES IDX 87 34 27 35 86 36 28 37 29 38 30 39 80 40 31 41 85 42 79 43
REMARK SMILES IDX 81 44 32 45 84 46 78 47 77 48 33 50 65 51 45 52 64 53 46 54
REMARK SMILES IDX 49 55 63 56 82 57 47 58 48 59 62 61 83 62 50 63 34 64 35 65
REMARK SMILES IDX 43 66 36 67 37 68 41 69 44 70 38 71 39 72 42 73 40 74 66 75
REMARK SMILES IDX 67 76 75 77 68 78 69 79 73 80 76 81 70 82 71 83 74 84 72 85
REMARK SMILES IDX 51 86 52 87 60 88 53 89 54 90 58 91 61 92 55 93 56 94 59 95
REMARK SMILES IDX 57 96
REMARK H PARENT 81 49 49 60
REMARK Flexibility Score: inf
ROOT
ATOM      1  C   UNL A   1      38.917  22.287  25.968  1.00  0.00     0.188 C 
ENDROOT
BRANCH   1   2
ATOM      2  O   UNL A   1      38.157  21.568  25.014  1.00  0.00    -0.376 OA
BRANCH   2   3
ATOM      3  C   UNL A   1      36.814  21.996  24.826  1.00  0.00     0.202 C 
BRANCH   3   4
ATOM      4  C   UNL A   1      36.551  23.496  24.601  1.00  0.00     0.261 C 
BRANCH   4   5
ATOM      5  O   UNL A   1      35.250  23.845  24.090  1.00  0.00    -0.463 OA
BRANCH   5   6
ATOM      6  C   UNL A   1      34.413  24.511  24.928  1.00  0.00     0.313 C 
ATOM      7  O   UNL A   1      34.731  24.833  26.067  1.00  0.00    -0.252 OA
BRANCH   6   8
ATOM      8  C   UNL A   1      33.109  24.927  24.206  1.00  0.00     0.134 C 
BRANCH   8   9
ATOM      9  C   UNL A   1      31.899  24.010  24.556  1.00  0.00     0.061 C 
BRANCH   9  10
ATOM     10  C   UNL A   1      32.097  22.521  24.309  1.00  0.00     0.015 A 
ATOM     11  C   UNL A   1      32.411  21.630  25.334  1.00  0.00     0.216 A 
ATOM     12  N   UNL A   1      32.615  20.300  25.176  1.00  0.00    -0.222 NA
ATOM     13  C   UNL A   1      32.524  19.822  23.916  1.00  0.00     0.115 A 
ATOM     14  C   UNL A   1      32.005  21.974  23.023  1.00  0.00     0.011 A 
ATOM     15  C   UNL A   1      32.222  20.611  22.820  1.00  0.00     0.021 A 
BRANCH  11  16
ATOM     16  O   UNL A   1      32.649  22.150  26.582  1.00  0.00    -0.481 OA
ATOM     17  C   UNL A   1      33.658  21.400  27.245  1.00  0.00     0.280 C 
ENDBRANCH  11  16
ENDBRANCH   9  10
ENDBRANCH   8   9
BRANCH   8  18
ATOM     18  C   UNL A   1      32.826  26.407  24.470  1.00  0.00    -0.033 A 
ATOM     19  C   UNL A   1      31.880  26.791  25.436  1.00  0.00     0.007 A 
ATOM     20  C   UNL A   1      33.559  27.407  23.806  1.00  0.00     0.007 A 
ATOM     21  C   UNL A   1      31.661  28.138  25.720  1.00  0.00     0.039 A 
ATOM     22  C   UNL A   1      33.316  28.757  24.070  1.00  0.00     0.039 A 
ATOM     23  C   UNL A   1      32.371  29.109  25.025  1.00  0.00     0.123 A 
ATOM     24  F   UNL A   1      32.149  30.403  25.289  1.00  0.00    -0.207 F 
ENDBRANCH   8  18
ENDBRANCH   6   8
ENDBRANCH   5   6
ENDBRANCH   4   5
ENDBRANCH   3   4
ENDBRANCH   2   3
ENDBRANCH   1   2
BRANCH   1  25
ATOM     25  C   UNL A   1      39.964  21.423  26.695  1.00  0.00     0.188 C 
BRANCH  25  26
ATOM     26  O   UNL A   1      40.996  20.780  25.964  1.00  0.00    -0.376 OA
BRANCH  26  27
ATOM     27  C   UNL A   1      42.347  21.019  26.336  1.00  0.00     0.202 C 
BRANCH  27  28
ATOM     28  C   UNL A   1      43.303  21.734  25.362  1.00  0.00     0.261 C 
BRANCH  28  29
ATOM     29  O   UNL A   1      42.825  22.965  24.791  1.00  0.00    -0.460 OA
BRANCH  29  30
ATOM     30  C   UNL A   1      43.616  24.051  24.995  1.00  0.00     0.338 C 
ATOM     31  O   UNL A   1      44.669  24.314  24.443  1.00  0.00    -0.246 OA
BRANCH  30  32
ATOM     32  C   UNL A   1      42.919  25.016  25.875  1.00  0.00     0.060 A 
ATOM     33  C   UNL A   1      43.412  26.329  25.958  1.00  0.00     0.016 A 
ATOM     34  C   UNL A   1      41.834  24.622  26.658  1.00  0.00     0.016 A 
ATOM     35  C   UNL A   1      42.837  27.242  26.841  1.00  0.00     0.010 A 
ATOM     36  C   UNL A   1      41.279  25.531  27.566  1.00  0.00     0.010 A 
ATOM     37  C   UNL A   1      41.798  26.835  27.684  1.00  0.00    -0.014 A 
BRANCH  37  38
ATOM     38  C   UNL A   1      41.388  27.696  28.820  1.00  0.00     0.031 A 
ATOM     39  C   UNL A   1      42.166  27.606  30.104  1.00  0.00     0.074 A 
ATOM     40  C   UNL A   1      40.356  28.551  28.719  1.00  0.00     0.049 A 
ATOM     41  N   UNL A   1      41.955  28.196  31.252  1.00  0.00    -0.248 NA
ATOM     42  C   UNL A   1      43.343  26.722  30.090  1.00  0.00     0.031 C 
ATOM     43  C   UNL A   1      39.553  28.769  27.519  1.00  0.00     0.029 A 
ATOM     44  N   UNL A   1      39.798  29.387  29.655  1.00  0.00    -0.354 N 
ATOM     45  C   UNL A   1      42.964  27.750  32.097  1.00  0.00     0.074 A 
ATOM     46  C   UNL A   1      43.770  26.818  31.340  1.00  0.00     0.031 C 
ATOM     47  C   UNL A   1      38.591  29.666  27.797  1.00  0.00     0.029 A 
ATOM     48  C   UNL A   1      38.690  30.057  29.203  1.00  0.00     0.049 A 
ATOM     49  H   UNL A   1      40.161  29.494  30.565  1.00  0.00     0.167 HD
ATOM     50  C   UNL A   1      43.199  28.090  33.386  1.00  0.00     0.037 A 
ATOM     51  C   UNL A   1      37.838  30.871  29.859  1.00  0.00     0.037 A 
ATOM     52  C   UNL A   1      42.394  29.014  34.141  1.00  0.00     0.049 A 
ATOM     53  C   UNL A   1      38.075  31.172  31.319  1.00  0.00     0.074 A 
ATOM     54  C   UNL A   1      42.560  29.435  35.449  1.00  0.00     0.029 A 
ATOM     55  N   UNL A   1      41.262  29.653  33.656  1.00  0.00    -0.354 N 
ATOM     56  N   UNL A   1      39.041  30.764  32.106  1.00  0.00    -0.248 NA
ATOM     57  C   UNL A   1      37.099  32.050  31.981  1.00  0.00     0.031 C 
ATOM     58  C   UNL A   1      41.497  30.284  35.773  1.00  0.00     0.029 A 
ATOM     59  C   UNL A   1      40.704  30.444  34.648  1.00  0.00     0.049 A 
ATOM     60  H   UNL A   1      40.908  29.559  32.743  1.00  0.00     0.167 HD
ATOM     61  C   UNL A   1      38.810  31.362  33.340  1.00  0.00     0.074 A 
ATOM     62  C   UNL A   1      37.617  32.169  33.195  1.00  0.00     0.031 C 
ATOM     63  C   UNL A   1      39.523  31.254  34.489  1.00  0.00     0.037 A 
BRANCH  50  64
ATOM     64  C   UNL A   1      44.360  27.435  34.074  1.00  0.00     0.064 A 
ATOM     65  C   UNL A   1      44.255  26.160  34.650  1.00  0.00     0.173 A 
ATOM     66  C   UNL A   1      45.606  28.079  34.131  1.00  0.00     0.173 A 
ATOM     67  F   UNL A   1      43.083  25.508  34.636  1.00  0.00    -0.203 F 
ATOM     68  C   UNL A   1      45.345  25.567  35.282  1.00  0.00     0.198 A 
ATOM     69  C   UNL A   1      46.702  27.470  34.735  1.00  0.00     0.198 A 
ATOM     70  F   UNL A   1      45.762  29.298  33.593  1.00  0.00    -0.203 F 
ATOM     71  F   UNL A   1      45.208  24.370  35.870  1.00  0.00    -0.200 F 
ATOM     72  C   UNL A   1      46.569  26.218  35.318  1.00  0.00     0.200 A 
ATOM     73  F   UNL A   1      47.887  28.096  34.758  1.00  0.00    -0.200 F 
ATOM     74  F   UNL A   1      47.620  25.643  35.920  1.00  0.00    -0.200 F 
ENDBRANCH  50  64
BRANCH  51  75
ATOM     75  C   UNL A   1      36.666  31.452  29.152  1.00  0.00     0.064 A 
ATOM     76  C   UNL A   1      36.626  32.812  28.814  1.00  0.00     0.173 A 
ATOM     77  C   UNL A   1      35.550  30.667  28.827  1.00  0.00     0.173 A 
ATOM     78  F   UNL A   1      37.656  33.610  29.129  1.00  0.00    -0.203 F 
ATOM     79  C   UNL A   1      35.505  33.369  28.200  1.00  0.00     0.198 A 
ATOM     80  C   UNL A   1      34.443  31.218  28.186  1.00  0.00     0.198 A 
ATOM     81  F   UNL A   1      35.534  29.361  29.134  1.00  0.00    -0.203 F 
ATOM     82  F   UNL A   1      35.471  34.682  27.940  1.00  0.00    -0.200 F 
ATOM     83  C   UNL A   1      34.417  32.571  27.882  1.00  0.00     0.200 A 
ATOM     84  F   UNL A   1      33.397  30.441  27.872  1.00  0.00    -0.200 F 
ATOM     85  F   UNL A   1      33.340  33.106  27.292  1.00  0.00    -0.200 F 
ENDBRANCH  51  75
BRANCH  63  86
ATOM     86  C   UNL A   1      39.066  32.063  35.671  1.00  0.00     0.064 A 
ATOM     87  C   UNL A   1      38.245  31.518  36.668  1.00  0.00     0.173 A 
ATOM     88  C   UNL A   1      39.494  33.391  35.827  1.00  0.00     0.173 A 
ATOM     89  F   UNL A   1      37.796  30.258  36.562  1.00  0.00    -0.203 F 
ATOM     90  C   UNL A   1      37.846  32.281  37.764  1.00  0.00     0.198 A 
ATOM     91  C   UNL A   1      39.121  34.140  36.940  1.00  0.00     0.198 A 
ATOM     92  F   UNL A   1      40.289  33.958  34.907  1.00  0.00    -0.203 F 
ATOM     93  F   UNL A   1      37.020  31.756  38.679  1.00  0.00    -0.200 F 
ATOM     94  C   UNL A   1      38.291  33.588  37.903  1.00  0.00     0.200 A 
ATOM     95  F   UNL A   1      39.566  35.396  37.080  1.00  0.00    -0.200 F 
ATOM     96  F   UNL A   1      37.914  34.316  38.962  1.00  0.00    -0.200 F 
ENDBRANCH  63  86
ENDBRANCH  37  38
ENDBRANCH  30  32
ENDBRANCH  29  30
ENDBRANCH  28  29
ENDBRANCH  27  28
ENDBRANCH  26  27
ENDBRANCH  25  26
ENDBRANCH   1  25
TORSDOF 21
ENDMDL
MODEL 2
REMARK VINA RESULT:     -10.4      1.809      3.600
REMARK SMILES COc1ncccc1C[C@H](C(=O)OCCOCCOCCOC(=O)c1ccc(-c2c3nc(c(-c4c(F)c(F)c(F)c(F)c4F)c4ccc([nH]4)c(-c4c(F)c(F)c(F)c(F)c4F)c4nc(c(-c5c(F)c(F)c(F)c(F)c5F)c5ccc2[nH]5)C=C4)C=C3)cc1)c1ccc(F)cc1
REMARK SMILES IDX 17 1 16 2 15 3 14 4 13 5 11 6 12 7 10 8 9 9 8 10 3 11 4 12
REMARK SMILES IDX 5 13 7 14 6 15 2 16 1 17 88 18 89 19 94 20 90 21 93 22 91 23
REMARK SMILES IDX 92 24 18 25 19 26 20 27 21 28 22 29 23 30 24 31 25 32 26 33
REMARK SMILES IDX 87 34 27 35 86 36 28 37 29 38 30 39 80 40 31 41 85 42 79 43
REMARK SMILES IDX 81 44 32 45 84 46 78 47 77 48 33 50 65 51 45 52 64 53 46 54
REMARK SMILES IDX 49 55 63 56 82 57 47 58 48 59 62 61 83 62 50 63 34 64 35 65
REMARK SMILES IDX 43 66 36 67 37 68 41 69 44 70 38 71 39 72 42 73 40 74 66 75
REMARK SMILES IDX 67 76 75 77 68 78 69 79 73 80 76 81 70 82 71 83 74 84 72 85
REMARK SMILES IDX 51 86 52 87 60 88 53 89 54 90 58 91 61 92 55 93 56 94 59 95
REMARK SMILES IDX 57 96
REMARK H PARENT 81 49 49 60
REMARK Flexibility Score: inf
ROOT
ATOM      1  C   UNL A   1      38.767  22.027  26.069  1.00  0.00     0.188 C 
ENDROOT
BRANCH   1   2
ATOM      2  O   UNL A   1      38.381  21.072  25.097  1.00  0.00    -0.376 OA
BRANCH   2   3
ATOM      3  C   UNL A   1      36.996  21.022  24.779  1.00  0.00     0.202 C 
BRANCH   3   4
ATOM      4  C   UNL A   1      36.181  22.326  24.856  1.00  0.00     0.261 C 
BRANCH   4   5
ATOM      5  O   UNL A   1      34.789  22.230  24.500  1.00  0.00    -0.463 OA
BRANCH   5   6
ATOM      6  C   UNL A   1      33.899  22.070  25.514  1.00  0.00     0.313 C 
ATOM      7  O   UNL A   1      34.069  22.550  26.629  1.00  0.00    -0.252 OA
BRANCH   6   8
ATOM      8  C   UNL A   1      32.614  21.357  25.027  1.00  0.00     0.134 C 
BRANCH   8   9
ATOM      9  C   UNL A   1      31.761  22.231  24.061  1.00  0.00     0.061 C 
BRANCH   9  10
ATOM     10  C   UNL A   1      31.531  23.673  24.493  1.00  0.00     0.015 A 
ATOM     11  C   UNL A   1      32.069  24.755  23.799  1.00  0.00     0.216 A 
ATOM     12  N   UNL A   1      31.914  26.056  24.142  1.00  0.00    -0.222 NA
ATOM     13  C   UNL A   1      31.197  26.304  25.259  1.00  0.00     0.115 A 
ATOM     14  C   UNL A   1      30.788  23.983  25.639  1.00  0.00     0.011 A 
ATOM     15  C   UNL A   1      30.618  25.312  26.031  1.00  0.00     0.021 A 
BRANCH  11  16
ATOM     16  O   UNL A   1      32.919  24.486  22.755  1.00  0.00    -0.481 OA
ATOM     17  C   UNL A   1      33.257  25.685  22.072  1.00  0.00     0.280 C 
ENDBRANCH  11  16
ENDBRANCH   9  10
ENDBRANCH   8   9
BRANCH   8  18
ATOM     18  C   UNL A   1      32.978  19.996  24.429  1.00  0.00    -0.033 A 
ATOM     19  C   UNL A   1      33.843  19.125  25.113  1.00  0.00     0.007 A 
ATOM     20  C   UNL A   1      32.396  19.564  23.224  1.00  0.00     0.007 A 
ATOM     21  C   UNL A   1      34.133  17.862  24.598  1.00  0.00     0.039 A 
ATOM     22  C   UNL A   1      32.711  18.310  22.695  1.00  0.00     0.039 A 
ATOM     23  C   UNL A   1      33.574  17.472  23.388  1.00  0.00     0.123 A 
ATOM     24  F   UNL A   1      33.864  16.263  22.888  1.00  0.00    -0.207 F 
ENDBRANCH   8  18
ENDBRANCH   6   8
ENDBRANCH   5   6
ENDBRANCH   4   5
ENDBRANCH   3   4
ENDBRANCH   2   3
ENDBRANCH   1   2
BRANCH   1  25
ATOM     25  C   UNL A   1      40.156  21.754  26.677  1.00  0.00     0.188 C 
BRANCH  25  26
ATOM     26  O   UNL A   1      41.237  21.357  25.848  1.00  0.00    -0.376 OA
BRANCH  26  27
ATOM     27  C   UNL A   1      42.548  21.797  26.178  1.00  0.00     0.202 C 
BRANCH  27  28
ATOM     28  C   UNL A   1      43.525  22.219  25.065  1.00  0.00     0.261 C 
BRANCH  28  29
ATOM     29  O   UNL A   1      43.346  23.542  24.530  1.00  0.00    -0.460 OA
BRANCH  29  30
ATOM     30  C   UNL A   1      44.170  24.496  25.037  1.00  0.00     0.338 C 
ATOM     31  O   UNL A   1      45.321  24.727  24.714  1.00  0.00    -0.246 OA
BRANCH  30  32
ATOM     32  C   UNL A   1      43.406  25.385  25.941  1.00  0.00     0.060 A 
ATOM     33  C   UNL A   1      43.735  26.749  25.980  1.00  0.00     0.016 A 
ATOM     34  C   UNL A   1      42.422  24.875  26.787  1.00  0.00     0.016 A 
ATOM     35  C   UNL A   1      43.099  27.602  26.882  1.00  0.00     0.010 A 
ATOM     36  C   UNL A   1      41.807  25.725  27.713  1.00  0.00     0.010 A 
ATOM     37  C   UNL A   1      42.164  27.085  27.786  1.00  0.00    -0.014 A 
BRANCH  37  38
ATOM     38  C   UNL A   1      41.712  27.911  28.932  1.00  0.00     0.031 A 
ATOM     39  C   UNL A   1      42.476  27.823  30.225  1.00  0.00     0.074 A 
ATOM     40  C   UNL A   1      40.653  28.733  28.832  1.00  0.00     0.049 A 
ATOM     41  N   UNL A   1      42.230  28.384  31.381  1.00  0.00    -0.248 NA
ATOM     42  C   UNL A   1      43.682  26.979  30.210  1.00  0.00     0.031 C 
ATOM     43  C   UNL A   1      39.858  28.946  27.626  1.00  0.00     0.029 A 
ATOM     44  N   UNL A   1      40.055  29.532  29.776  1.00  0.00    -0.354 N 
ATOM     45  C   UNL A   1      43.242  27.956  32.231  1.00  0.00     0.074 A 
ATOM     46  C   UNL A   1      44.089  27.065  31.468  1.00  0.00     0.031 C 
ATOM     47  C   UNL A   1      38.863  29.806  27.907  1.00  0.00     0.029 A 
ATOM     48  C   UNL A   1      38.931  30.174  29.321  1.00  0.00     0.049 A 
ATOM     49  H   UNL A   1      40.402  29.635  30.693  1.00  0.00     0.167 HD
ATOM     50  C   UNL A   1      43.449  28.280  33.529  1.00  0.00     0.037 A 
ATOM     51  C   UNL A   1      38.044  30.947  29.980  1.00  0.00     0.037 A 
ATOM     52  C   UNL A   1      42.603  29.162  34.289  1.00  0.00     0.049 A 
ATOM     53  C   UNL A   1      38.251  31.228  31.449  1.00  0.00     0.074 A 
ATOM     54  C   UNL A   1      42.738  29.565  35.607  1.00  0.00     0.029 A 
ATOM     55  N   UNL A   1      41.457  29.773  33.801  1.00  0.00    -0.354 N 
ATOM     56  N   UNL A   1      39.221  30.838  32.241  1.00  0.00    -0.248 NA
ATOM     57  C   UNL A   1      37.238  32.061  32.113  1.00  0.00     0.031 C 
ATOM     58  C   UNL A   1      41.643  30.371  35.932  1.00  0.00     0.029 A 
ATOM     59  C   UNL A   1      40.861  30.526  34.799  1.00  0.00     0.049 A 
ATOM     60  H   UNL A   1      41.118  29.684  32.882  1.00  0.00     0.167 HD
ATOM     61  C   UNL A   1      38.953  31.404  33.482  1.00  0.00     0.074 A 
ATOM     62  C   UNL A   1      37.737  32.174  33.336  1.00  0.00     0.031 C 
ATOM     63  C   UNL A   1      39.655  31.298  34.639  1.00  0.00     0.037 A 
BRANCH  50  64
ATOM     64  C   UNL A   1      44.622  27.651  34.220  1.00  0.00     0.064 A 
ATOM     65  C   UNL A   1      45.879  28.274  34.259  1.00  0.00     0.173 A 
ATOM     66  C   UNL A   1      44.481  26.418  34.877  1.00  0.00     0.173 A 
ATOM     67  F   UNL A   1      46.072  29.444  33.633  1.00  0.00    -0.203 F 
ATOM     68  C   UNL A   1      46.956  27.674  34.907  1.00  0.00     0.198 A 
ATOM     69  C   UNL A   1      45.551  25.838  35.551  1.00  0.00     0.198 A 
ATOM     70  F   UNL A   1      43.300  25.782  34.873  1.00  0.00    -0.203 F 
ATOM     71  F   UNL A   1      48.159  28.264  34.889  1.00  0.00    -0.200 F 
ATOM     72  C   UNL A   1      46.790  26.461  35.559  1.00  0.00     0.200 A 
ATOM     73  F   UNL A   1      45.385  24.672  36.192  1.00  0.00    -0.200 F 
ATOM     74  F   UNL A   1      47.826  25.889  36.189  1.00  0.00    -0.200 F 
ENDBRANCH  50  64
BRANCH  51  75
ATOM     75  C   UNL A   1      36.863  31.501  29.267  1.00  0.00     0.064 A 
ATOM     76  C   UNL A   1      36.794  32.860  28.928  1.00  0.00     0.173 A 
ATOM     77  C   UNL A   1      35.764  30.692  28.940  1.00  0.00     0.173 A 
ATOM     78  F   UNL A   1      37.806  33.680  29.245  1.00  0.00    -0.203 F 
ATOM     79  C   UNL A   1      35.664  33.392  28.309  1.00  0.00     0.198 A 
ATOM     80  C   UNL A   1      34.648  31.219  28.294  1.00  0.00     0.198 A 
ATOM     81  F   UNL A   1      35.776  29.387  29.248  1.00  0.00    -0.203 F 
ATOM     82  F   UNL A   1      35.603  34.704  28.047  1.00  0.00    -0.200 F 
ATOM     83  C   UNL A   1      34.595  32.570  27.988  1.00  0.00     0.200 A 
ATOM     84  F   UNL A   1      33.621  30.419  27.977  1.00  0.00    -0.200 F 
ATOM     85  F   UNL A   1      33.508  33.081  27.393  1.00  0.00    -0.200 F 
ENDBRANCH  51  75
BRANCH  63  86
ATOM     86  C   UNL A   1      39.156  32.070  35.829  1.00  0.00     0.064 A 
ATOM     87  C   UNL A   1      39.497  33.414  36.037  1.00  0.00     0.173 A 
ATOM     88  C   UNL A   1      38.287  31.464  36.751  1.00  0.00     0.173 A 
ATOM     89  F   UNL A   1      40.334  34.037  35.194  1.00  0.00    -0.203 F 
ATOM     90  C   UNL A   1      39.010  34.115  37.138  1.00  0.00     0.198 A 
ATOM     91  C   UNL A   1      37.775  32.177  37.832  1.00  0.00     0.198 A 
ATOM     92  F   UNL A   1      37.921  30.183  36.594  1.00  0.00    -0.203 F 
ATOM     93  F   UNL A   1      39.389  35.383  37.344  1.00  0.00    -0.200 F 
ATOM     94  C   UNL A   1      38.144  33.499  38.030  1.00  0.00     0.200 A 
ATOM     95  F   UNL A   1      36.926  31.585  38.682  1.00  0.00    -0.200 F 
ATOM     96  F   UNL A   1      37.669  34.178  39.082  1.00  0.00    -0.200 F 
ENDBRANCH  63  86
ENDBRANCH  37  38
ENDBRANCH  30  32
ENDBRANCH  29  30
ENDBRANCH  28  29
ENDBRANCH  27  28
ENDBRANCH  26  27
ENDBRANCH  25  26
ENDBRANCH   1  25
TORSDOF 21
ENDMDL
MODEL 3
REMARK VINA RESULT:     -10.1      5.220      7.774
REMARK SMILES COc1ncccc1C[C@H](C(=O)OCCOCCOCCOC(=O)c1ccc(-c2c3nc(c(-c4c(F)c(F)c(F)c(F)c4F)c4ccc([nH]4)c(-c4c(F)c(F)c(F)c(F)c4F)c4nc(c(-c5c(F)c(F)c(F)c(F)c5F)c5ccc2[nH]5)C=C4)C=C3)cc1)c1ccc(F)cc1
REMARK SMILES IDX 17 1 16 2 15 3 14 4 13 5 11 6 12 7 10 8 9 9 8 10 3 11 4 12
REMARK SMILES IDX 5 13 7 14 6 15 2 16 1 17 88 18 89 19 94 20 90 21 93 22 91 23
REMARK SMILES IDX 92 24 18 25 19 26 20 27 21 28 22 29 23 30 24 31 25 32 26 33
REMARK SMILES IDX 87 34 27 35 86 36 28 37 29 38 30 39 80 40 31 41 85 42 79 43
REMARK SMILES IDX 81 44 32 45 84 46 78 47 77 48 33 50 65 51 45 52 64 53 46 54
REMARK SMILES IDX 49 55 63 56 82 57 47 58 48 59 62 61 83 62 50 63 34 64 35 65
REMARK SMILES IDX 43 66 36 67 37 68 41 69 44 70 38 71 39 72 42 73 40 74 66 75
REMARK SMILES IDX 67 76 75 77 68 78 69 79 73 80 76 81 70 82 71 83 74 84 72 85
REMARK SMILES IDX 51 86 52 87 60 88 53 89 54 90 58 91 61 92 55 93 56 94 59 95
REMARK SMILES IDX 57 96
REMARK H PARENT 81 49 49 60
REMARK Flexibility Score: inf
ROOT
ATOM      1  C   UNL A   1      40.634  21.199  26.658  1.00  0.00     0.188 C 
ENDROOT
BRANCH   1   2
ATOM      2  O   UNL A   1      39.732  22.269  26.447  1.00  0.00    -0.376 OA
BRANCH   2   3
ATOM      3  C   UNL A   1      38.467  21.927  25.896  1.00  0.00     0.202 C 
BRANCH   3   4
ATOM      4  C   UNL A   1      37.428  23.047  25.700  1.00  0.00     0.261 C 
BRANCH   4   5
ATOM      5  O   UNL A   1      36.067  22.721  26.040  1.00  0.00    -0.463 OA
BRANCH   5   6
ATOM      6  C   UNL A   1      35.287  22.209  25.052  1.00  0.00     0.313 C 
ATOM      7  O   UNL A   1      35.617  22.220  23.873  1.00  0.00    -0.252 OA
BRANCH   6   8
ATOM      8  C   UNL A   1      34.042  21.495  25.633  1.00  0.00     0.134 C 
BRANCH   8   9
ATOM      9  C   UNL A   1      32.761  22.382  25.599  1.00  0.00     0.061 C 
BRANCH   9  10
ATOM     10  C   UNL A   1      32.961  23.826  25.163  1.00  0.00     0.015 A 
ATOM     11  C   UNL A   1      32.657  24.266  23.875  1.00  0.00     0.216 A 
ATOM     12  N   UNL A   1      32.828  25.531  23.422  1.00  0.00    -0.222 NA
ATOM     13  C   UNL A   1      33.354  26.417  24.295  1.00  0.00     0.115 A 
ATOM     14  C   UNL A   1      33.495  24.786  26.032  1.00  0.00     0.011 A 
ATOM     15  C   UNL A   1      33.697  26.097  25.596  1.00  0.00     0.021 A 
BRANCH  11  16
ATOM     16  O   UNL A   1      32.266  23.325  22.955  1.00  0.00    -0.481 OA
ATOM     17  C   UNL A   1      33.196  23.268  21.882  1.00  0.00     0.280 C 
ENDBRANCH  11  16
ENDBRANCH   9  10
ENDBRANCH   8   9
BRANCH   8  18
ATOM     18  C   UNL A   1      33.849  20.149  24.932  1.00  0.00    -0.033 A 
ATOM     19  C   UNL A   1      32.684  19.893  24.189  1.00  0.00     0.007 A 
ATOM     20  C   UNL A   1      34.864  19.176  24.956  1.00  0.00     0.007 A 
ATOM     21  C   UNL A   1      32.530  18.689  23.502  1.00  0.00     0.039 A 
ATOM     22  C   UNL A   1      34.694  17.959  24.293  1.00  0.00     0.039 A 
ATOM     23  C   UNL A   1      33.530  17.729  23.571  1.00  0.00     0.123 A 
ATOM     24  F   UNL A   1      33.374  16.567  22.922  1.00  0.00    -0.207 F 
ENDBRANCH   8  18
ENDBRANCH   6   8
ENDBRANCH   5   6
ENDBRANCH   4   5
ENDBRANCH   3   4
ENDBRANCH   2   3
ENDBRANCH   1   2
BRANCH   1  25
ATOM     25  C   UNL A   1      40.213  19.895  25.953  1.00  0.00     0.188 C 
BRANCH  25  26
ATOM     26  O   UNL A   1      41.181  18.909  25.631  1.00  0.00    -0.376 OA
BRANCH  26  27
ATOM     27  C   UNL A   1      42.447  18.957  26.276  1.00  0.00     0.202 C 
BRANCH  27  28
ATOM     28  C   UNL A   1      43.698  18.407  25.566  1.00  0.00     0.261 C 
BRANCH  28  29
ATOM     29  O   UNL A   1      43.986  18.958  24.268  1.00  0.00    -0.460 OA
BRANCH  29  30
ATOM     30  C   UNL A   1      45.133  19.680  24.178  1.00  0.00     0.338 C 
ATOM     31  O   UNL A   1      46.155  19.376  23.592  1.00  0.00    -0.246 OA
BRANCH  30  32
ATOM     32  C   UNL A   1      44.917  21.028  24.750  1.00  0.00     0.060 A 
ATOM     33  C   UNL A   1      44.491  22.061  23.899  1.00  0.00     0.016 A 
ATOM     34  C   UNL A   1      45.192  21.293  26.092  1.00  0.00     0.016 A 
ATOM     35  C   UNL A   1      44.361  23.363  24.380  1.00  0.00     0.010 A 
ATOM     36  C   UNL A   1      45.092  22.606  26.566  1.00  0.00     0.010 A 
ATOM     37  C   UNL A   1      44.706  23.652  25.705  1.00  0.00    -0.014 A 
BRANCH  37  38
ATOM     38  C   UNL A   1      44.860  25.062  26.137  1.00  0.00     0.031 A 
ATOM     39  C   UNL A   1      46.222  25.693  26.054  1.00  0.00     0.074 A 
ATOM     40  C   UNL A   1      43.814  25.779  26.585  1.00  0.00     0.049 A 
ATOM     41  N   UNL A   1      46.620  26.878  26.441  1.00  0.00    -0.248 NA
ATOM     42  C   UNL A   1      47.284  24.869  25.453  1.00  0.00     0.031 C 
ATOM     43  C   UNL A   1      42.436  25.302  26.670  1.00  0.00     0.029 A 
ATOM     44  N   UNL A   1      43.758  27.063  27.069  1.00  0.00    -0.354 N 
ATOM     45  C   UNL A   1      47.975  26.938  26.141  1.00  0.00     0.074 A 
ATOM     46  C   UNL A   1      48.339  25.662  25.565  1.00  0.00     0.031 C 
ATOM     47  C   UNL A   1      41.671  26.275  27.195  1.00  0.00     0.029 A 
ATOM     48  C   UNL A   1      42.512  27.428  27.515  1.00  0.00     0.049 A 
ATOM     49  H   UNL A   1      44.538  27.664  27.093  1.00  0.00     0.167 HD
ATOM     50  C   UNL A   1      48.836  27.967  26.323  1.00  0.00     0.037 A 
ATOM     51  C   UNL A   1      42.107  28.555  28.135  1.00  0.00     0.037 A 
ATOM     52  C   UNL A   1      48.475  29.234  26.900  1.00  0.00     0.049 A 
ATOM     53  C   UNL A   1      43.105  29.656  28.402  1.00  0.00     0.074 A 
ATOM     54  C   UNL A   1      49.273  30.345  27.113  1.00  0.00     0.029 A 
ATOM     55  N   UNL A   1      47.208  29.558  27.365  1.00  0.00    -0.354 N 
ATOM     56  N   UNL A   1      44.379  29.716  28.097  1.00  0.00    -0.248 NA
ATOM     57  C   UNL A   1      42.603  30.849  29.100  1.00  0.00     0.031 C 
ATOM     58  C   UNL A   1      48.505  31.318  27.759  1.00  0.00     0.029 A 
ATOM     59  C   UNL A   1      47.211  30.841  27.890  1.00  0.00     0.049 A 
ATOM     60  H   UNL A   1      46.425  28.964  27.327  1.00  0.00     0.167 HD
ATOM     61  C   UNL A   1      44.820  30.960  28.532  1.00  0.00     0.074 A 
ATOM     62  C   UNL A   1      43.675  31.629  29.113  1.00  0.00     0.031 C 
ATOM     63  C   UNL A   1      46.062  31.501  28.455  1.00  0.00     0.037 A 
BRANCH  50  64
ATOM     64  C   UNL A   1      50.266  27.750  25.922  1.00  0.00     0.064 A 
ATOM     65  C   UNL A   1      51.257  27.425  26.861  1.00  0.00     0.173 A 
ATOM     66  C   UNL A   1      50.645  27.842  24.573  1.00  0.00     0.173 A 
ATOM     67  F   UNL A   1      50.950  27.340  28.164  1.00  0.00    -0.203 F 
ATOM     68  C   UNL A   1      52.578  27.226  26.468  1.00  0.00     0.198 A 
ATOM     69  C   UNL A   1      51.960  27.611  24.181  1.00  0.00     0.198 A 
ATOM     70  F   UNL A   1      49.737  28.148  23.635  1.00  0.00    -0.203 F 
ATOM     71  F   UNL A   1      53.517  26.965  27.389  1.00  0.00    -0.200 F 
ATOM     72  C   UNL A   1      52.928  27.312  25.129  1.00  0.00     0.200 A 
ATOM     73  F   UNL A   1      52.294  27.682  22.885  1.00  0.00    -0.200 F 
ATOM     74  F   UNL A   1      54.198  27.112  24.752  1.00  0.00    -0.200 F 
ENDBRANCH  50  64
BRANCH  51  75
ATOM     75  C   UNL A   1      40.692  28.700  28.568  1.00  0.00     0.064 A 
ATOM     76  C   UNL A   1      40.290  28.338  29.862  1.00  0.00     0.173 A 
ATOM     77  C   UNL A   1      39.706  29.173  27.688  1.00  0.00     0.173 A 
ATOM     78  F   UNL A   1      41.189  27.854  30.731  1.00  0.00    -0.203 F 
ATOM     79  C   UNL A   1      38.954  28.423  30.251  1.00  0.00     0.198 A 
ATOM     80  C   UNL A   1      38.377  29.285  28.089  1.00  0.00     0.198 A 
ATOM     81  F   UNL A   1      40.036  29.526  26.437  1.00  0.00    -0.203 F 
ATOM     82  F   UNL A   1      38.590  28.018  31.475  1.00  0.00    -0.200 F 
ATOM     83  C   UNL A   1      38.000  28.901  29.366  1.00  0.00     0.200 A 
ATOM     84  F   UNL A   1      37.460  29.757  27.233  1.00  0.00    -0.200 F 
ATOM     85  F   UNL A   1      36.716  28.981  29.740  1.00  0.00    -0.200 F 
ENDBRANCH  51  75
BRANCH  63  86
ATOM     86  C   UNL A   1      46.243  32.903  28.966  1.00  0.00     0.064 A 
ATOM     87  C   UNL A   1      46.058  34.022  28.141  1.00  0.00     0.173 A 
ATOM     88  C   UNL A   1      46.564  33.129  30.313  1.00  0.00     0.173 A 
ATOM     89  F   UNL A   1      45.764  33.862  26.842  1.00  0.00    -0.203 F 
ATOM     90  C   UNL A   1      46.215  35.314  28.639  1.00  0.00     0.198 A 
ATOM     91  C   UNL A   1      46.687  34.422  30.816  1.00  0.00     0.198 A 
ATOM     92  F   UNL A   1      46.743  32.095  31.149  1.00  0.00    -0.203 F 
ATOM     93  F   UNL A   1      46.083  36.366  27.820  1.00  0.00    -0.200 F 
ATOM     94  C   UNL A   1      46.522  35.512  29.977  1.00  0.00     0.200 A 
ATOM     95  F   UNL A   1      46.966  34.612  32.113  1.00  0.00    -0.200 F 
ATOM     96  F   UNL A   1      46.662  36.756  30.455  1.00  0.00    -0.200 F 
ENDBRANCH  63  86
ENDBRANCH  37  38
ENDBRANCH  30  32
ENDBRANCH  29  30
ENDBRANCH  28  29
ENDBRANCH  27  28
ENDBRANCH  26  27
ENDBRANCH  25  26
ENDBRANCH   1  25
TORSDOF 21
ENDMDL
