MODEL 1
REMARK VINA RESULT:     -10.1      0.000      0.000
REMARK SMILES O=C(OCCOCCOCCOC(=O)c1[nH]nc2c1CCC2)c1ccc(-c2c3nc(c(-c4c(F)c(F)c(F)c(F)c4F)c4ccc([nH]4)c(-c4c(F)c(F)c(F)c(F)c4F)c4nc(c(-c5c(F)c(F)c(F)c(F)c5F)c5ccc2[nH]5)C=C4)C=C3)cc1
REMARK SMILES IDX 7 1 6 2 5 3 4 4 3 5 2 6 1 7 23 8 24 9 85 10 25 11 84 12
REMARK SMILES IDX 26 13 27 14 28 15 78 16 29 17 83 18 77 19 79 20 30 21 82 22
REMARK SMILES IDX 76 23 75 24 31 26 63 27 43 28 62 29 44 30 47 31 61 32 80 33
REMARK SMILES IDX 45 34 46 35 60 37 81 38 48 39 32 40 33 41 41 42 34 43 35 44
REMARK SMILES IDX 39 45 42 46 36 47 37 48 40 49 38 50 64 51 65 52 73 53 66 54
REMARK SMILES IDX 67 55 71 56 74 57 68 58 69 59 72 60 70 61 49 62 50 63 58 64
REMARK SMILES IDX 51 65 52 66 56 67 59 68 53 69 54 70 57 71 55 72 8 73 9 74
REMARK SMILES IDX 10 75 11 76 12 77 13 78 14 79 15 80 16 81 19 82 17 83 18 85
REMARK SMILES IDX 20 86 22 87 21 88
REMARK H PARENT 79 25 47 36 16 84
REMARK Flexibility Score: inf
ROOT
ATOM      1  C   UNL A   1      43.763  18.463  25.118  1.00  0.00     0.188 C 
ENDROOT
BRANCH   1   2
ATOM      2  O   UNL A   1      42.823  19.510  25.334  1.00  0.00    -0.376 OA
BRANCH   2   3
ATOM      3  C   UNL A   1      41.735  19.192  26.187  1.00  0.00     0.202 C 
BRANCH   3   4
ATOM      4  C   UNL A   1      41.255  20.405  26.979  1.00  0.00     0.261 C 
BRANCH   4   5
ATOM      5  O   UNL A   1      40.664  21.460  26.194  1.00  0.00    -0.460 OA
BRANCH   5   6
ATOM      6  C   UNL A   1      39.872  22.500  26.505  1.00  0.00     0.338 C 
ATOM      7  O   UNL A   1      38.659  22.395  26.334  1.00  0.00    -0.246 OA
BRANCH   6   8
ATOM      8  C   UNL A   1      40.387  23.829  26.926  1.00  0.00     0.060 A 
ATOM      9  C   UNL A   1      41.122  24.075  28.086  1.00  0.00     0.016 A 
ATOM     10  C   UNL A   1      40.001  24.924  26.126  1.00  0.00     0.016 A 
ATOM     11  C   UNL A   1      41.439  25.380  28.455  1.00  0.00     0.010 A 
ATOM     12  C   UNL A   1      40.292  26.232  26.505  1.00  0.00     0.010 A 
ATOM     13  C   UNL A   1      40.977  26.459  27.697  1.00  0.00    -0.014 A 
BRANCH  13  14
ATOM     14  C   UNL A   1      41.106  27.792  28.280  1.00  0.00     0.031 A 
ATOM     15  C   UNL A   1      42.312  28.610  27.981  1.00  0.00     0.074 A 
ATOM     16  C   UNL A   1      40.129  28.318  29.046  1.00  0.00     0.049 A 
ATOM     17  N   UNL A   1      43.140  29.147  28.825  1.00  0.00    -0.248 NA
ATOM     18  C   UNL A   1      42.619  28.894  26.575  1.00  0.00     0.031 C 
ATOM     19  C   UNL A   1      38.768  27.810  29.230  1.00  0.00     0.029 A 
ATOM     20  N   UNL A   1      40.131  29.489  29.753  1.00  0.00    -0.354 N 
ATOM     21  C   UNL A   1      43.984  29.963  28.074  1.00  0.00     0.074 A 
ATOM     22  C   UNL A   1      43.657  29.727  26.690  1.00  0.00     0.031 C 
ATOM     23  C   UNL A   1      38.020  28.763  29.825  1.00  0.00     0.029 A 
ATOM     24  C   UNL A   1      38.874  29.886  30.172  1.00  0.00     0.049 A 
ATOM     25  H   UNL A   1      40.950  30.000  29.945  1.00  0.00     0.167 HD
ATOM     26  C   UNL A   1      44.793  30.900  28.642  1.00  0.00     0.037 A 
ATOM     27  C   UNL A   1      38.533  31.078  30.711  1.00  0.00     0.037 A 
ATOM     28  C   UNL A   1      45.027  30.663  30.037  1.00  0.00     0.049 A 
ATOM     29  C   UNL A   1      39.750  31.719  31.256  1.00  0.00     0.074 A 
ATOM     30  C   UNL A   1      45.581  29.635  30.775  1.00  0.00     0.029 A 
ATOM     31  N   UNL A   1      44.455  31.501  30.959  1.00  0.00    -0.354 N 
ATOM     32  N   UNL A   1      40.381  31.329  32.327  1.00  0.00    -0.248 NA
ATOM     33  C   UNL A   1      40.473  32.661  30.415  1.00  0.00     0.031 C 
ATOM     34  C   UNL A   1      44.917  29.668  32.035  1.00  0.00     0.029 A 
ATOM     35  C   UNL A   1      43.990  30.709  31.977  1.00  0.00     0.049 A 
ATOM     36  H   UNL A   1      44.392  32.481  30.902  1.00  0.00     0.167 HD
ATOM     37  C   UNL A   1      41.707  31.651  32.091  1.00  0.00     0.074 A 
ATOM     38  C   UNL A   1      41.679  32.590  30.979  1.00  0.00     0.031 C 
ATOM     39  C   UNL A   1      42.717  30.906  32.626  1.00  0.00     0.037 A 
BRANCH  26  40
ATOM     40  C   UNL A   1      45.179  32.198  27.982  1.00  0.00     0.064 A 
ATOM     41  C   UNL A   1      44.195  33.164  27.693  1.00  0.00     0.173 A 
ATOM     42  C   UNL A   1      46.434  32.397  27.372  1.00  0.00     0.173 A 
ATOM     43  F   UNL A   1      42.953  33.043  28.185  1.00  0.00    -0.203 F 
ATOM     44  C   UNL A   1      44.442  34.231  26.824  1.00  0.00     0.198 A 
ATOM     45  C   UNL A   1      46.692  33.491  26.544  1.00  0.00     0.198 A 
ATOM     46  F   UNL A   1      47.413  31.488  27.474  1.00  0.00    -0.203 F 
ATOM     47  F   UNL A   1      43.447  35.067  26.495  1.00  0.00    -0.200 F 
ATOM     48  C   UNL A   1      45.690  34.394  26.251  1.00  0.00     0.200 A 
ATOM     49  F   UNL A   1      47.899  33.619  25.976  1.00  0.00    -0.200 F 
ATOM     50  F   UNL A   1      45.915  35.389  25.382  1.00  0.00    -0.200 F 
ENDBRANCH  26  40
BRANCH  27  51
ATOM     51  C   UNL A   1      37.235  31.779  30.607  1.00  0.00     0.064 A 
ATOM     52  C   UNL A   1      36.326  31.798  31.674  1.00  0.00     0.173 A 
ATOM     53  C   UNL A   1      36.959  32.645  29.530  1.00  0.00     0.173 A 
ATOM     54  F   UNL A   1      36.545  31.047  32.763  1.00  0.00    -0.203 F 
ATOM     55  C   UNL A   1      35.207  32.636  31.665  1.00  0.00     0.198 A 
ATOM     56  C   UNL A   1      35.834  33.467  29.513  1.00  0.00     0.198 A 
ATOM     57  F   UNL A   1      37.821  32.775  28.512  1.00  0.00    -0.203 F 
ATOM     58  F   UNL A   1      34.388  32.667  32.726  1.00  0.00    -0.200 F 
ATOM     59  C   UNL A   1      34.962  33.469  30.585  1.00  0.00     0.200 A 
ATOM     60  F   UNL A   1      35.630  34.293  28.479  1.00  0.00    -0.200 F 
ATOM     61  F   UNL A   1      33.913  34.303  30.596  1.00  0.00    -0.200 F 
ENDBRANCH  27  51
BRANCH  39  62
ATOM     62  C   UNL A   1      42.380  29.985  33.758  1.00  0.00     0.064 A 
ATOM     63  C   UNL A   1      41.873  28.688  33.575  1.00  0.00     0.173 A 
ATOM     64  C   UNL A   1      42.705  30.378  35.064  1.00  0.00     0.173 A 
ATOM     65  F   UNL A   1      41.646  28.205  32.346  1.00  0.00    -0.203 F 
ATOM     66  C   UNL A   1      41.646  27.845  34.661  1.00  0.00     0.198 A 
ATOM     67  C   UNL A   1      42.512  29.519  36.143  1.00  0.00     0.198 A 
ATOM     68  F   UNL A   1      43.256  31.581  35.288  1.00  0.00    -0.203 F 
ATOM     69  F   UNL A   1      41.148  26.616  34.464  1.00  0.00    -0.200 F 
ATOM     70  C   UNL A   1      41.970  28.259  35.943  1.00  0.00     0.200 A 
ATOM     71  F   UNL A   1      42.875  29.903  37.375  1.00  0.00    -0.200 F 
ATOM     72  F   UNL A   1      41.789  27.433  36.983  1.00  0.00    -0.200 F 
ENDBRANCH  39  62
ENDBRANCH  13  14
ENDBRANCH   6   8
ENDBRANCH   5   6
ENDBRANCH   4   5
ENDBRANCH   3   4
ENDBRANCH   2   3
ENDBRANCH   1   2
BRANCH   1  73
ATOM     73  C   UNL A   1      45.226  18.851  25.404  1.00  0.00     0.188 C 
BRANCH  73  74
ATOM     74  O   UNL A   1      46.169  19.119  24.373  1.00  0.00    -0.376 OA
BRANCH  74  75
ATOM     75  C   UNL A   1      46.734  20.408  24.235  1.00  0.00     0.202 C 
BRANCH  75  76
ATOM     76  C   UNL A   1      45.957  21.470  25.022  1.00  0.00     0.261 C 
BRANCH  76  77
ATOM     77  O   UNL A   1      45.411  22.525  24.212  1.00  0.00    -0.459 OA
BRANCH  77  78
ATOM     78  C   UNL A   1      44.228  23.041  24.652  1.00  0.00     0.356 C 
ATOM     79  O   UNL A   1      43.118  22.576  24.450  1.00  0.00    -0.244 OA
BRANCH  78  80
ATOM     80  C   UNL A   1      44.481  24.169  25.497  1.00  0.00     0.146 A 
ATOM     81  N   UNL A   1      44.698  25.438  25.001  1.00  0.00    -0.271 N 
ATOM     82  C   UNL A   1      44.659  24.304  26.848  1.00  0.00     0.008 A 
ATOM     83  N   UNL A   1      44.927  26.380  25.952  1.00  0.00    -0.180 NA
ATOM     84  H   UNL A   1      44.688  25.644  24.037  1.00  0.00     0.190 HD
ATOM     85  C   UNL A   1      44.931  25.653  27.059  1.00  0.00     0.066 A 
ATOM     86  C   UNL A   1      44.773  23.511  28.081  1.00  0.00     0.040 C 
ATOM     87  C   UNL A   1      45.274  25.971  28.455  1.00  0.00     0.059 C 
ATOM     88  C   UNL A   1      44.948  24.619  29.179  1.00  0.00     0.011 C 
ENDBRANCH  78  80
ENDBRANCH  77  78
ENDBRANCH  76  77
ENDBRANCH  75  76
ENDBRANCH  74  75
ENDBRANCH  73  74
ENDBRANCH   1  73
TORSDOF 17
ENDMDL
MODEL 2
REMARK VINA RESULT:     -10.1      4.650     11.402
REMARK SMILES O=C(OCCOCCOCCOC(=O)c1[nH]nc2c1CCC2)c1ccc(-c2c3nc(c(-c4c(F)c(F)c(F)c(F)c4F)c4ccc([nH]4)c(-c4c(F)c(F)c(F)c(F)c4F)c4nc(c(-c5c(F)c(F)c(F)c(F)c5F)c5ccc2[nH]5)C=C4)C=C3)cc1
REMARK SMILES IDX 7 1 6 2 5 3 4 4 3 5 2 6 1 7 23 8 24 9 85 10 25 11 84 12
REMARK SMILES IDX 26 13 27 14 28 15 78 16 29 17 83 18 77 19 79 20 30 21 82 22
REMARK SMILES IDX 76 23 75 24 31 26 63 27 43 28 62 29 44 30 47 31 61 32 80 33
REMARK SMILES IDX 45 34 46 35 60 37 81 38 48 39 32 40 33 41 41 42 34 43 35 44
REMARK SMILES IDX 39 45 42 46 36 47 37 48 40 49 38 50 64 51 65 52 73 53 66 54
REMARK SMILES IDX 67 55 71 56 74 57 68 58 69 59 72 60 70 61 49 62 50 63 58 64
REMARK SMILES IDX 51 65 52 66 56 67 59 68 53 69 54 70 57 71 55 72 8 73 9 74
REMARK SMILES IDX 10 75 11 76 12 77 13 78 14 79 15 80 16 81 19 82 17 83 18 85
REMARK SMILES IDX 20 86 22 87 21 88
REMARK H PARENT 79 25 47 36 16 84
REMARK Flexibility Score: inf
ROOT
ATOM      1  C   UNL A   1      33.275  36.327  29.496  1.00  0.00     0.188 C 
ENDROOT
BRANCH   1   2
ATOM      2  O   UNL A   1      32.525  35.304  28.849  1.00  0.00    -0.376 OA
BRANCH   2   3
ATOM      3  C   UNL A   1      33.284  34.226  28.324  1.00  0.00     0.202 C 
BRANCH   3   4
ATOM      4  C   UNL A   1      34.432  33.830  29.249  1.00  0.00     0.261 C 
BRANCH   4   5
ATOM      5  O   UNL A   1      34.526  32.423  29.547  1.00  0.00    -0.460 OA
BRANCH   5   6
ATOM      6  C   UNL A   1      35.177  31.404  28.960  1.00  0.00     0.338 C 
ATOM      7  O   UNL A   1      34.631  30.804  28.036  1.00  0.00    -0.246 OA
BRANCH   6   8
ATOM      8  C   UNL A   1      36.476  30.868  29.445  1.00  0.00     0.060 A 
ATOM      9  C   UNL A   1      37.724  31.436  29.190  1.00  0.00     0.016 A 
ATOM     10  C   UNL A   1      36.420  29.635  30.127  1.00  0.00     0.016 A 
ATOM     11  C   UNL A   1      38.889  30.777  29.579  1.00  0.00     0.010 A 
ATOM     12  C   UNL A   1      37.582  28.961  30.492  1.00  0.00     0.010 A 
ATOM     13  C   UNL A   1      38.820  29.517  30.177  1.00  0.00    -0.014 A 
BRANCH  13  14
ATOM     14  C   UNL A   1      40.067  28.767  30.307  1.00  0.00     0.031 A 
ATOM     15  C   UNL A   1      40.741  28.688  31.630  1.00  0.00     0.074 A 
ATOM     16  C   UNL A   1      40.595  28.102  29.260  1.00  0.00     0.049 A 
ATOM     17  N   UNL A   1      41.962  29.017  31.924  1.00  0.00    -0.248 NA
ATOM     18  C   UNL A   1      39.977  28.149  32.761  1.00  0.00     0.031 C 
ATOM     19  C   UNL A   1      39.962  27.819  27.970  1.00  0.00     0.029 A 
ATOM     20  N   UNL A   1      41.795  27.451  29.176  1.00  0.00    -0.354 N 
ATOM     21  C   UNL A   1      42.176  28.588  33.231  1.00  0.00     0.074 A 
ATOM     22  C   UNL A   1      40.906  28.112  33.720  1.00  0.00     0.031 C 
ATOM     23  C   UNL A   1      40.691  26.891  27.317  1.00  0.00     0.029 A 
ATOM     24  C   UNL A   1      41.896  26.613  28.080  1.00  0.00     0.049 A 
ATOM     25  H   UNL A   1      42.518  27.568  29.833  1.00  0.00     0.167 HD
ATOM     26  C   UNL A   1      43.420  28.504  33.781  1.00  0.00     0.037 A 
ATOM     27  C   UNL A   1      42.864  25.701  27.836  1.00  0.00     0.037 A 
ATOM     28  C   UNL A   1      44.392  29.296  33.085  1.00  0.00     0.049 A 
ATOM     29  C   UNL A   1      44.062  26.057  28.630  1.00  0.00     0.074 A 
ATOM     30  C   UNL A   1      44.533  30.639  32.796  1.00  0.00     0.029 A 
ATOM     31  N   UNL A   1      45.357  28.665  32.344  1.00  0.00    -0.354 N 
ATOM     32  N   UNL A   1      44.845  27.068  28.383  1.00  0.00    -0.248 NA
ATOM     33  C   UNL A   1      44.240  25.434  29.933  1.00  0.00     0.031 C 
ATOM     34  C   UNL A   1      45.249  30.692  31.565  1.00  0.00     0.029 A 
ATOM     35  C   UNL A   1      45.486  29.373  31.178  1.00  0.00     0.049 A 
ATOM     36  H   UNL A   1      45.861  27.859  32.601  1.00  0.00     0.167 HD
ATOM     37  C   UNL A   1      45.319  27.456  29.625  1.00  0.00     0.074 A 
ATOM     38  C   UNL A   1      45.036  26.336  30.509  1.00  0.00     0.031 C 
ATOM     39  C   UNL A   1      45.634  28.759  29.881  1.00  0.00     0.037 A 
BRANCH  26  40
ATOM     40  C   UNL A   1      43.821  27.488  34.820  1.00  0.00     0.064 A 
ATOM     41  C   UNL A   1      43.787  26.113  34.514  1.00  0.00     0.173 A 
ATOM     42  C   UNL A   1      43.961  27.811  36.185  1.00  0.00     0.173 A 
ATOM     43  F   UNL A   1      43.609  25.699  33.251  1.00  0.00    -0.203 F 
ATOM     44  C   UNL A   1      43.851  25.134  35.510  1.00  0.00     0.198 A 
ATOM     45  C   UNL A   1      44.075  26.831  37.172  1.00  0.00     0.198 A 
ATOM     46  F   UNL A   1      43.889  29.079  36.614  1.00  0.00    -0.203 F 
ATOM     47  F   UNL A   1      43.710  23.842  35.185  1.00  0.00    -0.200 F 
ATOM     48  C   UNL A   1      43.996  25.495  36.838  1.00  0.00     0.200 A 
ATOM     49  F   UNL A   1      44.188  27.197  38.456  1.00  0.00    -0.200 F 
ATOM     50  F   UNL A   1      44.010  24.559  37.798  1.00  0.00    -0.200 F 
ENDBRANCH  26  40
BRANCH  27  51
ATOM     51  C   UNL A   1      42.741  24.427  27.097  1.00  0.00     0.064 A 
ATOM     52  C   UNL A   1      43.202  24.297  25.779  1.00  0.00     0.173 A 
ATOM     53  C   UNL A   1      42.375  23.235  27.755  1.00  0.00     0.173 A 
ATOM     54  F   UNL A   1      43.625  25.375  25.102  1.00  0.00    -0.203 F 
ATOM     55  C   UNL A   1      43.292  23.049  25.157  1.00  0.00     0.198 A 
ATOM     56  C   UNL A   1      42.447  21.993  27.128  1.00  0.00     0.198 A 
ATOM     57  F   UNL A   1      42.020  23.243  29.048  1.00  0.00    -0.203 F 
ATOM     58  F   UNL A   1      43.788  22.957  23.915  1.00  0.00    -0.200 F 
ATOM     59  C   UNL A   1      42.915  21.899  25.832  1.00  0.00     0.200 A 
ATOM     60  F   UNL A   1      42.114  20.887  27.805  1.00  0.00    -0.200 F 
ATOM     61  F   UNL A   1      43.042  20.698  25.250  1.00  0.00    -0.200 F 
ENDBRANCH  27  51
BRANCH  39  62
ATOM     62  C   UNL A   1      45.817  29.676  28.710  1.00  0.00     0.064 A 
ATOM     63  C   UNL A   1      44.751  30.306  28.049  1.00  0.00     0.173 A 
ATOM     64  C   UNL A   1      47.120  30.031  28.331  1.00  0.00     0.173 A 
ATOM     65  F   UNL A   1      43.484  30.102  28.433  1.00  0.00    -0.203 F 
ATOM     66  C   UNL A   1      44.981  31.209  27.012  1.00  0.00     0.198 A 
ATOM     67  C   UNL A   1      47.346  30.960  27.319  1.00  0.00     0.198 A 
ATOM     68  F   UNL A   1      48.174  29.509  28.976  1.00  0.00    -0.203 F 
ATOM     69  F   UNL A   1      43.948  31.789  26.385  1.00  0.00    -0.200 F 
ATOM     70  C   UNL A   1      46.279  31.538  26.651  1.00  0.00     0.200 A 
ATOM     71  F   UNL A   1      48.601  31.316  27.010  1.00  0.00    -0.200 F 
ATOM     72  F   UNL A   1      46.499  32.436  25.681  1.00  0.00    -0.200 F 
ENDBRANCH  39  62
ENDBRANCH  13  14
ENDBRANCH   6   8
ENDBRANCH   5   6
ENDBRANCH   4   5
ENDBRANCH   3   4
ENDBRANCH   2   3
ENDBRANCH   1   2
BRANCH   1  73
ATOM     73  C   UNL A   1      32.944  36.512  30.990  1.00  0.00     0.188 C 
BRANCH  73  74
ATOM     74  O   UNL A   1      33.701  37.356  31.849  1.00  0.00    -0.376 OA
BRANCH  74  75
ATOM     75  C   UNL A   1      33.906  37.001  33.203  1.00  0.00     0.202 C 
BRANCH  75  76
ATOM     76  C   UNL A   1      34.467  35.582  33.352  1.00  0.00     0.261 C 
BRANCH  76  77
ATOM     77  O   UNL A   1      35.787  35.408  32.808  1.00  0.00    -0.459 OA
BRANCH  77  78
ATOM     78  C   UNL A   1      36.137  34.118  32.536  1.00  0.00     0.356 C 
ATOM     79  O   UNL A   1      35.398  33.146  32.575  1.00  0.00    -0.244 OA
BRANCH  78  80
ATOM     80  C   UNL A   1      37.492  34.073  32.079  1.00  0.00     0.146 A 
ATOM     81  N   UNL A   1      37.946  34.827  31.015  1.00  0.00    -0.271 N 
ATOM     82  C   UNL A   1      38.575  33.313  32.435  1.00  0.00     0.008 A 
ATOM     83  N   UNL A   1      39.261  34.649  30.723  1.00  0.00    -0.180 NA
ATOM     84  H   UNL A   1      37.365  35.441  30.510  1.00  0.00     0.190 HD
ATOM     85  C   UNL A   1      39.604  33.699  31.580  1.00  0.00     0.066 A 
ATOM     86  C   UNL A   1      38.961  32.189  33.301  1.00  0.00     0.040 C 
ATOM     87  C   UNL A   1      40.828  32.895  31.733  1.00  0.00     0.059 C 
ATOM     88  C   UNL A   1      40.498  32.056  33.016  1.00  0.00     0.011 C 
ENDBRANCH  78  80
ENDBRANCH  77  78
ENDBRANCH  76  77
ENDBRANCH  75  76
ENDBRANCH  74  75
ENDBRANCH  73  74
ENDBRANCH   1  73
TORSDOF 17
ENDMDL
MODEL 3
REMARK VINA RESULT:      -9.8      1.089      2.040
REMARK SMILES O=C(OCCOCCOCCOC(=O)c1[nH]nc2c1CCC2)c1ccc(-c2c3nc(c(-c4c(F)c(F)c(F)c(F)c4F)c4ccc([nH]4)c(-c4c(F)c(F)c(F)c(F)c4F)c4nc(c(-c5c(F)c(F)c(F)c(F)c5F)c5ccc2[nH]5)C=C4)C=C3)cc1
REMARK SMILES IDX 7 1 6 2 5 3 4 4 3 5 2 6 1 7 23 8 24 9 85 10 25 11 84 12
REMARK SMILES IDX 26 13 27 14 28 15 78 16 29 17 83 18 77 19 79 20 30 21 82 22
REMARK SMILES IDX 76 23 75 24 31 26 63 27 43 28 62 29 44 30 47 31 61 32 80 33
REMARK SMILES IDX 45 34 46 35 60 37 81 38 48 39 32 40 33 41 41 42 34 43 35 44
REMARK SMILES IDX 39 45 42 46 36 47 37 48 40 49 38 50 64 51 65 52 73 53 66 54
REMARK SMILES IDX 67 55 71 56 74 57 68 58 69 59 72 60 70 61 49 62 50 63 58 64
REMARK SMILES IDX 51 65 52 66 56 67 59 68 53 69 54 70 57 71 55 72 8 73 9 74
REMARK SMILES IDX 10 75 11 76 12 77 13 78 14 79 15 80 16 81 19 82 17 83 18 85
REMARK SMILES IDX 20 86 22 87 21 88
REMARK H PARENT 79 25 47 36 16 84
REMARK Flexibility Score: inf
ROOT
ATOM      1  C   UNL A   1      42.376  18.435  25.613  1.00  0.00     0.188 C 
ENDROOT
BRANCH   1   2
ATOM      2  O   UNL A   1      41.473  19.292  26.303  1.00  0.00    -0.376 OA
BRANCH   2   3
ATOM      3  C   UNL A   1      41.950  19.828  27.527  1.00  0.00     0.202 C 
BRANCH   3   4
ATOM      4  C   UNL A   1      41.218  21.110  27.915  1.00  0.00     0.261 C 
BRANCH   4   5
ATOM      5  O   UNL A   1      40.536  21.780  26.836  1.00  0.00    -0.460 OA
BRANCH   5   6
ATOM      6  C   UNL A   1      39.787  22.895  26.777  1.00  0.00     0.338 C 
ATOM      7  O   UNL A   1      38.661  22.828  26.286  1.00  0.00    -0.246 OA
BRANCH   6   8
ATOM      8  C   UNL A   1      40.285  24.243  27.155  1.00  0.00     0.060 A 
ATOM      9  C   UNL A   1      41.112  24.517  28.244  1.00  0.00     0.016 A 
ATOM     10  C   UNL A   1      39.787  25.321  26.396  1.00  0.00     0.016 A 
ATOM     11  C   UNL A   1      41.411  25.834  28.587  1.00  0.00     0.010 A 
ATOM     12  C   UNL A   1      40.060  26.640  26.751  1.00  0.00     0.010 A 
ATOM     13  C   UNL A   1      40.841  26.893  27.877  1.00  0.00    -0.014 A 
BRANCH  13  14
ATOM     14  C   UNL A   1      40.970  28.231  28.451  1.00  0.00     0.031 A 
ATOM     15  C   UNL A   1      42.118  29.090  28.057  1.00  0.00     0.074 A 
ATOM     16  C   UNL A   1      40.042  28.723  29.295  1.00  0.00     0.049 A 
ATOM     17  N   UNL A   1      42.993  29.656  28.831  1.00  0.00    -0.248 NA
ATOM     18  C   UNL A   1      42.300  29.384  26.630  1.00  0.00     0.031 C 
ATOM     19  C   UNL A   1      38.718  28.168  29.588  1.00  0.00     0.029 A 
ATOM     20  N   UNL A   1      40.060  29.894  30.002  1.00  0.00    -0.354 N 
ATOM     21  C   UNL A   1      43.744  30.500  28.016  1.00  0.00     0.074 A 
ATOM     22  C   UNL A   1      43.315  30.252  26.662  1.00  0.00     0.031 C 
ATOM     23  C   UNL A   1      37.988  29.095  30.244  1.00  0.00     0.029 A 
ATOM     24  C   UNL A   1      38.828  30.247  30.523  1.00  0.00     0.049 A 
ATOM     25  H   UNL A   1      40.873  30.434  30.128  1.00  0.00     0.167 HD
ATOM     26  C   UNL A   1      44.564  31.466  28.518  1.00  0.00     0.037 A 
ATOM     27  C   UNL A   1      38.490  31.427  31.090  1.00  0.00     0.037 A 
ATOM     28  C   UNL A   1      44.919  31.238  29.889  1.00  0.00     0.049 A 
ATOM     29  C   UNL A   1      39.725  32.110  31.535  1.00  0.00     0.074 A 
ATOM     30  C   UNL A   1      45.566  30.231  30.577  1.00  0.00     0.029 A 
ATOM     31  N   UNL A   1      44.395  32.056  30.856  1.00  0.00    -0.354 N 
ATOM     32  N   UNL A   1      40.454  31.744  32.551  1.00  0.00    -0.248 NA
ATOM     33  C   UNL A   1      40.343  33.077  30.640  1.00  0.00     0.031 C 
ATOM     34  C   UNL A   1      45.006  30.242  31.887  1.00  0.00     0.029 A 
ATOM     35  C   UNL A   1      44.042  31.250  31.907  1.00  0.00     0.049 A 
ATOM     36  H   UNL A   1      44.293  33.034  30.806  1.00  0.00     0.167 HD
ATOM     37  C   UNL A   1      41.744  32.112  32.208  1.00  0.00     0.074 A 
ATOM     38  C   UNL A   1      41.594  33.048  31.105  1.00  0.00     0.031 C 
ATOM     39  C   UNL A   1      42.820  31.402  32.658  1.00  0.00     0.037 A 
BRANCH  26  40
ATOM     40  C   UNL A   1      44.849  32.777  27.832  1.00  0.00     0.064 A 
ATOM     41  C   UNL A   1      46.146  33.061  27.362  1.00  0.00     0.173 A 
ATOM     42  C   UNL A   1      43.958  33.868  27.878  1.00  0.00     0.173 A 
ATOM     43  F   UNL A   1      47.084  32.103  27.322  1.00  0.00    -0.203 F 
ATOM     44  C   UNL A   1      46.532  34.356  27.000  1.00  0.00     0.198 A 
ATOM     45  C   UNL A   1      44.332  35.149  27.470  1.00  0.00     0.198 A 
ATOM     46  F   UNL A   1      42.736  33.751  28.415  1.00  0.00    -0.203 F 
ATOM     47  F   UNL A   1      47.804  34.601  26.658  1.00  0.00    -0.200 F 
ATOM     48  C   UNL A   1      45.624  35.398  27.054  1.00  0.00     0.200 A 
ATOM     49  F   UNL A   1      43.448  36.154  27.553  1.00  0.00    -0.200 F 
ATOM     50  F   UNL A   1      46.005  36.647  26.753  1.00  0.00    -0.200 F 
ENDBRANCH  26  40
BRANCH  27  51
ATOM     51  C   UNL A   1      37.165  32.082  31.093  1.00  0.00     0.064 A 
ATOM     52  C   UNL A   1      36.350  32.080  32.235  1.00  0.00     0.173 A 
ATOM     53  C   UNL A   1      36.767  32.928  30.038  1.00  0.00     0.173 A 
ATOM     54  F   UNL A   1      36.689  31.348  33.306  1.00  0.00    -0.203 F 
ATOM     55  C   UNL A   1      35.206  32.879  32.316  1.00  0.00     0.198 A 
ATOM     56  C   UNL A   1      35.616  33.710  30.113  1.00  0.00     0.198 A 
ATOM     57  F   UNL A   1      37.534  33.076  28.948  1.00  0.00    -0.203 F 
ATOM     58  F   UNL A   1      34.481  32.893  33.444  1.00  0.00    -0.200 F 
ATOM     59  C   UNL A   1      34.841  33.693  31.256  1.00  0.00     0.200 A 
ATOM     60  F   UNL A   1      35.296  34.519  29.094  1.00  0.00    -0.200 F 
ATOM     61  F   UNL A   1      33.768  34.491  31.351  1.00  0.00    -0.200 F 
ENDBRANCH  27  51
BRANCH  39  62
ATOM     62  C   UNL A   1      42.608  30.471  33.812  1.00  0.00     0.064 A 
ATOM     63  C   UNL A   1      42.745  30.861  35.154  1.00  0.00     0.173 A 
ATOM     64  C   UNL A   1      42.124  29.181  33.555  1.00  0.00     0.173 A 
ATOM     65  F   UNL A   1      43.095  32.115  35.475  1.00  0.00    -0.203 F 
ATOM     66  C   UNL A   1      42.464  29.975  36.192  1.00  0.00     0.198 A 
ATOM     67  C   UNL A   1      41.809  28.310  34.596  1.00  0.00     0.198 A 
ATOM     68  F   UNL A   1      41.911  28.781  32.292  1.00  0.00    -0.203 F 
ATOM     69  F   UNL A   1      42.614  30.364  37.466  1.00  0.00    -0.200 F 
ATOM     70  C   UNL A   1      41.992  28.702  35.912  1.00  0.00     0.200 A 
ATOM     71  F   UNL A   1      41.303  27.100  34.322  1.00  0.00    -0.200 F 
ATOM     72  F   UNL A   1      41.684  27.864  36.912  1.00  0.00    -0.200 F 
ENDBRANCH  39  62
ENDBRANCH  13  14
ENDBRANCH   6   8
ENDBRANCH   5   6
ENDBRANCH   4   5
ENDBRANCH   3   4
ENDBRANCH   2   3
ENDBRANCH   1   2
BRANCH   1  73
ATOM     73  C   UNL A   1      43.816  18.451  26.163  1.00  0.00     0.188 C 
BRANCH  73  74
ATOM     74  O   UNL A   1      44.948  18.108  25.372  1.00  0.00    -0.376 OA
BRANCH  74  75
ATOM     75  C   UNL A   1      46.201  18.716  25.612  1.00  0.00     0.202 C 
BRANCH  75  76
ATOM     76  C   UNL A   1      46.503  19.840  24.614  1.00  0.00     0.261 C 
BRANCH  76  77
ATOM     77  O   UNL A   1      46.351  21.165  25.153  1.00  0.00    -0.459 OA
BRANCH  77  78
ATOM     78  C   UNL A   1      45.258  21.850  24.708  1.00  0.00     0.356 C 
ATOM     79  O   UNL A   1      44.220  21.360  24.291  1.00  0.00    -0.244 OA
BRANCH  78  80
ATOM     80  C   UNL A   1      45.457  23.253  24.907  1.00  0.00     0.146 A 
ATOM     81  N   UNL A   1      46.697  23.801  25.165  1.00  0.00    -0.271 N 
ATOM     82  C   UNL A   1      44.599  24.317  24.990  1.00  0.00     0.008 A 
ATOM     83  N   UNL A   1      46.691  25.149  25.331  1.00  0.00    -0.180 NA
ATOM     84  H   UNL A   1      47.518  23.259  25.223  1.00  0.00     0.190 HD
ATOM     85  C   UNL A   1      45.398  25.426  25.254  1.00  0.00     0.066 A 
ATOM     86  C   UNL A   1      43.165  24.643  25.014  1.00  0.00     0.040 C 
ATOM     87  C   UNL A   1      44.630  26.658  25.500  1.00  0.00     0.059 C 
ATOM     88  C   UNL A   1      43.178  26.209  25.117  1.00  0.00     0.011 C 
ENDBRANCH  78  80
ENDBRANCH  77  78
ENDBRANCH  76  77
ENDBRANCH  75  76
ENDBRANCH  74  75
ENDBRANCH  73  74
ENDBRANCH   1  73
TORSDOF 17
ENDMDL
