MODEL 1
REMARK VINA RESULT:      -9.9      0.000      0.000
REMARK SMILES CCCC1(C(=O)N2CCO[C@@H](CC(=O)OCCOCCOCCOC(=O)c3ccc(-c4c5nc(c(-c6c(F)c(F)c(F)c(F)c6F)c6ccc([nH]6)c(-c6c(F)c(F)c(F)c(F)c6F)c6nc(c(-c7c(F)c(F)c(F)c(F)c7F)c7ccc4[nH]7)C=C6)C=C5)cc3)C2)CC[NH2+]CC1
REMARK SMILES IDX 18 1 17 2 16 3 15 4 13 5 14 6 12 7 11 8 7 9 8 10 90 11 9 12
REMARK SMILES IDX 10 13 5 14 6 15 4 16 91 17 95 18 92 19 94 20 93 21 3 24 2 25
REMARK SMILES IDX 1 26 19 27 20 28 21 29 22 30 23 31 24 32 25 33 26 34 27 35
REMARK SMILES IDX 28 36 89 37 29 38 88 39 30 40 31 41 32 42 82 43 33 44 87 45
REMARK SMILES IDX 81 46 83 47 34 48 86 49 80 50 79 51 35 53 67 54 47 55 66 56
REMARK SMILES IDX 48 57 51 58 65 59 84 60 49 61 50 62 64 64 85 65 52 66 36 67
REMARK SMILES IDX 37 68 45 69 38 70 39 71 43 72 46 73 40 74 41 75 44 76 42 77
REMARK SMILES IDX 68 78 69 79 77 80 70 81 71 82 75 83 78 84 72 85 73 86 76 87
REMARK SMILES IDX 74 88 53 89 54 90 62 91 55 92 56 93 60 94 63 95 57 96 58 97
REMARK SMILES IDX 61 98 59 99
REMARK H PARENT 93 22 93 23 83 52 51 63
REMARK Flexibility Score: inf
ROOT
ATOM      1  O   UNL A   1      48.389  19.022  39.467  1.00  0.00    -0.376 OA
ENDROOT
BRANCH   1   2
ATOM      2  C   UNL A   1      47.360  18.145  39.890  1.00  0.00     0.202 C 
BRANCH   2   3
ATOM      3  C   UNL A   1      45.979  17.966  39.228  1.00  0.00     0.261 C 
BRANCH   3   4
ATOM      4  O   UNL A   1      45.026  17.077  39.825  1.00  0.00    -0.463 OA
BRANCH   4   5
ATOM      5  C   UNL A   1      44.070  16.586  39.005  1.00  0.00     0.308 C 
ATOM      6  O   UNL A   1      44.163  16.557  37.783  1.00  0.00    -0.252 OA
BRANCH   5   7
ATOM      7  C   UNL A   1      42.823  16.102  39.706  1.00  0.00     0.156 C 
BRANCH   7   8
ATOM      8  C   UNL A   1      42.791  14.814  40.531  1.00  0.00     0.148 C 
ATOM      9  N   UNL A   1      42.419  13.678  42.716  1.00  0.00    -0.337 N 
ATOM     10  C   UNL A   1      41.286  12.975  42.117  1.00  0.00     0.148 C 
ATOM     11  C   UNL A   1      42.617  14.985  42.062  1.00  0.00     0.152 C 
ATOM     12  C   UNL A   1      41.528  12.780  40.626  1.00  0.00     0.182 C 
ATOM     13  O   UNL A   1      41.677  14.053  39.981  1.00  0.00    -0.374 OA
BRANCH   9  14
ATOM     14  C   UNL A   1      42.629  13.607  44.090  1.00  0.00     0.229 C 
ATOM     15  O   UNL A   1      41.844  14.180  44.847  1.00  0.00    -0.274 OA
BRANCH  14  16
ATOM     16  C   UNL A   1      43.856  12.789  44.634  1.00  0.00     0.060 C 
ATOM     17  C   UNL A   1      43.769  12.678  46.182  1.00  0.00     0.078 C 
ATOM     18  C   UNL A   1      43.870  11.339  44.093  1.00  0.00     0.078 C 
ATOM     19  C   UNL A   1      44.828  11.775  46.813  1.00  0.00     0.261 C 
ATOM     20  C   UNL A   1      44.931  10.466  44.780  1.00  0.00     0.261 C 
ATOM     21  N   UNL A   1      44.761  10.438  46.232  1.00  0.00    -0.346 N 
ATOM     22  H   UNL A   1      43.852  10.029  46.450  1.00  0.00     0.346 HD
ATOM     23  H   UNL A   1      45.519   9.883  46.628  1.00  0.00     0.346 HD
BRANCH  16  24
ATOM     24  C   UNL A   1      45.189  13.556  44.284  1.00  0.00     0.017 C 
BRANCH  24  25
ATOM     25  C   UNL A   1      45.291  15.070  44.537  1.00  0.00    -0.002 C 
ATOM     26  C   UNL A   1      45.919  15.878  43.415  1.00  0.00     0.004 C 
ENDBRANCH  24  25
ENDBRANCH  16  24
ENDBRANCH  14  16
ENDBRANCH   9  14
ENDBRANCH   7   8
ENDBRANCH   5   7
ENDBRANCH   4   5
ENDBRANCH   3   4
ENDBRANCH   2   3
ENDBRANCH   1   2
BRANCH   1  27
ATOM     27  C   UNL A   1      48.157  20.401  39.344  1.00  0.00     0.188 C 
BRANCH  27  28
ATOM     28  C   UNL A   1      49.355  21.276  38.957  1.00  0.00     0.188 C 
BRANCH  28  29
ATOM     29  O   UNL A   1      49.305  22.679  39.144  1.00  0.00    -0.376 OA
BRANCH  29  30
ATOM     30  C   UNL A   1      49.130  23.490  37.986  1.00  0.00     0.202 C 
BRANCH  30  31
ATOM     31  C   UNL A   1      48.105  24.626  38.070  1.00  0.00     0.261 C 
BRANCH  31  32
ATOM     32  O   UNL A   1      47.858  25.220  36.783  1.00  0.00    -0.460 OA
BRANCH  32  33
ATOM     33  C   UNL A   1      47.676  26.563  36.795  1.00  0.00     0.338 C 
ATOM     34  O   UNL A   1      48.357  27.403  37.352  1.00  0.00    -0.246 OA
BRANCH  33  35
ATOM     35  C   UNL A   1      46.592  26.906  35.860  1.00  0.00     0.060 A 
ATOM     36  C   UNL A   1      46.572  28.185  35.280  1.00  0.00     0.016 A 
ATOM     37  C   UNL A   1      45.570  25.993  35.615  1.00  0.00     0.016 A 
ATOM     38  C   UNL A   1      45.518  28.557  34.449  1.00  0.00     0.010 A 
ATOM     39  C   UNL A   1      44.499  26.378  34.811  1.00  0.00     0.010 A 
ATOM     40  C   UNL A   1      44.456  27.666  34.247  1.00  0.00    -0.014 A 
BRANCH  40  41
ATOM     41  C   UNL A   1      43.203  28.129  33.614  1.00  0.00     0.031 A 
ATOM     42  C   UNL A   1      42.958  27.758  32.179  1.00  0.00     0.074 A 
ATOM     43  C   UNL A   1      42.330  28.899  34.284  1.00  0.00     0.049 A 
ATOM     44  N   UNL A   1      42.036  28.180  31.355  1.00  0.00    -0.248 NA
ATOM     45  C   UNL A   1      43.891  26.780  31.593  1.00  0.00     0.031 C 
ATOM     46  C   UNL A   1      42.443  29.275  35.692  1.00  0.00     0.029 A 
ATOM     47  N   UNL A   1      41.188  29.527  33.856  1.00  0.00    -0.354 N 
ATOM     48  C   UNL A   1      42.289  27.539  30.150  1.00  0.00     0.074 A 
ATOM     49  C   UNL A   1      43.455  26.708  30.344  1.00  0.00     0.031 C 
ATOM     50  C   UNL A   1      41.427  30.098  36.003  1.00  0.00     0.029 A 
ATOM     51  C   UNL A   1      40.622  30.338  34.807  1.00  0.00     0.049 A 
ATOM     52  H   UNL A   1      40.813  29.407  32.953  1.00  0.00     0.167 HD
ATOM     53  C   UNL A   1      41.606  27.641  28.986  1.00  0.00     0.037 A 
ATOM     54  C   UNL A   1      39.595  31.203  34.703  1.00  0.00     0.037 A 
ATOM     55  C   UNL A   1      40.448  28.475  28.807  1.00  0.00     0.049 A 
ATOM     56  C   UNL A   1      38.896  31.354  33.374  1.00  0.00     0.074 A 
ATOM     57  C   UNL A   1      39.674  28.645  27.673  1.00  0.00     0.029 A 
ATOM     58  N   UNL A   1      39.903  29.286  29.792  1.00  0.00    -0.354 N 
ATOM     59  N   UNL A   1      39.130  30.740  32.239  1.00  0.00    -0.248 NA
ATOM     60  C   UNL A   1      37.791  32.321  33.312  1.00  0.00     0.031 C 
ATOM     61  C   UNL A   1      38.689  29.597  27.959  1.00  0.00     0.029 A 
ATOM     62  C   UNL A   1      38.814  29.975  29.286  1.00  0.00     0.049 A 
ATOM     63  H   UNL A   1      40.241  29.359  30.714  1.00  0.00     0.167 HD
ATOM     64  C   UNL A   1      38.183  31.217  31.342  1.00  0.00     0.074 A 
ATOM     65  C   UNL A   1      37.365  32.167  32.066  1.00  0.00     0.031 C 
ATOM     66  C   UNL A   1      38.004  30.901  30.035  1.00  0.00     0.037 A 
BRANCH  53  67
ATOM     67  C   UNL A   1      42.114  26.860  27.810  1.00  0.00     0.064 A 
ATOM     68  C   UNL A   1      41.825  25.497  27.649  1.00  0.00     0.173 A 
ATOM     69  C   UNL A   1      42.871  27.494  26.813  1.00  0.00     0.173 A 
ATOM     70  F   UNL A   1      41.121  24.840  28.583  1.00  0.00    -0.203 F 
ATOM     71  C   UNL A   1      42.292  24.793  26.541  1.00  0.00     0.198 A 
ATOM     72  C   UNL A   1      43.311  26.794  25.694  1.00  0.00     0.198 A 
ATOM     73  F   UNL A   1      43.176  28.795  26.921  1.00  0.00    -0.203 F 
ATOM     74  F   UNL A   1      42.040  23.482  26.428  1.00  0.00    -0.200 F 
ATOM     75  C   UNL A   1      43.027  25.444  25.561  1.00  0.00     0.200 A 
ATOM     76  F   UNL A   1      44.013  27.426  24.743  1.00  0.00    -0.200 F 
ATOM     77  F   UNL A   1      43.466  24.767  24.491  1.00  0.00    -0.200 F 
ENDBRANCH  53  67
BRANCH  54  78
ATOM     78  C   UNL A   1      39.180  32.019  35.875  1.00  0.00     0.064 A 
ATOM     79  C   UNL A   1      39.751  33.276  36.119  1.00  0.00     0.173 A 
ATOM     80  C   UNL A   1      38.231  31.547  36.794  1.00  0.00     0.173 A 
ATOM     81  F   UNL A   1      40.684  33.759  35.286  1.00  0.00    -0.203 F 
ATOM     82  C   UNL A   1      39.409  34.017  37.248  1.00  0.00     0.198 A 
ATOM     83  C   UNL A   1      37.865  32.302  37.906  1.00  0.00     0.198 A 
ATOM     84  F   UNL A   1      37.656  30.349  36.611  1.00  0.00    -0.203 F 
ATOM     85  F   UNL A   1      40.013  35.189  37.486  1.00  0.00    -0.200 F 
ATOM     86  C   UNL A   1      38.462  33.533  38.139  1.00  0.00     0.200 A 
ATOM     87  F   UNL A   1      36.943  31.834  38.759  1.00  0.00    -0.200 F 
ATOM     88  F   UNL A   1      38.135  34.244  39.226  1.00  0.00    -0.200 F 
ENDBRANCH  54  78
BRANCH  66  89
ATOM     89  C   UNL A   1      36.849  31.543  29.321  1.00  0.00     0.064 A 
ATOM     90  C   UNL A   1      35.720  30.808  28.933  1.00  0.00     0.173 A 
ATOM     91  C   UNL A   1      36.854  32.924  29.070  1.00  0.00     0.173 A 
ATOM     92  F   UNL A   1      35.673  29.483  29.139  1.00  0.00    -0.203 F 
ATOM     93  C   UNL A   1      34.649  31.427  28.295  1.00  0.00     0.198 A 
ATOM     94  C   UNL A   1      35.769  33.545  28.460  1.00  0.00     0.198 A 
ATOM     95  F   UNL A   1      37.907  33.673  29.431  1.00  0.00    -0.203 F 
ATOM     96  F   UNL A   1      33.601  30.698  27.889  1.00  0.00    -0.200 F 
ATOM     97  C   UNL A   1      34.671  32.796  28.066  1.00  0.00     0.200 A 
ATOM     98  F   UNL A   1      35.785  34.869  28.256  1.00  0.00    -0.200 F 
ATOM     99  F   UNL A   1      33.634  33.392  27.461  1.00  0.00    -0.200 F 
ENDBRANCH  66  89
ENDBRANCH  40  41
ENDBRANCH  33  35
ENDBRANCH  32  33
ENDBRANCH  31  32
ENDBRANCH  30  31
ENDBRANCH  29  30
ENDBRANCH  28  29
ENDBRANCH  27  28
ENDBRANCH   1  27
TORSDOF 22
ENDMDL
MODEL 2
REMARK VINA RESULT:      -9.9      9.313     14.787
REMARK SMILES CCCC1(C(=O)N2CCO[C@@H](CC(=O)OCCOCCOCCOC(=O)c3ccc(-c4c5nc(c(-c6c(F)c(F)c(F)c(F)c6F)c6ccc([nH]6)c(-c6c(F)c(F)c(F)c(F)c6F)c6nc(c(-c7c(F)c(F)c(F)c(F)c7F)c7ccc4[nH]7)C=C6)C=C5)cc3)C2)CC[NH2+]CC1
REMARK SMILES IDX 18 1 17 2 16 3 15 4 13 5 14 6 12 7 11 8 7 9 8 10 90 11 9 12
REMARK SMILES IDX 10 13 5 14 6 15 4 16 91 17 95 18 92 19 94 20 93 21 3 24 2 25
REMARK SMILES IDX 1 26 19 27 20 28 21 29 22 30 23 31 24 32 25 33 26 34 27 35
REMARK SMILES IDX 28 36 89 37 29 38 88 39 30 40 31 41 32 42 82 43 33 44 87 45
REMARK SMILES IDX 81 46 83 47 34 48 86 49 80 50 79 51 35 53 67 54 47 55 66 56
REMARK SMILES IDX 48 57 51 58 65 59 84 60 49 61 50 62 64 64 85 65 52 66 36 67
REMARK SMILES IDX 37 68 45 69 38 70 39 71 43 72 46 73 40 74 41 75 44 76 42 77
REMARK SMILES IDX 68 78 69 79 77 80 70 81 71 82 75 83 78 84 72 85 73 86 76 87
REMARK SMILES IDX 74 88 53 89 54 90 62 91 55 92 56 93 60 94 63 95 57 96 58 97
REMARK SMILES IDX 61 98 59 99
REMARK H PARENT 93 22 93 23 83 52 51 63
REMARK Flexibility Score: inf
ROOT
ATOM      1  O   UNL A   1      33.190  28.434  25.505  1.00  0.00    -0.376 OA
ENDROOT
BRANCH   1   2
ATOM      2  C   UNL A   1      32.947  29.059  24.257  1.00  0.00     0.202 C 
BRANCH   2   3
ATOM      3  C   UNL A   1      31.608  29.090  23.493  1.00  0.00     0.261 C 
BRANCH   3   4
ATOM      4  O   UNL A   1      30.416  28.642  24.151  1.00  0.00    -0.463 OA
BRANCH   4   5
ATOM      5  C   UNL A   1      29.563  27.901  23.408  1.00  0.00     0.308 C 
ATOM      6  O   UNL A   1      28.847  28.360  22.524  1.00  0.00    -0.252 OA
BRANCH   5   7
ATOM      7  C   UNL A   1      29.513  26.437  23.774  1.00  0.00     0.156 C 
BRANCH   7   8
ATOM      8  C   UNL A   1      30.775  25.591  23.956  1.00  0.00     0.148 C 
ATOM      9  N   UNL A   1      31.825  23.365  24.332  1.00  0.00    -0.337 N 
ATOM     10  C   UNL A   1      32.445  23.473  23.012  1.00  0.00     0.148 C 
ATOM     11  C   UNL A   1      30.555  24.112  24.367  1.00  0.00     0.152 C 
ATOM     12  C   UNL A   1      32.693  24.939  22.678  1.00  0.00     0.182 C 
ATOM     13  O   UNL A   1      31.452  25.659  22.668  1.00  0.00    -0.374 OA
BRANCH   9  14
ATOM     14  C   UNL A   1      31.883  22.158  25.025  1.00  0.00     0.229 C 
ATOM     15  O   UNL A   1      30.843  21.525  25.211  1.00  0.00    -0.274 OA
BRANCH  14  16
ATOM     16  C   UNL A   1      33.274  21.639  25.539  1.00  0.00     0.060 C 
ATOM     17  C   UNL A   1      34.366  21.913  24.467  1.00  0.00     0.078 C 
ATOM     18  C   UNL A   1      33.729  22.375  26.822  1.00  0.00     0.078 C 
ATOM     19  C   UNL A   1      35.790  21.588  24.916  1.00  0.00     0.261 C 
ATOM     20  C   UNL A   1      35.174  22.036  27.213  1.00  0.00     0.261 C 
ATOM     21  N   UNL A   1      36.116  22.325  26.132  1.00  0.00    -0.346 N 
ATOM     22  H   UNL A   1      36.088  23.324  25.929  1.00  0.00     0.346 HD
ATOM     23  H   UNL A   1      37.045  22.037  26.437  1.00  0.00     0.346 HD
BRANCH  16  24
ATOM     24  C   UNL A   1      33.199  20.078  25.757  1.00  0.00     0.017 C 
BRANCH  24  25
ATOM     25  C   UNL A   1      33.125  19.138  24.541  1.00  0.00    -0.002 C 
ATOM     26  C   UNL A   1      34.281  18.162  24.400  1.00  0.00     0.004 C 
ENDBRANCH  24  25
ENDBRANCH  16  24
ENDBRANCH  14  16
ENDBRANCH   9  14
ENDBRANCH   7   8
ENDBRANCH   5   7
ENDBRANCH   4   5
ENDBRANCH   3   4
ENDBRANCH   2   3
ENDBRANCH   1   2
BRANCH   1  27
ATOM     27  C   UNL A   1      34.420  28.593  26.164  1.00  0.00     0.188 C 
BRANCH  27  28
ATOM     28  C   UNL A   1      34.424  29.463  27.427  1.00  0.00     0.188 C 
BRANCH  28  29
ATOM     29  O   UNL A   1      34.215  30.860  27.332  1.00  0.00    -0.376 OA
BRANCH  29  30
ATOM     30  C   UNL A   1      32.914  31.352  27.638  1.00  0.00     0.202 C 
BRANCH  30  31
ATOM     31  C   UNL A   1      32.522  32.716  27.062  1.00  0.00     0.261 C 
BRANCH  31  32
ATOM     32  O   UNL A   1      33.533  33.710  27.308  1.00  0.00    -0.460 OA
BRANCH  32  33
ATOM     33  C   UNL A   1      33.413  34.373  28.484  1.00  0.00     0.338 C 
ATOM     34  O   UNL A   1      32.449  34.990  28.898  1.00  0.00    -0.246 OA
BRANCH  33  35
ATOM     35  C   UNL A   1      34.596  34.094  29.313  1.00  0.00     0.060 A 
ATOM     36  C   UNL A   1      35.866  34.452  28.832  1.00  0.00     0.016 A 
ATOM     37  C   UNL A   1      34.453  33.424  30.526  1.00  0.00     0.016 A 
ATOM     38  C   UNL A   1      37.006  34.133  29.567  1.00  0.00     0.010 A 
ATOM     39  C   UNL A   1      35.596  33.075  31.243  1.00  0.00     0.010 A 
ATOM     40  C   UNL A   1      36.874  33.405  30.756  1.00  0.00    -0.014 A 
BRANCH  40  41
ATOM     41  C   UNL A   1      38.062  32.809  31.403  1.00  0.00     0.031 A 
ATOM     42  C   UNL A   1      38.677  31.595  30.768  1.00  0.00     0.074 A 
ATOM     43  C   UNL A   1      38.550  33.307  32.551  1.00  0.00     0.049 A 
ATOM     44  N   UNL A   1      39.601  30.792  31.226  1.00  0.00    -0.248 NA
ATOM     45  C   UNL A   1      38.171  31.233  29.433  1.00  0.00     0.031 C 
ATOM     46  C   UNL A   1      38.063  34.509  33.225  1.00  0.00     0.029 A 
ATOM     47  N   UNL A   1      39.548  32.840  33.368  1.00  0.00    -0.354 N 
ATOM     48  C   UNL A   1      39.771  29.821  30.249  1.00  0.00     0.074 A 
ATOM     49  C   UNL A   1      38.850  30.125  29.178  1.00  0.00     0.031 C 
ATOM     50  C   UNL A   1      38.744  34.668  34.373  1.00  0.00     0.029 A 
ATOM     51  C   UNL A   1      39.680  33.556  34.531  1.00  0.00     0.049 A 
ATOM     52  H   UNL A   1      40.114  32.068  33.141  1.00  0.00     0.167 HD
ATOM     53  C   UNL A   1      40.622  28.768  30.252  1.00  0.00     0.037 A 
ATOM     54  C   UNL A   1      40.442  33.310  35.614  1.00  0.00     0.037 A 
ATOM     55  C   UNL A   1      41.532  28.476  31.327  1.00  0.00     0.049 A 
ATOM     56  C   UNL A   1      41.328  32.089  35.624  1.00  0.00     0.074 A 
ATOM     57  C   UNL A   1      42.444  27.441  31.429  1.00  0.00     0.029 A 
ATOM     58  N   UNL A   1      41.636  29.222  32.493  1.00  0.00    -0.354 N 
ATOM     59  N   UNL A   1      41.496  31.177  34.696  1.00  0.00    -0.248 NA
ATOM     60  C   UNL A   1      42.129  31.861  36.835  1.00  0.00     0.031 C 
ATOM     61  C   UNL A   1      43.067  27.533  32.678  1.00  0.00     0.029 A 
ATOM     62  C   UNL A   1      42.584  28.657  33.329  1.00  0.00     0.049 A 
ATOM     63  H   UNL A   1      41.114  30.031  32.694  1.00  0.00     0.167 HD
ATOM     64  C   UNL A   1      42.443  30.292  35.194  1.00  0.00     0.074 A 
ATOM     65  C   UNL A   1      42.821  30.780  36.503  1.00  0.00     0.031 C 
ATOM     66  C   UNL A   1      42.956  29.174  34.622  1.00  0.00     0.037 A 
BRANCH  53  67
ATOM     67  C   UNL A   1      40.582  27.838  29.076  1.00  0.00     0.064 A 
ATOM     68  C   UNL A   1      39.739  26.717  29.049  1.00  0.00     0.173 A 
ATOM     69  C   UNL A   1      41.375  28.091  27.946  1.00  0.00     0.173 A 
ATOM     70  F   UNL A   1      38.977  26.420  30.112  1.00  0.00    -0.203 F 
ATOM     71  C   UNL A   1      39.705  25.874  27.940  1.00  0.00     0.198 A 
ATOM     72  C   UNL A   1      41.316  27.263  26.829  1.00  0.00     0.198 A 
ATOM     73  F   UNL A   1      42.199  29.148  27.922  1.00  0.00    -0.203 F 
ATOM     74  F   UNL A   1      38.924  24.786  27.953  1.00  0.00    -0.200 F 
ATOM     75  C   UNL A   1      40.487  26.153  26.829  1.00  0.00     0.200 A 
ATOM     76  F   UNL A   1      42.066  27.539  25.752  1.00  0.00    -0.200 F 
ATOM     77  F   UNL A   1      40.444  25.347  25.760  1.00  0.00    -0.200 F 
ENDBRANCH  53  67
BRANCH  54  78
ATOM     78  C   UNL A   1      40.387  34.216  36.793  1.00  0.00     0.064 A 
ATOM     79  C   UNL A   1      39.431  34.030  37.802  1.00  0.00     0.173 A 
ATOM     80  C   UNL A   1      41.261  35.305  36.919  1.00  0.00     0.173 A 
ATOM     81  F   UNL A   1      38.553  33.019  37.713  1.00  0.00    -0.203 F 
ATOM     82  C   UNL A   1      39.336  34.910  38.877  1.00  0.00     0.198 A 
ATOM     83  C   UNL A   1      41.187  36.168  38.011  1.00  0.00     0.198 A 
ATOM     84  F   UNL A   1      42.192  35.533  35.980  1.00  0.00    -0.203 F 
ATOM     85  F   UNL A   1      38.377  34.741  39.796  1.00  0.00    -0.200 F 
ATOM     86  C   UNL A   1      40.217  35.977  38.984  1.00  0.00     0.200 A 
ATOM     87  F   UNL A   1      42.046  37.191  38.114  1.00  0.00    -0.200 F 
ATOM     88  F   UNL A   1      40.124  36.825  40.017  1.00  0.00    -0.200 F 
ENDBRANCH  54  78
BRANCH  66  89
ATOM     89  C   UNL A   1      44.020  28.436  35.381  1.00  0.00     0.064 A 
ATOM     90  C   UNL A   1      45.380  28.751  35.244  1.00  0.00     0.173 A 
ATOM     91  C   UNL A   1      43.666  27.432  36.297  1.00  0.00     0.173 A 
ATOM     92  F   UNL A   1      45.770  29.693  34.372  1.00  0.00    -0.203 F 
ATOM     93  C   UNL A   1      46.348  28.071  35.977  1.00  0.00     0.198 A 
ATOM     94  C   UNL A   1      44.634  26.776  37.050  1.00  0.00     0.198 A 
ATOM     95  F   UNL A   1      42.378  27.100  36.471  1.00  0.00    -0.203 F 
ATOM     96  F   UNL A   1      47.645  28.355  35.796  1.00  0.00    -0.200 F 
ATOM     97  C   UNL A   1      45.974  27.090  36.885  1.00  0.00     0.200 A 
ATOM     98  F   UNL A   1      44.269  25.842  37.938  1.00  0.00    -0.200 F 
ATOM     99  F   UNL A   1      46.907  26.443  37.596  1.00  0.00    -0.200 F 
ENDBRANCH  66  89
ENDBRANCH  40  41
ENDBRANCH  33  35
ENDBRANCH  32  33
ENDBRANCH  31  32
ENDBRANCH  30  31
ENDBRANCH  29  30
ENDBRANCH  28  29
ENDBRANCH  27  28
ENDBRANCH   1  27
TORSDOF 22
ENDMDL
MODEL 3
REMARK VINA RESULT:      -9.7      5.784     11.554
REMARK SMILES CCCC1(C(=O)N2CCO[C@@H](CC(=O)OCCOCCOCCOC(=O)c3ccc(-c4c5nc(c(-c6c(F)c(F)c(F)c(F)c6F)c6ccc([nH]6)c(-c6c(F)c(F)c(F)c(F)c6F)c6nc(c(-c7c(F)c(F)c(F)c(F)c7F)c7ccc4[nH]7)C=C6)C=C5)cc3)C2)CC[NH2+]CC1
REMARK SMILES IDX 18 1 17 2 16 3 15 4 13 5 14 6 12 7 11 8 7 9 8 10 90 11 9 12
REMARK SMILES IDX 10 13 5 14 6 15 4 16 91 17 95 18 92 19 94 20 93 21 3 24 2 25
REMARK SMILES IDX 1 26 19 27 20 28 21 29 22 30 23 31 24 32 25 33 26 34 27 35
REMARK SMILES IDX 28 36 89 37 29 38 88 39 30 40 31 41 32 42 82 43 33 44 87 45
REMARK SMILES IDX 81 46 83 47 34 48 86 49 80 50 79 51 35 53 67 54 47 55 66 56
REMARK SMILES IDX 48 57 51 58 65 59 84 60 49 61 50 62 64 64 85 65 52 66 36 67
REMARK SMILES IDX 37 68 45 69 38 70 39 71 43 72 46 73 40 74 41 75 44 76 42 77
REMARK SMILES IDX 68 78 69 79 77 80 70 81 71 82 75 83 78 84 72 85 73 86 76 87
REMARK SMILES IDX 74 88 53 89 54 90 62 91 55 92 56 93 60 94 63 95 57 96 58 97
REMARK SMILES IDX 61 98 59 99
REMARK H PARENT 93 22 93 23 83 52 51 63
REMARK Flexibility Score: inf
ROOT
ATOM      1  O   UNL A   1      42.887  26.259  38.112  1.00  0.00    -0.376 OA
ENDROOT
BRANCH   1   2
ATOM      2  C   UNL A   1      41.896  26.331  37.102  1.00  0.00     0.202 C 
BRANCH   2   3
ATOM      3  C   UNL A   1      41.556  27.563  36.239  1.00  0.00     0.261 C 
BRANCH   3   4
ATOM      4  O   UNL A   1      41.168  27.375  34.872  1.00  0.00    -0.463 OA
BRANCH   4   5
ATOM      5  C   UNL A   1      41.279  28.453  34.064  1.00  0.00     0.308 C 
ATOM      6  O   UNL A   1      41.780  28.423  32.945  1.00  0.00    -0.252 OA
BRANCH   5   7
ATOM      7  C   UNL A   1      40.774  29.745  34.661  1.00  0.00     0.156 C 
BRANCH   7   8
ATOM      8  C   UNL A   1      39.791  30.661  33.929  1.00  0.00     0.148 C 
ATOM      9  N   UNL A   1      37.860  30.929  32.381  1.00  0.00    -0.337 N 
ATOM     10  C   UNL A   1      37.089  31.481  33.494  1.00  0.00     0.148 C 
ATOM     11  C   UNL A   1      38.876  29.983  32.878  1.00  0.00     0.152 C 
ATOM     12  C   UNL A   1      38.024  32.185  34.469  1.00  0.00     0.182 C 
ATOM     13  O   UNL A   1      38.986  31.255  34.987  1.00  0.00    -0.374 OA
BRANCH   9  14
ATOM     14  C   UNL A   1      37.220  30.617  31.184  1.00  0.00     0.229 C 
ATOM     15  O   UNL A   1      36.522  29.603  31.125  1.00  0.00    -0.274 OA
BRANCH  14  16
ATOM     16  C   UNL A   1      37.399  31.573  29.950  1.00  0.00     0.060 C 
ATOM     17  C   UNL A   1      36.007  32.050  29.448  1.00  0.00     0.078 C 
ATOM     18  C   UNL A   1      38.191  32.851  30.319  1.00  0.00     0.078 C 
ATOM     19  C   UNL A   1      36.059  33.106  28.344  1.00  0.00     0.261 C 
ATOM     20  C   UNL A   1      38.188  33.891  29.189  1.00  0.00     0.261 C 
ATOM     21  N   UNL A   1      36.830  34.261  28.789  1.00  0.00    -0.346 N 
ATOM     22  H   UNL A   1      36.357  34.687  29.586  1.00  0.00     0.346 HD
ATOM     23  H   UNL A   1      36.898  34.915  28.009  1.00  0.00     0.346 HD
BRANCH  16  24
ATOM     24  C   UNL A   1      38.086  30.780  28.773  1.00  0.00     0.017 C 
BRANCH  24  25
ATOM     25  C   UNL A   1      39.428  30.065  29.011  1.00  0.00    -0.002 C 
ATOM     26  C   UNL A   1      39.652  28.808  28.190  1.00  0.00     0.004 C 
ENDBRANCH  24  25
ENDBRANCH  16  24
ENDBRANCH  14  16
ENDBRANCH   9  14
ENDBRANCH   7   8
ENDBRANCH   5   7
ENDBRANCH   4   5
ENDBRANCH   3   4
ENDBRANCH   2   3
ENDBRANCH   1   2
BRANCH   1  27
ATOM     27  C   UNL A   1      43.817  25.207  38.137  1.00  0.00     0.188 C 
BRANCH  27  28
ATOM     28  C   UNL A   1      45.166  25.488  38.810  1.00  0.00     0.188 C 
BRANCH  28  29
ATOM     29  O   UNL A   1      46.077  24.431  39.053  1.00  0.00    -0.376 OA
BRANCH  29  30
ATOM     30  C   UNL A   1      45.547  23.211  39.563  1.00  0.00     0.202 C 
BRANCH  30  31
ATOM     31  C   UNL A   1      46.221  21.909  39.118  1.00  0.00     0.261 C 
BRANCH  31  32
ATOM     32  O   UNL A   1      46.918  22.069  37.869  1.00  0.00    -0.460 OA
BRANCH  32  33
ATOM     33  C   UNL A   1      46.316  21.497  36.798  1.00  0.00     0.338 C 
ATOM     34  O   UNL A   1      45.985  20.334  36.660  1.00  0.00    -0.246 OA
BRANCH  33  35
ATOM     35  C   UNL A   1      45.939  22.551  35.842  1.00  0.00     0.060 A 
ATOM     36  C   UNL A   1      46.946  23.354  35.282  1.00  0.00     0.016 A 
ATOM     37  C   UNL A   1      44.597  22.784  35.557  1.00  0.00     0.016 A 
ATOM     38  C   UNL A   1      46.607  24.404  34.431  1.00  0.00     0.010 A 
ATOM     39  C   UNL A   1      44.257  23.856  34.734  1.00  0.00     0.010 A 
ATOM     40  C   UNL A   1      45.256  24.683  34.189  1.00  0.00    -0.014 A 
BRANCH  40  41
ATOM     41  C   UNL A   1      44.859  25.947  33.533  1.00  0.00     0.031 A 
ATOM     42  C   UNL A   1      44.505  25.904  32.074  1.00  0.00     0.074 A 
ATOM     43  C   UNL A   1      44.862  27.109  34.207  1.00  0.00     0.049 A 
ATOM     44  N   UNL A   1      44.298  26.887  31.238  1.00  0.00    -0.248 NA
ATOM     45  C   UNL A   1      44.375  24.564  31.476  1.00  0.00     0.031 C 
ATOM     46  C   UNL A   1      45.139  27.257  35.634  1.00  0.00     0.029 A 
ATOM     47  N   UNL A   1      44.651  28.391  33.767  1.00  0.00    -0.354 N 
ATOM     48  C   UNL A   1      44.036  26.287  30.014  1.00  0.00     0.074 A 
ATOM     49  C   UNL A   1      44.120  24.858  30.210  1.00  0.00     0.031 C 
ATOM     50  C   UNL A   1      45.113  28.564  35.947  1.00  0.00     0.029 A 
ATOM     51  C   UNL A   1      44.861  29.341  34.735  1.00  0.00     0.049 A 
ATOM     52  H   UNL A   1      44.375  28.607  32.847  1.00  0.00     0.167 HD
ATOM     53  C   UNL A   1      43.753  26.882  28.831  1.00  0.00     0.037 A 
ATOM     54  C   UNL A   1      44.887  30.684  34.635  1.00  0.00     0.037 A 
ATOM     55  C   UNL A   1      43.676  28.307  28.650  1.00  0.00     0.049 A 
ATOM     56  C   UNL A   1      44.642  31.323  33.290  1.00  0.00     0.074 A 
ATOM     57  C   UNL A   1      43.387  29.015  27.498  1.00  0.00     0.029 A 
ATOM     58  N   UNL A   1      43.898  29.240  29.652  1.00  0.00    -0.354 N 
ATOM     59  N   UNL A   1      44.384  30.755  32.136  1.00  0.00    -0.248 NA
ATOM     60  C   UNL A   1      44.694  32.790  33.233  1.00  0.00     0.031 C 
ATOM     61  C   UNL A   1      43.482  30.380  27.792  1.00  0.00     0.029 A 
ATOM     62  C   UNL A   1      43.773  30.520  29.140  1.00  0.00     0.049 A 
ATOM     63  H   UNL A   1      44.113  29.024  30.588  1.00  0.00     0.167 HD
ATOM     64  C   UNL A   1      44.209  31.792  31.228  1.00  0.00     0.074 A 
ATOM     65  C   UNL A   1      44.381  33.024  31.967  1.00  0.00     0.031 C 
ATOM     66  C   UNL A   1      43.931  31.733  29.902  1.00  0.00     0.037 A 
BRANCH  53  67
ATOM     67  C   UNL A   1      43.542  25.997  27.639  1.00  0.00     0.064 A 
ATOM     68  C   UNL A   1      44.566  25.750  26.712  1.00  0.00     0.173 A 
ATOM     69  C   UNL A   1      42.308  25.359  27.440  1.00  0.00     0.173 A 
ATOM     70  F   UNL A   1      45.758  26.351  26.847  1.00  0.00    -0.203 F 
ATOM     71  C   UNL A   1      44.355  24.912  25.620  1.00  0.00     0.198 A 
ATOM     72  C   UNL A   1      42.111  24.499  26.364  1.00  0.00     0.198 A 
ATOM     73  F   UNL A   1      41.297  25.563  28.296  1.00  0.00    -0.203 F 
ATOM     74  F   UNL A   1      45.334  24.723  24.725  1.00  0.00    -0.200 F 
ATOM     75  C   UNL A   1      43.131  24.281  25.452  1.00  0.00     0.200 A 
ATOM     76  F   UNL A   1      40.930  23.883  26.208  1.00  0.00    -0.200 F 
ATOM     77  F   UNL A   1      42.934  23.466  24.407  1.00  0.00    -0.200 F 
ENDBRANCH  53  67
BRANCH  54  78
ATOM     78  C   UNL A   1      45.184  31.520  35.828  1.00  0.00     0.064 A 
ATOM     79  C   UNL A   1      44.152  32.013  36.639  1.00  0.00     0.173 A 
ATOM     80  C   UNL A   1      46.499  31.874  36.163  1.00  0.00     0.173 A 
ATOM     81  F   UNL A   1      42.875  31.727  36.343  1.00  0.00    -0.203 F 
ATOM     82  C   UNL A   1      44.421  32.846  37.723  1.00  0.00     0.198 A 
ATOM     83  C   UNL A   1      46.770  32.682  37.266  1.00  0.00     0.198 A 
ATOM     84  F   UNL A   1      47.524  31.434  35.420  1.00  0.00    -0.203 F 
ATOM     85  F   UNL A   1      43.411  33.349  38.445  1.00  0.00    -0.200 F 
ATOM     86  C   UNL A   1      45.730  33.176  38.039  1.00  0.00     0.200 A 
ATOM     87  F   UNL A   1      48.038  32.990  37.574  1.00  0.00    -0.200 F 
ATOM     88  F   UNL A   1      45.989  33.980  39.080  1.00  0.00    -0.200 F 
ENDBRANCH  54  78
BRANCH  66  89
ATOM     89  C   UNL A   1      43.739  33.034  29.178  1.00  0.00     0.064 A 
ATOM     90  C   UNL A   1      44.726  33.563  28.334  1.00  0.00     0.173 A 
ATOM     91  C   UNL A   1      42.528  33.734  29.293  1.00  0.00     0.173 A 
ATOM     92  F   UNL A   1      45.906  32.939  28.201  1.00  0.00    -0.203 F 
ATOM     93  C   UNL A   1      44.518  34.759  27.653  1.00  0.00     0.198 A 
ATOM     94  C   UNL A   1      42.310  34.912  28.586  1.00  0.00     0.198 A 
ATOM     95  F   UNL A   1      41.548  33.264  30.080  1.00  0.00    -0.203 F 
ATOM     96  F   UNL A   1      45.492  35.271  26.889  1.00  0.00    -0.200 F 
ATOM     97  C   UNL A   1      43.308  35.428  27.773  1.00  0.00     0.200 A 
ATOM     98  F   UNL A   1      41.136  35.547  28.690  1.00  0.00    -0.200 F 
ATOM     99  F   UNL A   1      43.105  36.573  27.108  1.00  0.00    -0.200 F 
ENDBRANCH  66  89
ENDBRANCH  40  41
ENDBRANCH  33  35
ENDBRANCH  32  33
ENDBRANCH  31  32
ENDBRANCH  30  31
ENDBRANCH  29  30
ENDBRANCH  28  29
ENDBRANCH  27  28
ENDBRANCH   1  27
TORSDOF 22
ENDMDL
