MODEL 1
REMARK VINA RESULT:     -10.7      0.000      0.000
REMARK SMILES CS(=O)(=O)N(Cc1ccc(Cl)cc1)c1ccc(C(=O)Nc2ccccc2C(=O)OCCOCCOCCOC(=O)c2ccc(-c3c4nc(c(-c5c(F)c(F)c(F)c(F)c5F)c5ccc([nH]5)c(-c5c(F)c(F)c(F)c(F)c5F)c5nc(c(-c6c(F)c(F)c(F)c(F)c6F)c6ccc3[nH]6)C=C5)C=C4)cc2)cc1
REMARK SMILES IDX 32 1 31 2 30 3 29 4 27 5 28 6 26 7 21 8 22 9 23 10 25 11
REMARK SMILES IDX 24 12 20 13 18 14 19 15 17 17 14 18 15 19 105 20 16 21
REMARK SMILES IDX 104 22 5 23 2 24 1 25 3 26 4 27 6 28 7 29 8 30 13 31 9 32
REMARK SMILES IDX 12 33 10 34 11 35 33 36 34 37 35 38 36 39 37 40 38 41 39 42
REMARK SMILES IDX 40 43 41 44 42 45 103 46 43 47 102 48 44 49 45 50 46 51
REMARK SMILES IDX 96 52 47 53 101 54 95 55 97 56 48 57 100 58 94 59 93 60
REMARK SMILES IDX 49 62 81 63 61 64 80 65 62 66 65 67 79 68 98 69 63 70 64 71
REMARK SMILES IDX 78 73 99 74 66 75 50 76 51 77 59 78 52 79 53 80 57 81 60 82
REMARK SMILES IDX 54 83 55 84 58 85 56 86 82 87 83 88 91 89 84 90 85 91 89 92
REMARK SMILES IDX 92 93 86 94 87 95 90 96 88 97 67 98 68 99 76 100 69 101
REMARK SMILES IDX 70 102 74 103 77 104 71 105 72 106 75 107 73 108
REMARK H PARENT 20 16 97 61 65 72
REMARK Flexibility Score: inf
ROOT
ATOM      1  O   UNL A   1      32.230  26.620  27.233  1.00  0.00    -0.376 OA
ENDROOT
BRANCH   1   2
ATOM      2  C   UNL A   1      33.230  26.368  26.265  1.00  0.00     0.202 C 
BRANCH   2   3
ATOM      3  C   UNL A   1      33.805  24.989  25.902  1.00  0.00     0.261 C 
BRANCH   3   4
ATOM      4  O   UNL A   1      34.538  24.267  26.891  1.00  0.00    -0.460 OA
BRANCH   4   5
ATOM      5  C   UNL A   1      34.360  22.922  26.874  1.00  0.00     0.340 C 
ATOM      6  O   UNL A   1      33.456  22.323  27.437  1.00  0.00    -0.246 OA
BRANCH   5   7
ATOM      7  C   UNL A   1      35.310  22.261  25.936  1.00  0.00     0.083 A 
ATOM      8  C   UNL A   1      35.227  20.924  25.498  1.00  0.00     0.056 A 
ATOM      9  C   UNL A   1      36.292  20.396  24.748  1.00  0.00     0.027 A 
ATOM     10  C   UNL A   1      37.351  21.207  24.330  1.00  0.00     0.002 A 
ATOM     11  C   UNL A   1      36.388  23.066  25.514  1.00  0.00     0.018 A 
ATOM     12  C   UNL A   1      37.390  22.546  24.697  1.00  0.00     0.001 A 
BRANCH   8  13
ATOM     13  N   UNL A   1      34.135  20.044  25.658  1.00  0.00    -0.321 N 
ATOM     14  C   UNL A   1      32.803  20.145  25.303  1.00  0.00     0.255 C 
ATOM     15  O   UNL A   1      32.013  19.297  25.717  1.00  0.00    -0.269 OA
ATOM     16  H   UNL A   1      34.366  19.199  26.106  1.00  0.00     0.170 HD
BRANCH  14  17
ATOM     17  C   UNL A   1      32.294  21.225  24.410  1.00  0.00     0.040 A 
ATOM     18  C   UNL A   1      31.808  23.670  23.082  1.00  0.00     0.052 A 
ATOM     19  C   UNL A   1      31.067  23.298  24.206  1.00  0.00     0.028 A 
ATOM     20  C   UNL A   1      32.592  22.669  22.499  1.00  0.00     0.028 A 
ATOM     21  C   UNL A   1      31.358  22.125  24.914  1.00  0.00     0.016 A 
ATOM     22  C   UNL A   1      32.752  21.420  23.111  1.00  0.00     0.016 A 
BRANCH  18  23
ATOM     23  N   UNL A   1      31.831  25.087  22.662  1.00  0.00    -0.266 N 
BRANCH  23  24
ATOM     24  S   UNL A   1      33.275  25.567  21.856  1.00  0.00     0.232 S 
ATOM     25  C   UNL A   1      33.707  27.113  22.619  1.00  0.00     0.183 C 
ATOM     26  O   UNL A   1      32.949  25.863  20.475  1.00  0.00    -0.207 OA
ATOM     27  O   UNL A   1      34.322  24.617  22.178  1.00  0.00    -0.207 OA
ENDBRANCH  23  24
BRANCH  23  28
ATOM     28  C   UNL A   1      31.378  26.072  23.729  1.00  0.00     0.170 C 
BRANCH  28  29
ATOM     29  C   UNL A   1      30.352  27.088  23.230  1.00  0.00    -0.027 A 
ATOM     30  C   UNL A   1      28.982  26.927  23.489  1.00  0.00     0.007 A 
ATOM     31  C   UNL A   1      30.771  28.266  22.590  1.00  0.00     0.007 A 
ATOM     32  C   UNL A   1      28.082  27.970  23.230  1.00  0.00     0.021 A 
ATOM     33  C   UNL A   1      29.887  29.332  22.392  1.00  0.00     0.021 A 
ATOM     34  C   UNL A   1      28.549  29.185  22.733  1.00  0.00     0.041 A 
ATOM     35  Cl  UNL A   1      27.477  30.521  22.573  1.00  0.00    -0.084 Cl
ENDBRANCH  28  29
ENDBRANCH  23  28
ENDBRANCH  18  23
ENDBRANCH  14  17
ENDBRANCH   8  13
ENDBRANCH   5   7
ENDBRANCH   4   5
ENDBRANCH   3   4
ENDBRANCH   2   3
ENDBRANCH   1   2
BRANCH   1  36
ATOM     36  C   UNL A   1      31.280  27.640  27.047  1.00  0.00     0.188 C 
BRANCH  36  37
ATOM     37  C   UNL A   1      31.787  28.975  26.456  1.00  0.00     0.188 C 
BRANCH  37  38
ATOM     38  O   UNL A   1      32.903  29.638  27.017  1.00  0.00    -0.376 OA
BRANCH  38  39
ATOM     39  C   UNL A   1      32.956  31.053  26.970  1.00  0.00     0.202 C 
BRANCH  39  40
ATOM     40  C   UNL A   1      33.939  31.848  27.852  1.00  0.00     0.261 C 
BRANCH  40  41
ATOM     41  O   UNL A   1      33.483  33.126  28.326  1.00  0.00    -0.460 OA
BRANCH  41  42
ATOM     42  C   UNL A   1      34.378  34.147  28.240  1.00  0.00     0.338 C 
ATOM     43  O   UNL A   1      34.262  35.180  27.615  1.00  0.00    -0.246 OA
BRANCH  42  44
ATOM     44  C   UNL A   1      35.470  33.919  29.219  1.00  0.00     0.060 A 
ATOM     45  C   UNL A   1      36.788  34.235  28.847  1.00  0.00     0.016 A 
ATOM     46  C   UNL A   1      35.206  33.392  30.482  1.00  0.00     0.016 A 
ATOM     47  C   UNL A   1      37.848  34.003  29.726  1.00  0.00     0.010 A 
ATOM     48  C   UNL A   1      36.271  33.123  31.348  1.00  0.00     0.010 A 
ATOM     49  C   UNL A   1      37.599  33.394  30.961  1.00  0.00    -0.014 A 
BRANCH  49  50
ATOM     50  C   UNL A   1      38.720  32.803  31.734  1.00  0.00     0.031 A 
ATOM     51  C   UNL A   1      39.373  31.564  31.183  1.00  0.00     0.074 A 
ATOM     52  C   UNL A   1      39.157  33.334  32.888  1.00  0.00     0.049 A 
ATOM     53  N   UNL A   1      40.285  30.790  31.712  1.00  0.00    -0.248 NA
ATOM     54  C   UNL A   1      38.923  31.138  29.848  1.00  0.00     0.031 C 
ATOM     55  C   UNL A   1      38.661  34.563  33.499  1.00  0.00     0.029 A 
ATOM     56  N   UNL A   1      40.116  32.884  33.764  1.00  0.00    -0.354 N 
ATOM     57  C   UNL A   1      40.505  29.780  30.784  1.00  0.00     0.074 A 
ATOM     58  C   UNL A   1      39.608  30.020  29.675  1.00  0.00     0.031 C 
ATOM     59  C   UNL A   1      39.307  34.761  34.663  1.00  0.00     0.029 A 
ATOM     60  C   UNL A   1      40.231  33.651  34.896  1.00  0.00     0.049 A 
ATOM     61  H   UNL A   1      40.670  32.088  33.593  1.00  0.00     0.167 HD
ATOM     62  C   UNL A   1      41.378  28.747  30.848  1.00  0.00     0.037 A 
ATOM     63  C   UNL A   1      40.974  33.457  36.005  1.00  0.00     0.037 A 
ATOM     64  C   UNL A   1      42.261  28.504  31.957  1.00  0.00     0.049 A 
ATOM     65  C   UNL A   1      41.867  32.243  36.100  1.00  0.00     0.074 A 
ATOM     66  C   UNL A   1      43.186  27.488  32.117  1.00  0.00     0.029 A 
ATOM     67  N   UNL A   1      42.320  29.283  33.104  1.00  0.00    -0.354 N 
ATOM     68  N   UNL A   1      42.078  31.295  35.219  1.00  0.00    -0.248 NA
ATOM     69  C   UNL A   1      42.625  32.074  37.350  1.00  0.00     0.031 C 
ATOM     70  C   UNL A   1      43.758  27.615  33.387  1.00  0.00     0.029 A 
ATOM     71  C   UNL A   1      43.245  28.753  33.989  1.00  0.00     0.049 A 
ATOM     72  H   UNL A   1      41.783  30.093  33.265  1.00  0.00     0.167 HD
ATOM     73  C   UNL A   1      43.020  30.443  35.788  1.00  0.00     0.074 A 
ATOM     74  C   UNL A   1      43.343  30.990  37.088  1.00  0.00     0.031 C 
ATOM     75  C   UNL A   1      43.571  29.314  35.275  1.00  0.00     0.037 A 
BRANCH  62  76
ATOM     76  C   UNL A   1      41.385  27.782  29.698  1.00  0.00     0.064 A 
ATOM     77  C   UNL A   1      40.375  26.821  29.528  1.00  0.00     0.173 A 
ATOM     78  C   UNL A   1      42.418  27.820  28.748  1.00  0.00     0.173 A 
ATOM     79  F   UNL A   1      39.374  26.730  30.417  1.00  0.00    -0.203 F 
ATOM     80  C   UNL A   1      40.422  25.910  28.476  1.00  0.00     0.198 A 
ATOM     81  C   UNL A   1      42.441  26.931  27.676  1.00  0.00     0.198 A 
ATOM     82  F   UNL A   1      43.406  28.719  28.858  1.00  0.00    -0.203 F 
ATOM     83  F   UNL A   1      39.482  24.960  28.374  1.00  0.00    -0.200 F 
ATOM     84  C   UNL A   1      41.450  25.970  27.548  1.00  0.00     0.200 A 
ATOM     85  F   UNL A   1      43.427  27.001  26.771  1.00  0.00    -0.200 F 
ATOM     86  F   UNL A   1      41.491  25.095  26.534  1.00  0.00    -0.200 F 
ENDBRANCH  62  76
BRANCH  63  87
ATOM     87  C   UNL A   1      40.904  34.430  37.129  1.00  0.00     0.064 A 
ATOM     88  C   UNL A   1      39.936  34.301  38.136  1.00  0.00     0.173 A 
ATOM     89  C   UNL A   1      41.782  35.522  37.208  1.00  0.00     0.173 A 
ATOM     90  F   UNL A   1      39.052  33.294  38.088  1.00  0.00    -0.203 F 
ATOM     91  C   UNL A   1      39.839  35.233  39.167  1.00  0.00     0.198 A 
ATOM     92  C   UNL A   1      41.705  36.436  38.257  1.00  0.00     0.198 A 
ATOM     93  F   UNL A   1      42.719  35.699  36.266  1.00  0.00    -0.203 F 
ATOM     94  F   UNL A   1      38.871  35.114  40.086  1.00  0.00    -0.200 F 
ATOM     95  C   UNL A   1      40.729  36.295  39.232  1.00  0.00     0.200 A 
ATOM     96  F   UNL A   1      42.570  37.456  38.320  1.00  0.00    -0.200 F 
ATOM     97  F   UNL A   1      40.637  37.190  40.225  1.00  0.00    -0.200 F 
ENDBRANCH  63  87
BRANCH  75  98
ATOM     98  C   UNL A   1      44.628  28.620  36.089  1.00  0.00     0.064 A 
ATOM     99  C   UNL A   1      45.983  28.974  36.009  1.00  0.00     0.173 A 
ATOM    100  C   UNL A   1      44.268  27.619  37.005  1.00  0.00     0.173 A 
ATOM    101  F   UNL A   1      46.385  29.916  35.143  1.00  0.00    -0.203 F 
ATOM    102  C   UNL A   1      46.940  28.334  36.796  1.00  0.00     0.198 A 
ATOM    103  C   UNL A   1      45.220  27.006  37.815  1.00  0.00     0.198 A 
ATOM    104  F   UNL A   1      42.985  27.247  37.131  1.00  0.00    -0.203 F 
ATOM    105  F   UNL A   1      48.234  28.655  36.667  1.00  0.00    -0.200 F 
ATOM    106  C   UNL A   1      46.557  27.359  37.704  1.00  0.00     0.200 A 
ATOM    107  F   UNL A   1      44.845  26.077  38.705  1.00  0.00    -0.200 F 
ATOM    108  F   UNL A   1      47.476  26.753  38.468  1.00  0.00    -0.200 F 
ENDBRANCH  75  98
ENDBRANCH  49  50
ENDBRANCH  42  44
ENDBRANCH  41  42
ENDBRANCH  40  41
ENDBRANCH  39  40
ENDBRANCH  38  39
ENDBRANCH  37  38
ENDBRANCH  36  37
ENDBRANCH   1  36
TORSDOF 23
ENDMDL
MODEL 2
REMARK VINA RESULT:     -10.3      5.869     10.089
REMARK SMILES CS(=O)(=O)N(Cc1ccc(Cl)cc1)c1ccc(C(=O)Nc2ccccc2C(=O)OCCOCCOCCOC(=O)c2ccc(-c3c4nc(c(-c5c(F)c(F)c(F)c(F)c5F)c5ccc([nH]5)c(-c5c(F)c(F)c(F)c(F)c5F)c5nc(c(-c6c(F)c(F)c(F)c(F)c6F)c6ccc3[nH]6)C=C5)C=C4)cc2)cc1
REMARK SMILES IDX 32 1 31 2 30 3 29 4 27 5 28 6 26 7 21 8 22 9 23 10 25 11
REMARK SMILES IDX 24 12 20 13 18 14 19 15 17 17 14 18 15 19 105 20 16 21
REMARK SMILES IDX 104 22 5 23 2 24 1 25 3 26 4 27 6 28 7 29 8 30 13 31 9 32
REMARK SMILES IDX 12 33 10 34 11 35 33 36 34 37 35 38 36 39 37 40 38 41 39 42
REMARK SMILES IDX 40 43 41 44 42 45 103 46 43 47 102 48 44 49 45 50 46 51
REMARK SMILES IDX 96 52 47 53 101 54 95 55 97 56 48 57 100 58 94 59 93 60
REMARK SMILES IDX 49 62 81 63 61 64 80 65 62 66 65 67 79 68 98 69 63 70 64 71
REMARK SMILES IDX 78 73 99 74 66 75 50 76 51 77 59 78 52 79 53 80 57 81 60 82
REMARK SMILES IDX 54 83 55 84 58 85 56 86 82 87 83 88 91 89 84 90 85 91 89 92
REMARK SMILES IDX 92 93 86 94 87 95 90 96 88 97 67 98 68 99 76 100 69 101
REMARK SMILES IDX 70 102 74 103 77 104 71 105 72 106 75 107 73 108
REMARK H PARENT 20 16 97 61 65 72
REMARK Flexibility Score: inf
ROOT
ATOM      1  O   UNL A   1      33.630  33.477  28.160  1.00  0.00    -0.376 OA
ENDROOT
BRANCH   1   2
ATOM      2  C   UNL A   1      33.534  34.448  29.183  1.00  0.00     0.202 C 
BRANCH   2   3
ATOM      3  C   UNL A   1      34.613  34.762  30.233  1.00  0.00     0.261 C 
BRANCH   3   4
ATOM      4  O   UNL A   1      34.766  33.883  31.347  1.00  0.00    -0.460 OA
BRANCH   4   5
ATOM      5  C   UNL A   1      35.640  34.302  32.296  1.00  0.00     0.340 C 
ATOM      6  O   UNL A   1      35.650  35.414  32.804  1.00  0.00    -0.246 OA
BRANCH   5   7
ATOM      7  C   UNL A   1      36.494  33.183  32.780  1.00  0.00     0.083 A 
ATOM      8  C   UNL A   1      36.988  32.130  31.984  1.00  0.00     0.056 A 
ATOM      9  C   UNL A   1      37.639  31.057  32.618  1.00  0.00     0.027 A 
ATOM     10  C   UNL A   1      37.913  31.089  33.988  1.00  0.00     0.002 A 
ATOM     11  C   UNL A   1      36.770  33.197  34.163  1.00  0.00     0.018 A 
ATOM     12  C   UNL A   1      37.495  32.167  34.758  1.00  0.00     0.001 A 
BRANCH   8  13
ATOM     13  N   UNL A   1      36.978  32.053  30.574  1.00  0.00    -0.321 N 
ATOM     14  C   UNL A   1      37.744  32.674  29.607  1.00  0.00     0.255 C 
ATOM     15  O   UNL A   1      37.413  32.564  28.427  1.00  0.00    -0.269 OA
ATOM     16  H   UNL A   1      36.296  31.442  30.213  1.00  0.00     0.170 HD
BRANCH  14  17
ATOM     17  C   UNL A   1      38.978  33.444  29.937  1.00  0.00     0.040 A 
ATOM     18  C   UNL A   1      41.597  34.496  30.038  1.00  0.00     0.052 A 
ATOM     19  C   UNL A   1      41.219  33.421  30.845  1.00  0.00     0.028 A 
ATOM     20  C   UNL A   1      40.561  35.185  29.399  1.00  0.00     0.028 A 
ATOM     21  C   UNL A   1      39.946  32.845  30.741  1.00  0.00     0.016 A 
ATOM     22  C   UNL A   1      39.243  34.713  29.433  1.00  0.00     0.016 A 
BRANCH  18  23
ATOM     23  N   UNL A   1      43.033  34.759  29.802  1.00  0.00    -0.266 N 
BRANCH  23  24
ATOM     24  S   UNL A   1      43.702  33.902  28.467  1.00  0.00     0.232 S 
ATOM     25  C   UNL A   1      45.428  34.326  28.497  1.00  0.00     0.183 C 
ATOM     26  O   UNL A   1      43.158  34.463  27.246  1.00  0.00    -0.207 OA
ATOM     27  O   UNL A   1      43.601  32.480  28.732  1.00  0.00    -0.207 OA
ENDBRANCH  23  24
BRANCH  23  28
ATOM     28  C   UNL A   1      43.900  34.706  31.051  1.00  0.00     0.170 C 
BRANCH  28  29
ATOM     29  C   UNL A   1      43.709  35.903  31.980  1.00  0.00    -0.027 A 
ATOM     30  C   UNL A   1      43.097  35.760  33.235  1.00  0.00     0.007 A 
ATOM     31  C   UNL A   1      44.241  37.158  31.643  1.00  0.00     0.007 A 
ATOM     32  C   UNL A   1      43.133  36.806  34.167  1.00  0.00     0.021 A 
ATOM     33  C   UNL A   1      44.336  38.179  32.593  1.00  0.00     0.021 A 
ATOM     34  C   UNL A   1      43.799  37.990  33.860  1.00  0.00     0.041 A 
ATOM     35  Cl  UNL A   1      43.992  39.208  35.058  1.00  0.00    -0.084 Cl
ENDBRANCH  28  29
ENDBRANCH  23  28
ENDBRANCH  18  23
ENDBRANCH  14  17
ENDBRANCH   8  13
ENDBRANCH   5   7
ENDBRANCH   4   5
ENDBRANCH   3   4
ENDBRANCH   2   3
ENDBRANCH   1   2
BRANCH   1  36
ATOM     36  C   UNL A   1      34.021  32.158  28.445  1.00  0.00     0.188 C 
BRANCH  36  37
ATOM     37  C   UNL A   1      33.904  31.125  27.301  1.00  0.00     0.188 C 
BRANCH  37  38
ATOM     38  O   UNL A   1      34.615  29.904  27.353  1.00  0.00    -0.376 OA
BRANCH  38  39
ATOM     39  C   UNL A   1      35.493  29.667  28.440  1.00  0.00     0.202 C 
BRANCH  39  40
ATOM     40  C   UNL A   1      36.883  29.036  28.224  1.00  0.00     0.261 C 
BRANCH  40  41
ATOM     41  O   UNL A   1      37.894  29.373  29.189  1.00  0.00    -0.460 OA
BRANCH  41  42
ATOM     42  C   UNL A   1      39.181  29.296  28.753  1.00  0.00     0.338 C 
ATOM     43  O   UNL A   1      39.592  29.487  27.629  1.00  0.00    -0.246 OA
BRANCH  42  44
ATOM     44  C   UNL A   1      40.083  29.152  29.924  1.00  0.00     0.060 A 
ATOM     45  C   UNL A   1      39.588  28.538  31.087  1.00  0.00     0.016 A 
ATOM     46  C   UNL A   1      41.394  29.623  29.884  1.00  0.00     0.016 A 
ATOM     47  C   UNL A   1      40.392  28.415  32.221  1.00  0.00     0.010 A 
ATOM     48  C   UNL A   1      42.188  29.535  31.033  1.00  0.00     0.010 A 
ATOM     49  C   UNL A   1      41.680  28.963  32.216  1.00  0.00    -0.014 A 
BRANCH  49  50
ATOM     50  C   UNL A   1      42.397  29.179  33.498  1.00  0.00     0.031 A 
ATOM     51  C   UNL A   1      43.334  28.099  33.966  1.00  0.00     0.074 A 
ATOM     52  C   UNL A   1      42.236  30.292  34.234  1.00  0.00     0.049 A 
ATOM     53  N   UNL A   1      43.987  27.986  35.094  1.00  0.00    -0.248 NA
ATOM     54  C   UNL A   1      43.554  26.985  33.030  1.00  0.00     0.031 C 
ATOM     55  C   UNL A   1      41.414  31.441  33.866  1.00  0.00     0.029 A 
ATOM     56  N   UNL A   1      42.751  30.624  35.464  1.00  0.00    -0.354 N 
ATOM     57  C   UNL A   1      44.680  26.785  35.007  1.00  0.00     0.074 A 
ATOM     58  C   UNL A   1      44.343  26.190  33.733  1.00  0.00     0.031 C 
ATOM     59  C   UNL A   1      41.465  32.347  34.860  1.00  0.00     0.029 A 
ATOM     60  C   UNL A   1      42.289  31.821  35.949  1.00  0.00     0.049 A 
ATOM     61  H   UNL A   1      43.392  30.056  35.950  1.00  0.00     0.167 HD
ATOM     62  C   UNL A   1      45.526  26.229  35.907  1.00  0.00     0.037 A 
ATOM     63  C   UNL A   1      42.485  32.406  37.149  1.00  0.00     0.037 A 
ATOM     64  C   UNL A   1      45.852  26.817  37.178  1.00  0.00     0.049 A 
ATOM     65  C   UNL A   1      43.352  31.721  38.179  1.00  0.00     0.074 A 
ATOM     66  C   UNL A   1      46.701  26.336  38.159  1.00  0.00     0.029 A 
ATOM     67  N   UNL A   1      45.333  28.014  37.651  1.00  0.00    -0.354 N 
ATOM     68  N   UNL A   1      44.011  30.591  38.092  1.00  0.00    -0.248 NA
ATOM     69  C   UNL A   1      43.498  32.396  39.478  1.00  0.00     0.031 C 
ATOM     70  C   UNL A   1      46.646  27.209  39.250  1.00  0.00     0.029 A 
ATOM     71  C   UNL A   1      45.821  28.273  38.921  1.00  0.00     0.049 A 
ATOM     72  H   UNL A   1      44.710  28.594  37.155  1.00  0.00     0.167 HD
ATOM     73  C   UNL A   1      44.681  30.441  39.302  1.00  0.00     0.074 A 
ATOM     74  C   UNL A   1      44.352  31.599  40.104  1.00  0.00     0.031 C 
ATOM     75  C   UNL A   1      45.500  29.438  39.706  1.00  0.00     0.037 A 
BRANCH  62  76
ATOM     76  C   UNL A   1      46.122  24.896  35.556  1.00  0.00     0.064 A 
ATOM     77  C   UNL A   1      45.468  23.690  35.850  1.00  0.00     0.173 A 
ATOM     78  C   UNL A   1      47.368  24.825  34.913  1.00  0.00     0.173 A 
ATOM     79  F   UNL A   1      44.283  23.700  36.479  1.00  0.00    -0.203 F 
ATOM     80  C   UNL A   1      46.056  22.464  35.551  1.00  0.00     0.198 A 
ATOM     81  C   UNL A   1      47.936  23.598  34.582  1.00  0.00     0.198 A 
ATOM     82  F   UNL A   1      48.036  25.947  34.606  1.00  0.00    -0.203 F 
ATOM     83  F   UNL A   1      45.442  21.325  35.902  1.00  0.00    -0.200 F 
ATOM     84  C   UNL A   1      47.286  22.419  34.912  1.00  0.00     0.200 A 
ATOM     85  F   UNL A   1      49.118  23.557  33.951  1.00  0.00    -0.200 F 
ATOM     86  F   UNL A   1      47.849  21.237  34.622  1.00  0.00    -0.200 F 
ENDBRANCH  62  76
BRANCH  63  87
ATOM     87  C   UNL A   1      41.844  33.714  37.455  1.00  0.00     0.064 A 
ATOM     88  C   UNL A   1      42.541  34.918  37.280  1.00  0.00     0.173 A 
ATOM     89  C   UNL A   1      40.533  33.788  37.950  1.00  0.00     0.173 A 
ATOM     90  F   UNL A   1      43.808  34.899  36.840  1.00  0.00    -0.203 F 
ATOM     91  C   UNL A   1      41.960  36.142  37.604  1.00  0.00     0.198 A 
ATOM     92  C   UNL A   1      39.941  35.015  38.245  1.00  0.00     0.198 A 
ATOM     93  F   UNL A   1      39.825  32.667  38.146  1.00  0.00    -0.203 F 
ATOM     94  F   UNL A   1      42.668  37.273  37.477  1.00  0.00    -0.200 F 
ATOM     95  C   UNL A   1      40.658  36.191  38.079  1.00  0.00     0.200 A 
ATOM     96  F   UNL A   1      38.681  35.058  38.696  1.00  0.00    -0.200 F 
ATOM     97  F   UNL A   1      40.098  37.368  38.388  1.00  0.00    -0.200 F 
ENDBRANCH  63  87
BRANCH  75  98
ATOM     98  C   UNL A   1      46.151  29.568  41.056  1.00  0.00     0.064 A 
ATOM     99  C   UNL A   1      47.355  30.265  41.239  1.00  0.00     0.173 A 
ATOM    100  C   UNL A   1      45.529  29.030  42.194  1.00  0.00     0.173 A 
ATOM    101  F   UNL A   1      47.998  30.790  40.184  1.00  0.00    -0.203 F 
ATOM    102  C   UNL A   1      47.923  30.396  42.504  1.00  0.00     0.198 A 
ATOM    103  C   UNL A   1      46.081  29.194  43.462  1.00  0.00     0.198 A 
ATOM    104  F   UNL A   1      44.371  28.362  42.080  1.00  0.00    -0.203 F 
ATOM    105  F   UNL A   1      49.098  31.024  42.647  1.00  0.00    -0.200 F 
ATOM    106  C   UNL A   1      47.282  29.869  43.615  1.00  0.00     0.200 A 
ATOM    107  F   UNL A   1      45.449  28.699  44.535  1.00  0.00    -0.200 F 
ATOM    108  F   UNL A   1      47.823  30.007  44.833  1.00  0.00    -0.200 F 
ENDBRANCH  75  98
ENDBRANCH  49  50
ENDBRANCH  42  44
ENDBRANCH  41  42
ENDBRANCH  40  41
ENDBRANCH  39  40
ENDBRANCH  38  39
ENDBRANCH  37  38
ENDBRANCH  36  37
ENDBRANCH   1  36
TORSDOF 23
ENDMDL
MODEL 3
REMARK VINA RESULT:     -10.3      6.007     11.458
REMARK SMILES CS(=O)(=O)N(Cc1ccc(Cl)cc1)c1ccc(C(=O)Nc2ccccc2C(=O)OCCOCCOCCOC(=O)c2ccc(-c3c4nc(c(-c5c(F)c(F)c(F)c(F)c5F)c5ccc([nH]5)c(-c5c(F)c(F)c(F)c(F)c5F)c5nc(c(-c6c(F)c(F)c(F)c(F)c6F)c6ccc3[nH]6)C=C5)C=C4)cc2)cc1
REMARK SMILES IDX 32 1 31 2 30 3 29 4 27 5 28 6 26 7 21 8 22 9 23 10 25 11
REMARK SMILES IDX 24 12 20 13 18 14 19 15 17 17 14 18 15 19 105 20 16 21
REMARK SMILES IDX 104 22 5 23 2 24 1 25 3 26 4 27 6 28 7 29 8 30 13 31 9 32
REMARK SMILES IDX 12 33 10 34 11 35 33 36 34 37 35 38 36 39 37 40 38 41 39 42
REMARK SMILES IDX 40 43 41 44 42 45 103 46 43 47 102 48 44 49 45 50 46 51
REMARK SMILES IDX 96 52 47 53 101 54 95 55 97 56 48 57 100 58 94 59 93 60
REMARK SMILES IDX 49 62 81 63 61 64 80 65 62 66 65 67 79 68 98 69 63 70 64 71
REMARK SMILES IDX 78 73 99 74 66 75 50 76 51 77 59 78 52 79 53 80 57 81 60 82
REMARK SMILES IDX 54 83 55 84 58 85 56 86 82 87 83 88 91 89 84 90 85 91 89 92
REMARK SMILES IDX 92 93 86 94 87 95 90 96 88 97 67 98 68 99 76 100 69 101
REMARK SMILES IDX 70 102 74 103 77 104 71 105 72 106 75 107 73 108
REMARK H PARENT 20 16 97 61 65 72
REMARK Flexibility Score: inf
ROOT
ATOM      1  O   UNL A   1      33.858  33.897  28.478  1.00  0.00    -0.376 OA
ENDROOT
BRANCH   1   2
ATOM      2  C   UNL A   1      33.305  34.722  29.485  1.00  0.00     0.202 C 
BRANCH   2   3
ATOM      3  C   UNL A   1      34.051  35.262  30.717  1.00  0.00     0.261 C 
BRANCH   3   4
ATOM      4  O   UNL A   1      34.302  34.380  31.810  1.00  0.00    -0.460 OA
BRANCH   4   5
ATOM      5  C   UNL A   1      35.087  34.890  32.793  1.00  0.00     0.340 C 
ATOM      6  O   UNL A   1      34.971  36.004  33.282  1.00  0.00    -0.246 OA
BRANCH   5   7
ATOM      7  C   UNL A   1      36.017  33.860  33.335  1.00  0.00     0.083 A 
ATOM      8  C   UNL A   1      36.679  32.876  32.572  1.00  0.00     0.056 A 
ATOM      9  C   UNL A   1      37.389  31.869  33.249  1.00  0.00     0.027 A 
ATOM     10  C   UNL A   1      37.553  31.909  34.636  1.00  0.00     0.002 A 
ATOM     11  C   UNL A   1      36.183  33.883  34.734  1.00  0.00     0.018 A 
ATOM     12  C   UNL A   1      36.965  32.926  35.378  1.00  0.00     0.001 A 
BRANCH   8  13
ATOM     13  N   UNL A   1      36.784  32.819  31.166  1.00  0.00    -0.321 N 
ATOM     14  C   UNL A   1      37.833  33.076  30.304  1.00  0.00     0.255 C 
ATOM     15  O   UNL A   1      37.610  33.119  29.094  1.00  0.00    -0.269 OA
ATOM     16  H   UNL A   1      35.954  32.544  30.715  1.00  0.00     0.170 HD
BRANCH  14  17
ATOM     17  C   UNL A   1      39.232  33.270  30.784  1.00  0.00     0.040 A 
ATOM     18  C   UNL A   1      41.953  33.974  31.057  1.00  0.00     0.052 A 
ATOM     19  C   UNL A   1      41.576  32.745  30.511  1.00  0.00     0.028 A 
ATOM     20  C   UNL A   1      40.947  34.701  31.700  1.00  0.00     0.028 A 
ATOM     21  C   UNL A   1      40.228  32.426  30.300  1.00  0.00     0.016 A 
ATOM     22  C   UNL A   1      39.607  34.295  31.646  1.00  0.00     0.016 A 
BRANCH  18  23
ATOM     23  N   UNL A   1      43.319  34.487  30.817  1.00  0.00    -0.266 N 
BRANCH  23  24
ATOM     24  S   UNL A   1      44.295  34.598  32.231  1.00  0.00     0.232 S 
ATOM     25  C   UNL A   1      44.181  32.985  32.968  1.00  0.00     0.183 C 
ATOM     26  O   UNL A   1      43.661  35.520  33.152  1.00  0.00    -0.207 OA
ATOM     27  O   UNL A   1      45.674  34.793  31.828  1.00  0.00    -0.207 OA
ENDBRANCH  23  24
BRANCH  23  28
ATOM     28  C   UNL A   1      43.385  35.728  29.939  1.00  0.00     0.170 C 
BRANCH  28  29
ATOM     29  C   UNL A   1      43.668  35.423  28.469  1.00  0.00    -0.027 A 
ATOM     30  C   UNL A   1      44.795  34.680  28.084  1.00  0.00     0.007 A 
ATOM     31  C   UNL A   1      42.745  35.788  27.476  1.00  0.00     0.007 A 
ATOM     32  C   UNL A   1      44.923  34.212  26.769  1.00  0.00     0.021 A 
ATOM     33  C   UNL A   1      42.836  35.268  26.181  1.00  0.00     0.021 A 
ATOM     34  C   UNL A   1      43.916  34.464  25.839  1.00  0.00     0.041 A 
ATOM     35  Cl  UNL A   1      43.987  33.750  24.276  1.00  0.00    -0.084 Cl
ENDBRANCH  28  29
ENDBRANCH  23  28
ENDBRANCH  18  23
ENDBRANCH  14  17
ENDBRANCH   8  13
ENDBRANCH   5   7
ENDBRANCH   4   5
ENDBRANCH   3   4
ENDBRANCH   2   3
ENDBRANCH   1   2
BRANCH   1  36
ATOM     36  C   UNL A   1      34.132  32.540  28.720  1.00  0.00     0.188 C 
BRANCH  36  37
ATOM     37  C   UNL A   1      33.842  31.546  27.573  1.00  0.00     0.188 C 
BRANCH  37  38
ATOM     38  O   UNL A   1      34.651  30.402  27.385  1.00  0.00    -0.376 OA
BRANCH  38  39
ATOM     39  C   UNL A   1      35.731  30.172  28.272  1.00  0.00     0.202 C 
BRANCH  39  40
ATOM     40  C   UNL A   1      37.141  29.836  27.747  1.00  0.00     0.261 C 
BRANCH  40  41
ATOM     41  O   UNL A   1      38.205  29.858  28.715  1.00  0.00    -0.460 OA
BRANCH  41  42
ATOM     42  C   UNL A   1      39.389  29.326  28.308  1.00  0.00     0.338 C 
ATOM     43  O   UNL A   1      39.838  29.297  27.182  1.00  0.00    -0.246 OA
BRANCH  42  44
ATOM     44  C   UNL A   1      40.192  28.959  29.501  1.00  0.00     0.060 A 
ATOM     45  C   UNL A   1      39.532  28.440  30.628  1.00  0.00     0.016 A 
ATOM     46  C   UNL A   1      41.576  29.133  29.519  1.00  0.00     0.016 A 
ATOM     47  C   UNL A   1      40.246  28.116  31.782  1.00  0.00     0.010 A 
ATOM     48  C   UNL A   1      42.286  28.845  30.689  1.00  0.00     0.010 A 
ATOM     49  C   UNL A   1      41.621  28.369  31.837  1.00  0.00    -0.014 A 
BRANCH  49  50
ATOM     50  C   UNL A   1      42.318  28.391  33.147  1.00  0.00     0.031 A 
ATOM     51  C   UNL A   1      42.114  29.594  34.028  1.00  0.00     0.074 A 
ATOM     52  C   UNL A   1      43.110  27.386  33.558  1.00  0.00     0.049 A 
ATOM     53  N   UNL A   1      42.692  29.914  35.157  1.00  0.00    -0.248 NA
ATOM     54  C   UNL A   1      41.124  30.576  33.559  1.00  0.00     0.031 C 
ATOM     55  C   UNL A   1      43.341  26.138  32.836  1.00  0.00     0.029 A 
ATOM     56  N   UNL A   1      43.884  27.272  34.688  1.00  0.00    -0.354 N 
ATOM     57  C   UNL A   1      42.147  31.138  35.523  1.00  0.00     0.074 A 
ATOM     58  C   UNL A   1      41.219  31.519  34.482  1.00  0.00     0.031 C 
ATOM     59  C   UNL A   1      44.216  25.390  33.532  1.00  0.00     0.029 A 
ATOM     60  C   UNL A   1      44.636  26.125  34.726  1.00  0.00     0.049 A 
ATOM     61  H   UNL A   1      43.895  27.949  35.403  1.00  0.00     0.167 HD
ATOM     62  C   UNL A   1      42.394  31.878  36.630  1.00  0.00     0.037 A 
ATOM     63  C   UNL A   1      45.578  25.733  35.609  1.00  0.00     0.037 A 
ATOM     64  C   UNL A   1      43.326  31.503  37.660  1.00  0.00     0.049 A 
ATOM     65  C   UNL A   1      45.912  26.620  36.784  1.00  0.00     0.074 A 
ATOM     66  C   UNL A   1      43.645  32.180  38.823  1.00  0.00     0.029 A 
ATOM     67  N   UNL A   1      44.098  30.350  37.644  1.00  0.00    -0.354 N 
ATOM     68  N   UNL A   1      45.391  27.772  37.132  1.00  0.00    -0.248 NA
ATOM     69  C   UNL A   1      46.972  26.149  37.690  1.00  0.00     0.031 C 
ATOM     70  C   UNL A   1      44.656  31.470  39.478  1.00  0.00     0.029 A 
ATOM     71  C   UNL A   1      44.915  30.312  38.762  1.00  0.00     0.049 A 
ATOM     72  H   UNL A   1      44.069  29.661  36.940  1.00  0.00     0.167 HD
ATOM     73  C   UNL A   1      46.026  28.142  38.313  1.00  0.00     0.074 A 
ATOM     74  C   UNL A   1      46.967  27.089  38.625  1.00  0.00     0.031 C 
ATOM     75  C   UNL A   1      45.838  29.251  39.072  1.00  0.00     0.037 A 
BRANCH  62  76
ATOM     76  C   UNL A   1      41.671  33.188  36.756  1.00  0.00     0.064 A 
ATOM     77  C   UNL A   1      40.357  33.267  37.247  1.00  0.00     0.173 A 
ATOM     78  C   UNL A   1      42.302  34.385  36.383  1.00  0.00     0.173 A 
ATOM     79  F   UNL A   1      39.701  32.152  37.602  1.00  0.00    -0.203 F 
ATOM     80  C   UNL A   1      39.692  34.487  37.320  1.00  0.00     0.198 A 
ATOM     81  C   UNL A   1      41.646  35.608  36.493  1.00  0.00     0.198 A 
ATOM     82  F   UNL A   1      43.558  34.369  35.911  1.00  0.00    -0.203 F 
ATOM     83  F   UNL A   1      38.416  34.529  37.728  1.00  0.00    -0.200 F 
ATOM     84  C   UNL A   1      40.338  35.657  36.950  1.00  0.00     0.200 A 
ATOM     85  F   UNL A   1      42.278  36.738  36.149  1.00  0.00    -0.200 F 
ATOM     86  F   UNL A   1      39.697  36.831  37.024  1.00  0.00    -0.200 F 
ENDBRANCH  62  76
BRANCH  63  87
ATOM     87  C   UNL A   1      46.286  24.438  35.417  1.00  0.00     0.064 A 
ATOM     88  C   UNL A   1      45.753  23.242  35.919  1.00  0.00     0.173 A 
ATOM     89  C   UNL A   1      47.520  24.371  34.752  1.00  0.00     0.173 A 
ATOM     90  F   UNL A   1      44.592  23.259  36.591  1.00  0.00    -0.203 F 
ATOM     91  C   UNL A   1      46.432  22.034  35.780  1.00  0.00     0.198 A 
ATOM     92  C   UNL A   1      48.184  23.156  34.585  1.00  0.00     0.198 A 
ATOM     93  F   UNL A   1      48.081  25.485  34.261  1.00  0.00    -0.203 F 
ATOM     94  F   UNL A   1      45.924  20.916  36.316  1.00  0.00    -0.200 F 
ATOM     95  C   UNL A   1      47.644  21.990  35.106  1.00  0.00     0.200 A 
ATOM     96  F   UNL A   1      49.350  23.117  33.927  1.00  0.00    -0.200 F 
ATOM     97  F   UNL A   1      48.296  20.828  34.969  1.00  0.00    -0.200 F 
ENDBRANCH  63  87
BRANCH  75  98
ATOM     98  C   UNL A   1      46.622  29.363  40.352  1.00  0.00     0.064 A 
ATOM     99  C   UNL A   1      47.825  30.079  40.429  1.00  0.00     0.173 A 
ATOM    100  C   UNL A   1      46.127  28.788  41.533  1.00  0.00     0.173 A 
ATOM    101  F   UNL A   1      48.349  30.640  39.328  1.00  0.00    -0.203 F 
ATOM    102  C   UNL A   1      48.517  30.192  41.633  1.00  0.00     0.198 A 
ATOM    103  C   UNL A   1      46.802  28.932  42.742  1.00  0.00     0.198 A 
ATOM    104  F   UNL A   1      44.976  28.100  41.520  1.00  0.00    -0.203 F 
ATOM    105  F   UNL A   1      49.690  30.839  41.672  1.00  0.00    -0.200 F 
ATOM    106  C   UNL A   1      48.001  29.627  42.790  1.00  0.00     0.200 A 
ATOM    107  F   UNL A   1      46.292  28.401  43.862  1.00  0.00    -0.200 F 
ATOM    108  F   UNL A   1      48.661  29.747  43.949  1.00  0.00    -0.200 F 
ENDBRANCH  75  98
ENDBRANCH  49  50
ENDBRANCH  42  44
ENDBRANCH  41  42
ENDBRANCH  40  41
ENDBRANCH  39  40
ENDBRANCH  38  39
ENDBRANCH  37  38
ENDBRANCH  36  37
ENDBRANCH   1  36
TORSDOF 23
ENDMDL
