MODEL 1
REMARK VINA RESULT:     -10.9      0.000      0.000
REMARK SMILES CC1=C2C(CSc3c(Cl)cccc3Cl)=CC(=O)N=C2S[C@H]1C(=O)OCCOCCOCCOC(=O)c1ccc(-c2c3nc(c(-c4c(F)c(F)c(F)c(F)c4F)c4ccc([nH]4)c(-c4c(F)c(F)c(F)c(F)c4F)c4nc(c(-c5c(F)c(F)c(F)c(F)c5F)c5ccc2[nH]5)C=C4)C=C3)cc1
REMARK SMILES IDX 28 1 27 2 26 3 25 4 24 5 22 6 23 7 21 8 1 9 2 10 3 11 4 12
REMARK SMILES IDX 19 13 20 14 15 15 18 16 16 17 17 18 5 19 6 20 7 21 8 22
REMARK SMILES IDX 13 23 9 24 10 25 12 26 14 27 11 28 29 29 30 30 31 31 32 32
REMARK SMILES IDX 33 33 34 34 35 35 36 36 37 37 98 38 38 39 97 40 39 41 40 42
REMARK SMILES IDX 41 43 91 44 42 45 96 46 90 47 92 48 43 49 95 50 89 51 88 52
REMARK SMILES IDX 44 54 76 55 56 56 75 57 57 58 60 59 74 60 93 61 58 62 59 63
REMARK SMILES IDX 73 65 94 66 61 67 45 68 46 69 54 70 47 71 48 72 52 73 55 74
REMARK SMILES IDX 49 75 50 76 53 77 51 78 77 79 78 80 86 81 79 82 80 83 84 84
REMARK SMILES IDX 87 85 81 86 82 87 85 88 83 89 62 90 63 91 71 92 64 93 65 94
REMARK SMILES IDX 69 95 72 96 66 97 67 98 70 99 68 100
REMARK H PARENT 92 53 60 64
REMARK Flexibility Score: inf
ROOT
ATOM      1  C   UNL A   1      34.975  32.737  28.801  1.00  0.00     0.188 C 
ENDROOT
BRANCH   1   2
ATOM      2  O   UNL A   1      35.128  31.905  27.657  1.00  0.00    -0.376 OA
BRANCH   2   3
ATOM      3  C   UNL A   1      35.961  30.756  27.758  1.00  0.00     0.202 C 
BRANCH   3   4
ATOM      4  C   UNL A   1      35.298  29.427  27.387  1.00  0.00     0.261 C 
BRANCH   4   5
ATOM      5  O   UNL A   1      34.002  29.228  27.992  1.00  0.00    -0.462 OA
BRANCH   5   6
ATOM      6  C   UNL A   1      33.065  28.521  27.298  1.00  0.00     0.323 C 
ATOM      7  O   UNL A   1      32.015  28.110  27.781  1.00  0.00    -0.251 OA
BRANCH   6   8
ATOM      8  C   UNL A   1      33.409  28.350  25.802  1.00  0.00     0.189 C 
ATOM      9  C   UNL A   1      34.223  25.920  25.664  1.00  0.00     0.042 C 
ATOM     10  C   UNL A   1      33.210  26.944  25.249  1.00  0.00    -0.039 C 
ATOM     11  C   UNL A   1      32.143  26.761  24.447  1.00  0.00     0.012 C 
ATOM     12  C   UNL A   1      31.591  25.649  23.683  1.00  0.00    -0.022 C 
ATOM     13  C   UNL A   1      31.378  28.029  24.320  1.00  0.00     0.109 C 
ATOM     14  S   UNL A   1      32.341  29.404  24.768  1.00  0.00    -0.086 SA
ATOM     15  C   UNL A   1      30.303  25.792  23.308  1.00  0.00     0.079 C 
ATOM     16  N   UNL A   1      30.158  28.148  23.941  1.00  0.00    -0.202 NA
ATOM     17  C   UNL A   1      29.482  26.985  23.673  1.00  0.00     0.271 C 
ATOM     18  O   UNL A   1      28.259  26.896  23.647  1.00  0.00    -0.267 OA
BRANCH  12  19
ATOM     19  C   UNL A   1      32.487  24.521  23.214  1.00  0.00     0.111 C 
BRANCH  19  20
ATOM     20  S   UNL A   1      31.966  22.823  23.653  1.00  0.00    -0.118 SA
BRANCH  20  21
ATOM     21  C   UNL A   1      32.766  22.526  25.250  1.00  0.00     0.045 A 
ATOM     22  C   UNL A   1      34.167  22.351  25.316  1.00  0.00     0.056 A 
ATOM     23  C   UNL A   1      32.072  22.620  26.477  1.00  0.00     0.056 A 
ATOM     24  Cl  UNL A   1      35.155  22.158  23.903  1.00  0.00    -0.083 Cl
ATOM     25  C   UNL A   1      34.840  22.292  26.550  1.00  0.00     0.022 A 
ATOM     26  C   UNL A   1      32.748  22.535  27.706  1.00  0.00     0.022 A 
ATOM     27  Cl  UNL A   1      30.361  22.880  26.582  1.00  0.00    -0.083 Cl
ATOM     28  C   UNL A   1      34.132  22.383  27.745  1.00  0.00     0.003 A 
ENDBRANCH  20  21
ENDBRANCH  19  20
ENDBRANCH  12  19
ENDBRANCH   6   8
ENDBRANCH   5   6
ENDBRANCH   4   5
ENDBRANCH   3   4
ENDBRANCH   2   3
ENDBRANCH   1   2
BRANCH   1  29
ATOM     29  C   UNL A   1      35.449  34.192  28.702  1.00  0.00     0.188 C 
BRANCH  29  30
ATOM     30  O   UNL A   1      34.379  35.097  28.498  1.00  0.00    -0.376 OA
BRANCH  30  31
ATOM     31  C   UNL A   1      33.260  34.952  29.352  1.00  0.00     0.202 C 
BRANCH  31  32
ATOM     32  C   UNL A   1      32.751  36.317  29.835  1.00  0.00     0.261 C 
BRANCH  32  33
ATOM     33  O   UNL A   1      32.983  36.670  31.218  1.00  0.00    -0.460 OA
BRANCH  33  34
ATOM     34  C   UNL A   1      32.738  35.712  32.131  1.00  0.00     0.338 C 
ATOM     35  O   UNL A   1      31.645  35.373  32.545  1.00  0.00    -0.246 OA
BRANCH  34  36
ATOM     36  C   UNL A   1      33.943  34.956  32.496  1.00  0.00     0.060 A 
ATOM     37  C   UNL A   1      33.756  33.678  33.041  1.00  0.00     0.016 A 
ATOM     38  C   UNL A   1      35.218  35.506  32.391  1.00  0.00     0.016 A 
ATOM     39  C   UNL A   1      34.849  32.940  33.484  1.00  0.00     0.010 A 
ATOM     40  C   UNL A   1      36.314  34.768  32.842  1.00  0.00     0.010 A 
ATOM     41  C   UNL A   1      36.134  33.483  33.387  1.00  0.00    -0.014 A 
BRANCH  41  42
ATOM     42  C   UNL A   1      37.311  32.693  33.806  1.00  0.00     0.031 A 
ATOM     43  C   UNL A   1      38.019  33.003  35.086  1.00  0.00     0.074 A 
ATOM     44  C   UNL A   1      37.751  31.717  32.993  1.00  0.00     0.049 A 
ATOM     45  N   UNL A   1      39.159  32.542  35.533  1.00  0.00    -0.248 NA
ATOM     46  C   UNL A   1      37.356  33.954  35.991  1.00  0.00     0.031 C 
ATOM     47  C   UNL A   1      37.096  31.298  31.754  1.00  0.00     0.029 A 
ATOM     48  N   UNL A   1      38.866  30.924  33.071  1.00  0.00    -0.354 N 
ATOM     49  C   UNL A   1      39.360  33.154  36.762  1.00  0.00     0.074 A 
ATOM     50  C   UNL A   1      38.226  34.025  36.991  1.00  0.00     0.031 C 
ATOM     51  C   UNL A   1      37.840  30.347  31.169  1.00  0.00     0.029 A 
ATOM     52  C   UNL A   1      39.046  30.135  31.962  1.00  0.00     0.049 A 
ATOM     53  H   UNL A   1      39.476  30.920  33.844  1.00  0.00     0.167 HD
ATOM     54  C   UNL A   1      40.404  33.000  37.611  1.00  0.00     0.037 A 
ATOM     55  C   UNL A   1      40.095  29.373  31.601  1.00  0.00     0.037 A 
ATOM     56  C   UNL A   1      41.528  32.134  37.357  1.00  0.00     0.049 A 
ATOM     57  C   UNL A   1      41.290  29.303  32.510  1.00  0.00     0.074 A 
ATOM     58  C   UNL A   1      42.631  31.890  38.157  1.00  0.00     0.029 A 
ATOM     59  N   UNL A   1      41.699  31.379  36.204  1.00  0.00    -0.354 N 
ATOM     60  N   UNL A   1      41.479  29.882  33.671  1.00  0.00    -0.248 NA
ATOM     61  C   UNL A   1      42.420  28.484  32.055  1.00  0.00     0.031 C 
ATOM     62  C   UNL A   1      43.493  31.032  37.466  1.00  0.00     0.029 A 
ATOM     63  C   UNL A   1      42.905  30.699  36.256  1.00  0.00     0.049 A 
ATOM     64  H   UNL A   1      41.058  31.334  35.458  1.00  0.00     0.167 HD
ATOM     65  C   UNL A   1      42.742  29.490  34.092  1.00  0.00     0.074 A 
ATOM     66  C   UNL A   1      43.265  28.606  33.070  1.00  0.00     0.031 C 
ATOM     67  C   UNL A   1      43.411  29.834  35.220  1.00  0.00     0.037 A 
BRANCH  54  68
ATOM     68  C   UNL A   1      40.405  33.808  38.876  1.00  0.00     0.064 A 
ATOM     69  C   UNL A   1      39.835  33.326  40.063  1.00  0.00     0.173 A 
ATOM     70  C   UNL A   1      41.032  35.063  38.912  1.00  0.00     0.173 A 
ATOM     71  F   UNL A   1      39.213  32.138  40.079  1.00  0.00    -0.203 F 
ATOM     72  C   UNL A   1      39.878  34.078  41.235  1.00  0.00     0.198 A 
ATOM     73  C   UNL A   1      41.094  35.801  40.091  1.00  0.00     0.198 A 
ATOM     74  F   UNL A   1      41.595  35.570  37.805  1.00  0.00    -0.203 F 
ATOM     75  F   UNL A   1      39.295  33.615  42.349  1.00  0.00    -0.200 F 
ATOM     76  C   UNL A   1      40.513  35.312  41.250  1.00  0.00     0.200 A 
ATOM     77  F   UNL A   1      41.718  36.988  40.105  1.00  0.00    -0.200 F 
ATOM     78  F   UNL A   1      40.560  36.030  42.380  1.00  0.00    -0.200 F 
ENDBRANCH  54  68
BRANCH  55  79
ATOM     79  C   UNL A   1      40.075  28.664  30.296  1.00  0.00     0.064 A 
ATOM     80  C   UNL A   1      40.646  29.237  29.154  1.00  0.00     0.173 A 
ATOM     81  C   UNL A   1      39.494  27.393  30.169  1.00  0.00     0.173 A 
ATOM     82  F   UNL A   1      41.189  30.462  29.220  1.00  0.00    -0.203 F 
ATOM     83  C   UNL A   1      40.629  28.570  27.929  1.00  0.00     0.198 A 
ATOM     84  C   UNL A   1      39.504  26.713  28.953  1.00  0.00     0.198 A 
ATOM     85  F   UNL A   1      38.932  26.801  31.233  1.00  0.00    -0.203 F 
ATOM     86  F   UNL A   1      41.146  29.158  26.843  1.00  0.00    -0.200 F 
ATOM     87  C   UNL A   1      40.066  27.306  27.832  1.00  0.00     0.200 A 
ATOM     88  F   UNL A   1      38.970  25.488  28.867  1.00  0.00    -0.200 F 
ATOM     89  F   UNL A   1      40.059  26.662  26.658  1.00  0.00    -0.200 F 
ENDBRANCH  55  79
BRANCH  67  90
ATOM     90  C   UNL A   1      44.777  29.241  35.407  1.00  0.00     0.064 A 
ATOM     91  C   UNL A   1      45.929  29.906  34.960  1.00  0.00     0.173 A 
ATOM     92  C   UNL A   1      44.938  28.012  36.063  1.00  0.00     0.173 A 
ATOM     93  F   UNL A   1      45.825  31.074  34.309  1.00  0.00    -0.203 F 
ATOM     94  C   UNL A   1      47.192  29.348  35.144  1.00  0.00     0.198 A 
ATOM     95  C   UNL A   1      46.204  27.472  36.271  1.00  0.00     0.198 A 
ATOM     96  F   UNL A   1      43.868  27.341  36.513  1.00  0.00    -0.203 F 
ATOM     97  F   UNL A   1      48.274  29.977  34.668  1.00  0.00    -0.200 F 
ATOM     98  C   UNL A   1      47.328  28.137  35.805  1.00  0.00     0.200 A 
ATOM     99  F   UNL A   1      46.335  26.308  36.921  1.00  0.00    -0.200 F 
ATOM    100  F   UNL A   1      48.545  27.605  35.986  1.00  0.00    -0.200 F 
ENDBRANCH  67  90
ENDBRANCH  41  42
ENDBRANCH  34  36
ENDBRANCH  33  34
ENDBRANCH  32  33
ENDBRANCH  31  32
ENDBRANCH  30  31
ENDBRANCH  29  30
ENDBRANCH   1  29
TORSDOF 20
ENDMDL
MODEL 2
REMARK VINA RESULT:     -10.7      1.126      1.987
REMARK SMILES CC1=C2C(CSc3c(Cl)cccc3Cl)=CC(=O)N=C2S[C@H]1C(=O)OCCOCCOCCOC(=O)c1ccc(-c2c3nc(c(-c4c(F)c(F)c(F)c(F)c4F)c4ccc([nH]4)c(-c4c(F)c(F)c(F)c(F)c4F)c4nc(c(-c5c(F)c(F)c(F)c(F)c5F)c5ccc2[nH]5)C=C4)C=C3)cc1
REMARK SMILES IDX 28 1 27 2 26 3 25 4 24 5 22 6 23 7 21 8 1 9 2 10 3 11 4 12
REMARK SMILES IDX 19 13 20 14 15 15 18 16 16 17 17 18 5 19 6 20 7 21 8 22
REMARK SMILES IDX 13 23 9 24 10 25 12 26 14 27 11 28 29 29 30 30 31 31 32 32
REMARK SMILES IDX 33 33 34 34 35 35 36 36 37 37 98 38 38 39 97 40 39 41 40 42
REMARK SMILES IDX 41 43 91 44 42 45 96 46 90 47 92 48 43 49 95 50 89 51 88 52
REMARK SMILES IDX 44 54 76 55 56 56 75 57 57 58 60 59 74 60 93 61 58 62 59 63
REMARK SMILES IDX 73 65 94 66 61 67 45 68 46 69 54 70 47 71 48 72 52 73 55 74
REMARK SMILES IDX 49 75 50 76 53 77 51 78 77 79 78 80 86 81 79 82 80 83 84 84
REMARK SMILES IDX 87 85 81 86 82 87 85 88 83 89 62 90 63 91 71 92 64 93 65 94
REMARK SMILES IDX 69 95 72 96 66 97 67 98 70 99 68 100
REMARK H PARENT 92 53 60 64
REMARK Flexibility Score: inf
ROOT
ATOM      1  C   UNL A   1      34.776  32.605  29.142  1.00  0.00     0.188 C 
ENDROOT
BRANCH   1   2
ATOM      2  O   UNL A   1      34.140  31.397  28.743  1.00  0.00    -0.376 OA
BRANCH   2   3
ATOM      3  C   UNL A   1      33.844  31.207  27.364  1.00  0.00     0.202 C 
BRANCH   3   4
ATOM      4  C   UNL A   1      32.434  30.697  27.057  1.00  0.00     0.261 C 
BRANCH   4   5
ATOM      5  O   UNL A   1      32.401  29.375  26.478  1.00  0.00    -0.462 OA
BRANCH   5   6
ATOM      6  C   UNL A   1      31.827  28.368  27.198  1.00  0.00     0.323 C 
ATOM      7  O   UNL A   1      30.937  28.534  28.026  1.00  0.00    -0.251 OA
BRANCH   6   8
ATOM      8  C   UNL A   1      32.346  26.965  26.814  1.00  0.00     0.189 C 
ATOM      9  C   UNL A   1      30.213  25.724  26.110  1.00  0.00     0.042 C 
ATOM     10  C   UNL A   1      31.556  26.260  25.718  1.00  0.00    -0.039 C 
ATOM     11  C   UNL A   1      32.143  26.193  24.507  1.00  0.00     0.012 C 
ATOM     12  C   UNL A   1      31.804  25.605  23.216  1.00  0.00    -0.022 C 
ATOM     13  C   UNL A   1      33.461  26.879  24.539  1.00  0.00     0.109 C 
ATOM     14  S   UNL A   1      34.046  27.060  26.165  1.00  0.00    -0.086 SA
ATOM     15  C   UNL A   1      32.503  26.085  22.165  1.00  0.00     0.079 C 
ATOM     16  N   UNL A   1      34.120  27.310  23.527  1.00  0.00    -0.202 NA
ATOM     17  C   UNL A   1      33.526  27.163  22.299  1.00  0.00     0.271 C 
ATOM     18  O   UNL A   1      33.840  27.812  21.307  1.00  0.00    -0.267 OA
BRANCH  12  19
ATOM     19  C   UNL A   1      30.863  24.421  23.135  1.00  0.00     0.111 C 
BRANCH  19  20
ATOM     20  S   UNL A   1      31.629  22.760  23.166  1.00  0.00    -0.118 SA
BRANCH  20  21
ATOM     21  C   UNL A   1      32.624  22.773  24.678  1.00  0.00     0.045 A 
ATOM     22  C   UNL A   1      34.001  23.087  24.614  1.00  0.00     0.056 A 
ATOM     23  C   UNL A   1      32.055  22.639  25.964  1.00  0.00     0.056 A 
ATOM     24  Cl  UNL A   1      34.862  23.226  23.114  1.00  0.00    -0.083 Cl
ATOM     25  C   UNL A   1      34.764  23.275  25.781  1.00  0.00     0.022 A 
ATOM     26  C   UNL A   1      32.830  22.804  27.126  1.00  0.00     0.022 A 
ATOM     27  Cl  UNL A   1      30.375  22.300  26.228  1.00  0.00    -0.083 Cl
ATOM     28  C   UNL A   1      34.180  23.133  27.036  1.00  0.00     0.003 A 
ENDBRANCH  20  21
ENDBRANCH  19  20
ENDBRANCH  12  19
ENDBRANCH   6   8
ENDBRANCH   5   6
ENDBRANCH   4   5
ENDBRANCH   3   4
ENDBRANCH   2   3
ENDBRANCH   1   2
BRANCH   1  29
ATOM     29  C   UNL A   1      35.084  33.648  28.062  1.00  0.00     0.188 C 
BRANCH  29  30
ATOM     30  O   UNL A   1      34.674  34.951  28.435  1.00  0.00    -0.376 OA
BRANCH  30  31
ATOM     31  C   UNL A   1      33.279  35.191  28.454  1.00  0.00     0.202 C 
BRANCH  31  32
ATOM     32  C   UNL A   1      32.884  36.072  29.648  1.00  0.00     0.261 C 
BRANCH  32  33
ATOM     33  O   UNL A   1      32.266  35.424  30.784  1.00  0.00    -0.460 OA
BRANCH  33  34
ATOM     34  C   UNL A   1      32.743  35.757  31.997  1.00  0.00     0.338 C 
ATOM     35  O   UNL A   1      32.216  36.506  32.798  1.00  0.00    -0.246 OA
BRANCH  34  36
ATOM     36  C   UNL A   1      33.934  34.982  32.369  1.00  0.00     0.060 A 
ATOM     37  C   UNL A   1      33.731  33.813  33.116  1.00  0.00     0.016 A 
ATOM     38  C   UNL A   1      35.222  35.424  32.074  1.00  0.00     0.016 A 
ATOM     39  C   UNL A   1      34.818  33.076  33.571  1.00  0.00     0.010 A 
ATOM     40  C   UNL A   1      36.313  34.687  32.537  1.00  0.00     0.010 A 
ATOM     41  C   UNL A   1      36.116  33.511  33.284  1.00  0.00    -0.014 A 
BRANCH  41  42
ATOM     42  C   UNL A   1      37.283  32.713  33.717  1.00  0.00     0.031 A 
ATOM     43  C   UNL A   1      37.981  33.021  35.003  1.00  0.00     0.074 A 
ATOM     44  C   UNL A   1      37.723  31.732  32.911  1.00  0.00     0.049 A 
ATOM     45  N   UNL A   1      39.113  32.553  35.461  1.00  0.00    -0.248 NA
ATOM     46  C   UNL A   1      37.316  33.981  35.898  1.00  0.00     0.031 C 
ATOM     47  C   UNL A   1      37.077  31.313  31.667  1.00  0.00     0.029 A 
ATOM     48  N   UNL A   1      38.831  30.929  33.002  1.00  0.00    -0.354 N 
ATOM     49  C   UNL A   1      39.307  33.168  36.691  1.00  0.00     0.074 A 
ATOM     50  C   UNL A   1      38.177  34.048  36.906  1.00  0.00     0.031 C 
ATOM     51  C   UNL A   1      37.818  30.355  31.092  1.00  0.00     0.029 A 
ATOM     52  C   UNL A   1      39.015  30.136  31.898  1.00  0.00     0.049 A 
ATOM     53  H   UNL A   1      39.433  30.924  33.781  1.00  0.00     0.167 HD
ATOM     54  C   UNL A   1      40.342  33.008  37.551  1.00  0.00     0.037 A 
ATOM     55  C   UNL A   1      40.062  29.365  31.549  1.00  0.00     0.037 A 
ATOM     56  C   UNL A   1      41.462  32.133  37.309  1.00  0.00     0.049 A 
ATOM     57  C   UNL A   1      41.248  29.288  32.469  1.00  0.00     0.074 A 
ATOM     58  C   UNL A   1      42.554  31.883  38.121  1.00  0.00     0.029 A 
ATOM     59  N   UNL A   1      41.637  31.373  36.160  1.00  0.00    -0.354 N 
ATOM     60  N   UNL A   1      41.430  29.869  33.630  1.00  0.00    -0.248 NA
ATOM     61  C   UNL A   1      42.376  28.459  32.028  1.00  0.00     0.031 C 
ATOM     62  C   UNL A   1      43.417  31.015  37.441  1.00  0.00     0.029 A 
ATOM     63  C   UNL A   1      42.838  30.683  36.226  1.00  0.00     0.049 A 
ATOM     64  H   UNL A   1      41.003  31.330  35.409  1.00  0.00     0.167 HD
ATOM     65  C   UNL A   1      42.686  29.469  34.065  1.00  0.00     0.074 A 
ATOM     66  C   UNL A   1      43.211  28.578  33.050  1.00  0.00     0.031 C 
ATOM     67  C   UNL A   1      43.347  29.811  35.198  1.00  0.00     0.037 A 
BRANCH  54  68
ATOM     68  C   UNL A   1      40.337  33.820  38.812  1.00  0.00     0.064 A 
ATOM     69  C   UNL A   1      40.988  35.059  38.898  1.00  0.00     0.173 A 
ATOM     70  C   UNL A   1      39.626  33.374  39.938  1.00  0.00     0.173 A 
ATOM     71  F   UNL A   1      41.691  35.525  37.855  1.00  0.00    -0.203 F 
ATOM     72  C   UNL A   1      40.941  35.814  40.069  1.00  0.00     0.198 A 
ATOM     73  C   UNL A   1      39.561  34.142  41.097  1.00  0.00     0.198 A 
ATOM     74  F   UNL A   1      38.983  32.196  39.908  1.00  0.00    -0.203 F 
ATOM     75  F   UNL A   1      41.601  36.977  40.140  1.00  0.00    -0.200 F 
ATOM     76  C   UNL A   1      40.223  35.358  41.164  1.00  0.00     0.200 A 
ATOM     77  F   UNL A   1      38.858  33.704  42.151  1.00  0.00    -0.200 F 
ATOM     78  F   UNL A   1      40.173  36.088  42.287  1.00  0.00    -0.200 F 
ENDBRANCH  54  68
BRANCH  55  79
ATOM     79  C   UNL A   1      40.049  28.652  30.246  1.00  0.00     0.064 A 
ATOM     80  C   UNL A   1      40.646  29.211  29.110  1.00  0.00     0.173 A 
ATOM     81  C   UNL A   1      39.448  27.390  30.114  1.00  0.00     0.173 A 
ATOM     82  F   UNL A   1      41.210  30.426  29.181  1.00  0.00    -0.203 F 
ATOM     83  C   UNL A   1      40.636  28.541  27.888  1.00  0.00     0.198 A 
ATOM     84  C   UNL A   1      39.464  26.707  28.900  1.00  0.00     0.198 A 
ATOM     85  F   UNL A   1      38.860  26.812  31.171  1.00  0.00    -0.203 F 
ATOM     86  F   UNL A   1      41.180  29.115  26.807  1.00  0.00    -0.200 F 
ATOM     87  C   UNL A   1      40.053  27.286  27.786  1.00  0.00     0.200 A 
ATOM     88  F   UNL A   1      38.911  25.491  28.811  1.00  0.00    -0.200 F 
ATOM     89  F   UNL A   1      40.052  26.638  26.614  1.00  0.00    -0.200 F 
ENDBRANCH  55  79
BRANCH  67  90
ATOM     90  C   UNL A   1      44.706  29.209  35.400  1.00  0.00     0.064 A 
ATOM     91  C   UNL A   1      44.867  27.967  36.032  1.00  0.00     0.173 A 
ATOM     92  C   UNL A   1      45.855  29.865  34.933  1.00  0.00     0.173 A 
ATOM     93  F   UNL A   1      43.801  27.310  36.513  1.00  0.00    -0.203 F 
ATOM     94  C   UNL A   1      46.133  27.414  36.209  1.00  0.00     0.198 A 
ATOM     95  C   UNL A   1      47.116  29.296  35.087  1.00  0.00     0.198 A 
ATOM     96  F   UNL A   1      45.753  31.052  34.319  1.00  0.00    -0.203 F 
ATOM     97  F   UNL A   1      46.268  26.249  36.857  1.00  0.00    -0.200 F 
ATOM     98  C   UNL A   1      47.254  28.075  35.731  1.00  0.00     0.200 A 
ATOM     99  F   UNL A   1      48.197  29.930  34.613  1.00  0.00    -0.200 F 
ATOM    100  F   UNL A   1      48.471  27.539  35.898  1.00  0.00    -0.200 F 
ENDBRANCH  67  90
ENDBRANCH  41  42
ENDBRANCH  34  36
ENDBRANCH  33  34
ENDBRANCH  32  33
ENDBRANCH  31  32
ENDBRANCH  30  31
ENDBRANCH  29  30
ENDBRANCH   1  29
TORSDOF 20
ENDMDL
MODEL 3
REMARK VINA RESULT:     -10.6      1.536      2.170
REMARK SMILES CC1=C2C(CSc3c(Cl)cccc3Cl)=CC(=O)N=C2S[C@H]1C(=O)OCCOCCOCCOC(=O)c1ccc(-c2c3nc(c(-c4c(F)c(F)c(F)c(F)c4F)c4ccc([nH]4)c(-c4c(F)c(F)c(F)c(F)c4F)c4nc(c(-c5c(F)c(F)c(F)c(F)c5F)c5ccc2[nH]5)C=C4)C=C3)cc1
REMARK SMILES IDX 28 1 27 2 26 3 25 4 24 5 22 6 23 7 21 8 1 9 2 10 3 11 4 12
REMARK SMILES IDX 19 13 20 14 15 15 18 16 16 17 17 18 5 19 6 20 7 21 8 22
REMARK SMILES IDX 13 23 9 24 10 25 12 26 14 27 11 28 29 29 30 30 31 31 32 32
REMARK SMILES IDX 33 33 34 34 35 35 36 36 37 37 98 38 38 39 97 40 39 41 40 42
REMARK SMILES IDX 41 43 91 44 42 45 96 46 90 47 92 48 43 49 95 50 89 51 88 52
REMARK SMILES IDX 44 54 76 55 56 56 75 57 57 58 60 59 74 60 93 61 58 62 59 63
REMARK SMILES IDX 73 65 94 66 61 67 45 68 46 69 54 70 47 71 48 72 52 73 55 74
REMARK SMILES IDX 49 75 50 76 53 77 51 78 77 79 78 80 86 81 79 82 80 83 84 84
REMARK SMILES IDX 87 85 81 86 82 87 85 88 83 89 62 90 63 91 71 92 64 93 65 94
REMARK SMILES IDX 69 95 72 96 66 97 67 98 70 99 68 100
REMARK H PARENT 92 53 60 64
REMARK Flexibility Score: inf
ROOT
ATOM      1  C   UNL A   1      34.344  32.206  28.368  1.00  0.00     0.188 C 
ENDROOT
BRANCH   1   2
ATOM      2  O   UNL A   1      34.244  31.269  27.302  1.00  0.00    -0.376 OA
BRANCH   2   3
ATOM      3  C   UNL A   1      32.958  30.994  26.756  1.00  0.00     0.202 C 
BRANCH   3   4
ATOM      4  C   UNL A   1      32.794  29.610  26.125  1.00  0.00     0.261 C 
BRANCH   4   5
ATOM      5  O   UNL A   1      33.985  29.115  25.475  1.00  0.00    -0.462 OA
BRANCH   5   6
ATOM      6  C   UNL A   1      33.842  28.374  24.339  1.00  0.00     0.323 C 
ATOM      7  O   UNL A   1      34.330  28.675  23.255  1.00  0.00    -0.251 OA
BRANCH   6   8
ATOM      8  C   UNL A   1      33.067  27.056  24.558  1.00  0.00     0.189 C 
ATOM      9  C   UNL A   1      32.476  26.321  22.172  1.00  0.00     0.042 C 
ATOM     10  C   UNL A   1      33.211  26.027  23.444  1.00  0.00    -0.039 C 
ATOM     11  C   UNL A   1      33.988  24.959  23.713  1.00  0.00     0.012 C 
ATOM     12  C   UNL A   1      34.373  23.745  23.002  1.00  0.00    -0.022 C 
ATOM     13  C   UNL A   1      34.556  25.073  25.081  1.00  0.00     0.109 C 
ATOM     14  S   UNL A   1      33.659  26.199  26.053  1.00  0.00    -0.086 SA
ATOM     15  C   UNL A   1      35.463  23.115  23.491  1.00  0.00     0.079 C 
ATOM     16  N   UNL A   1      35.581  24.449  25.534  1.00  0.00    -0.202 NA
ATOM     17  C   UNL A   1      36.244  23.633  24.653  1.00  0.00     0.271 C 
ATOM     18  O   UNL A   1      37.400  23.257  24.808  1.00  0.00    -0.267 OA
BRANCH  12  19
ATOM     19  C   UNL A   1      33.483  23.176  21.917  1.00  0.00     0.111 C 
BRANCH  19  20
ATOM     20  S   UNL A   1      32.306  21.870  22.423  1.00  0.00    -0.118 SA
BRANCH  20  21
ATOM     21  C   UNL A   1      31.939  22.268  24.151  1.00  0.00     0.045 A 
ATOM     22  C   UNL A   1      32.672  21.649  25.189  1.00  0.00     0.056 A 
ATOM     23  C   UNL A   1      31.051  23.302  24.521  1.00  0.00     0.056 A 
ATOM     24  Cl  UNL A   1      33.757  20.324  24.909  1.00  0.00    -0.083 Cl
ATOM     25  C   UNL A   1      32.534  22.058  26.528  1.00  0.00     0.022 A 
ATOM     26  C   UNL A   1      30.900  23.689  25.864  1.00  0.00     0.022 A 
ATOM     27  Cl  UNL A   1      30.107  24.199  23.375  1.00  0.00    -0.083 Cl
ATOM     28  C   UNL A   1      31.648  23.077  26.866  1.00  0.00     0.003 A 
ENDBRANCH  20  21
ENDBRANCH  19  20
ENDBRANCH  12  19
ENDBRANCH   6   8
ENDBRANCH   5   6
ENDBRANCH   4   5
ENDBRANCH   3   4
ENDBRANCH   2   3
ENDBRANCH   1   2
BRANCH   1  29
ATOM     29  C   UNL A   1      35.276  33.408  28.185  1.00  0.00     0.188 C 
BRANCH  29  30
ATOM     30  O   UNL A   1      34.675  34.626  28.589  1.00  0.00    -0.376 OA
BRANCH  30  31
ATOM     31  C   UNL A   1      33.334  34.549  29.033  1.00  0.00     0.202 C 
BRANCH  31  32
ATOM     32  C   UNL A   1      32.813  35.928  29.464  1.00  0.00     0.261 C 
BRANCH  32  33
ATOM     33  O   UNL A   1      33.229  36.429  30.755  1.00  0.00    -0.460 OA
BRANCH  33  34
ATOM     34  C   UNL A   1      32.897  35.682  31.824  1.00  0.00     0.338 C 
ATOM     35  O   UNL A   1      31.781  35.544  32.290  1.00  0.00    -0.246 OA
BRANCH  34  36
ATOM     36  C   UNL A   1      34.019  34.874  32.320  1.00  0.00     0.060 A 
ATOM     37  C   UNL A   1      35.311  35.278  31.955  1.00  0.00     0.016 A 
ATOM     38  C   UNL A   1      33.819  33.705  33.051  1.00  0.00     0.016 A 
ATOM     39  C   UNL A   1      36.413  34.514  32.321  1.00  0.00     0.010 A 
ATOM     40  C   UNL A   1      34.925  32.935  33.413  1.00  0.00     0.010 A 
ATOM     41  C   UNL A   1      36.224  33.336  33.052  1.00  0.00    -0.014 A 
BRANCH  41  42
ATOM     42  C   UNL A   1      37.388  32.539  33.493  1.00  0.00     0.031 A 
ATOM     43  C   UNL A   1      38.084  32.855  34.778  1.00  0.00     0.074 A 
ATOM     44  C   UNL A   1      37.826  31.549  32.696  1.00  0.00     0.049 A 
ATOM     45  N   UNL A   1      39.215  32.387  35.242  1.00  0.00    -0.248 NA
ATOM     46  C   UNL A   1      37.422  33.823  35.665  1.00  0.00     0.031 C 
ATOM     47  C   UNL A   1      37.181  31.123  31.454  1.00  0.00     0.029 A 
ATOM     48  N   UNL A   1      38.932  30.745  32.795  1.00  0.00    -0.354 N 
ATOM     49  C   UNL A   1      39.408  33.010  36.467  1.00  0.00     0.074 A 
ATOM     50  C   UNL A   1      38.281  33.896  36.673  1.00  0.00     0.031 C 
ATOM     51  C   UNL A   1      37.921  30.158  30.888  1.00  0.00     0.029 A 
ATOM     52  C   UNL A   1      39.116  29.942  31.697  1.00  0.00     0.049 A 
ATOM     53  H   UNL A   1      39.533  30.744  33.575  1.00  0.00     0.167 HD
ATOM     54  C   UNL A   1      40.441  32.854  37.330  1.00  0.00     0.037 A 
ATOM     55  C   UNL A   1      40.161  29.165  31.357  1.00  0.00     0.037 A 
ATOM     56  C   UNL A   1      41.559  31.974  37.097  1.00  0.00     0.049 A 
ATOM     57  C   UNL A   1      41.345  29.092  32.279  1.00  0.00     0.074 A 
ATOM     58  C   UNL A   1      42.650  31.727  37.913  1.00  0.00     0.029 A 
ATOM     59  N   UNL A   1      41.734  31.205  35.955  1.00  0.00    -0.354 N 
ATOM     60  N   UNL A   1      41.527  29.682  33.436  1.00  0.00    -0.248 NA
ATOM     61  C   UNL A   1      42.471  28.257  31.847  1.00  0.00     0.031 C 
ATOM     62  C   UNL A   1      43.511  30.852  37.241  1.00  0.00     0.029 A 
ATOM     63  C   UNL A   1      42.933  30.513  36.028  1.00  0.00     0.049 A 
ATOM     64  H   UNL A   1      41.101  31.158  35.203  1.00  0.00     0.167 HD
ATOM     65  C   UNL A   1      42.781  29.282  33.876  1.00  0.00     0.074 A 
ATOM     66  C   UNL A   1      43.306  28.381  32.869  1.00  0.00     0.031 C 
ATOM     67  C   UNL A   1      43.441  29.631  35.007  1.00  0.00     0.037 A 
BRANCH  54  68
ATOM     68  C   UNL A   1      40.437  33.676  38.585  1.00  0.00     0.064 A 
ATOM     69  C   UNL A   1      39.732  33.276  39.729  1.00  0.00     0.173 A 
ATOM     70  C   UNL A   1      41.192  34.857  38.660  1.00  0.00     0.173 A 
ATOM     71  F   UNL A   1      38.984  32.163  39.707  1.00  0.00    -0.203 F 
ATOM     72  C   UNL A   1      39.769  34.037  40.897  1.00  0.00     0.198 A 
ATOM     73  C   UNL A   1      41.247  35.601  39.836  1.00  0.00     0.198 A 
ATOM     74  F   UNL A   1      41.887  35.283  37.595  1.00  0.00    -0.203 F 
ATOM     75  F   UNL A   1      39.058  33.656  41.966  1.00  0.00    -0.200 F 
ATOM     76  C   UNL A   1      40.532  35.195  40.950  1.00  0.00     0.200 A 
ATOM     77  F   UNL A   1      41.993  36.714  39.888  1.00  0.00    -0.200 F 
ATOM     78  F   UNL A   1      40.573  35.921  42.076  1.00  0.00    -0.200 F 
ENDBRANCH  54  68
BRANCH  55  79
ATOM     79  C   UNL A   1      40.148  28.442  30.059  1.00  0.00     0.064 A 
ATOM     80  C   UNL A   1      40.770  28.980  28.926  1.00  0.00     0.173 A 
ATOM     81  C   UNL A   1      39.522  27.192  29.930  1.00  0.00     0.173 A 
ATOM     82  F   UNL A   1      41.358  30.183  28.993  1.00  0.00    -0.203 F 
ATOM     83  C   UNL A   1      40.760  28.300  27.709  1.00  0.00     0.198 A 
ATOM     84  C   UNL A   1      39.538  26.499  28.722  1.00  0.00     0.198 A 
ATOM     85  F   UNL A   1      38.910  26.635  30.985  1.00  0.00    -0.203 F 
ATOM     86  F   UNL A   1      41.328  28.854  26.630  1.00  0.00    -0.200 F 
ATOM     87  C   UNL A   1      40.152  27.057  27.610  1.00  0.00     0.200 A 
ATOM     88  F   UNL A   1      38.961  25.294  28.635  1.00  0.00    -0.200 F 
ATOM     89  F   UNL A   1      40.151  26.399  26.443  1.00  0.00    -0.200 F 
ENDBRANCH  55  79
BRANCH  67  90
ATOM     90  C   UNL A   1      44.798  29.026  35.216  1.00  0.00     0.064 A 
ATOM     91  C   UNL A   1      45.962  29.677  34.782  1.00  0.00     0.173 A 
ATOM     92  C   UNL A   1      44.938  27.799  35.881  1.00  0.00     0.173 A 
ATOM     93  F   UNL A   1      45.879  30.843  34.124  1.00  0.00    -0.203 F 
ATOM     94  C   UNL A   1      47.217  29.108  34.987  1.00  0.00     0.198 A 
ATOM     95  C   UNL A   1      46.196  27.247  36.108  1.00  0.00     0.198 A 
ATOM     96  F   UNL A   1      43.855  27.140  36.318  1.00  0.00    -0.203 F 
ATOM     97  F   UNL A   1      48.313  29.724  34.523  1.00  0.00    -0.200 F 
ATOM     98  C   UNL A   1      47.333  27.899  35.655  1.00  0.00     0.200 A 
ATOM     99  F   UNL A   1      46.307  26.085  36.765  1.00  0.00    -0.200 F 
ATOM    100  F   UNL A   1      48.542  27.357  35.856  1.00  0.00    -0.200 F 
ENDBRANCH  67  90
ENDBRANCH  41  42
ENDBRANCH  34  36
ENDBRANCH  33  34
ENDBRANCH  32  33
ENDBRANCH  31  32
ENDBRANCH  30  31
ENDBRANCH  29  30
ENDBRANCH   1  29
TORSDOF 20
ENDMDL
