MODEL 1
REMARK VINA RESULT:     -11.4      0.000      0.000
REMARK SMILES CCc1noc(C)c1C(=O)Nc1cc(Cl)ccc1C(=O)OCCOCCOCCOC(=O)c1ccc(-c2c3nc(c(-c4c(F)c(F)c(F)c(F)c4F)c4ccc([nH]4)c(-c4c(F)c(F)c(F)c(F)c4F)c4nc(c(-c5c(F)c(F)c(F)c(F)c5F)c5ccc2[nH]5)C=C4)C=C3)cc1
REMARK SMILES IDX 25 1 24 2 23 3 22 4 21 5 19 6 20 7 18 8 12 9 13 10 14 11
REMARK SMILES IDX 17 12 15 13 16 14 11 15 9 16 10 17 8 19 3 20 4 21 5 22 6 23
REMARK SMILES IDX 7 24 2 25 1 26 26 27 27 28 28 29 29 30 30 31 31 32 32 33
REMARK SMILES IDX 33 34 34 35 95 36 35 37 94 38 36 39 37 40 38 41 88 42 39 43
REMARK SMILES IDX 93 44 87 45 89 46 40 47 92 48 86 49 85 50 41 52 73 53 53 54
REMARK SMILES IDX 72 55 54 56 57 57 71 58 90 59 55 60 56 61 70 63 91 64 58 65
REMARK SMILES IDX 42 66 43 67 51 68 44 69 45 70 49 71 52 72 46 73 47 74 50 75
REMARK SMILES IDX 48 76 74 77 75 78 83 79 76 80 77 81 81 82 84 83 78 84 79 85
REMARK SMILES IDX 82 86 80 87 59 88 60 89 68 90 61 91 62 92 66 93 69 94 63 95
REMARK SMILES IDX 64 96 67 97 65 98
REMARK H PARENT 11 18 89 51 57 62
REMARK Flexibility Score: inf
ROOT
ATOM      1  C   UNL A   1      32.937  20.628  25.384  1.00  0.00     0.188 C 
ENDROOT
BRANCH   1   2
ATOM      2  O   UNL A   1      32.134  21.629  24.773  1.00  0.00    -0.376 OA
BRANCH   2   3
ATOM      3  C   UNL A   1      32.119  22.953  25.285  1.00  0.00     0.202 C 
BRANCH   3   4
ATOM      4  C   UNL A   1      30.991  23.893  24.840  1.00  0.00     0.261 C 
BRANCH   4   5
ATOM      5  O   UNL A   1      31.325  25.297  24.838  1.00  0.00    -0.460 OA
BRANCH   5   6
ATOM      6  C   UNL A   1      30.663  26.039  25.759  1.00  0.00     0.340 C 
ATOM      7  O   UNL A   1      29.741  25.640  26.457  1.00  0.00    -0.246 OA
BRANCH   6   8
ATOM      8  C   UNL A   1      31.212  27.421  25.929  1.00  0.00     0.083 A 
ATOM      9  C   UNL A   1      31.426  28.388  24.918  1.00  0.00     0.057 A 
ATOM     10  C   UNL A   1      31.724  29.703  25.304  1.00  0.00     0.047 A 
ATOM     11  C   UNL A   1      32.007  30.007  26.638  1.00  0.00     0.043 A 
ATOM     12  C   UNL A   1      31.548  27.741  27.260  1.00  0.00     0.019 A 
ATOM     13  Cl  UNL A   1      32.456  31.609  27.074  1.00  0.00    -0.084 Cl
ATOM     14  C   UNL A   1      31.975  29.018  27.610  1.00  0.00     0.021 A 
BRANCH   9  15
ATOM     15  N   UNL A   1      31.354  28.041  23.555  1.00  0.00    -0.321 N 
ATOM     16  C   UNL A   1      30.313  27.873  22.661  1.00  0.00     0.261 C 
ATOM     17  O   UNL A   1      30.604  27.288  21.614  1.00  0.00    -0.269 OA
ATOM     18  H   UNL A   1      32.238  27.885  23.152  1.00  0.00     0.170 HD
BRANCH  16  19
ATOM     19  C   UNL A   1      28.956  28.386  22.853  1.00  0.00     0.105 A 
ATOM     20  C   UNL A   1      28.543  29.750  22.628  1.00  0.00     0.096 A 
ATOM     21  N   UNL A   1      27.233  29.909  22.845  1.00  0.00    -0.084 NA
ATOM     22  O   UNL A   1      26.791  28.718  23.348  1.00  0.00    -0.361 OA
ATOM     23  C   UNL A   1      27.820  27.833  23.429  1.00  0.00     0.146 A 
ATOM     24  C   UNL A   1      27.432  26.598  24.136  1.00  0.00     0.092 C 
BRANCH  20  25
ATOM     25  C   UNL A   1      29.381  30.933  22.240  1.00  0.00     0.057 C 
ATOM     26  C   UNL A   1      28.635  32.265  22.218  1.00  0.00     0.011 C 
ENDBRANCH  20  25
ENDBRANCH  16  19
ENDBRANCH   9  15
ENDBRANCH   6   8
ENDBRANCH   5   6
ENDBRANCH   4   5
ENDBRANCH   3   4
ENDBRANCH   2   3
ENDBRANCH   1   2
BRANCH   1  27
ATOM     27  C   UNL A   1      34.472  20.633  25.257  1.00  0.00     0.188 C 
BRANCH  27  28
ATOM     28  O   UNL A   1      34.985  21.328  24.140  1.00  0.00    -0.376 OA
BRANCH  28  29
ATOM     29  C   UNL A   1      36.162  22.093  24.370  1.00  0.00     0.202 C 
BRANCH  29  30
ATOM     30  C   UNL A   1      37.414  21.264  24.696  1.00  0.00     0.261 C 
BRANCH  30  31
ATOM     31  O   UNL A   1      37.914  21.407  26.039  1.00  0.00    -0.460 OA
BRANCH  31  32
ATOM     32  C   UNL A   1      39.253  21.322  26.202  1.00  0.00     0.338 C 
ATOM     33  O   UNL A   1      39.986  20.437  25.802  1.00  0.00    -0.246 OA
BRANCH  32  34
ATOM     34  C   UNL A   1      39.733  22.597  26.778  1.00  0.00     0.060 A 
ATOM     35  C   UNL A   1      39.172  23.793  26.315  1.00  0.00     0.016 A 
ATOM     36  C   UNL A   1      40.733  22.622  27.755  1.00  0.00     0.016 A 
ATOM     37  C   UNL A   1      39.630  25.017  26.804  1.00  0.00     0.010 A 
ATOM     38  C   UNL A   1      41.203  23.852  28.233  1.00  0.00     0.010 A 
ATOM     39  C   UNL A   1      40.674  25.058  27.740  1.00  0.00    -0.014 A 
BRANCH  39  40
ATOM     40  C   UNL A   1      41.294  26.365  28.079  1.00  0.00     0.031 A 
ATOM     41  C   UNL A   1      42.707  26.642  27.639  1.00  0.00     0.074 A 
ATOM     42  C   UNL A   1      40.597  27.320  28.723  1.00  0.00     0.049 A 
ATOM     43  N   UNL A   1      43.418  27.734  27.759  1.00  0.00    -0.248 NA
ATOM     44  C   UNL A   1      43.409  25.537  26.968  1.00  0.00     0.031 C 
ATOM     45  C   UNL A   1      39.222  27.186  29.196  1.00  0.00     0.029 A 
ATOM     46  N   UNL A   1      40.956  28.595  29.082  1.00  0.00    -0.354 N 
ATOM     47  C   UNL A   1      44.646  27.453  27.173  1.00  0.00     0.074 A 
ATOM     48  C   UNL A   1      44.597  26.075  26.734  1.00  0.00     0.031 C 
ATOM     49  C   UNL A   1      38.850  28.338  29.783  1.00  0.00     0.029 A 
ATOM     50  C   UNL A   1      39.965  29.283  29.740  1.00  0.00     0.049 A 
ATOM     51  H   UNL A   1      41.841  28.982  28.887  1.00  0.00     0.167 HD
ATOM     52  C   UNL A   1      45.712  28.271  27.002  1.00  0.00     0.037 A 
ATOM     53  C   UNL A   1      39.962  30.530  30.251  1.00  0.00     0.037 A 
ATOM     54  C   UNL A   1      45.771  29.640  27.447  1.00  0.00     0.049 A 
ATOM     55  C   UNL A   1      41.180  31.405  30.089  1.00  0.00     0.074 A 
ATOM     56  C   UNL A   1      46.803  30.551  27.303  1.00  0.00     0.029 A 
ATOM     57  N   UNL A   1      44.758  30.291  28.136  1.00  0.00    -0.354 N 
ATOM     58  N   UNL A   1      42.315  31.146  29.488  1.00  0.00    -0.248 NA
ATOM     59  C   UNL A   1      41.105  32.754  30.669  1.00  0.00     0.031 C 
ATOM     60  C   UNL A   1      46.434  31.738  27.947  1.00  0.00     0.029 A 
ATOM     61  C   UNL A   1      45.149  31.585  28.444  1.00  0.00     0.049 A 
ATOM     62  H   UNL A   1      43.889  29.893  28.371  1.00  0.00     0.167 HD
ATOM     63  C   UNL A   1      43.076  32.304  29.591  1.00  0.00     0.074 A 
ATOM     64  C   UNL A   1      42.264  33.275  30.294  1.00  0.00     0.031 C 
ATOM     65  C   UNL A   1      44.335  32.544  29.145  1.00  0.00     0.037 A 
BRANCH  52  66
ATOM     66  C   UNL A   1      46.917  27.699  26.313  1.00  0.00     0.064 A 
ATOM     67  C   UNL A   1      47.083  27.793  24.922  1.00  0.00     0.173 A 
ATOM     68  C   UNL A   1      47.933  27.077  27.054  1.00  0.00     0.173 A 
ATOM     69  F   UNL A   1      46.134  28.365  24.166  1.00  0.00    -0.203 F 
ATOM     70  C   UNL A   1      48.210  27.264  24.297  1.00  0.00     0.198 A 
ATOM     71  C   UNL A   1      49.071  26.575  26.430  1.00  0.00     0.198 A 
ATOM     72  F   UNL A   1      47.825  26.964  28.386  1.00  0.00    -0.203 F 
ATOM     73  F   UNL A   1      48.325  27.323  22.964  1.00  0.00    -0.200 F 
ATOM     74  C   UNL A   1      49.205  26.662  25.052  1.00  0.00     0.200 A 
ATOM     75  F   UNL A   1      50.038  26.003  27.161  1.00  0.00    -0.200 F 
ATOM     76  F   UNL A   1      50.292  26.158  24.451  1.00  0.00    -0.200 F 
ENDBRANCH  52  66
BRANCH  53  77
ATOM     77  C   UNL A   1      38.758  31.042  30.957  1.00  0.00     0.064 A 
ATOM     78  C   UNL A   1      38.633  30.935  32.349  1.00  0.00     0.173 A 
ATOM     79  C   UNL A   1      37.693  31.618  30.250  1.00  0.00     0.173 A 
ATOM     80  F   UNL A   1      39.613  30.366  33.068  1.00  0.00    -0.203 F 
ATOM     81  C   UNL A   1      37.481  31.365  33.005  1.00  0.00     0.198 A 
ATOM     82  C   UNL A   1      36.553  32.076  30.910  1.00  0.00     0.198 A 
ATOM     83  F   UNL A   1      37.761  31.740  28.916  1.00  0.00    -0.203 F 
ATOM     84  F   UNL A   1      37.367  31.204  34.330  1.00  0.00    -0.200 F 
ATOM     85  C   UNL A   1      36.445  31.941  32.285  1.00  0.00     0.200 A 
ATOM     86  F   UNL A   1      35.560  32.640  30.211  1.00  0.00    -0.200 F 
ATOM     87  F   UNL A   1      35.337  32.355  32.916  1.00  0.00    -0.200 F 
ENDBRANCH  53  77
BRANCH  65  88
ATOM     88  C   UNL A   1      44.896  33.920  29.372  1.00  0.00     0.064 A 
ATOM     89  C   UNL A   1      45.676  34.224  30.498  1.00  0.00     0.173 A 
ATOM     90  C   UNL A   1      44.654  34.948  28.448  1.00  0.00     0.173 A 
ATOM     91  F   UNL A   1      45.927  33.282  31.420  1.00  0.00    -0.203 F 
ATOM     92  C   UNL A   1      46.157  35.513  30.712  1.00  0.00     0.198 A 
ATOM     93  C   UNL A   1      45.166  36.229  28.647  1.00  0.00     0.198 A 
ATOM     94  F   UNL A   1      43.923  34.712  27.348  1.00  0.00    -0.203 F 
ATOM     95  F   UNL A   1      46.846  35.794  31.827  1.00  0.00    -0.200 F 
ATOM     96  C   UNL A   1      45.906  36.513  29.784  1.00  0.00     0.200 A 
ATOM     97  F   UNL A   1      44.933  37.189  27.742  1.00  0.00    -0.200 F 
ATOM     98  F   UNL A   1      46.367  37.755  29.993  1.00  0.00    -0.200 F 
ENDBRANCH  65  88
ENDBRANCH  39  40
ENDBRANCH  32  34
ENDBRANCH  31  32
ENDBRANCH  30  31
ENDBRANCH  29  30
ENDBRANCH  28  29
ENDBRANCH  27  28
ENDBRANCH   1  27
TORSDOF 20
ENDMDL
MODEL 2
REMARK VINA RESULT:     -11.3      4.335      9.630
REMARK SMILES CCc1noc(C)c1C(=O)Nc1cc(Cl)ccc1C(=O)OCCOCCOCCOC(=O)c1ccc(-c2c3nc(c(-c4c(F)c(F)c(F)c(F)c4F)c4ccc([nH]4)c(-c4c(F)c(F)c(F)c(F)c4F)c4nc(c(-c5c(F)c(F)c(F)c(F)c5F)c5ccc2[nH]5)C=C4)C=C3)cc1
REMARK SMILES IDX 25 1 24 2 23 3 22 4 21 5 19 6 20 7 18 8 12 9 13 10 14 11
REMARK SMILES IDX 17 12 15 13 16 14 11 15 9 16 10 17 8 19 3 20 4 21 5 22 6 23
REMARK SMILES IDX 7 24 2 25 1 26 26 27 27 28 28 29 29 30 30 31 31 32 32 33
REMARK SMILES IDX 33 34 34 35 95 36 35 37 94 38 36 39 37 40 38 41 88 42 39 43
REMARK SMILES IDX 93 44 87 45 89 46 40 47 92 48 86 49 85 50 41 52 73 53 53 54
REMARK SMILES IDX 72 55 54 56 57 57 71 58 90 59 55 60 56 61 70 63 91 64 58 65
REMARK SMILES IDX 42 66 43 67 51 68 44 69 45 70 49 71 52 72 46 73 47 74 50 75
REMARK SMILES IDX 48 76 74 77 75 78 83 79 76 80 77 81 81 82 84 83 78 84 79 85
REMARK SMILES IDX 82 86 80 87 59 88 60 89 68 90 61 91 62 92 66 93 69 94 63 95
REMARK SMILES IDX 64 96 67 97 65 98
REMARK H PARENT 11 18 89 51 57 62
REMARK Flexibility Score: inf
ROOT
ATOM      1  C   UNL A   1      31.599  26.410  26.610  1.00  0.00     0.188 C 
ENDROOT
BRANCH   1   2
ATOM      2  O   UNL A   1      31.532  25.016  26.340  1.00  0.00    -0.376 OA
BRANCH   2   3
ATOM      3  C   UNL A   1      30.556  24.501  25.448  1.00  0.00     0.202 C 
BRANCH   3   4
ATOM      4  C   UNL A   1      31.023  23.597  24.299  1.00  0.00     0.261 C 
BRANCH   4   5
ATOM      5  O   UNL A   1      31.821  22.462  24.696  1.00  0.00    -0.460 OA
BRANCH   5   6
ATOM      6  C   UNL A   1      32.221  21.666  23.675  1.00  0.00     0.340 C 
ATOM      7  O   UNL A   1      32.398  22.032  22.522  1.00  0.00    -0.246 OA
BRANCH   6   8
ATOM      8  C   UNL A   1      32.520  20.258  24.088  1.00  0.00     0.083 A 
ATOM      9  C   UNL A   1      32.866  19.800  25.381  1.00  0.00     0.057 A 
ATOM     10  C   UNL A   1      32.878  18.417  25.618  1.00  0.00     0.047 A 
ATOM     11  C   UNL A   1      32.757  17.512  24.561  1.00  0.00     0.043 A 
ATOM     12  C   UNL A   1      32.449  19.328  23.031  1.00  0.00     0.019 A 
ATOM     13  Cl  UNL A   1      32.863  15.823  24.865  1.00  0.00    -0.084 Cl
ATOM     14  C   UNL A   1      32.600  17.963  23.259  1.00  0.00     0.021 A 
BRANCH   9  15
ATOM     15  N   UNL A   1      33.202  20.704  26.406  1.00  0.00    -0.321 N 
ATOM     16  C   UNL A   1      34.333  21.443  26.703  1.00  0.00     0.261 C 
ATOM     17  O   UNL A   1      34.373  21.915  27.843  1.00  0.00    -0.269 OA
ATOM     18  H   UNL A   1      32.472  20.841  27.052  1.00  0.00     0.170 HD
BRANCH  16  19
ATOM     19  C   UNL A   1      35.410  21.738  25.757  1.00  0.00     0.105 A 
ATOM     20  C   UNL A   1      35.686  23.035  25.188  1.00  0.00     0.096 A 
ATOM     21  N   UNL A   1      36.759  23.004  24.391  1.00  0.00    -0.084 NA
ATOM     22  O   UNL A   1      37.119  21.689  24.301  1.00  0.00    -0.361 OA
ATOM     23  C   UNL A   1      36.279  20.922  25.045  1.00  0.00     0.146 A 
ATOM     24  C   UNL A   1      36.513  19.481  24.833  1.00  0.00     0.092 C 
BRANCH  20  25
ATOM     25  C   UNL A   1      34.923  24.316  25.357  1.00  0.00     0.057 C 
ATOM     26  C   UNL A   1      34.333  24.884  24.069  1.00  0.00     0.011 C 
ENDBRANCH  20  25
ENDBRANCH  16  19
ENDBRANCH   9  15
ENDBRANCH   6   8
ENDBRANCH   5   6
ENDBRANCH   4   5
ENDBRANCH   3   4
ENDBRANCH   2   3
ENDBRANCH   1   2
BRANCH   1  27
ATOM     27  C   UNL A   1      31.973  27.429  25.517  1.00  0.00     0.188 C 
BRANCH  27  28
ATOM     28  O   UNL A   1      31.162  28.584  25.463  1.00  0.00    -0.376 OA
BRANCH  28  29
ATOM     29  C   UNL A   1      31.842  29.827  25.590  1.00  0.00     0.202 C 
BRANCH  29  30
ATOM     30  C   UNL A   1      32.577  30.025  26.924  1.00  0.00     0.261 C 
BRANCH  30  31
ATOM     31  O   UNL A   1      33.967  30.386  26.813  1.00  0.00    -0.460 OA
BRANCH  31  32
ATOM     32  C   UNL A   1      34.516  31.026  27.870  1.00  0.00     0.338 C 
ATOM     33  O   UNL A   1      33.993  31.876  28.565  1.00  0.00    -0.246 OA
BRANCH  32  34
ATOM     34  C   UNL A   1      35.807  30.376  28.186  1.00  0.00     0.060 A 
ATOM     35  C   UNL A   1      35.966  29.783  29.445  1.00  0.00     0.016 A 
ATOM     36  C   UNL A   1      36.857  30.358  27.263  1.00  0.00     0.016 A 
ATOM     37  C   UNL A   1      37.185  29.200  29.794  1.00  0.00     0.010 A 
ATOM     38  C   UNL A   1      38.084  29.786  27.622  1.00  0.00     0.010 A 
ATOM     39  C   UNL A   1      38.265  29.228  28.900  1.00  0.00    -0.014 A 
BRANCH  39  40
ATOM     40  C   UNL A   1      39.609  28.804  29.370  1.00  0.00     0.031 A 
ATOM     41  C   UNL A   1      40.305  29.616  30.429  1.00  0.00     0.074 A 
ATOM     42  C   UNL A   1      40.185  27.680  28.906  1.00  0.00     0.049 A 
ATOM     43  N   UNL A   1      41.443  29.393  31.037  1.00  0.00    -0.248 NA
ATOM     44  C   UNL A   1      39.622  30.845  30.862  1.00  0.00     0.031 C 
ATOM     45  C   UNL A   1      39.618  26.798  27.889  1.00  0.00     0.029 A 
ATOM     46  N   UNL A   1      41.379  27.088  29.238  1.00  0.00    -0.354 N 
ATOM     47  C   UNL A   1      41.608  30.445  31.930  1.00  0.00     0.074 A 
ATOM     48  C   UNL A   1      40.475  31.328  31.754  1.00  0.00     0.031 C 
ATOM     49  C   UNL A   1      40.463  25.772  27.681  1.00  0.00     0.029 A 
ATOM     50  C   UNL A   1      41.637  25.934  28.538  1.00  0.00     0.049 A 
ATOM     51  H   UNL A   1      41.993  27.455  29.914  1.00  0.00     0.167 HD
ATOM     52  C   UNL A   1      42.605  30.650  32.824  1.00  0.00     0.037 A 
ATOM     53  C   UNL A   1      42.699  25.107  28.584  1.00  0.00     0.037 A 
ATOM     54  C   UNL A   1      43.741  29.782  32.995  1.00  0.00     0.049 A 
ATOM     55  C   UNL A   1      43.819  25.385  29.555  1.00  0.00     0.074 A 
ATOM     56  C   UNL A   1      44.791  29.899  33.888  1.00  0.00     0.029 A 
ATOM     57  N   UNL A   1      43.980  28.638  32.247  1.00  0.00    -0.354 N 
ATOM     58  N   UNL A   1      43.940  26.353  30.430  1.00  0.00    -0.248 NA
ATOM     59  C   UNL A   1      44.945  24.439  29.552  1.00  0.00     0.031 C 
ATOM     60  C   UNL A   1      45.692  28.856  33.648  1.00  0.00     0.029 A 
ATOM     61  C   UNL A   1      45.174  28.054  32.643  1.00  0.00     0.049 A 
ATOM     62  H   UNL A   1      43.390  28.292  31.540  1.00  0.00     0.167 HD
ATOM     63  C   UNL A   1      45.136  26.119  31.098  1.00  0.00     0.074 A 
ATOM     64  C   UNL A   1      45.693  24.904  30.542  1.00  0.00     0.031 C 
ATOM     65  C   UNL A   1      45.722  26.845  32.083  1.00  0.00     0.037 A 
BRANCH  52  66
ATOM     66  C   UNL A   1      42.518  31.879  33.682  1.00  0.00     0.064 A 
ATOM     67  C   UNL A   1      43.069  33.104  33.272  1.00  0.00     0.173 A 
ATOM     68  C   UNL A   1      41.849  31.841  34.915  1.00  0.00     0.173 A 
ATOM     69  F   UNL A   1      43.731  33.191  32.109  1.00  0.00    -0.203 F 
ATOM     70  C   UNL A   1      42.974  34.237  34.077  1.00  0.00     0.198 A 
ATOM     71  C   UNL A   1      41.731  32.982  35.703  1.00  0.00     0.198 A 
ATOM     72  F   UNL A   1      41.302  30.696  35.352  1.00  0.00    -0.203 F 
ATOM     73  F   UNL A   1      43.547  35.383  33.687  1.00  0.00    -0.200 F 
ATOM     74  C   UNL A   1      42.299  34.177  35.287  1.00  0.00     0.200 A 
ATOM     75  F   UNL A   1      41.069  32.926  36.867  1.00  0.00    -0.200 F 
ATOM     76  F   UNL A   1      42.203  35.269  36.057  1.00  0.00    -0.200 F 
ENDBRANCH  52  66
BRANCH  53  77
ATOM     77  C   UNL A   1      42.758  23.921  27.689  1.00  0.00     0.064 A 
ATOM     78  C   UNL A   1      43.192  24.035  26.360  1.00  0.00     0.173 A 
ATOM     79  C   UNL A   1      42.350  22.655  28.135  1.00  0.00     0.173 A 
ATOM     80  F   UNL A   1      43.566  25.230  25.878  1.00  0.00    -0.203 F 
ATOM     81  C   UNL A   1      43.195  22.934  25.506  1.00  0.00     0.198 A 
ATOM     82  C   UNL A   1      42.382  21.548  27.288  1.00  0.00     0.198 A 
ATOM     83  F   UNL A   1      41.923  22.493  29.396  1.00  0.00    -0.203 F 
ATOM     84  F   UNL A   1      43.565  23.082  24.227  1.00  0.00    -0.200 F 
ATOM     85  C   UNL A   1      42.796  21.690  25.973  1.00  0.00     0.200 A 
ATOM     86  F   UNL A   1      42.005  20.348  27.746  1.00  0.00    -0.200 F 
ATOM     87  F   UNL A   1      42.800  20.631  25.151  1.00  0.00    -0.200 F 
ENDBRANCH  53  77
BRANCH  65  88
ATOM     88  C   UNL A   1      47.014  26.324  32.647  1.00  0.00     0.064 A 
ATOM     89  C   UNL A   1      47.041  25.400  33.703  1.00  0.00     0.173 A 
ATOM     90  C   UNL A   1      48.243  26.749  32.119  1.00  0.00     0.173 A 
ATOM     91  F   UNL A   1      45.896  24.971  34.254  1.00  0.00    -0.203 F 
ATOM     92  C   UNL A   1      48.248  24.955  34.237  1.00  0.00     0.198 A 
ATOM     93  C   UNL A   1      49.449  26.275  32.632  1.00  0.00     0.198 A 
ATOM     94  F   UNL A   1      48.276  27.624  31.102  1.00  0.00    -0.203 F 
ATOM     95  F   UNL A   1      48.249  24.123  35.287  1.00  0.00    -0.200 F 
ATOM     96  C   UNL A   1      49.450  25.390  33.698  1.00  0.00     0.200 A 
ATOM     97  F   UNL A   1      50.608  26.686  32.101  1.00  0.00    -0.200 F 
ATOM     98  F   UNL A   1      50.611  24.963  34.215  1.00  0.00    -0.200 F 
ENDBRANCH  65  88
ENDBRANCH  39  40
ENDBRANCH  32  34
ENDBRANCH  31  32
ENDBRANCH  30  31
ENDBRANCH  29  30
ENDBRANCH  28  29
ENDBRANCH  27  28
ENDBRANCH   1  27
TORSDOF 20
ENDMDL
MODEL 3
REMARK VINA RESULT:     -11.2      3.237      5.591
REMARK SMILES CCc1noc(C)c1C(=O)Nc1cc(Cl)ccc1C(=O)OCCOCCOCCOC(=O)c1ccc(-c2c3nc(c(-c4c(F)c(F)c(F)c(F)c4F)c4ccc([nH]4)c(-c4c(F)c(F)c(F)c(F)c4F)c4nc(c(-c5c(F)c(F)c(F)c(F)c5F)c5ccc2[nH]5)C=C4)C=C3)cc1
REMARK SMILES IDX 25 1 24 2 23 3 22 4 21 5 19 6 20 7 18 8 12 9 13 10 14 11
REMARK SMILES IDX 17 12 15 13 16 14 11 15 9 16 10 17 8 19 3 20 4 21 5 22 6 23
REMARK SMILES IDX 7 24 2 25 1 26 26 27 27 28 28 29 29 30 30 31 31 32 32 33
REMARK SMILES IDX 33 34 34 35 95 36 35 37 94 38 36 39 37 40 38 41 88 42 39 43
REMARK SMILES IDX 93 44 87 45 89 46 40 47 92 48 86 49 85 50 41 52 73 53 53 54
REMARK SMILES IDX 72 55 54 56 57 57 71 58 90 59 55 60 56 61 70 63 91 64 58 65
REMARK SMILES IDX 42 66 43 67 51 68 44 69 45 70 49 71 52 72 46 73 47 74 50 75
REMARK SMILES IDX 48 76 74 77 75 78 83 79 76 80 77 81 81 82 84 83 78 84 79 85
REMARK SMILES IDX 82 86 80 87 59 88 60 89 68 90 61 91 62 92 66 93 69 94 63 95
REMARK SMILES IDX 64 96 67 97 65 98
REMARK H PARENT 11 18 89 51 57 62
REMARK Flexibility Score: inf
ROOT
ATOM      1  C   UNL A   1      40.278  22.627  27.279  1.00  0.00     0.188 C 
ENDROOT
BRANCH   1   2
ATOM      2  O   UNL A   1      39.309  23.316  26.500  1.00  0.00    -0.376 OA
BRANCH   2   3
ATOM      3  C   UNL A   1      38.215  22.616  25.927  1.00  0.00     0.202 C 
BRANCH   3   4
ATOM      4  C   UNL A   1      37.321  23.358  24.925  1.00  0.00     0.261 C 
BRANCH   4   5
ATOM      5  O   UNL A   1      35.917  23.385  25.256  1.00  0.00    -0.460 OA
BRANCH   5   6
ATOM      6  C   UNL A   1      35.081  23.319  24.192  1.00  0.00     0.340 C 
ATOM      7  O   UNL A   1      35.060  24.112  23.261  1.00  0.00    -0.246 OA
BRANCH   6   8
ATOM      8  C   UNL A   1      34.196  22.113  24.192  1.00  0.00     0.083 A 
ATOM      9  C   UNL A   1      32.942  21.971  23.551  1.00  0.00     0.057 A 
ATOM     10  C   UNL A   1      32.376  20.690  23.469  1.00  0.00     0.047 A 
ATOM     11  C   UNL A   1      32.928  19.620  24.177  1.00  0.00     0.043 A 
ATOM     12  C   UNL A   1      34.708  21.030  24.936  1.00  0.00     0.019 A 
ATOM     13  Cl  UNL A   1      32.165  18.079  24.132  1.00  0.00    -0.084 Cl
ATOM     14  C   UNL A   1      34.061  19.799  24.957  1.00  0.00     0.021 A 
BRANCH   9  15
ATOM     15  N   UNL A   1      32.269  23.086  23.018  1.00  0.00    -0.321 N 
ATOM     16  C   UNL A   1      31.460  24.069  23.559  1.00  0.00     0.261 C 
ATOM     17  O   UNL A   1      30.811  24.729  22.743  1.00  0.00    -0.269 OA
ATOM     18  H   UNL A   1      32.404  23.188  22.049  1.00  0.00     0.170 HD
BRANCH  16  19
ATOM     19  C   UNL A   1      31.384  24.398  24.983  1.00  0.00     0.105 A 
ATOM     20  C   UNL A   1      31.990  25.552  25.604  1.00  0.00     0.096 A 
ATOM     21  N   UNL A   1      31.712  25.609  26.910  1.00  0.00    -0.084 NA
ATOM     22  O   UNL A   1      31.057  24.446  27.204  1.00  0.00    -0.361 OA
ATOM     23  C   UNL A   1      30.926  23.687  26.084  1.00  0.00     0.146 A 
ATOM     24  C   UNL A   1      30.391  22.346  26.385  1.00  0.00     0.092 C 
BRANCH  20  25
ATOM     25  C   UNL A   1      32.869  26.598  24.984  1.00  0.00     0.057 C 
ATOM     26  C   UNL A   1      33.766  27.344  25.969  1.00  0.00     0.011 C 
ENDBRANCH  20  25
ENDBRANCH  16  19
ENDBRANCH   9  15
ENDBRANCH   6   8
ENDBRANCH   5   6
ENDBRANCH   4   5
ENDBRANCH   3   4
ENDBRANCH   2   3
ENDBRANCH   1   2
BRANCH   1  27
ATOM     27  C   UNL A   1      41.486  21.924  26.631  1.00  0.00     0.188 C 
BRANCH  27  28
ATOM     28  O   UNL A   1      41.847  20.686  27.208  1.00  0.00    -0.376 OA
BRANCH  28  29
ATOM     29  C   UNL A   1      41.563  19.531  26.428  1.00  0.00     0.202 C 
BRANCH  29  30
ATOM     30  C   UNL A   1      42.791  18.873  25.782  1.00  0.00     0.261 C 
BRANCH  30  31
ATOM     31  O   UNL A   1      43.225  19.464  24.542  1.00  0.00    -0.460 OA
BRANCH  31  32
ATOM     32  C   UNL A   1      44.556  19.630  24.380  1.00  0.00     0.338 C 
ATOM     33  O   UNL A   1      45.332  18.860  23.846  1.00  0.00    -0.246 OA
BRANCH  32  34
ATOM     34  C   UNL A   1      44.904  21.012  24.778  1.00  0.00     0.060 A 
ATOM     35  C   UNL A   1      45.355  21.237  26.084  1.00  0.00     0.016 A 
ATOM     36  C   UNL A   1      44.779  22.079  23.884  1.00  0.00     0.016 A 
ATOM     37  C   UNL A   1      45.651  22.534  26.508  1.00  0.00     0.010 A 
ATOM     38  C   UNL A   1      45.061  23.381  24.315  1.00  0.00     0.010 A 
ATOM     39  C   UNL A   1      45.472  23.620  25.639  1.00  0.00    -0.014 A 
BRANCH  39  40
ATOM     40  C   UNL A   1      45.578  25.003  26.173  1.00  0.00     0.031 A 
ATOM     41  C   UNL A   1      46.909  25.704  26.132  1.00  0.00     0.074 A 
ATOM     42  C   UNL A   1      44.495  25.652  26.640  1.00  0.00     0.049 A 
ATOM     43  N   UNL A   1      47.215  26.931  26.473  1.00  0.00    -0.248 NA
ATOM     44  C   UNL A   1      48.046  24.915  25.636  1.00  0.00     0.031 C 
ATOM     45  C   UNL A   1      43.148  25.094  26.728  1.00  0.00     0.029 A 
ATOM     46  N   UNL A   1      44.363  26.930  27.123  1.00  0.00    -0.354 N 
ATOM     47  C   UNL A   1      48.575  27.064  26.224  1.00  0.00     0.074 A 
ATOM     48  C   UNL A   1      49.043  25.782  25.743  1.00  0.00     0.031 C 
ATOM     49  C   UNL A   1      42.322  26.028  27.232  1.00  0.00     0.029 A 
ATOM     50  C   UNL A   1      43.085  27.243  27.518  1.00  0.00     0.049 A 
ATOM     51  H   UNL A   1      45.114  27.565  27.183  1.00  0.00     0.167 HD
ATOM     52  C   UNL A   1      49.361  28.158  26.370  1.00  0.00     0.037 A 
ATOM     53  C   UNL A   1      42.590  28.378  28.050  1.00  0.00     0.037 A 
ATOM     54  C   UNL A   1      48.904  29.433  26.859  1.00  0.00     0.049 A 
ATOM     55  C   UNL A   1      43.497  29.566  28.246  1.00  0.00     0.074 A 
ATOM     56  C   UNL A   1      49.624  30.604  27.024  1.00  0.00     0.029 A 
ATOM     57  N   UNL A   1      47.608  29.701  27.275  1.00  0.00    -0.354 N 
ATOM     58  N   UNL A   1      44.769  29.698  27.959  1.00  0.00    -0.248 NA
ATOM     59  C   UNL A   1      42.889  30.771  28.829  1.00  0.00     0.031 C 
ATOM     60  C   UNL A   1      48.777  31.566  27.586  1.00  0.00     0.029 A 
ATOM     61  C   UNL A   1      47.514  31.012  27.719  1.00  0.00     0.049 A 
ATOM     62  H   UNL A   1      46.865  29.056  27.259  1.00  0.00     0.167 HD
ATOM     63  C   UNL A   1      45.106  31.002  28.299  1.00  0.00     0.074 A 
ATOM     64  C   UNL A   1      43.899  31.630  28.792  1.00  0.00     0.031 C 
ATOM     65  C   UNL A   1      46.308  31.627  28.210  1.00  0.00     0.037 A 
BRANCH  52  66
ATOM     66  C   UNL A   1      50.811  28.018  26.006  1.00  0.00     0.064 A 
ATOM     67  C   UNL A   1      51.776  27.646  26.956  1.00  0.00     0.173 A 
ATOM     68  C   UNL A   1      51.237  28.228  24.686  1.00  0.00     0.173 A 
ATOM     69  F   UNL A   1      51.423  27.449  28.235  1.00  0.00    -0.203 F 
ATOM     70  C   UNL A   1      53.116  27.514  26.601  1.00  0.00     0.198 A 
ATOM     71  C   UNL A   1      52.573  28.066  24.329  1.00  0.00     0.198 A 
ATOM     72  F   UNL A   1      50.355  28.582  23.739  1.00  0.00    -0.203 F 
ATOM     73  F   UNL A   1      54.026  27.203  27.534  1.00  0.00    -0.200 F 
ATOM     74  C   UNL A   1      53.512  27.717  25.288  1.00  0.00     0.200 A 
ATOM     75  F   UNL A   1      52.953  28.252  23.057  1.00  0.00    -0.200 F 
ATOM     76  F   UNL A   1      54.801  27.582  24.947  1.00  0.00    -0.200 F 
ENDBRANCH  52  66
BRANCH  53  77
ATOM     77  C   UNL A   1      41.155  28.458  28.429  1.00  0.00     0.064 A 
ATOM     78  C   UNL A   1      40.193  28.942  27.531  1.00  0.00     0.173 A 
ATOM     79  C   UNL A   1      40.721  28.084  29.709  1.00  0.00     0.173 A 
ATOM     80  F   UNL A   1      40.562  29.338  26.304  1.00  0.00    -0.203 F 
ATOM     81  C   UNL A   1      38.856  29.068  27.906  1.00  0.00     0.198 A 
ATOM     82  C   UNL A   1      39.379  28.182  30.073  1.00  0.00     0.198 A 
ATOM     83  F   UNL A   1      41.602  27.618  30.607  1.00  0.00    -0.203 F 
ATOM     84  F   UNL A   1      37.967  29.582  27.044  1.00  0.00    -0.200 F 
ATOM     85  C   UNL A   1      38.450  28.682  29.174  1.00  0.00     0.200 A 
ATOM     86  F   UNL A   1      38.990  27.799  31.296  1.00  0.00    -0.200 F 
ATOM     87  F   UNL A   1      37.164  28.803  29.534  1.00  0.00    -0.200 F 
ENDBRANCH  53  77
BRANCH  65  88
ATOM     88  C   UNL A   1      46.365  33.071  28.623  1.00  0.00     0.064 A 
ATOM     89  C   UNL A   1      46.117  34.111  27.714  1.00  0.00     0.173 A 
ATOM     90  C   UNL A   1      46.666  33.420  29.949  1.00  0.00     0.173 A 
ATOM     91  F   UNL A   1      45.838  33.834  26.431  1.00  0.00    -0.203 F 
ATOM     92  C   UNL A   1      46.210  35.444  28.106  1.00  0.00     0.198 A 
ATOM     93  C   UNL A   1      46.724  34.754  30.346  1.00  0.00     0.198 A 
ATOM     94  F   UNL A   1      46.901  32.466  30.863  1.00  0.00    -0.203 F 
ATOM     95  F   UNL A   1      46.033  36.420  27.204  1.00  0.00    -0.200 F 
ATOM     96  C   UNL A   1      46.508  35.764  29.422  1.00  0.00     0.200 A 
ATOM     97  F   UNL A   1      46.999  35.060  31.621  1.00  0.00    -0.200 F 
ATOM     98  F   UNL A   1      46.601  37.048  29.797  1.00  0.00    -0.200 F 
ENDBRANCH  65  88
ENDBRANCH  39  40
ENDBRANCH  32  34
ENDBRANCH  31  32
ENDBRANCH  30  31
ENDBRANCH  29  30
ENDBRANCH  28  29
ENDBRANCH  27  28
ENDBRANCH   1  27
TORSDOF 20
ENDMDL
