MODEL 1
REMARK VINA RESULT:     -15.2      0.000      0.000
REMARK SMILES Cc1ccc(-c2cc(Cl)cc3c2O[C@@H](C(F)(F)F)C(C(=O)OCCOCCOCCOC(=O)c2ccc(-c4c5nc(c(-c6c(F)c(F)c(F)c(F)c6F)c6ccc([nH]6)c(-c6c(F)c(F)c(F)c(F)c6F)c6nc(c(-c7c(F)c(F)c(F)c(F)c7F)c7ccc4[nH]7)C=C6)C=C5)cc2)=C3)cc1
REMARK SMILES IDX 27 1 26 2 25 3 24 4 23 5 22 6 20 7 21 8 19 9 6 10 7 11 12 12
REMARK SMILES IDX 8 13 11 14 13 15 9 16 10 17 97 18 14 19 5 20 1 21 2 22 3 23
REMARK SMILES IDX 99 24 4 25 98 26 15 27 16 28 17 29 18 30 28 31 29 32 30 33
REMARK SMILES IDX 31 34 32 35 33 36 34 37 35 38 96 39 36 40 95 41 37 42 38 43
REMARK SMILES IDX 39 44 89 45 40 46 94 47 88 48 90 49 41 50 93 51 87 52 86 53
REMARK SMILES IDX 42 55 74 56 54 57 73 58 55 59 58 60 72 61 91 62 56 63 57 64
REMARK SMILES IDX 71 66 92 67 59 68 43 69 44 70 52 71 45 72 46 73 50 74 53 75
REMARK SMILES IDX 47 76 48 77 51 78 49 79 75 80 76 81 84 82 77 83 78 84 82 85
REMARK SMILES IDX 85 86 79 87 80 88 83 89 81 90 60 91 61 92 69 93 62 94 63 95
REMARK SMILES IDX 67 96 70 97 64 98 65 99 68 100 66 101
REMARK H PARENT 90 54 58 65
REMARK Flexibility Score: inf
ROOT
ATOM      1  C   UNL A   1      40.848  19.933  26.448  1.00  0.00     0.188 C 
ENDROOT
BRANCH   1   2
ATOM      2  C   UNL A   1      39.557  20.204  25.743  1.00  0.00     0.188 C 
BRANCH   2   3
ATOM      3  O   UNL A   1      39.035  21.524  25.707  1.00  0.00    -0.376 OA
BRANCH   3   4
ATOM      4  C   UNL A   1      37.662  21.999  25.711  1.00  0.00     0.202 C 
BRANCH   4   5
ATOM      5  C   UNL A   1      35.918  21.436  25.757  1.00  0.00     0.261 C 
BRANCH   5   6
ATOM      6  O   UNL A   1      34.193  22.333  25.960  1.00  0.00    -0.460 OA
BRANCH   6   7
ATOM      7  C   UNL A   1      33.325  23.714  25.494  1.00  0.00     0.338 C 
ATOM      8  O   UNL A   1      33.675  24.856  25.828  1.00  0.00    -0.246 OA
BRANCH   7   9
ATOM      9  C   UNL A   1      32.077  23.960  24.520  1.00  0.00     0.087 C 
ATOM     10  C   UNL A   1      31.463  28.136  24.488  1.00  0.00     0.026 A 
ATOM     11  C   UNL A   1      30.335  28.726  23.974  1.00  0.00     0.033 A 
ATOM     12  C   UNL A   1      31.491  26.615  24.253  1.00  0.00     0.135 A 
ATOM     13  C   UNL A   1      29.332  27.863  23.486  1.00  0.00     0.042 A 
ATOM     14  C   UNL A   1      30.403  25.801  24.336  1.00  0.00     0.019 A 
ATOM     15  O   UNL A   1      32.395  25.916  23.113  1.00  0.00    -0.475 OA
ATOM     16  Cl  UNL A   1      28.065  28.581  22.555  1.00  0.00    -0.084 Cl
ATOM     17  C   UNL A   1      29.314  26.435  23.742  1.00  0.00     0.032 A 
ATOM     18  C   UNL A   1      30.790  24.385  24.847  1.00  0.00     0.027 C 
ATOM     19  C   UNL A   1      32.294  24.363  23.130  1.00  0.00     0.316 C 
BRANCH  10  20
ATOM     20  C   UNL A   1      32.416  29.065  25.732  1.00  0.00    -0.015 A 
ATOM     21  C   UNL A   1      35.622  31.671  28.863  1.00  0.00     0.044 C 
ATOM     22  C   UNL A   1      34.753  30.892  27.906  1.00  0.00    -0.051 A 
ATOM     23  C   UNL A   1      33.239  31.680  27.628  1.00  0.00     0.004 A 
ATOM     24  C   UNL A   1      35.145  29.286  27.215  1.00  0.00     0.004 A 
ATOM     25  C   UNL A   1      32.079  30.877  26.543  1.00  0.00     0.009 A 
ATOM     26  C   UNL A   1      34.029  28.337  26.160  1.00  0.00     0.009 A 
ENDBRANCH  10  20
BRANCH  19  27
ATOM     27  C   UNL A   1      33.162  23.156  22.622  1.00  0.00     0.430 C 
ATOM     28  F   UNL A   1      32.679  21.977  23.167  1.00  0.00    -0.167 F 
ATOM     29  F   UNL A   1      33.045  22.956  21.291  1.00  0.00    -0.167 F 
ATOM     30  F   UNL A   1      34.461  23.185  22.929  1.00  0.00    -0.167 F 
ENDBRANCH  19  27
ENDBRANCH   7   9
ENDBRANCH   6   7
ENDBRANCH   5   6
ENDBRANCH   4   5
ENDBRANCH   3   4
ENDBRANCH   2   3
ENDBRANCH   1   2
BRANCH   1  31
ATOM     31  O   UNL A   1      41.675  19.301  25.506  1.00  0.00    -0.376 OA
BRANCH  31  32
ATOM     32  C   UNL A   1      42.715  18.537  26.061  1.00  0.00     0.202 C 
BRANCH  32  33
ATOM     33  C   UNL A   1      44.030  18.799  25.329  1.00  0.00     0.261 C 
BRANCH  33  34
ATOM     34  O   UNL A   1      43.953  20.050  24.609  1.00  0.00    -0.460 OA
BRANCH  34  35
ATOM     35  C   UNL A   1      44.792  21.011  25.083  1.00  0.00     0.338 C 
ATOM     36  O   UNL A   1      45.969  20.860  25.364  1.00  0.00    -0.246 OA
BRANCH  35  37
ATOM     37  C   UNL A   1      43.982  22.131  25.570  1.00  0.00     0.060 A 
ATOM     38  C   UNL A   1      43.919  23.295  24.863  1.00  0.00     0.016 A 
ATOM     39  C   UNL A   1      43.487  22.214  26.826  1.00  0.00     0.016 A 
ATOM     40  C   UNL A   1      43.796  24.538  25.580  1.00  0.00     0.010 A 
ATOM     41  C   UNL A   1      43.407  23.509  27.388  1.00  0.00     0.010 A 
ATOM     42  C   UNL A   1      43.940  24.832  26.944  1.00  0.00    -0.014 A 
BRANCH  42  43
ATOM     43  C   UNL A   1      44.133  26.483  27.931  1.00  0.00     0.031 A 
ATOM     44  C   UNL A   1      42.660  27.640  28.378  1.00  0.00     0.074 A 
ATOM     45  C   UNL A   1      45.226  26.984  28.645  1.00  0.00     0.049 A 
ATOM     46  N   UNL A   1      42.660  28.895  28.727  1.00  0.00    -0.248 NA
ATOM     47  C   UNL A   1      41.031  27.374  28.097  1.00  0.00     0.031 C 
ATOM     48  C   UNL A   1      45.236  28.024  29.701  1.00  0.00     0.029 A 
ATOM     49  N   UNL A   1      46.605  26.649  28.681  1.00  0.00    -0.354 N 
ATOM     50  C   UNL A   1      41.327  29.353  28.842  1.00  0.00     0.074 A 
ATOM     51  C   UNL A   1      40.458  28.545  28.103  1.00  0.00     0.031 C 
ATOM     52  C   UNL A   1      46.502  28.415  29.984  1.00  0.00     0.029 A 
ATOM     53  C   UNL A   1      47.373  27.820  28.988  1.00  0.00     0.049 A 
ATOM     54  H   UNL A   1      46.976  25.751  28.520  1.00  0.00     0.167 HD
ATOM     55  C   UNL A   1      41.002  30.251  29.799  1.00  0.00     0.037 A 
ATOM     56  C   UNL A   1      48.195  28.487  28.074  1.00  0.00     0.037 A 
ATOM     57  C   UNL A   1      42.235  30.895  30.185  1.00  0.00     0.049 A 
ATOM     58  C   UNL A   1      47.620  29.983  27.905  1.00  0.00     0.074 A 
ATOM     59  C   UNL A   1      43.139  30.732  31.210  1.00  0.00     0.029 A 
ATOM     60  N   UNL A   1      42.946  31.470  29.153  1.00  0.00    -0.354 N 
ATOM     61  N   UNL A   1      46.620  30.506  28.583  1.00  0.00    -0.248 NA
ATOM     62  C   UNL A   1      48.061  30.917  26.859  1.00  0.00     0.031 C 
ATOM     63  C   UNL A   1      44.397  31.259  30.760  1.00  0.00     0.029 A 
ATOM     64  C   UNL A   1      44.246  31.752  29.474  1.00  0.00     0.049 A 
ATOM     65  H   UNL A   1      42.555  31.662  28.270  1.00  0.00     0.167 HD
ATOM     66  C   UNL A   1      46.185  31.687  28.014  1.00  0.00     0.074 A 
ATOM     67  C   UNL A   1      47.152  31.912  26.952  1.00  0.00     0.031 C 
ATOM     68  C   UNL A   1      45.051  32.365  28.419  1.00  0.00     0.037 A 
BRANCH  55  69
ATOM     69  C   UNL A   1      39.652  30.345  30.509  1.00  0.00     0.064 A 
ATOM     70  C   UNL A   1      39.067  31.621  30.583  1.00  0.00     0.173 A 
ATOM     71  C   UNL A   1      38.945  29.350  31.246  1.00  0.00     0.173 A 
ATOM     72  F   UNL A   1      39.584  32.652  29.903  1.00  0.00    -0.203 F 
ATOM     73  C   UNL A   1      37.948  31.901  31.374  1.00  0.00     0.198 A 
ATOM     74  C   UNL A   1      37.808  29.629  32.020  1.00  0.00     0.198 A 
ATOM     75  F   UNL A   1      39.298  28.064  31.304  1.00  0.00    -0.203 F 
ATOM     76  F   UNL A   1      37.491  33.158  31.441  1.00  0.00    -0.200 F 
ATOM     77  C   UNL A   1      37.324  30.911  32.102  1.00  0.00     0.200 A 
ATOM     78  F   UNL A   1      37.212  28.642  32.707  1.00  0.00    -0.200 F 
ATOM     79  F   UNL A   1      36.267  31.188  32.875  1.00  0.00    -0.200 F 
ENDBRANCH  55  69
BRANCH  56  80
ATOM     80  C   UNL A   1      48.547  27.539  26.707  1.00  0.00     0.064 A 
ATOM     81  C   UNL A   1      47.913  26.789  24.955  1.00  0.00     0.173 A 
ATOM     82  C   UNL A   1      50.218  27.963  26.847  1.00  0.00     0.173 A 
ATOM     83  F   UNL A   1      46.650  26.467  24.494  1.00  0.00    -0.203 F 
ATOM     84  C   UNL A   1      49.061  26.675  23.577  1.00  0.00     0.198 A 
ATOM     85  C   UNL A   1      51.141  27.964  25.468  1.00  0.00     0.198 A 
ATOM     86  F   UNL A   1      50.829  28.015  28.035  1.00  0.00    -0.203 F 
ATOM     87  F   UNL A   1      48.655  26.295  22.356  1.00  0.00    -0.200 F 
ATOM     88  C   UNL A   1      50.671  27.290  23.854  1.00  0.00     0.200 A 
ATOM     89  F   UNL A   1      52.328  28.365  25.854  1.00  0.00    -0.200 F 
ATOM     90  F   UNL A   1      51.567  27.177  22.865  1.00  0.00    -0.200 F 
ENDBRANCH  56  80
BRANCH  68  91
ATOM     91  C   UNL A   1      44.538  33.717  27.876  1.00  0.00     0.064 A 
ATOM     92  C   UNL A   1      44.415  34.835  28.709  1.00  0.00     0.173 A 
ATOM     93  C   UNL A   1      43.949  33.891  26.582  1.00  0.00     0.173 A 
ATOM     94  F   UNL A   1      44.855  34.798  29.974  1.00  0.00    -0.203 F 
ATOM     95  C   UNL A   1      43.787  36.018  28.286  1.00  0.00     0.198 A 
ATOM     96  C   UNL A   1      43.249  35.035  26.197  1.00  0.00     0.198 A 
ATOM     97  F   UNL A   1      44.052  32.985  25.602  1.00  0.00    -0.203 F 
ATOM     98  F   UNL A   1      43.748  37.072  29.111  1.00  0.00    -0.200 F 
ATOM     99  C   UNL A   1      43.184  36.109  27.045  1.00  0.00     0.200 A 
ATOM    100  F   UNL A   1      42.651  35.078  24.996  1.00  0.00    -0.200 F 
ATOM    101  F   UNL A   1      42.550  37.226  26.665  1.00  0.00    -0.200 F 
ENDBRANCH  68  91
ENDBRANCH  42  43
ENDBRANCH  35  37
ENDBRANCH  34  35
ENDBRANCH  33  34
ENDBRANCH  32  33
ENDBRANCH  31  32
ENDBRANCH   1  31
TORSDOF 19
ENDMDL
MODEL 2
REMARK VINA RESULT:     -14.3      4.865     11.267
REMARK SMILES Cc1ccc(-c2cc(Cl)cc3c2O[C@@H](C(F)(F)F)C(C(=O)OCCOCCOCCOC(=O)c2ccc(-c4c5nc(c(-c6c(F)c(F)c(F)c(F)c6F)c6ccc([nH]6)c(-c6c(F)c(F)c(F)c(F)c6F)c6nc(c(-c7c(F)c(F)c(F)c(F)c7F)c7ccc4[nH]7)C=C6)C=C5)cc2)=C3)cc1
REMARK SMILES IDX 27 1 26 2 25 3 24 4 23 5 22 6 20 7 21 8 19 9 6 10 7 11 12 12
REMARK SMILES IDX 8 13 11 14 13 15 9 16 10 17 97 18 14 19 5 20 1 21 2 22 3 23
REMARK SMILES IDX 99 24 4 25 98 26 15 27 16 28 17 29 18 30 28 31 29 32 30 33
REMARK SMILES IDX 31 34 32 35 33 36 34 37 35 38 96 39 36 40 95 41 37 42 38 43
REMARK SMILES IDX 39 44 89 45 40 46 94 47 88 48 90 49 41 50 93 51 87 52 86 53
REMARK SMILES IDX 42 55 74 56 54 57 73 58 55 59 58 60 72 61 91 62 56 63 57 64
REMARK SMILES IDX 71 66 92 67 59 68 43 69 44 70 52 71 45 72 46 73 50 74 53 75
REMARK SMILES IDX 47 76 48 77 51 78 49 79 75 80 76 81 84 82 77 83 78 84 82 85
REMARK SMILES IDX 85 86 79 87 80 88 83 89 81 90 60 91 61 92 69 93 62 94 63 95
REMARK SMILES IDX 67 96 70 97 64 98 65 99 68 100 66 101
REMARK H PARENT 90 54 58 65
REMARK Flexibility Score: inf
ROOT
ATOM      1  C   UNL A   1      34.151  34.613  27.909  1.00  0.00     0.188 C 
ENDROOT
BRANCH   1   2
ATOM      2  C   UNL A   1      34.910  33.328  28.003  1.00  0.00     0.188 C 
BRANCH   2   3
ATOM      3  O   UNL A   1      34.448  32.182  27.303  1.00  0.00    -0.376 OA
BRANCH   3   4
ATOM      4  C   UNL A   1      34.139  30.844  27.779  1.00  0.00     0.202 C 
BRANCH   4   5
ATOM      5  C   UNL A   1      33.932  29.107  27.231  1.00  0.00     0.261 C 
BRANCH   5   6
ATOM      6  O   UNL A   1      34.346  28.130  25.589  1.00  0.00    -0.460 OA
BRANCH   6   7
ATOM      7  C   UNL A   1      33.880  27.954  23.967  1.00  0.00     0.338 C 
ATOM      8  O   UNL A   1      34.436  28.577  23.050  1.00  0.00    -0.246 OA
BRANCH   7   9
ATOM      9  C   UNL A   1      32.852  26.985  23.211  1.00  0.00     0.087 C 
ATOM     10  C   UNL A   1      34.045  23.059  24.199  1.00  0.00     0.026 A 
ATOM     11  C   UNL A   1      33.575  21.945  23.550  1.00  0.00     0.033 A 
ATOM     12  C   UNL A   1      33.349  24.351  23.732  1.00  0.00     0.135 A 
ATOM     13  C   UNL A   1      32.689  22.162  22.474  1.00  0.00     0.042 A 
ATOM     14  C   UNL A   1      32.999  24.616  22.443  1.00  0.00     0.019 A 
ATOM     15  O   UNL A   1      32.202  25.094  24.591  1.00  0.00    -0.475 OA
ATOM     16  Cl  UNL A   1      31.847  20.782  21.862  1.00  0.00    -0.084 Cl
ATOM     17  C   UNL A   1      32.475  23.462  21.867  1.00  0.00     0.032 A 
ATOM     18  C   UNL A   1      33.091  26.136  22.131  1.00  0.00     0.027 C 
ATOM     19  C   UNL A   1      31.711  26.414  23.928  1.00  0.00     0.316 C 
BRANCH  10  20
ATOM     20  C   UNL A   1      35.652  22.933  25.049  1.00  0.00    -0.015 A 
ATOM     21  C   UNL A   1      40.458  22.369  26.908  1.00  0.00     0.044 C 
ATOM     22  C   UNL A   1      39.082  22.492  26.300  1.00  0.00    -0.051 A 
ATOM     23  C   UNL A   1      38.377  24.040  26.617  1.00  0.00     0.004 A 
ATOM     24  C   UNL A   1      38.195  21.184  25.455  1.00  0.00     0.004 A 
ATOM     25  C   UNL A   1      36.737  24.342  25.994  1.00  0.00     0.009 A 
ATOM     26  C   UNL A   1      36.506  21.339  24.840  1.00  0.00     0.009 A 
ENDBRANCH  10  20
BRANCH  19  27
ATOM     27  C   UNL A   1      30.990  27.728  24.398  1.00  0.00     0.430 C 
ATOM     28  F   UNL A   1      29.619  27.575  24.268  1.00  0.00    -0.167 F 
ATOM     29  F   UNL A   1      31.154  27.968  25.717  1.00  0.00    -0.167 F 
ATOM     30  F   UNL A   1      31.288  28.844  23.728  1.00  0.00    -0.167 F 
ENDBRANCH  19  27
ENDBRANCH   7   9
ENDBRANCH   6   7
ENDBRANCH   5   6
ENDBRANCH   4   5
ENDBRANCH   3   4
ENDBRANCH   2   3
ENDBRANCH   1   2
BRANCH   1  31
ATOM     31  O   UNL A   1      33.147  34.538  28.886  1.00  0.00    -0.376 OA
BRANCH  31  32
ATOM     32  C   UNL A   1      32.776  35.776  29.440  1.00  0.00     0.202 C 
BRANCH  32  33
ATOM     33  C   UNL A   1      33.406  35.962  30.820  1.00  0.00     0.261 C 
BRANCH  33  34
ATOM     34  O   UNL A   1      33.090  34.831  31.662  1.00  0.00    -0.460 OA
BRANCH  34  35
ATOM     35  C   UNL A   1      34.113  34.446  32.473  1.00  0.00     0.338 C 
ATOM     36  O   UNL A   1      34.381  34.921  33.563  1.00  0.00    -0.246 OA
BRANCH  35  37
ATOM     37  C   UNL A   1      35.062  33.662  31.678  1.00  0.00     0.060 A 
ATOM     38  C   UNL A   1      35.155  32.312  31.848  1.00  0.00     0.016 A 
ATOM     39  C   UNL A   1      36.070  34.204  30.956  1.00  0.00     0.016 A 
ATOM     40  C   UNL A   1      36.438  31.679  31.690  1.00  0.00     0.010 A 
ATOM     41  C   UNL A   1      37.263  33.449  30.874  1.00  0.00     0.010 A 
ATOM     42  C   UNL A   1      37.727  32.222  31.589  1.00  0.00    -0.014 A 
BRANCH  42  43
ATOM     43  C   UNL A   1      39.500  31.463  31.720  1.00  0.00     0.031 A 
ATOM     44  C   UNL A   1      40.072  29.906  30.741  1.00  0.00     0.074 A 
ATOM     45  C   UNL A   1      40.662  31.981  32.302  1.00  0.00     0.049 A 
ATOM     46  N   UNL A   1      41.076  29.105  30.958  1.00  0.00    -0.248 NA
ATOM     47  C   UNL A   1      39.210  29.053  29.587  1.00  0.00     0.031 C 
ATOM     48  C   UNL A   1      42.069  31.587  32.053  1.00  0.00     0.029 A 
ATOM     49  N   UNL A   1      40.909  33.046  33.208  1.00  0.00    -0.354 N 
ATOM     50  C   UNL A   1      41.029  28.030  30.042  1.00  0.00     0.074 A 
ATOM     51  C   UNL A   1      39.735  27.860  29.541  1.00  0.00     0.031 C 
ATOM     52  C   UNL A   1      42.896  32.138  32.974  1.00  0.00     0.029 A 
ATOM     53  C   UNL A   1      42.065  32.740  33.999  1.00  0.00     0.049 A 
ATOM     54  H   UNL A   1      40.370  33.866  33.281  1.00  0.00     0.167 HD
ATOM     55  C   UNL A   1      42.176  27.510  29.550  1.00  0.00     0.037 A 
ATOM     56  C   UNL A   1      42.027  32.416  35.359  1.00  0.00     0.037 A 
ATOM     57  C   UNL A   1      43.220  27.891  30.472  1.00  0.00     0.049 A 
ATOM     58  C   UNL A   1      42.613  30.923  35.519  1.00  0.00     0.074 A 
ATOM     59  C   UNL A   1      44.163  28.893  30.515  1.00  0.00     0.029 A 
ATOM     60  N   UNL A   1      43.006  27.529  31.785  1.00  0.00    -0.354 N 
ATOM     61  N   UNL A   1      43.125  30.188  34.554  1.00  0.00    -0.248 NA
ATOM     62  C   UNL A   1      42.519  30.134  36.755  1.00  0.00     0.031 C 
ATOM     63  C   UNL A   1      44.521  29.086  31.892  1.00  0.00     0.029 A 
ATOM     64  C   UNL A   1      43.807  28.193  32.674  1.00  0.00     0.049 A 
ATOM     65  H   UNL A   1      42.342  26.855  32.057  1.00  0.00     0.167 HD
ATOM     66  C   UNL A   1      43.268  28.870  34.942  1.00  0.00     0.074 A 
ATOM     67  C   UNL A   1      42.902  28.904  36.349  1.00  0.00     0.031 C 
ATOM     68  C   UNL A   1      43.627  27.849  34.083  1.00  0.00     0.037 A 
BRANCH  55  69
ATOM     69  C   UNL A   1      42.351  26.897  28.162  1.00  0.00     0.064 A 
ATOM     70  C   UNL A   1      42.750  25.550  28.115  1.00  0.00     0.173 A 
ATOM     71  C   UNL A   1      42.313  27.525  26.882  1.00  0.00     0.173 A 
ATOM     72  F   UNL A   1      42.787  24.807  29.228  1.00  0.00    -0.203 F 
ATOM     73  C   UNL A   1      43.151  24.916  26.934  1.00  0.00     0.198 A 
ATOM     74  C   UNL A   1      42.693  26.879  25.697  1.00  0.00     0.198 A 
ATOM     75  F   UNL A   1      41.942  28.791  26.678  1.00  0.00    -0.203 F 
ATOM     76  F   UNL A   1      43.579  23.648  26.985  1.00  0.00    -0.200 F 
ATOM     77  C   UNL A   1      43.135  25.580  25.727  1.00  0.00     0.200 A 
ATOM     78  F   UNL A   1      42.653  27.546  24.532  1.00  0.00    -0.200 F 
ATOM     79  F   UNL A   1      43.540  24.975  24.604  1.00  0.00    -0.200 F 
ENDBRANCH  55  69
BRANCH  56  80
ATOM     80  C   UNL A   1      40.553  32.846  36.087  1.00  0.00     0.064 A 
ATOM     81  C   UNL A   1      38.667  32.321  36.539  1.00  0.00     0.173 A 
ATOM     82  C   UNL A   1      41.403  33.847  37.212  1.00  0.00     0.173 A 
ATOM     83  F   UNL A   1      37.779  31.459  35.923  1.00  0.00    -0.203 F 
ATOM     84  C   UNL A   1      37.967  32.815  38.119  1.00  0.00     0.198 A 
ATOM     85  C   UNL A   1      40.717  34.106  38.701  1.00  0.00     0.198 A 
ATOM     86  F   UNL A   1      42.427  34.616  36.829  1.00  0.00    -0.203 F 
ATOM     87  F   UNL A   1      36.760  32.387  38.515  1.00  0.00    -0.200 F 
ATOM     88  C   UNL A   1      39.024  33.695  39.195  1.00  0.00     0.200 A 
ATOM     89  F   UNL A   1      41.586  34.842  39.352  1.00  0.00    -0.200 F 
ATOM     90  F   UNL A   1      38.521  34.122  40.360  1.00  0.00    -0.200 F 
ENDBRANCH  56  80
BRANCH  68  91
ATOM     91  C   UNL A   1      43.867  26.369  34.455  1.00  0.00     0.064 A 
ATOM     92  C   UNL A   1      45.111  25.761  34.250  1.00  0.00     0.173 A 
ATOM     93  C   UNL A   1      42.827  25.453  34.815  1.00  0.00     0.173 A 
ATOM     94  F   UNL A   1      46.165  26.478  33.839  1.00  0.00    -0.203 F 
ATOM     95  C   UNL A   1      45.303  24.379  34.411  1.00  0.00     0.198 A 
ATOM     96  C   UNL A   1      43.002  24.071  34.888  1.00  0.00     0.198 A 
ATOM     97  F   UNL A   1      41.593  25.844  35.160  1.00  0.00    -0.203 F 
ATOM     98  F   UNL A   1      46.529  23.863  34.252  1.00  0.00    -0.200 F 
ATOM     99  C   UNL A   1      44.248  23.534  34.703  1.00  0.00     0.200 A 
ATOM    100  F   UNL A   1      41.950  23.278  35.145  1.00  0.00    -0.200 F 
ATOM    101  F   UNL A   1      44.433  22.211  34.813  1.00  0.00    -0.200 F 
ENDBRANCH  68  91
ENDBRANCH  42  43
ENDBRANCH  35  37
ENDBRANCH  34  35
ENDBRANCH  33  34
ENDBRANCH  32  33
ENDBRANCH  31  32
ENDBRANCH   1  31
TORSDOF 19
ENDMDL
MODEL 3
REMARK VINA RESULT:     -14.1      4.823     11.262
REMARK SMILES Cc1ccc(-c2cc(Cl)cc3c2O[C@@H](C(F)(F)F)C(C(=O)OCCOCCOCCOC(=O)c2ccc(-c4c5nc(c(-c6c(F)c(F)c(F)c(F)c6F)c6ccc([nH]6)c(-c6c(F)c(F)c(F)c(F)c6F)c6nc(c(-c7c(F)c(F)c(F)c(F)c7F)c7ccc4[nH]7)C=C6)C=C5)cc2)=C3)cc1
REMARK SMILES IDX 27 1 26 2 25 3 24 4 23 5 22 6 20 7 21 8 19 9 6 10 7 11 12 12
REMARK SMILES IDX 8 13 11 14 13 15 9 16 10 17 97 18 14 19 5 20 1 21 2 22 3 23
REMARK SMILES IDX 99 24 4 25 98 26 15 27 16 28 17 29 18 30 28 31 29 32 30 33
REMARK SMILES IDX 31 34 32 35 33 36 34 37 35 38 96 39 36 40 95 41 37 42 38 43
REMARK SMILES IDX 39 44 89 45 40 46 94 47 88 48 90 49 41 50 93 51 87 52 86 53
REMARK SMILES IDX 42 55 74 56 54 57 73 58 55 59 58 60 72 61 91 62 56 63 57 64
REMARK SMILES IDX 71 66 92 67 59 68 43 69 44 70 52 71 45 72 46 73 50 74 53 75
REMARK SMILES IDX 47 76 48 77 51 78 49 79 75 80 76 81 84 82 77 83 78 84 82 85
REMARK SMILES IDX 85 86 79 87 80 88 83 89 81 90 60 91 61 92 69 93 62 94 63 95
REMARK SMILES IDX 67 96 70 97 64 98 65 99 68 100 66 101
REMARK H PARENT 90 54 58 65
REMARK Flexibility Score: inf
ROOT
ATOM      1  C   UNL A   1      33.973  32.062  28.149  1.00  0.00     0.188 C 
ENDROOT
BRANCH   1   2
ATOM      2  C   UNL A   1      33.234  31.113  27.259  1.00  0.00     0.188 C 
BRANCH   2   3
ATOM      3  O   UNL A   1      33.285  29.718  27.517  1.00  0.00    -0.376 OA
BRANCH   3   4
ATOM      4  C   UNL A   1      33.671  28.611  26.659  1.00  0.00     0.202 C 
BRANCH   4   5
ATOM      5  C   UNL A   1      34.028  28.164  24.918  1.00  0.00     0.261 C 
BRANCH   5   6
ATOM      6  O   UNL A   1      34.151  26.480  23.932  1.00  0.00    -0.460 OA
BRANCH   6   7
ATOM      7  C   UNL A   1      33.396  25.566  22.719  1.00  0.00     0.338 C 
ATOM      8  O   UNL A   1      33.649  25.731  21.516  1.00  0.00    -0.246 OA
BRANCH   7   9
ATOM      9  C   UNL A   1      32.398  24.313  22.736  1.00  0.00     0.087 C 
ATOM     10  C   UNL A   1      34.411  21.283  24.877  1.00  0.00     0.026 A 
ATOM     11  C   UNL A   1      33.997  19.974  24.896  1.00  0.00     0.033 A 
ATOM     12  C   UNL A   1      33.425  22.202  24.132  1.00  0.00     0.135 A 
ATOM     13  C   UNL A   1      32.869  19.652  24.113  1.00  0.00     0.042 A 
ATOM     14  C   UNL A   1      32.757  21.858  22.997  1.00  0.00     0.019 A 
ATOM     15  O   UNL A   1      32.394  23.185  24.889  1.00  0.00    -0.475 OA
ATOM     16  Cl  UNL A   1      32.150  18.103  24.374  1.00  0.00    -0.084 Cl
ATOM     17  C   UNL A   1      32.314  20.542  23.111  1.00  0.00     0.032 A 
ATOM     18  C   UNL A   1      32.525  23.090  22.078  1.00  0.00     0.027 C 
ATOM     19  C   UNL A   1      31.557  24.055  23.906  1.00  0.00     0.316 C 
BRANCH  10  20
ATOM     20  C   UNL A   1      36.165  21.625  25.231  1.00  0.00    -0.015 A 
ATOM     21  C   UNL A   1      40.961  22.789  26.816  1.00  0.00     0.044 C 
ATOM     22  C   UNL A   1      39.536  22.489  26.421  1.00  0.00    -0.051 A 
ATOM     23  C   UNL A   1      39.377  20.902  25.752  1.00  0.00     0.004 A 
ATOM     24  C   UNL A   1      38.168  23.644  26.497  1.00  0.00     0.004 A 
ATOM     25  C   UNL A   1      37.761  20.396  25.203  1.00  0.00     0.009 A 
ATOM     26  C   UNL A   1      36.501  23.280  25.910  1.00  0.00     0.009 A 
ENDBRANCH  10  20
BRANCH  19  27
ATOM     27  C   UNL A   1      30.753  25.403  23.974  1.00  0.00     0.430 C 
ATOM     28  F   UNL A   1      30.623  25.929  22.700  1.00  0.00    -0.167 F 
ATOM     29  F   UNL A   1      29.474  25.226  24.372  1.00  0.00    -0.167 F 
ATOM     30  F   UNL A   1      31.290  26.381  24.710  1.00  0.00    -0.167 F 
ENDBRANCH  19  27
ENDBRANCH   7   9
ENDBRANCH   6   7
ENDBRANCH   5   6
ENDBRANCH   4   5
ENDBRANCH   3   4
ENDBRANCH   2   3
ENDBRANCH   1   2
BRANCH   1  31
ATOM     31  O   UNL A   1      33.399  33.323  27.927  1.00  0.00    -0.376 OA
BRANCH  31  32
ATOM     32  C   UNL A   1      34.326  34.368  27.772  1.00  0.00     0.202 C 
BRANCH  32  33
ATOM     33  C   UNL A   1      35.232  34.476  28.997  1.00  0.00     0.261 C 
BRANCH  33  34
ATOM     34  O   UNL A   1      34.631  35.350  29.979  1.00  0.00    -0.460 OA
BRANCH  34  35
ATOM     35  C   UNL A   1      33.863  34.701  30.897  1.00  0.00     0.338 C 
ATOM     36  O   UNL A   1      32.701  34.953  31.166  1.00  0.00    -0.246 OA
BRANCH  35  37
ATOM     37  C   UNL A   1      34.747  33.929  31.774  1.00  0.00     0.060 A 
ATOM     38  C   UNL A   1      35.686  34.559  32.535  1.00  0.00     0.016 A 
ATOM     39  C   UNL A   1      34.899  32.587  31.699  1.00  0.00     0.016 A 
ATOM     40  C   UNL A   1      36.939  33.895  32.785  1.00  0.00     0.010 A 
ATOM     41  C   UNL A   1      36.185  32.081  31.997  1.00  0.00     0.010 A 
ATOM     42  C   UNL A   1      37.505  32.749  32.206  1.00  0.00    -0.014 A 
BRANCH  42  43
ATOM     43  C   UNL A   1      39.285  31.995  32.227  1.00  0.00     0.031 A 
ATOM     44  C   UNL A   1      39.819  30.487  31.155  1.00  0.00     0.074 A 
ATOM     45  C   UNL A   1      40.469  32.494  32.781  1.00  0.00     0.049 A 
ATOM     46  N   UNL A   1      40.834  29.683  31.293  1.00  0.00    -0.248 NA
ATOM     47  C   UNL A   1      38.912  29.681  30.003  1.00  0.00     0.031 C 
ATOM     48  C   UNL A   1      41.865  32.118  32.454  1.00  0.00     0.029 A 
ATOM     49  N   UNL A   1      40.750  33.518  33.722  1.00  0.00    -0.354 N 
ATOM     50  C   UNL A   1      40.752  28.649  30.333  1.00  0.00     0.074 A 
ATOM     51  C   UNL A   1      39.438  28.494  29.880  1.00  0.00     0.031 C 
ATOM     52  C   UNL A   1      42.729  32.633  33.362  1.00  0.00     0.029 A 
ATOM     53  C   UNL A   1      41.941  33.184  34.448  1.00  0.00     0.049 A 
ATOM     54  H   UNL A   1      40.212  34.332  33.854  1.00  0.00     0.167 HD
ATOM     55  C   UNL A   1      41.878  28.158  29.769  1.00  0.00     0.037 A 
ATOM     56  C   UNL A   1      41.963  32.799  35.793  1.00  0.00     0.037 A 
ATOM     57  C   UNL A   1      42.960  28.503  30.662  1.00  0.00     0.049 A 
ATOM     58  C   UNL A   1      42.560  31.304  35.861  1.00  0.00     0.074 A 
ATOM     59  C   UNL A   1      43.901  29.508  30.708  1.00  0.00     0.029 A 
ATOM     60  N   UNL A   1      42.805  28.082  31.965  1.00  0.00    -0.354 N 
ATOM     61  N   UNL A   1      43.033  30.615  34.843  1.00  0.00    -0.248 NA
ATOM     62  C   UNL A   1      42.523  30.461  37.063  1.00  0.00     0.031 C 
ATOM     63  C   UNL A   1      44.316  29.641  32.076  1.00  0.00     0.029 A 
ATOM     64  C   UNL A   1      43.640  28.710  32.848  1.00  0.00     0.049 A 
ATOM     65  H   UNL A   1      42.155  27.392  32.235  1.00  0.00     0.167 HD
ATOM     66  C   UNL A   1      43.197  29.283  35.164  1.00  0.00     0.074 A 
ATOM     67  C   UNL A   1      42.893  29.252  36.586  1.00  0.00     0.031 C 
ATOM     68  C   UNL A   1      43.523  28.303  34.247  1.00  0.00     0.037 A 
BRANCH  55  69
ATOM     69  C   UNL A   1      41.996  27.608  28.349  1.00  0.00     0.064 A 
ATOM     70  C   UNL A   1      42.557  26.326  28.214  1.00  0.00     0.173 A 
ATOM     71  C   UNL A   1      41.754  28.258  27.102  1.00  0.00     0.173 A 
ATOM     72  F   UNL A   1      42.796  25.566  29.291  1.00  0.00    -0.203 F 
ATOM     73  C   UNL A   1      42.920  25.780  26.979  1.00  0.00     0.198 A 
ATOM     74  C   UNL A   1      42.098  27.697  25.864  1.00  0.00     0.198 A 
ATOM     75  F   UNL A   1      41.207  29.469  26.981  1.00  0.00    -0.203 F 
ATOM     76  F   UNL A   1      43.509  24.577  26.943  1.00  0.00    -0.200 F 
ATOM     77  C   UNL A   1      42.703  26.466  25.804  1.00  0.00     0.200 A 
ATOM     78  F   UNL A   1      41.861  28.382  24.734  1.00  0.00    -0.200 F 
ATOM     79  F   UNL A   1      43.072  25.948  24.627  1.00  0.00    -0.200 F 
ENDBRANCH  55  69
BRANCH  56  80
ATOM     80  C   UNL A   1      40.520  33.189  36.602  1.00  0.00     0.064 A 
ATOM     81  C   UNL A   1      38.675  32.613  37.151  1.00  0.00     0.173 A 
ATOM     82  C   UNL A   1      41.404  34.205  37.686  1.00  0.00     0.173 A 
ATOM     83  F   UNL A   1      37.777  31.732  36.580  1.00  0.00    -0.203 F 
ATOM     84  C   UNL A   1      38.049  33.082  38.770  1.00  0.00     0.198 A 
ATOM     85  C   UNL A   1      40.794  34.440  39.210  1.00  0.00     0.198 A 
ATOM     86  F   UNL A   1      42.386  35.002  37.252  1.00  0.00    -0.203 F 
ATOM     87  F   UNL A   1      36.877  32.622  39.229  1.00  0.00    -0.200 F 
ATOM     88  C   UNL A   1      39.140  33.984  39.793  1.00  0.00     0.200 A 
ATOM     89  F   UNL A   1      41.677  35.194  39.819  1.00  0.00    -0.200 F 
ATOM     90  F   UNL A   1      38.691  34.392  40.987  1.00  0.00    -0.200 F 
ENDBRANCH  56  80
BRANCH  68  91
ATOM     91  C   UNL A   1      43.784  26.809  34.542  1.00  0.00     0.064 A 
ATOM     92  C   UNL A   1      42.734  25.934  34.840  1.00  0.00     0.173 A 
ATOM     93  C   UNL A   1      45.085  26.249  34.755  1.00  0.00     0.173 A 
ATOM     94  F   UNL A   1      41.460  26.338  34.759  1.00  0.00    -0.203 F 
ATOM     95  C   UNL A   1      42.960  24.620  35.285  1.00  0.00     0.198 A 
ATOM     96  C   UNL A   1      45.303  24.975  35.280  1.00  0.00     0.198 A 
ATOM     97  F   UNL A   1      46.219  26.882  34.427  1.00  0.00    -0.203 F 
ATOM     98  F   UNL A   1      41.914  23.812  35.504  1.00  0.00    -0.200 F 
ATOM     99  C   UNL A   1      44.238  24.151  35.529  1.00  0.00     0.200 A 
ATOM    100  F   UNL A   1      46.556  24.563  35.532  1.00  0.00    -0.200 F 
ATOM    101  F   UNL A   1      44.442  22.911  35.994  1.00  0.00    -0.200 F 
ENDBRANCH  68  91
ENDBRANCH  42  43
ENDBRANCH  35  37
ENDBRANCH  34  35
ENDBRANCH  33  34
ENDBRANCH  32  33
ENDBRANCH  31  32
ENDBRANCH   1  31
TORSDOF 19
ENDMDL
