MODEL 1
REMARK VINA RESULT:     -10.7      0.000      0.000
REMARK SMILES CCOc1ccc(N2C[C@H](C(=O)OCCOCCOCCOC(=O)c3ccc(-c4c5nc(c(-c6c(F)c(F)c(F)c(F)c6F)c6ccc([nH]6)c(-c6c(F)c(F)c(F)c(F)c6F)c6nc(c(-c7c(F)c(F)c(F)c(F)c7F)c7ccc4[nH]7)C=C6)C=C5)cc3)CC2=O)cc1C(F)(F)F
REMARK SMILES IDX 17 1 16 2 15 3 14 4 13 5 11 6 12 7 10 8 8 9 9 10 89 11 88 12
REMARK SMILES IDX 90 13 7 14 4 15 5 16 92 17 6 18 91 19 3 20 2 21 1 22 93 23
REMARK SMILES IDX 94 24 95 25 96 26 18 27 19 28 20 29 21 30 22 31 23 32 24 33
REMARK SMILES IDX 25 34 26 35 87 36 27 37 86 38 28 39 29 40 30 41 80 42 31 43
REMARK SMILES IDX 85 44 79 45 81 46 32 47 84 48 78 49 77 50 33 52 65 53 45 54
REMARK SMILES IDX 64 55 46 56 49 57 63 58 82 59 47 60 48 61 62 63 83 64 50 65
REMARK SMILES IDX 34 66 35 67 43 68 36 69 37 70 41 71 44 72 38 73 39 74 42 75
REMARK SMILES IDX 40 76 66 77 67 78 75 79 68 80 69 81 73 82 76 83 70 84 71 85
REMARK SMILES IDX 74 86 72 87 51 88 52 89 60 90 53 91 54 92 58 93 61 94 55 95
REMARK SMILES IDX 56 96 59 97 57 98
REMARK H PARENT 81 51 49 62
REMARK Flexibility Score: inf
ROOT
ATOM      1  C   UNL A   1      32.964  36.394  31.114  1.00  0.00     0.188 C 
ENDROOT
BRANCH   1   2
ATOM      2  O   UNL A   1      33.000  36.736  29.735  1.00  0.00    -0.376 OA
BRANCH   2   3
ATOM      3  C   UNL A   1      33.107  35.662  28.803  1.00  0.00     0.202 C 
BRANCH   3   4
ATOM      4  C   UNL A   1      34.445  35.517  28.061  1.00  0.00     0.261 C 
BRANCH   4   5
ATOM      5  O   UNL A   1      34.666  34.223  27.465  1.00  0.00    -0.463 OA
BRANCH   5   6
ATOM      6  C   UNL A   1      35.402  33.355  28.199  1.00  0.00     0.311 C 
ATOM      7  O   UNL A   1      36.609  33.449  28.396  1.00  0.00    -0.252 OA
BRANCH   6   8
ATOM      8  C   UNL A   1      34.596  32.233  28.820  1.00  0.00     0.128 C 
ATOM      9  N   UNL A   1      33.975  30.422  27.456  1.00  0.00    -0.312 N 
ATOM     10  C   UNL A   1      33.446  31.633  28.026  1.00  0.00     0.141 C 
ATOM     11  C   UNL A   1      35.252  30.136  27.951  1.00  0.00     0.227 C 
ATOM     12  C   UNL A   1      35.539  31.074  29.084  1.00  0.00     0.117 C 
ATOM     13  O   UNL A   1      36.028  29.260  27.601  1.00  0.00    -0.274 OA
BRANCH   9  14
ATOM     14  C   UNL A   1      33.236  29.554  26.615  1.00  0.00     0.044 A 
ATOM     15  C   UNL A   1      31.797  27.938  24.801  1.00  0.00     0.131 A 
ATOM     16  C   UNL A   1      31.331  28.132  26.108  1.00  0.00     0.049 A 
ATOM     17  C   UNL A   1      32.990  28.527  24.391  1.00  0.00     0.100 A 
ATOM     18  C   UNL A   1      32.061  28.916  27.019  1.00  0.00     0.030 A 
ATOM     19  C   UNL A   1      33.698  29.310  25.317  1.00  0.00     0.043 A 
BRANCH  15  20
ATOM     20  O   UNL A   1      30.992  27.322  23.886  1.00  0.00    -0.493 OA
BRANCH  20  21
ATOM     21  C   UNL A   1      30.162  26.289  24.428  1.00  0.00     0.226 C 
ATOM     22  C   UNL A   1      28.724  26.496  23.982  1.00  0.00     0.049 C 
ENDBRANCH  20  21
ENDBRANCH  15  20
BRANCH  17  23
ATOM     23  C   UNL A   1      33.592  28.342  23.028  1.00  0.00     0.420 C 
ATOM     24  F   UNL A   1      33.947  27.049  22.774  1.00  0.00    -0.166 F 
ATOM     25  F   UNL A   1      32.708  28.663  22.039  1.00  0.00    -0.166 F 
ATOM     26  F   UNL A   1      34.714  29.073  22.786  1.00  0.00    -0.166 F 
ENDBRANCH  17  23
ENDBRANCH   9  14
ENDBRANCH   6   8
ENDBRANCH   5   6
ENDBRANCH   4   5
ENDBRANCH   3   4
ENDBRANCH   2   3
ENDBRANCH   1   2
BRANCH   1  27
ATOM     27  C   UNL A   1      33.845  35.225  31.548  1.00  0.00     0.188 C 
BRANCH  27  28
ATOM     28  O   UNL A   1      33.321  34.422  32.592  1.00  0.00    -0.376 OA
BRANCH  28  29
ATOM     29  C   UNL A   1      34.217  33.535  33.268  1.00  0.00     0.202 C 
BRANCH  29  30
ATOM     30  C   UNL A   1      35.436  34.125  34.009  1.00  0.00     0.261 C 
BRANCH  30  31
ATOM     31  O   UNL A   1      36.736  33.732  33.513  1.00  0.00    -0.460 OA
BRANCH  31  32
ATOM     32  C   UNL A   1      37.345  32.672  34.095  1.00  0.00     0.338 C 
ATOM     33  O   UNL A   1      37.100  32.214  35.192  1.00  0.00    -0.246 OA
BRANCH  32  34
ATOM     34  C   UNL A   1      38.166  31.967  33.062  1.00  0.00     0.060 A 
ATOM     35  C   UNL A   1      39.248  31.197  33.513  1.00  0.00     0.016 A 
ATOM     36  C   UNL A   1      37.848  31.973  31.699  1.00  0.00     0.016 A 
ATOM     37  C   UNL A   1      40.046  30.493  32.609  1.00  0.00     0.010 A 
ATOM     38  C   UNL A   1      38.656  31.273  30.789  1.00  0.00     0.010 A 
ATOM     39  C   UNL A   1      39.789  30.569  31.234  1.00  0.00    -0.014 A 
BRANCH  39  40
ATOM     40  C   UNL A   1      40.839  30.111  30.283  1.00  0.00     0.031 A 
ATOM     41  C   UNL A   1      41.941  31.072  29.922  1.00  0.00     0.074 A 
ATOM     42  C   UNL A   1      40.878  28.854  29.801  1.00  0.00     0.049 A 
ATOM     43  N   UNL A   1      42.999  30.892  29.170  1.00  0.00    -0.248 NA
ATOM     44  C   UNL A   1      41.834  32.424  30.491  1.00  0.00     0.031 C 
ATOM     45  C   UNL A   1      39.897  27.809  30.081  1.00  0.00     0.029 A 
ATOM     46  N   UNL A   1      41.791  28.249  28.969  1.00  0.00    -0.354 N 
ATOM     47  C   UNL A   1      43.674  32.106  29.172  1.00  0.00     0.074 A 
ATOM     48  C   UNL A   1      42.888  33.025  29.965  1.00  0.00     0.031 C 
ATOM     49  C   UNL A   1      40.257  26.691  29.425  1.00  0.00     0.029 A 
ATOM     50  C   UNL A   1      41.480  26.946  28.662  1.00  0.00     0.049 A 
ATOM     51  H   UNL A   1      42.593  28.705  28.627  1.00  0.00     0.167 HD
ATOM     52  C   UNL A   1      44.848  32.429  28.578  1.00  0.00     0.037 A 
ATOM     53  C   UNL A   1      42.100  26.067  27.849  1.00  0.00     0.037 A 
ATOM     54  C   UNL A   1      45.636  31.523  27.784  1.00  0.00     0.049 A 
ATOM     55  C   UNL A   1      43.383  26.459  27.158  1.00  0.00     0.074 A 
ATOM     56  C   UNL A   1      46.856  31.750  27.172  1.00  0.00     0.029 A 
ATOM     57  N   UNL A   1      45.270  30.221  27.472  1.00  0.00    -0.354 N 
ATOM     58  N   UNL A   1      44.041  27.592  27.206  1.00  0.00    -0.248 NA
ATOM     59  C   UNL A   1      44.018  25.438  26.311  1.00  0.00     0.031 C 
ATOM     60  C   UNL A   1      47.194  30.612  26.432  1.00  0.00     0.029 A 
ATOM     61  C   UNL A   1      46.225  29.645  26.646  1.00  0.00     0.049 A 
ATOM     62  H   UNL A   1      44.455  29.771  27.790  1.00  0.00     0.167 HD
ATOM     63  C   UNL A   1      45.175  27.414  26.421  1.00  0.00     0.074 A 
ATOM     64  C   UNL A   1      45.126  26.055  25.924  1.00  0.00     0.031 C 
ATOM     65  C   UNL A   1      46.169  28.295  26.143  1.00  0.00     0.037 A 
BRANCH  52  66
ATOM     66  C   UNL A   1      45.325  33.847  28.728  1.00  0.00     0.064 A 
ATOM     67  C   UNL A   1      46.178  34.242  29.771  1.00  0.00     0.173 A 
ATOM     68  C   UNL A   1      44.915  34.828  27.812  1.00  0.00     0.173 A 
ATOM     69  F   UNL A   1      46.587  33.348  30.684  1.00  0.00    -0.203 F 
ATOM     70  C   UNL A   1      46.563  35.573  29.916  1.00  0.00     0.198 A 
ATOM     71  C   UNL A   1      45.334  36.149  27.938  1.00  0.00     0.198 A 
ATOM     72  F   UNL A   1      44.103  34.507  26.794  1.00  0.00    -0.203 F 
ATOM     73  F   UNL A   1      47.317  35.939  30.962  1.00  0.00    -0.200 F 
ATOM     74  C   UNL A   1      46.146  36.523  28.998  1.00  0.00     0.200 A 
ATOM     75  F   UNL A   1      44.941  37.063  27.041  1.00  0.00    -0.200 F 
ATOM     76  F   UNL A   1      46.517  37.803  29.140  1.00  0.00    -0.200 F 
ENDBRANCH  52  66
BRANCH  53  77
ATOM     77  C   UNL A   1      41.504  24.721  27.630  1.00  0.00     0.064 A 
ATOM     78  C   UNL A   1      40.344  24.546  26.862  1.00  0.00     0.173 A 
ATOM     79  C   UNL A   1      42.084  23.578  28.202  1.00  0.00     0.173 A 
ATOM     80  F   UNL A   1      39.733  25.611  26.321  1.00  0.00    -0.203 F 
ATOM     81  C   UNL A   1      39.783  23.282  26.682  1.00  0.00     0.198 A 
ATOM     82  C   UNL A   1      41.540  22.312  27.996  1.00  0.00     0.198 A 
ATOM     83  F   UNL A   1      43.189  23.691  28.954  1.00  0.00    -0.203 F 
ATOM     84  F   UNL A   1      38.650  23.149  25.980  1.00  0.00    -0.200 F 
ATOM     85  C   UNL A   1      40.386  22.166  27.241  1.00  0.00     0.200 A 
ATOM     86  F   UNL A   1      42.133  21.236  28.529  1.00  0.00    -0.200 F 
ATOM     87  F   UNL A   1      39.852  20.950  27.059  1.00  0.00    -0.200 F 
ENDBRANCH  53  77
BRANCH  65  88
ATOM     88  C   UNL A   1      47.311  27.809  25.289  1.00  0.00     0.064 A 
ATOM     89  C   UNL A   1      47.324  27.976  23.895  1.00  0.00     0.173 A 
ATOM     90  C   UNL A   1      48.421  27.180  25.878  1.00  0.00     0.173 A 
ATOM     91  F   UNL A   1      46.290  28.563  23.276  1.00  0.00    -0.203 F 
ATOM     92  C   UNL A   1      48.379  27.493  23.123  1.00  0.00     0.198 A 
ATOM     93  C   UNL A   1      49.490  26.733  25.107  1.00  0.00     0.198 A 
ATOM     94  F   UNL A   1      48.472  27.003  27.207  1.00  0.00    -0.203 F 
ATOM     95  F   UNL A   1      48.335  27.605  21.788  1.00  0.00    -0.200 F 
ATOM     96  C   UNL A   1      49.463  26.877  23.729  1.00  0.00     0.200 A 
ATOM     97  F   UNL A   1      50.546  26.156  25.698  1.00  0.00    -0.200 F 
ATOM     98  F   UNL A   1      50.476  26.413  22.985  1.00  0.00    -0.200 F 
ENDBRANCH  65  88
ENDBRANCH  39  40
ENDBRANCH  32  34
ENDBRANCH  31  32
ENDBRANCH  30  31
ENDBRANCH  29  30
ENDBRANCH  28  29
ENDBRANCH  27  28
ENDBRANCH   1  27
TORSDOF 21
ENDMDL
MODEL 2
REMARK VINA RESULT:     -10.7      4.720      9.561
REMARK SMILES CCOc1ccc(N2C[C@H](C(=O)OCCOCCOCCOC(=O)c3ccc(-c4c5nc(c(-c6c(F)c(F)c(F)c(F)c6F)c6ccc([nH]6)c(-c6c(F)c(F)c(F)c(F)c6F)c6nc(c(-c7c(F)c(F)c(F)c(F)c7F)c7ccc4[nH]7)C=C6)C=C5)cc3)CC2=O)cc1C(F)(F)F
REMARK SMILES IDX 17 1 16 2 15 3 14 4 13 5 11 6 12 7 10 8 8 9 9 10 89 11 88 12
REMARK SMILES IDX 90 13 7 14 4 15 5 16 92 17 6 18 91 19 3 20 2 21 1 22 93 23
REMARK SMILES IDX 94 24 95 25 96 26 18 27 19 28 20 29 21 30 22 31 23 32 24 33
REMARK SMILES IDX 25 34 26 35 87 36 27 37 86 38 28 39 29 40 30 41 80 42 31 43
REMARK SMILES IDX 85 44 79 45 81 46 32 47 84 48 78 49 77 50 33 52 65 53 45 54
REMARK SMILES IDX 64 55 46 56 49 57 63 58 82 59 47 60 48 61 62 63 83 64 50 65
REMARK SMILES IDX 34 66 35 67 43 68 36 69 37 70 41 71 44 72 38 73 39 74 42 75
REMARK SMILES IDX 40 76 66 77 67 78 75 79 68 80 69 81 73 82 76 83 70 84 71 85
REMARK SMILES IDX 74 86 72 87 51 88 52 89 60 90 53 91 54 92 58 93 61 94 55 95
REMARK SMILES IDX 56 96 59 97 57 98
REMARK H PARENT 81 51 49 62
REMARK Flexibility Score: inf
ROOT
ATOM      1  C   UNL A   1      27.646  31.136  23.568  1.00  0.00     0.188 C 
ENDROOT
BRANCH   1   2
ATOM      2  O   UNL A   1      27.281  30.046  22.731  1.00  0.00    -0.376 OA
BRANCH   2   3
ATOM      3  C   UNL A   1      27.590  28.735  23.202  1.00  0.00     0.202 C 
BRANCH   3   4
ATOM      4  C   UNL A   1      28.986  28.188  22.864  1.00  0.00     0.261 C 
BRANCH   4   5
ATOM      5  O   UNL A   1      29.886  28.099  23.988  1.00  0.00    -0.463 OA
BRANCH   5   6
ATOM      6  C   UNL A   1      30.731  27.040  23.982  1.00  0.00     0.311 C 
ATOM      7  O   UNL A   1      31.948  27.115  23.856  1.00  0.00    -0.252 OA
BRANCH   6   8
ATOM      8  C   UNL A   1      30.050  25.704  24.191  1.00  0.00     0.128 C 
ATOM      9  N   UNL A   1      31.358  23.892  24.921  1.00  0.00    -0.312 N 
ATOM     10  C   UNL A   1      30.763  24.441  23.731  1.00  0.00     0.141 C 
ATOM     11  C   UNL A   1      30.944  24.581  26.067  1.00  0.00     0.227 C 
ATOM     12  C   UNL A   1      29.840  25.517  25.681  1.00  0.00     0.117 C 
ATOM     13  O   UNL A   1      31.337  24.455  27.217  1.00  0.00    -0.274 OA
BRANCH   9  14
ATOM     14  C   UNL A   1      32.142  22.713  24.942  1.00  0.00     0.044 A 
ATOM     15  C   UNL A   1      33.821  20.443  24.870  1.00  0.00     0.131 A 
ATOM     16  C   UNL A   1      32.427  20.299  24.882  1.00  0.00     0.049 A 
ATOM     17  C   UNL A   1      34.391  21.713  24.914  1.00  0.00     0.100 A 
ATOM     18  C   UNL A   1      31.592  21.429  24.944  1.00  0.00     0.030 A 
ATOM     19  C   UNL A   1      33.536  22.825  24.970  1.00  0.00     0.043 A 
BRANCH  15  20
ATOM     20  O   UNL A   1      34.606  19.351  24.634  1.00  0.00    -0.493 OA
BRANCH  20  21
ATOM     21  C   UNL A   1      33.913  18.100  24.690  1.00  0.00     0.226 C 
ATOM     22  C   UNL A   1      34.319  17.232  23.511  1.00  0.00     0.049 C 
ENDBRANCH  20  21
ENDBRANCH  15  20
BRANCH  17  23
ATOM     23  C   UNL A   1      35.871  21.966  24.949  1.00  0.00     0.420 C 
ATOM     24  F   UNL A   1      36.181  23.284  25.129  1.00  0.00    -0.166 F 
ATOM     25  F   UNL A   1      36.468  21.320  25.992  1.00  0.00    -0.166 F 
ATOM     26  F   UNL A   1      36.549  21.591  23.831  1.00  0.00    -0.166 F 
ENDBRANCH  17  23
ENDBRANCH   9  14
ENDBRANCH   6   8
ENDBRANCH   5   6
ENDBRANCH   4   5
ENDBRANCH   3   4
ENDBRANCH   2   3
ENDBRANCH   1   2
BRANCH   1  27
ATOM     27  C   UNL A   1      29.108  31.572  23.517  1.00  0.00     0.188 C 
BRANCH  27  28
ATOM     28  O   UNL A   1      29.747  31.709  24.776  1.00  0.00    -0.376 OA
BRANCH  28  29
ATOM     29  C   UNL A   1      30.871  30.867  25.050  1.00  0.00     0.202 C 
BRANCH  29  30
ATOM     30  C   UNL A   1      31.455  30.840  26.478  1.00  0.00     0.261 C 
BRANCH  30  31
ATOM     31  O   UNL A   1      32.893  30.939  26.581  1.00  0.00    -0.460 OA
BRANCH  31  32
ATOM     32  C   UNL A   1      33.411  31.997  27.248  1.00  0.00     0.338 C 
ATOM     33  O   UNL A   1      32.834  33.031  27.519  1.00  0.00    -0.246 OA
BRANCH  32  34
ATOM     34  C   UNL A   1      34.713  31.586  27.858  1.00  0.00     0.060 A 
ATOM     35  C   UNL A   1      34.868  30.234  28.200  1.00  0.00     0.016 A 
ATOM     36  C   UNL A   1      35.794  32.461  28.014  1.00  0.00     0.016 A 
ATOM     37  C   UNL A   1      36.064  29.772  28.754  1.00  0.00     0.010 A 
ATOM     38  C   UNL A   1      36.993  31.999  28.580  1.00  0.00     0.010 A 
ATOM     39  C   UNL A   1      37.118  30.662  28.998  1.00  0.00    -0.014 A 
BRANCH  39  40
ATOM     40  C   UNL A   1      38.225  30.231  29.895  1.00  0.00     0.031 A 
ATOM     41  C   UNL A   1      39.231  29.245  29.361  1.00  0.00     0.074 A 
ATOM     42  C   UNL A   1      38.398  30.747  31.127  1.00  0.00     0.049 A 
ATOM     43  N   UNL A   1      40.314  28.765  29.921  1.00  0.00    -0.248 NA
ATOM     44  C   UNL A   1      38.978  28.730  28.008  1.00  0.00     0.031 C 
ATOM     45  C   UNL A   1      37.523  31.725  31.766  1.00  0.00     0.029 A 
ATOM     46  N   UNL A   1      39.382  30.512  32.059  1.00  0.00    -0.354 N 
ATOM     47  C   UNL A   1      40.864  27.891  28.992  1.00  0.00     0.074 A 
ATOM     48  C   UNL A   1      39.975  27.875  27.851  1.00  0.00     0.031 C 
ATOM     49  C   UNL A   1      38.005  32.002  32.992  1.00  0.00     0.029 A 
ATOM     50  C   UNL A   1      39.209  31.205  33.232  1.00  0.00     0.049 A 
ATOM     51  H   UNL A   1      40.140  29.903  31.900  1.00  0.00     0.167 HD
ATOM     52  C   UNL A   1      42.009  27.173  29.071  1.00  0.00     0.037 A 
ATOM     53  C   UNL A   1      39.929  31.188  34.372  1.00  0.00     0.037 A 
ATOM     54  C   UNL A   1      42.898  27.179  30.204  1.00  0.00     0.049 A 
ATOM     55  C   UNL A   1      41.178  30.346  34.460  1.00  0.00     0.074 A 
ATOM     56  C   UNL A   1      44.099  26.511  30.360  1.00  0.00     0.029 A 
ATOM     57  N   UNL A   1      42.671  27.871  31.384  1.00  0.00    -0.354 N 
ATOM     58  N   UNL A   1      41.717  29.561  33.558  1.00  0.00    -0.248 NA
ATOM     59  C   UNL A   1      41.927  30.401  35.725  1.00  0.00     0.031 C 
ATOM     60  C   UNL A   1      44.564  26.741  31.660  1.00  0.00     0.029 A 
ATOM     61  C   UNL A   1      43.693  27.617  32.288  1.00  0.00     0.049 A 
ATOM     62  H   UNL A   1      41.899  28.458  31.556  1.00  0.00     0.167 HD
ATOM     63  C   UNL A   1      42.878  29.053  34.133  1.00  0.00     0.074 A 
ATOM     64  C   UNL A   1      42.974  29.634  35.456  1.00  0.00     0.031 C 
ATOM     65  C   UNL A   1      43.782  28.188  33.609  1.00  0.00     0.037 A 
BRANCH  52  66
ATOM     66  C   UNL A   1      42.338  26.277  27.910  1.00  0.00     0.064 A 
ATOM     67  C   UNL A   1      43.248  26.653  26.909  1.00  0.00     0.173 A 
ATOM     68  C   UNL A   1      41.726  25.019  27.795  1.00  0.00     0.173 A 
ATOM     69  F   UNL A   1      43.850  27.852  26.960  1.00  0.00    -0.203 F 
ATOM     70  C   UNL A   1      43.496  25.825  25.817  1.00  0.00     0.198 A 
ATOM     71  C   UNL A   1      42.006  24.177  26.723  1.00  0.00     0.198 A 
ATOM     72  F   UNL A   1      40.851  24.605  28.724  1.00  0.00    -0.203 F 
ATOM     73  F   UNL A   1      44.312  26.239  24.837  1.00  0.00    -0.200 F 
ATOM     74  C   UNL A   1      42.880  24.587  25.728  1.00  0.00     0.200 A 
ATOM     75  F   UNL A   1      41.419  22.975  26.646  1.00  0.00    -0.200 F 
ATOM     76  F   UNL A   1      43.118  23.792  24.675  1.00  0.00    -0.200 F 
ENDBRANCH  52  66
BRANCH  53  77
ATOM     77  C   UNL A   1      39.475  31.993  35.540  1.00  0.00     0.064 A 
ATOM     78  C   UNL A   1      38.555  31.486  36.468  1.00  0.00     0.173 A 
ATOM     79  C   UNL A   1      39.952  33.297  35.741  1.00  0.00     0.173 A 
ATOM     80  F   UNL A   1      38.044  30.257  36.302  1.00  0.00    -0.203 F 
ATOM     81  C   UNL A   1      38.121  32.258  37.546  1.00  0.00     0.198 A 
ATOM     82  C   UNL A   1      39.541  34.055  36.836  1.00  0.00     0.198 A 
ATOM     83  F   UNL A   1      40.827  33.833  34.877  1.00  0.00    -0.203 F 
ATOM     84  F   UNL A   1      37.207  31.765  38.393  1.00  0.00    -0.200 F 
ATOM     85  C   UNL A   1      38.621  33.537  37.734  1.00  0.00     0.200 A 
ATOM     86  F   UNL A   1      40.036  35.286  37.019  1.00  0.00    -0.200 F 
ATOM     87  F   UNL A   1      38.212  34.273  38.777  1.00  0.00    -0.200 F 
ENDBRANCH  53  77
BRANCH  65  88
ATOM     88  C   UNL A   1      44.982  27.841  34.451  1.00  0.00     0.064 A 
ATOM     89  C   UNL A   1      45.007  26.713  35.286  1.00  0.00     0.173 A 
ATOM     90  C   UNL A   1      46.135  28.643  34.409  1.00  0.00     0.173 A 
ATOM     91  F   UNL A   1      43.932  25.914  35.373  1.00  0.00    -0.203 F 
ATOM     92  C   UNL A   1      46.118  26.428  36.077  1.00  0.00     0.198 A 
ATOM     93  C   UNL A   1      47.258  28.333  35.172  1.00  0.00     0.198 A 
ATOM     94  F   UNL A   1      46.177  29.727  33.620  1.00  0.00    -0.203 F 
ATOM     95  F   UNL A   1      46.089  25.382  36.917  1.00  0.00    -0.200 F 
ATOM     96  C   UNL A   1      47.243  27.234  36.017  1.00  0.00     0.200 A 
ATOM     97  F   UNL A   1      48.352  29.103  35.095  1.00  0.00    -0.200 F 
ATOM     98  F   UNL A   1      48.311  26.959  36.778  1.00  0.00    -0.200 F 
ENDBRANCH  65  88
ENDBRANCH  39  40
ENDBRANCH  32  34
ENDBRANCH  31  32
ENDBRANCH  30  31
ENDBRANCH  29  30
ENDBRANCH  28  29
ENDBRANCH  27  28
ENDBRANCH   1  27
TORSDOF 21
ENDMDL
MODEL 3
REMARK VINA RESULT:     -10.5      5.819     11.924
REMARK SMILES CCOc1ccc(N2C[C@H](C(=O)OCCOCCOCCOC(=O)c3ccc(-c4c5nc(c(-c6c(F)c(F)c(F)c(F)c6F)c6ccc([nH]6)c(-c6c(F)c(F)c(F)c(F)c6F)c6nc(c(-c7c(F)c(F)c(F)c(F)c7F)c7ccc4[nH]7)C=C6)C=C5)cc3)CC2=O)cc1C(F)(F)F
REMARK SMILES IDX 17 1 16 2 15 3 14 4 13 5 11 6 12 7 10 8 8 9 9 10 89 11 88 12
REMARK SMILES IDX 90 13 7 14 4 15 5 16 92 17 6 18 91 19 3 20 2 21 1 22 93 23
REMARK SMILES IDX 94 24 95 25 96 26 18 27 19 28 20 29 21 30 22 31 23 32 24 33
REMARK SMILES IDX 25 34 26 35 87 36 27 37 86 38 28 39 29 40 30 41 80 42 31 43
REMARK SMILES IDX 85 44 79 45 81 46 32 47 84 48 78 49 77 50 33 52 65 53 45 54
REMARK SMILES IDX 64 55 46 56 49 57 63 58 82 59 47 60 48 61 62 63 83 64 50 65
REMARK SMILES IDX 34 66 35 67 43 68 36 69 37 70 41 71 44 72 38 73 39 74 42 75
REMARK SMILES IDX 40 76 66 77 67 78 75 79 68 80 69 81 73 82 76 83 70 84 71 85
REMARK SMILES IDX 74 86 72 87 51 88 52 89 60 90 53 91 54 92 58 93 61 94 55 95
REMARK SMILES IDX 56 96 59 97 57 98
REMARK H PARENT 81 51 49 62
REMARK Flexibility Score: inf
ROOT
ATOM      1  C   UNL A   1      44.363  18.966  24.997  1.00  0.00     0.188 C 
ENDROOT
BRANCH   1   2
ATOM      2  O   UNL A   1      43.022  19.363  25.254  1.00  0.00    -0.376 OA
BRANCH   2   3
ATOM      3  C   UNL A   1      42.286  18.588  26.199  1.00  0.00     0.202 C 
BRANCH   3   4
ATOM      4  C   UNL A   1      42.051  19.217  27.580  1.00  0.00     0.261 C 
BRANCH   4   5
ATOM      5  O   UNL A   1      40.789  19.900  27.724  1.00  0.00    -0.463 OA
BRANCH   5   6
ATOM      6  C   UNL A   1      40.828  21.246  27.579  1.00  0.00     0.311 C 
ATOM      7  O   UNL A   1      41.149  22.038  28.460  1.00  0.00    -0.252 OA
BRANCH   6   8
ATOM      8  C   UNL A   1      40.473  21.730  26.189  1.00  0.00     0.128 C 
ATOM      9  N   UNL A   1      38.289  22.511  25.808  1.00  0.00    -0.312 N 
ATOM     10  C   UNL A   1      39.119  21.352  25.608  1.00  0.00     0.141 C 
ATOM     11  C   UNL A   1      39.030  23.598  26.284  1.00  0.00     0.227 C 
ATOM     12  C   UNL A   1      40.484  23.247  26.208  1.00  0.00     0.117 C 
ATOM     13  O   UNL A   1      38.628  24.687  26.665  1.00  0.00    -0.274 OA
BRANCH   9  14
ATOM     14  C   UNL A   1      36.926  22.584  25.428  1.00  0.00     0.044 A 
ATOM     15  C   UNL A   1      34.173  22.603  24.798  1.00  0.00     0.131 A 
ATOM     16  C   UNL A   1      35.137  22.678  23.784  1.00  0.00     0.049 A 
ATOM     17  C   UNL A   1      34.568  22.539  26.132  1.00  0.00     0.100 A 
ATOM     18  C   UNL A   1      36.507  22.694  24.100  1.00  0.00     0.030 A 
ATOM     19  C   UNL A   1      35.942  22.551  26.421  1.00  0.00     0.043 A 
BRANCH  15  20
ATOM     20  O   UNL A   1      32.863  22.414  24.466  1.00  0.00    -0.493 OA
BRANCH  20  21
ATOM     21  C   UNL A   1      32.631  21.319  23.573  1.00  0.00     0.226 C 
ATOM     22  C   UNL A   1      32.540  20.022  24.360  1.00  0.00     0.049 C 
ENDBRANCH  20  21
ENDBRANCH  15  20
BRANCH  17  23
ATOM     23  C   UNL A   1      33.611  22.502  27.289  1.00  0.00     0.420 C 
ATOM     24  F   UNL A   1      34.225  22.688  28.494  1.00  0.00    -0.166 F 
ATOM     25  F   UNL A   1      32.685  23.500  27.209  1.00  0.00    -0.166 F 
ATOM     26  F   UNL A   1      32.910  21.343  27.423  1.00  0.00    -0.166 F 
ENDBRANCH  17  23
ENDBRANCH   9  14
ENDBRANCH   6   8
ENDBRANCH   5   6
ENDBRANCH   4   5
ENDBRANCH   3   4
ENDBRANCH   2   3
ENDBRANCH   1   2
BRANCH   1  27
ATOM     27  C   UNL A   1      45.308  20.053  24.489  1.00  0.00     0.188 C 
BRANCH  27  28
ATOM     28  O   UNL A   1      44.816  20.832  23.412  1.00  0.00    -0.376 OA
BRANCH  28  29
ATOM     29  C   UNL A   1      44.909  22.256  23.520  1.00  0.00     0.202 C 
BRANCH  29  30
ATOM     30  C   UNL A   1      43.869  23.011  24.374  1.00  0.00     0.261 C 
BRANCH  30  31
ATOM     31  O   UNL A   1      44.369  23.649  25.571  1.00  0.00    -0.460 OA
BRANCH  31  32
ATOM     32  C   UNL A   1      44.692  24.962  25.505  1.00  0.00     0.338 C 
ATOM     33  O   UNL A   1      45.377  25.493  24.653  1.00  0.00    -0.246 OA
BRANCH  32  34
ATOM     34  C   UNL A   1      43.838  25.714  26.475  1.00  0.00     0.060 A 
ATOM     35  C   UNL A   1      44.172  27.053  26.727  1.00  0.00     0.016 A 
ATOM     36  C   UNL A   1      42.687  25.172  27.059  1.00  0.00     0.016 A 
ATOM     37  C   UNL A   1      43.407  27.825  27.603  1.00  0.00     0.010 A 
ATOM     38  C   UNL A   1      41.923  25.945  27.948  1.00  0.00     0.010 A 
ATOM     39  C   UNL A   1      42.307  27.261  28.263  1.00  0.00    -0.014 A 
BRANCH  39  40
ATOM     40  C   UNL A   1      41.732  27.976  29.435  1.00  0.00     0.031 A 
ATOM     41  C   UNL A   1      42.418  27.827  30.768  1.00  0.00     0.074 A 
ATOM     42  C   UNL A   1      40.676  28.804  29.328  1.00  0.00     0.049 A 
ATOM     43  N   UNL A   1      42.150  28.394  31.918  1.00  0.00    -0.248 NA
ATOM     44  C   UNL A   1      43.567  26.910  30.806  1.00  0.00     0.031 C 
ATOM     45  C   UNL A   1      39.927  29.067  28.102  1.00  0.00     0.029 A 
ATOM     46  N   UNL A   1      40.054  29.580  30.278  1.00  0.00    -0.354 N 
ATOM     47  C   UNL A   1      43.089  27.897  32.812  1.00  0.00     0.074 A 
ATOM     48  C   UNL A   1      43.908  26.954  32.083  1.00  0.00     0.031 C 
ATOM     49  C   UNL A   1      38.939  29.939  28.377  1.00  0.00     0.029 A 
ATOM     50  C   UNL A   1      38.972  30.278  29.800  1.00  0.00     0.049 A 
ATOM     51  H   UNL A   1      40.356  29.630  31.214  1.00  0.00     0.167 HD
ATOM     52  C   UNL A   1      43.267  28.203  34.120  1.00  0.00     0.037 A 
ATOM     53  C   UNL A   1      38.100  31.085  30.438  1.00  0.00     0.037 A 
ATOM     54  C   UNL A   1      42.455  29.138  34.855  1.00  0.00     0.049 A 
ATOM     55  C   UNL A   1      38.285  31.380  31.907  1.00  0.00     0.074 A 
ATOM     56  C   UNL A   1      42.582  29.538  36.173  1.00  0.00     0.029 A 
ATOM     57  N   UNL A   1      41.350  29.801  34.342  1.00  0.00    -0.354 N 
ATOM     58  N   UNL A   1      39.207  30.945  32.732  1.00  0.00    -0.248 NA
ATOM     59  C   UNL A   1      37.313  32.292  32.528  1.00  0.00     0.031 C 
ATOM     60  C   UNL A   1      41.513  30.388  36.479  1.00  0.00     0.029 A 
ATOM     61  C   UNL A   1      40.764  30.581  35.328  1.00  0.00     0.049 A 
ATOM     62  H   UNL A   1      41.030  29.731  33.414  1.00  0.00     0.167 HD
ATOM     63  C   UNL A   1      38.944  31.549  33.958  1.00  0.00     0.074 A 
ATOM     64  C   UNL A   1      37.786  32.396  33.762  1.00  0.00     0.031 C 
ATOM     65  C   UNL A   1      39.605  31.417  35.135  1.00  0.00     0.037 A 
BRANCH  52  66
ATOM     66  C   UNL A   1      44.360  27.475  34.852  1.00  0.00     0.064 A 
ATOM     67  C   UNL A   1      45.663  27.988  34.952  1.00  0.00     0.173 A 
ATOM     68  C   UNL A   1      44.097  26.238  35.460  1.00  0.00     0.173 A 
ATOM     69  F   UNL A   1      45.974  29.159  34.375  1.00  0.00    -0.203 F 
ATOM     70  C   UNL A   1      46.669  27.269  35.592  1.00  0.00     0.198 A 
ATOM     71  C   UNL A   1      45.095  25.540  36.133  1.00  0.00     0.198 A 
ATOM     72  F   UNL A   1      42.869  25.702  35.399  1.00  0.00    -0.203 F 
ATOM     73  F   UNL A   1      47.922  27.745  35.610  1.00  0.00    -0.200 F 
ATOM     74  C   UNL A   1      46.384  26.050  36.187  1.00  0.00     0.200 A 
ATOM     75  F   UNL A   1      44.814  24.369  36.718  1.00  0.00    -0.200 F 
ATOM     76  F   UNL A   1      47.354  25.358  36.801  1.00  0.00    -0.200 F 
ENDBRANCH  52  66
BRANCH  53  77
ATOM     77  C   UNL A   1      36.954  31.669  29.689  1.00  0.00     0.064 A 
ATOM     78  C   UNL A   1      35.878  30.879  29.259  1.00  0.00     0.173 A 
ATOM     79  C   UNL A   1      36.922  33.037  29.378  1.00  0.00     0.173 A 
ATOM     80  F   UNL A   1      35.878  29.560  29.501  1.00  0.00    -0.203 F 
ATOM     81  C   UNL A   1      34.821  31.434  28.538  1.00  0.00     0.198 A 
ATOM     82  C   UNL A   1      35.849  33.595  28.686  1.00  0.00     0.198 A 
ATOM     83  F   UNL A   1      37.930  33.836  29.759  1.00  0.00    -0.203 F 
ATOM     84  F   UNL A   1      33.828  30.648  28.100  1.00  0.00    -0.200 F 
ATOM     85  C   UNL A   1      34.802  32.792  28.261  1.00  0.00     0.200 A 
ATOM     86  F   UNL A   1      35.831  34.910  28.431  1.00  0.00    -0.200 F 
ATOM     87  F   UNL A   1      33.780  33.326  27.578  1.00  0.00    -0.200 F 
ENDBRANCH  53  77
BRANCH  65  88
ATOM     88  C   UNL A   1      39.118  32.235  36.303  1.00  0.00     0.064 A 
ATOM     89  C   UNL A   1      38.194  31.733  37.232  1.00  0.00     0.173 A 
ATOM     90  C   UNL A   1      39.600  33.539  36.504  1.00  0.00     0.173 A 
ATOM     91  F   UNL A   1      37.694  30.497  37.087  1.00  0.00    -0.203 F 
ATOM     92  C   UNL A   1      37.737  32.519  38.288  1.00  0.00     0.198 A 
ATOM     93  C   UNL A   1      39.170  34.308  37.583  1.00  0.00     0.198 A 
ATOM     94  F   UNL A   1      40.494  34.069  35.657  1.00  0.00    -0.203 F 
ATOM     95  F   UNL A   1      36.804  32.040  39.122  1.00  0.00    -0.200 F 
ATOM     96  C   UNL A   1      38.229  33.803  38.466  1.00  0.00     0.200 A 
ATOM     97  F   UNL A   1      39.662  35.542  37.764  1.00  0.00    -0.200 F 
ATOM     98  F   UNL A   1      37.788  34.558  39.482  1.00  0.00    -0.200 F 
ENDBRANCH  65  88
ENDBRANCH  39  40
ENDBRANCH  32  34
ENDBRANCH  31  32
ENDBRANCH  30  31
ENDBRANCH  29  30
ENDBRANCH  28  29
ENDBRANCH  27  28
ENDBRANCH   1  27
TORSDOF 21
ENDMDL
