MODEL 1
REMARK VINA RESULT:     -12.4      0.000      0.000
REMARK SMILES O=C(NC1(C(=O)OCCOCCOCCOC(=O)c2ccc(-c3c4nc(c(-c5c(F)c(F)c(F)c(F)c5F)c5ccc([nH]5)c(-c5c(F)c(F)c(F)c(F)c5F)c5nc(c(-c6c(F)c(F)c(F)c(F)c6F)c6ccc3[nH]6)C=C5)C=C4)cc2)CC[NH2+]CC1)OCC1c2ccccc2-c2ccccc21
REMARK SMILES IDX 11 1 10 2 9 3 8 4 7 5 5 6 6 7 4 8 82 9 86 10 83 11 85 12
REMARK SMILES IDX 84 13 3 16 1 17 2 18 87 20 88 21 89 22 90 23 101 24 91 25
REMARK SMILES IDX 95 26 96 27 100 28 92 29 94 30 97 31 99 32 93 33 98 34 12 35
REMARK SMILES IDX 13 36 14 37 15 38 16 39 17 40 18 41 19 42 20 43 81 44 21 45
REMARK SMILES IDX 80 46 22 47 23 48 24 49 74 50 25 51 79 52 73 53 75 54 26 55
REMARK SMILES IDX 78 56 72 57 71 58 27 60 59 61 39 62 58 63 40 64 43 65 57 66
REMARK SMILES IDX 76 67 41 68 42 69 56 71 77 72 44 73 28 74 29 75 37 76 30 77
REMARK SMILES IDX 31 78 35 79 38 80 32 81 33 82 36 83 34 84 60 85 61 86 69 87
REMARK SMILES IDX 62 88 63 89 67 90 70 91 64 92 65 93 68 94 66 95 45 96 46 97
REMARK SMILES IDX 54 98 47 99 48 100 52 101 55 102 49 103 50 104 53 105 51 106
REMARK H PARENT 84 14 84 15 3 19 75 59 43 70
REMARK Flexibility Score: inf
ROOT
ATOM      1  C   UNL A   1      40.435  21.394  26.103  1.00  0.00     0.188 C 
ENDROOT
BRANCH   1   2
ATOM      2  O   UNL A   1      39.090  21.815  26.294  1.00  0.00    -0.376 OA
BRANCH   2   3
ATOM      3  C   UNL A   1      38.846  23.186  26.595  1.00  0.00     0.202 C 
BRANCH   3   4
ATOM      4  C   UNL A   1      37.620  23.899  25.885  1.00  0.00     0.261 C 
BRANCH   4   5
ATOM      5  O   UNL A   1      36.321  23.253  26.157  1.00  0.00    -0.461 OA
BRANCH   5   6
ATOM      6  C   UNL A   1      35.136  23.454  25.498  1.00  0.00     0.332 C 
ATOM      7  O   UNL A   1      34.868  24.551  25.002  1.00  0.00    -0.249 OA
BRANCH   6   8
ATOM      8  C   UNL A   1      34.109  22.065  25.251  1.00  0.00     0.151 C 
ATOM      9  C   UNL A   1      32.761  21.709  24.510  1.00  0.00     0.102 C 
ATOM     10  C   UNL A   1      35.053  20.912  24.801  1.00  0.00     0.102 C 
ATOM     11  C   UNL A   1      32.276  20.270  24.672  1.00  0.00     0.263 C 
ATOM     12  C   UNL A   1      34.491  19.486  24.715  1.00  0.00     0.263 C 
ATOM     13  N   UNL A   1      33.223  19.416  24.004  1.00  0.00    -0.346 N 
ATOM     14  H   UNL A   1      33.350  19.732  23.042  1.00  0.00     0.346 HD
ATOM     15  H   UNL A   1      32.880  18.456  23.994  1.00  0.00     0.346 HD
BRANCH   8  16
ATOM     16  N   UNL A   1      33.661  22.164  26.603  1.00  0.00    -0.305 N 
ATOM     17  O   UNL A   1      32.301  23.295  27.986  1.00  0.00    -0.225 OA
ATOM     18  C   UNL A   1      32.595  23.008  26.819  1.00  0.00     0.408 C 
ATOM     19  H   UNL A   1      34.087  21.660  27.334  1.00  0.00     0.168 HD
BRANCH  18  20
ATOM     20  O   UNL A   1      31.940  23.588  25.749  1.00  0.00    -0.449 OA
BRANCH  20  21
ATOM     21  C   UNL A   1      31.379  24.943  25.210  1.00  0.00     0.248 C 
BRANCH  21  22
ATOM     22  C   UNL A   1      31.699  26.540  25.366  1.00  0.00     0.088 C 
ATOM     23  C   UNL A   1      30.764  27.309  24.403  1.00  0.00    -0.029 A 
ATOM     24  C   UNL A   1      32.758  27.646  25.719  1.00  0.00    -0.029 A 
ATOM     25  C   UNL A   1      29.642  26.851  23.720  1.00  0.00     0.005 A 
ATOM     26  C   UNL A   1      31.057  28.679  24.474  1.00  0.00    -0.014 A 
ATOM     27  C   UNL A   1      32.204  28.892  25.325  1.00  0.00    -0.014 A 
ATOM     28  C   UNL A   1      33.835  27.727  26.602  1.00  0.00     0.005 A 
ATOM     29  C   UNL A   1      28.812  27.783  23.110  1.00  0.00     0.000 A 
ATOM     30  C   UNL A   1      30.237  29.605  23.857  1.00  0.00     0.009 A 
ATOM     31  C   UNL A   1      32.632  30.109  25.867  1.00  0.00     0.009 A 
ATOM     32  C   UNL A   1      34.274  28.942  27.152  1.00  0.00     0.000 A 
ATOM     33  C   UNL A   1      29.106  29.150  23.179  1.00  0.00     0.001 A 
ATOM     34  C   UNL A   1      33.653  30.128  26.810  1.00  0.00     0.001 A 
ENDBRANCH  21  22
ENDBRANCH  20  21
ENDBRANCH  18  20
ENDBRANCH   8  16
ENDBRANCH   6   8
ENDBRANCH   5   6
ENDBRANCH   4   5
ENDBRANCH   3   4
ENDBRANCH   2   3
ENDBRANCH   1   2
BRANCH   1  35
ATOM     35  C   UNL A   1      40.897  19.997  26.572  1.00  0.00     0.188 C 
BRANCH  35  36
ATOM     36  O   UNL A   1      41.722  19.209  25.743  1.00  0.00    -0.376 OA
BRANCH  36  37
ATOM     37  C   UNL A   1      42.508  18.228  26.417  1.00  0.00     0.202 C 
BRANCH  37  38
ATOM     38  C   UNL A   1      43.963  18.072  25.929  1.00  0.00     0.261 C 
BRANCH  38  39
ATOM     39  O   UNL A   1      44.095  18.460  24.538  1.00  0.00    -0.460 OA
BRANCH  39  40
ATOM     40  C   UNL A   1      45.171  19.243  24.229  1.00  0.00     0.338 C 
ATOM     41  O   UNL A   1      46.126  18.941  23.550  1.00  0.00    -0.246 OA
BRANCH  40  42
ATOM     42  C   UNL A   1      44.862  20.647  24.615  1.00  0.00     0.060 A 
ATOM     43  C   UNL A   1      44.652  21.597  23.603  1.00  0.00     0.016 A 
ATOM     44  C   UNL A   1      44.799  21.029  25.953  1.00  0.00     0.016 A 
ATOM     45  C   UNL A   1      44.438  22.940  23.931  1.00  0.00     0.010 A 
ATOM     46  C   UNL A   1      44.592  22.374  26.276  1.00  0.00     0.010 A 
ATOM     47  C   UNL A   1      44.442  23.343  25.267  1.00  0.00    -0.014 A 
BRANCH  47  48
ATOM     48  C   UNL A   1      44.574  24.780  25.620  1.00  0.00     0.031 A 
ATOM     49  C   UNL A   1      45.945  25.387  25.509  1.00  0.00     0.074 A 
ATOM     50  C   UNL A   1      43.544  25.526  26.053  1.00  0.00     0.049 A 
ATOM     51  N   UNL A   1      46.401  26.522  25.972  1.00  0.00    -0.248 NA
ATOM     52  C   UNL A   1      46.943  24.586  24.782  1.00  0.00     0.031 C 
ATOM     53  C   UNL A   1      42.147  25.105  26.101  1.00  0.00     0.029 A 
ATOM     54  N   UNL A   1      43.531  26.803  26.564  1.00  0.00    -0.354 N 
ATOM     55  C   UNL A   1      47.742  26.557  25.616  1.00  0.00     0.074 A 
ATOM     56  C   UNL A   1      48.031  25.326  24.914  1.00  0.00     0.031 C 
ATOM     57  C   UNL A   1      41.418  26.088  26.660  1.00  0.00     0.029 A 
ATOM     58  C   UNL A   1      42.303  27.185  27.049  1.00  0.00     0.049 A 
ATOM     59  H   UNL A   1      44.325  27.385  26.583  1.00  0.00     0.167 HD
ATOM     60  C   UNL A   1      48.654  27.526  25.860  1.00  0.00     0.037 A 
ATOM     61  C   UNL A   1      41.954  28.274  27.765  1.00  0.00     0.037 A 
ATOM     62  C   UNL A   1      48.362  28.744  26.566  1.00  0.00     0.049 A 
ATOM     63  C   UNL A   1      43.010  29.297  28.124  1.00  0.00     0.074 A 
ATOM     64  C   UNL A   1      49.218  29.781  26.888  1.00  0.00     0.029 A 
ATOM     65  N   UNL A   1      47.113  29.084  27.065  1.00  0.00    -0.354 N 
ATOM     66  N   UNL A   1      44.285  29.317  27.820  1.00  0.00    -0.248 NA
ATOM     67  C   UNL A   1      42.575  30.446  28.932  1.00  0.00     0.031 C 
ATOM     68  C   UNL A   1      48.499  30.724  27.630  1.00  0.00     0.029 A 
ATOM     69  C   UNL A   1      47.180  30.306  27.712  1.00  0.00     0.049 A 
ATOM     70  H   UNL A   1      46.300  28.536  26.972  1.00  0.00     0.167 HD
ATOM     71  C   UNL A   1      44.794  30.490  28.368  1.00  0.00     0.074 A 
ATOM     72  C   UNL A   1      43.688  31.161  29.015  1.00  0.00     0.031 C 
ATOM     73  C   UNL A   1      46.063  30.969  28.338  1.00  0.00     0.037 A 
BRANCH  60  74
ATOM     74  C   UNL A   1      50.061  27.274  25.403  1.00  0.00     0.064 A 
ATOM     75  C   UNL A   1      51.053  26.809  26.280  1.00  0.00     0.173 A 
ATOM     76  C   UNL A   1      50.421  27.506  24.067  1.00  0.00     0.173 A 
ATOM     77  F   UNL A   1      50.766  26.592  27.573  1.00  0.00    -0.203 F 
ATOM     78  C   UNL A   1      52.361  26.620  25.843  1.00  0.00     0.198 A 
ATOM     79  C   UNL A   1      51.722  27.282  23.627  1.00  0.00     0.198 A 
ATOM     80  F   UNL A   1      49.512  27.952  23.189  1.00  0.00    -0.203 F 
ATOM     81  F   UNL A   1      53.307  26.235  26.711  1.00  0.00    -0.200 F 
ATOM     82  C   UNL A   1      52.694  26.849  24.516  1.00  0.00     0.200 A 
ATOM     83  F   UNL A   1      52.037  27.494  22.341  1.00  0.00    -0.200 F 
ATOM     84  F   UNL A   1      53.953  26.664  24.097  1.00  0.00    -0.200 F 
ENDBRANCH  60  74
BRANCH  61  85
ATOM     85  C   UNL A   1      40.552  28.445  28.237  1.00  0.00     0.064 A 
ATOM     86  C   UNL A   1      39.582  29.051  27.425  1.00  0.00     0.173 A 
ATOM     87  C   UNL A   1      40.162  28.046  29.526  1.00  0.00     0.173 A 
ATOM     88  F   UNL A   1      39.911  29.485  26.200  1.00  0.00    -0.203 F 
ATOM     89  C   UNL A   1      38.285  29.268  27.890  1.00  0.00     0.198 A 
ATOM     90  C   UNL A   1      38.856  28.234  29.976  1.00  0.00     0.198 A 
ATOM     91  F   UNL A   1      41.052  27.476  30.351  1.00  0.00    -0.203 F 
ATOM     92  F   UNL A   1      37.395  29.903  27.114  1.00  0.00    -0.200 F 
ATOM     93  C   UNL A   1      37.921  28.854  29.162  1.00  0.00     0.200 A 
ATOM     94  F   UNL A   1      38.508  27.828  31.205  1.00  0.00    -0.200 F 
ATOM     95  F   UNL A   1      36.675  29.064  29.608  1.00  0.00    -0.200 F 
ENDBRANCH  61  85
BRANCH  73  96
ATOM     96  C   UNL A   1      46.321  32.307  28.973  1.00  0.00     0.064 A 
ATOM     97  C   UNL A   1      46.722  32.428  30.311  1.00  0.00     0.173 A 
ATOM     98  C   UNL A   1      46.219  33.481  28.210  1.00  0.00     0.173 A 
ATOM     99  F   UNL A   1      46.824  31.340  31.088  1.00  0.00    -0.203 F 
ATOM    100  C   UNL A   1      46.987  33.678  30.869  1.00  0.00     0.198 A 
ATOM    101  C   UNL A   1      46.518  34.725  28.761  1.00  0.00     0.198 A 
ATOM    102  F   UNL A   1      45.850  33.422  26.921  1.00  0.00    -0.203 F 
ATOM    103  F   UNL A   1      47.323  33.774  32.162  1.00  0.00    -0.200 F 
ATOM    104  C   UNL A   1      46.892  34.823  30.092  1.00  0.00     0.200 A 
ATOM    105  F   UNL A   1      46.444  35.827  28.002  1.00  0.00    -0.200 F 
ATOM    106  F   UNL A   1      47.159  36.022  30.627  1.00  0.00    -0.200 F 
ENDBRANCH  73  96
ENDBRANCH  47  48
ENDBRANCH  40  42
ENDBRANCH  39  40
ENDBRANCH  38  39
ENDBRANCH  37  38
ENDBRANCH  36  37
ENDBRANCH  35  36
ENDBRANCH   1  35
TORSDOF 21
ENDMDL
MODEL 2
REMARK VINA RESULT:     -12.2      0.878      1.520
REMARK SMILES O=C(NC1(C(=O)OCCOCCOCCOC(=O)c2ccc(-c3c4nc(c(-c5c(F)c(F)c(F)c(F)c5F)c5ccc([nH]5)c(-c5c(F)c(F)c(F)c(F)c5F)c5nc(c(-c6c(F)c(F)c(F)c(F)c6F)c6ccc3[nH]6)C=C5)C=C4)cc2)CC[NH2+]CC1)OCC1c2ccccc2-c2ccccc21
REMARK SMILES IDX 11 1 10 2 9 3 8 4 7 5 5 6 6 7 4 8 82 9 86 10 83 11 85 12
REMARK SMILES IDX 84 13 3 16 1 17 2 18 87 20 88 21 89 22 90 23 101 24 91 25
REMARK SMILES IDX 95 26 96 27 100 28 92 29 94 30 97 31 99 32 93 33 98 34 12 35
REMARK SMILES IDX 13 36 14 37 15 38 16 39 17 40 18 41 19 42 20 43 81 44 21 45
REMARK SMILES IDX 80 46 22 47 23 48 24 49 74 50 25 51 79 52 73 53 75 54 26 55
REMARK SMILES IDX 78 56 72 57 71 58 27 60 59 61 39 62 58 63 40 64 43 65 57 66
REMARK SMILES IDX 76 67 41 68 42 69 56 71 77 72 44 73 28 74 29 75 37 76 30 77
REMARK SMILES IDX 31 78 35 79 38 80 32 81 33 82 36 83 34 84 60 85 61 86 69 87
REMARK SMILES IDX 62 88 63 89 67 90 70 91 64 92 65 93 68 94 66 95 45 96 46 97
REMARK SMILES IDX 54 98 47 99 48 100 52 101 55 102 49 103 50 104 53 105 51 106
REMARK H PARENT 84 14 84 15 3 19 75 59 43 70
REMARK Flexibility Score: inf
ROOT
ATOM      1  C   UNL A   1      40.686  21.445  25.984  1.00  0.00     0.188 C 
ENDROOT
BRANCH   1   2
ATOM      2  O   UNL A   1      39.352  21.821  26.304  1.00  0.00    -0.376 OA
BRANCH   2   3
ATOM      3  C   UNL A   1      39.076  23.198  26.546  1.00  0.00     0.202 C 
BRANCH   3   4
ATOM      4  C   UNL A   1      37.572  23.687  26.432  1.00  0.00     0.261 C 
BRANCH   4   5
ATOM      5  O   UNL A   1      36.629  22.620  26.046  1.00  0.00    -0.461 OA
BRANCH   5   6
ATOM      6  C   UNL A   1      35.371  22.768  25.522  1.00  0.00     0.332 C 
ATOM      7  O   UNL A   1      35.007  23.848  25.052  1.00  0.00    -0.249 OA
BRANCH   6   8
ATOM      8  C   UNL A   1      34.378  21.338  25.401  1.00  0.00     0.151 C 
ATOM      9  C   UNL A   1      32.940  20.939  24.886  1.00  0.00     0.102 C 
ATOM     10  C   UNL A   1      35.280  20.247  24.756  1.00  0.00     0.102 C 
ATOM     11  C   UNL A   1      32.553  19.474  25.074  1.00  0.00     0.263 C 
ATOM     12  C   UNL A   1      34.774  18.799  24.712  1.00  0.00     0.263 C 
ATOM     13  N   UNL A   1      33.408  18.688  24.224  1.00  0.00    -0.346 N 
ATOM     14  H   UNL A   1      33.355  19.037  23.267  1.00  0.00     0.346 HD
ATOM     15  H   UNL A   1      33.110  17.713  24.236  1.00  0.00     0.346 HD
BRANCH   8  16
ATOM     16  N   UNL A   1      34.164  21.376  26.812  1.00  0.00    -0.305 N 
ATOM     17  O   UNL A   1      33.029  22.413  28.449  1.00  0.00    -0.225 OA
ATOM     18  C   UNL A   1      33.128  22.177  27.238  1.00  0.00     0.408 C 
ATOM     19  H   UNL A   1      34.720  20.860  27.440  1.00  0.00     0.168 HD
BRANCH  18  20
ATOM     20  O   UNL A   1      32.286  22.772  26.318  1.00  0.00    -0.449 OA
BRANCH  20  21
ATOM     21  C   UNL A   1      31.459  24.067  26.033  1.00  0.00     0.248 C 
BRANCH  21  22
ATOM     22  C   UNL A   1      31.740  25.623  25.616  1.00  0.00     0.088 C 
ATOM     23  C   UNL A   1      32.293  25.636  24.171  1.00  0.00    -0.029 A 
ATOM     24  C   UNL A   1      32.099  27.075  26.097  1.00  0.00    -0.029 A 
ATOM     25  C   UNL A   1      32.306  24.613  23.229  1.00  0.00     0.005 A 
ATOM     26  C   UNL A   1      32.598  26.956  23.807  1.00  0.00    -0.014 A 
ATOM     27  C   UNL A   1      32.408  27.834  24.938  1.00  0.00    -0.014 A 
ATOM     28  C   UNL A   1      31.827  27.825  27.242  1.00  0.00     0.005 A 
ATOM     29  C   UNL A   1      32.624  24.927  21.914  1.00  0.00     0.000 A 
ATOM     30  C   UNL A   1      32.925  27.266  22.500  1.00  0.00     0.009 A 
ATOM     31  C   UNL A   1      32.335  29.231  24.913  1.00  0.00     0.009 A 
ATOM     32  C   UNL A   1      31.751  29.226  27.230  1.00  0.00     0.000 A 
ATOM     33  C   UNL A   1      32.930  26.244  21.551  1.00  0.00     0.001 A 
ATOM     34  C   UNL A   1      31.974  29.928  26.060  1.00  0.00     0.001 A 
ENDBRANCH  21  22
ENDBRANCH  20  21
ENDBRANCH  18  20
ENDBRANCH   8  16
ENDBRANCH   6   8
ENDBRANCH   5   6
ENDBRANCH   4   5
ENDBRANCH   3   4
ENDBRANCH   2   3
ENDBRANCH   1   2
BRANCH   1  35
ATOM     35  C   UNL A   1      41.337  20.211  26.644  1.00  0.00     0.188 C 
BRANCH  35  36
ATOM     36  O   UNL A   1      41.769  19.128  25.851  1.00  0.00    -0.376 OA
BRANCH  36  37
ATOM     37  C   UNL A   1      42.612  18.185  26.510  1.00  0.00     0.202 C 
BRANCH  37  38
ATOM     38  C   UNL A   1      44.063  18.093  25.992  1.00  0.00     0.261 C 
BRANCH  38  39
ATOM     39  O   UNL A   1      44.137  18.412  24.579  1.00  0.00    -0.460 OA
BRANCH  39  40
ATOM     40  C   UNL A   1      45.178  19.208  24.194  1.00  0.00     0.338 C 
ATOM     41  O   UNL A   1      46.085  18.916  23.448  1.00  0.00    -0.246 OA
BRANCH  40  42
ATOM     42  C   UNL A   1      44.881  20.609  24.600  1.00  0.00     0.060 A 
ATOM     43  C   UNL A   1      44.587  21.555  23.605  1.00  0.00     0.016 A 
ATOM     44  C   UNL A   1      44.909  20.992  25.939  1.00  0.00     0.016 A 
ATOM     45  C   UNL A   1      44.381  22.895  23.946  1.00  0.00     0.010 A 
ATOM     46  C   UNL A   1      44.710  22.335  26.275  1.00  0.00     0.010 A 
ATOM     47  C   UNL A   1      44.476  23.300  25.279  1.00  0.00    -0.014 A 
BRANCH  47  48
ATOM     48  C   UNL A   1      44.616  24.739  25.620  1.00  0.00     0.031 A 
ATOM     49  C   UNL A   1      45.985  25.344  25.481  1.00  0.00     0.074 A 
ATOM     50  C   UNL A   1      43.594  25.489  26.066  1.00  0.00     0.049 A 
ATOM     51  N   UNL A   1      46.450  26.481  25.928  1.00  0.00    -0.248 NA
ATOM     52  C   UNL A   1      46.970  24.537  24.741  1.00  0.00     0.031 C 
ATOM     53  C   UNL A   1      42.199  25.070  26.142  1.00  0.00     0.029 A 
ATOM     54  N   UNL A   1      43.592  26.769  26.570  1.00  0.00    -0.354 N 
ATOM     55  C   UNL A   1      47.785  26.512  25.548  1.00  0.00     0.074 A 
ATOM     56  C   UNL A   1      48.061  25.277  24.849  1.00  0.00     0.031 C 
ATOM     57  C   UNL A   1      41.480  26.058  26.707  1.00  0.00     0.029 A 
ATOM     58  C   UNL A   1      42.373  27.156  27.074  1.00  0.00     0.049 A 
ATOM     59  H   UNL A   1      44.387  27.351  26.571  1.00  0.00     0.167 HD
ATOM     60  C   UNL A   1      48.702  27.483  25.770  1.00  0.00     0.037 A 
ATOM     61  C   UNL A   1      42.038  28.250  27.789  1.00  0.00     0.037 A 
ATOM     62  C   UNL A   1      48.424  28.705  26.473  1.00  0.00     0.049 A 
ATOM     63  C   UNL A   1      43.101  29.273  28.124  1.00  0.00     0.074 A 
ATOM     64  C   UNL A   1      49.286  29.743  26.774  1.00  0.00     0.029 A 
ATOM     65  N   UNL A   1      47.184  29.049  26.992  1.00  0.00    -0.354 N 
ATOM     66  N   UNL A   1      44.371  29.290  27.797  1.00  0.00    -0.248 NA
ATOM     67  C   UNL A   1      42.682  30.429  28.932  1.00  0.00     0.031 C 
ATOM     68  C   UNL A   1      48.582  30.691  27.523  1.00  0.00     0.029 A 
ATOM     69  C   UNL A   1      47.264  30.275  27.631  1.00  0.00     0.049 A 
ATOM     70  H   UNL A   1      46.369  28.502  26.918  1.00  0.00     0.167 HD
ATOM     71  C   UNL A   1      44.891  30.466  28.328  1.00  0.00     0.074 A 
ATOM     72  C   UNL A   1      43.797  31.143  28.990  1.00  0.00     0.031 C 
ATOM     73  C   UNL A   1      46.159  30.943  28.272  1.00  0.00     0.037 A 
BRANCH  60  74
ATOM     74  C   UNL A   1      50.100  27.226  25.290  1.00  0.00     0.064 A 
ATOM     75  C   UNL A   1      50.497  27.513  23.975  1.00  0.00     0.173 A 
ATOM     76  C   UNL A   1      51.055  26.678  26.159  1.00  0.00     0.173 A 
ATOM     77  F   UNL A   1      49.617  28.017  23.097  1.00  0.00    -0.203 F 
ATOM     78  C   UNL A   1      51.789  27.229  23.540  1.00  0.00     0.198 A 
ATOM     79  C   UNL A   1      52.355  26.429  25.731  1.00  0.00     0.198 A 
ATOM     80  F   UNL A   1      50.727  26.384  27.426  1.00  0.00    -0.203 F 
ATOM     81  F   UNL A   1      52.130  27.454  22.264  1.00  0.00    -0.200 F 
ATOM     82  C   UNL A   1      52.719  26.694  24.419  1.00  0.00     0.200 A 
ATOM     83  F   UNL A   1      53.255  25.922  26.586  1.00  0.00    -0.200 F 
ATOM     84  F   UNL A   1      53.963  26.423  24.000  1.00  0.00    -0.200 F 
ENDBRANCH  60  74
BRANCH  61  85
ATOM     85  C   UNL A   1      40.645  28.425  28.285  1.00  0.00     0.064 A 
ATOM     86  C   UNL A   1      39.650  28.986  27.471  1.00  0.00     0.173 A 
ATOM     87  C   UNL A   1      40.288  28.076  29.598  1.00  0.00     0.173 A 
ATOM     88  F   UNL A   1      39.947  29.372  26.221  1.00  0.00    -0.203 F 
ATOM     89  C   UNL A   1      38.361  29.208  27.955  1.00  0.00     0.198 A 
ATOM     90  C   UNL A   1      38.990  28.269  30.069  1.00  0.00     0.198 A 
ATOM     91  F   UNL A   1      41.202  27.551  30.426  1.00  0.00    -0.203 F 
ATOM     92  F   UNL A   1      37.447  29.800  27.173  1.00  0.00    -0.200 F 
ATOM     93  C   UNL A   1      38.030  28.844  29.251  1.00  0.00     0.200 A 
ATOM     94  F   UNL A   1      38.674  27.912  31.321  1.00  0.00    -0.200 F 
ATOM     95  F   UNL A   1      36.792  29.059  29.716  1.00  0.00    -0.200 F 
ENDBRANCH  61  85
BRANCH  73  96
ATOM     96  C   UNL A   1      46.430  32.285  28.894  1.00  0.00     0.064 A 
ATOM     97  C   UNL A   1      46.788  32.419  30.243  1.00  0.00     0.173 A 
ATOM     98  C   UNL A   1      46.384  33.449  28.109  1.00  0.00     0.173 A 
ATOM     99  F   UNL A   1      46.837  31.341  31.040  1.00  0.00    -0.203 F 
ATOM    100  C   UNL A   1      47.066  33.670  30.789  1.00  0.00     0.198 A 
ATOM    101  C   UNL A   1      46.695  34.693  28.651  1.00  0.00     0.198 A 
ATOM    102  F   UNL A   1      46.057  33.377  26.810  1.00  0.00    -0.203 F 
ATOM    103  F   UNL A   1      47.361  33.780  32.092  1.00  0.00    -0.200 F 
ATOM    104  C   UNL A   1      47.027  34.804  29.991  1.00  0.00     0.200 A 
ATOM    105  F   UNL A   1      46.675  35.784  27.872  1.00  0.00    -0.200 F 
ATOM    106  F   UNL A   1      47.307  36.006  30.516  1.00  0.00    -0.200 F 
ENDBRANCH  73  96
ENDBRANCH  47  48
ENDBRANCH  40  42
ENDBRANCH  39  40
ENDBRANCH  38  39
ENDBRANCH  37  38
ENDBRANCH  36  37
ENDBRANCH  35  36
ENDBRANCH   1  35
TORSDOF 21
ENDMDL
MODEL 3
REMARK VINA RESULT:     -12.2      0.528      2.228
REMARK SMILES O=C(NC1(C(=O)OCCOCCOCCOC(=O)c2ccc(-c3c4nc(c(-c5c(F)c(F)c(F)c(F)c5F)c5ccc([nH]5)c(-c5c(F)c(F)c(F)c(F)c5F)c5nc(c(-c6c(F)c(F)c(F)c(F)c6F)c6ccc3[nH]6)C=C5)C=C4)cc2)CC[NH2+]CC1)OCC1c2ccccc2-c2ccccc21
REMARK SMILES IDX 11 1 10 2 9 3 8 4 7 5 5 6 6 7 4 8 82 9 86 10 83 11 85 12
REMARK SMILES IDX 84 13 3 16 1 17 2 18 87 20 88 21 89 22 90 23 101 24 91 25
REMARK SMILES IDX 95 26 96 27 100 28 92 29 94 30 97 31 99 32 93 33 98 34 12 35
REMARK SMILES IDX 13 36 14 37 15 38 16 39 17 40 18 41 19 42 20 43 81 44 21 45
REMARK SMILES IDX 80 46 22 47 23 48 24 49 74 50 25 51 79 52 73 53 75 54 26 55
REMARK SMILES IDX 78 56 72 57 71 58 27 60 59 61 39 62 58 63 40 64 43 65 57 66
REMARK SMILES IDX 76 67 41 68 42 69 56 71 77 72 44 73 28 74 29 75 37 76 30 77
REMARK SMILES IDX 31 78 35 79 38 80 32 81 33 82 36 83 34 84 60 85 61 86 69 87
REMARK SMILES IDX 62 88 63 89 67 90 70 91 64 92 65 93 68 94 66 95 45 96 46 97
REMARK SMILES IDX 54 98 47 99 48 100 52 101 55 102 49 103 50 104 53 105 51 106
REMARK H PARENT 84 14 84 15 3 19 75 59 43 70
REMARK Flexibility Score: inf
ROOT
ATOM      1  C   UNL A   1      40.642  21.425  26.107  1.00  0.00     0.188 C 
ENDROOT
BRANCH   1   2
ATOM      2  O   UNL A   1      39.292  21.863  26.188  1.00  0.00    -0.376 OA
BRANCH   2   3
ATOM      3  C   UNL A   1      39.031  23.161  26.713  1.00  0.00     0.202 C 
BRANCH   3   4
ATOM      4  C   UNL A   1      37.741  23.928  26.199  1.00  0.00     0.261 C 
BRANCH   4   5
ATOM      5  O   UNL A   1      36.627  23.033  25.832  1.00  0.00    -0.461 OA
BRANCH   5   6
ATOM      6  C   UNL A   1      35.720  23.202  24.818  1.00  0.00     0.332 C 
ATOM      7  O   UNL A   1      35.923  24.024  23.922  1.00  0.00    -0.249 OA
BRANCH   6   8
ATOM      8  C   UNL A   1      34.365  22.105  24.761  1.00  0.00     0.151 C 
ATOM      9  C   UNL A   1      33.019  21.931  23.954  1.00  0.00     0.102 C 
ATOM     10  C   UNL A   1      34.976  20.675  24.704  1.00  0.00     0.102 C 
ATOM     11  C   UNL A   1      32.144  20.752  24.372  1.00  0.00     0.263 C 
ATOM     12  C   UNL A   1      34.046  19.465  24.869  1.00  0.00     0.263 C 
ATOM     13  N   UNL A   1      32.854  19.546  24.037  1.00  0.00    -0.346 N 
ATOM     14  H   UNL A   1      33.122  19.567  23.053  1.00  0.00     0.346 HD
ATOM     15  H   UNL A   1      32.259  18.734  24.200  1.00  0.00     0.346 HD
BRANCH   8  16
ATOM     16  N   UNL A   1      33.880  22.650  25.988  1.00  0.00    -0.305 N 
ATOM     17  O   UNL A   1      32.911  24.449  26.918  1.00  0.00    -0.225 OA
ATOM     18  C   UNL A   1      33.171  23.825  25.882  1.00  0.00     0.408 C 
ATOM     19  H   UNL A   1      34.043  22.213  26.856  1.00  0.00     0.168 HD
BRANCH  18  20
ATOM     20  O   UNL A   1      32.847  24.332  24.637  1.00  0.00    -0.449 OA
BRANCH  20  21
ATOM     21  C   UNL A   1      32.718  25.657  23.821  1.00  0.00     0.248 C 
BRANCH  21  22
ATOM     22  C   UNL A   1      31.987  27.113  23.972  1.00  0.00     0.088 C 
ATOM     23  C   UNL A   1      32.651  27.859  25.153  1.00  0.00    -0.029 A 
ATOM     24  C   UNL A   1      30.681  27.962  23.764  1.00  0.00    -0.029 A 
ATOM     25  C   UNL A   1      33.833  27.562  25.823  1.00  0.00     0.005 A 
ATOM     26  C   UNL A   1      32.003  29.089  25.342  1.00  0.00    -0.014 A 
ATOM     27  C   UNL A   1      30.867  29.188  24.455  1.00  0.00    -0.014 A 
ATOM     28  C   UNL A   1      29.649  27.962  22.825  1.00  0.00     0.005 A 
ATOM     29  C   UNL A   1      34.364  28.514  26.684  1.00  0.00     0.000 A 
ATOM     30  C   UNL A   1      32.526  30.032  26.208  1.00  0.00     0.009 A 
ATOM     31  C   UNL A   1      30.145  30.345  24.142  1.00  0.00     0.009 A 
ATOM     32  C   UNL A   1      28.918  29.115  22.502  1.00  0.00     0.000 A 
ATOM     33  C   UNL A   1      33.716  29.741  26.874  1.00  0.00     0.001 A 
ATOM     34  C   UNL A   1      29.186  30.313  23.137  1.00  0.00     0.001 A 
ENDBRANCH  21  22
ENDBRANCH  20  21
ENDBRANCH  18  20
ENDBRANCH   8  16
ENDBRANCH   6   8
ENDBRANCH   5   6
ENDBRANCH   4   5
ENDBRANCH   3   4
ENDBRANCH   2   3
ENDBRANCH   1   2
BRANCH   1  35
ATOM     35  C   UNL A   1      41.060  20.049  26.667  1.00  0.00     0.188 C 
BRANCH  35  36
ATOM     36  O   UNL A   1      41.648  19.087  25.818  1.00  0.00    -0.376 OA
BRANCH  36  37
ATOM     37  C   UNL A   1      42.509  18.149  26.461  1.00  0.00     0.202 C 
BRANCH  37  38
ATOM     38  C   UNL A   1      43.976  18.138  25.982  1.00  0.00     0.261 C 
BRANCH  38  39
ATOM     39  O   UNL A   1      44.072  18.477  24.575  1.00  0.00    -0.460 OA
BRANCH  39  40
ATOM     40  C   UNL A   1      45.136  19.255  24.214  1.00  0.00     0.338 C 
ATOM     41  O   UNL A   1      46.058  18.945  23.493  1.00  0.00    -0.246 OA
BRANCH  40  42
ATOM     42  C   UNL A   1      44.851  20.662  24.606  1.00  0.00     0.060 A 
ATOM     43  C   UNL A   1      44.622  21.612  23.598  1.00  0.00     0.016 A 
ATOM     44  C   UNL A   1      44.828  21.046  25.945  1.00  0.00     0.016 A 
ATOM     45  C   UNL A   1      44.429  22.957  23.930  1.00  0.00     0.010 A 
ATOM     46  C   UNL A   1      44.643  22.393  26.271  1.00  0.00     0.010 A 
ATOM     47  C   UNL A   1      44.474  23.362  25.265  1.00  0.00    -0.014 A 
BRANCH  47  48
ATOM     48  C   UNL A   1      44.630  24.798  25.612  1.00  0.00     0.031 A 
ATOM     49  C   UNL A   1      46.007  25.386  25.486  1.00  0.00     0.074 A 
ATOM     50  C   UNL A   1      43.613  25.560  26.053  1.00  0.00     0.049 A 
ATOM     51  N   UNL A   1      46.483  26.516  25.941  1.00  0.00    -0.248 NA
ATOM     52  C   UNL A   1      46.987  24.569  24.752  1.00  0.00     0.031 C 
ATOM     53  C   UNL A   1      42.212  25.158  26.116  1.00  0.00     0.029 A 
ATOM     54  N   UNL A   1      43.624  26.838  26.560  1.00  0.00    -0.354 N 
ATOM     55  C   UNL A   1      47.821  26.531  25.571  1.00  0.00     0.074 A 
ATOM     56  C   UNL A   1      48.087  25.295  24.870  1.00  0.00     0.031 C 
ATOM     57  C   UNL A   1      41.502  26.153  26.679  1.00  0.00     0.029 A 
ATOM     58  C   UNL A   1      42.406  27.239  27.056  1.00  0.00     0.049 A 
ATOM     59  H   UNL A   1      44.426  27.410  26.569  1.00  0.00     0.167 HD
ATOM     60  C   UNL A   1      48.749  27.489  25.803  1.00  0.00     0.037 A 
ATOM     61  C   UNL A   1      42.079  28.335  27.772  1.00  0.00     0.037 A 
ATOM     62  C   UNL A   1      48.481  28.713  26.508  1.00  0.00     0.049 A 
ATOM     63  C   UNL A   1      43.152  29.344  28.117  1.00  0.00     0.074 A 
ATOM     64  C   UNL A   1      49.353  29.739  26.819  1.00  0.00     0.029 A 
ATOM     65  N   UNL A   1      47.241  29.071  27.018  1.00  0.00    -0.354 N 
ATOM     66  N   UNL A   1      44.424  29.345  27.801  1.00  0.00    -0.248 NA
ATOM     67  C   UNL A   1      42.741  30.502  28.926  1.00  0.00     0.031 C 
ATOM     68  C   UNL A   1      48.654  30.694  27.565  1.00  0.00     0.029 A 
ATOM     69  C   UNL A   1      47.331  30.294  27.661  1.00  0.00     0.049 A 
ATOM     70  H   UNL A   1      46.420  28.535  26.935  1.00  0.00     0.167 HD
ATOM     71  C   UNL A   1      44.955  30.513  28.340  1.00  0.00     0.074 A 
ATOM     72  C   UNL A   1      43.864  31.201  28.995  1.00  0.00     0.031 C 
ATOM     73  C   UNL A   1      46.230  30.974  28.296  1.00  0.00     0.037 A 
BRANCH  60  74
ATOM     74  C   UNL A   1      50.147  27.216  25.333  1.00  0.00     0.064 A 
ATOM     75  C   UNL A   1      51.133  26.711  26.195  1.00  0.00     0.173 A 
ATOM     76  C   UNL A   1      50.506  27.469  24.001  1.00  0.00     0.173 A 
ATOM     77  F   UNL A   1      50.848  26.472  27.484  1.00  0.00    -0.203 F 
ATOM     78  C   UNL A   1      52.435  26.503  25.747  1.00  0.00     0.198 A 
ATOM     79  C   UNL A   1      51.799  27.226  23.549  1.00  0.00     0.198 A 
ATOM     80  F   UNL A   1      49.602  27.953  23.138  1.00  0.00    -0.203 F 
ATOM     81  F   UNL A   1      53.376  26.079  26.601  1.00  0.00    -0.200 F 
ATOM     82  C   UNL A   1      52.766  26.753  24.424  1.00  0.00     0.200 A 
ATOM     83  F   UNL A   1      52.113  27.459  22.266  1.00  0.00    -0.200 F 
ATOM     84  F   UNL A   1      54.019  26.550  23.993  1.00  0.00    -0.200 F 
ENDBRANCH  60  74
BRANCH  61  85
ATOM     85  C   UNL A   1      40.684  28.526  28.257  1.00  0.00     0.064 A 
ATOM     86  C   UNL A   1      40.298  28.111  29.540  1.00  0.00     0.173 A 
ATOM     87  C   UNL A   1      39.696  29.089  27.433  1.00  0.00     0.173 A 
ATOM     88  F   UNL A   1      41.193  27.532  30.353  1.00  0.00    -0.203 F 
ATOM     89  C   UNL A   1      38.977  28.233  29.972  1.00  0.00     0.198 A 
ATOM     90  C   UNL A   1      38.383  29.240  27.879  1.00  0.00     0.198 A 
ATOM     91  F   UNL A   1      40.004  29.489  26.191  1.00  0.00    -0.203 F 
ATOM     92  F   UNL A   1      38.625  27.773  31.180  1.00  0.00    -0.200 F 
ATOM     93  C   UNL A   1      38.023  28.803  29.143  1.00  0.00     0.200 A 
ATOM     94  F   UNL A   1      37.465  29.795  27.076  1.00  0.00    -0.200 F 
ATOM     95  F   UNL A   1      36.754  28.919  29.559  1.00  0.00    -0.200 F 
ENDBRANCH  61  85
BRANCH  73  96
ATOM     96  C   UNL A   1      46.512  32.311  28.924  1.00  0.00     0.064 A 
ATOM     97  C   UNL A   1      46.342  33.512  28.219  1.00  0.00     0.173 A 
ATOM     98  C   UNL A   1      46.904  32.390  30.270  1.00  0.00     0.173 A 
ATOM     99  F   UNL A   1      45.980  33.493  26.929  1.00  0.00    -0.203 F 
ATOM    100  C   UNL A   1      46.578  34.740  28.832  1.00  0.00     0.198 A 
ATOM    101  C   UNL A   1      47.106  33.621  30.888  1.00  0.00     0.198 A 
ATOM    102  F   UNL A   1      47.071  31.272  30.993  1.00  0.00    -0.203 F 
ATOM    103  F   UNL A   1      46.455  35.873  28.127  1.00  0.00    -0.200 F 
ATOM    104  C   UNL A   1      46.952  34.794  30.167  1.00  0.00     0.200 A 
ATOM    105  F   UNL A   1      47.448  33.670  32.183  1.00  0.00    -0.200 F 
ATOM    106  F   UNL A   1      47.167  35.978  30.758  1.00  0.00    -0.200 F 
ENDBRANCH  73  96
ENDBRANCH  47  48
ENDBRANCH  40  42
ENDBRANCH  39  40
ENDBRANCH  38  39
ENDBRANCH  37  38
ENDBRANCH  36  37
ENDBRANCH  35  36
ENDBRANCH   1  35
TORSDOF 21
ENDMDL
