MODEL 1
REMARK VINA RESULT:      -8.3      0.000      0.000
REMARK SMILES CSCC[C@H](C(=O)OCCOCCOCCOC(=O)c1ccc(-c2c3nc(c(-c4c(F)c(F)c(F)c(F)c4F)c4ccc([nH]4)c(-c4c(F)c(F)c(F)c(F)c4F)c4nc(c(-c5c(F)c(F)c(F)c(F)c5F)c5ccc2[nH]5)C=C4)C=C3)cc1)N1C(=O)/C(=C/c2cn(C)c3ccccc23)SC1=S
REMARK SMILES IDX 12 1 11 2 10 3 9 4 8 5 6 6 7 7 5 8 4 9 3 10 2 11 1 12 83 13
REMARK SMILES IDX 84 14 99 15 85 16 86 17 98 18 100 19 87 20 88 21 89 22 97 23
REMARK SMILES IDX 90 24 92 25 96 26 91 27 93 28 95 29 94 30 13 31 14 32 15 33
REMARK SMILES IDX 16 34 17 35 18 36 19 37 20 38 21 39 82 40 22 41 81 42 23 43
REMARK SMILES IDX 24 44 25 45 75 46 26 47 80 48 74 49 76 50 27 51 79 52 73 53
REMARK SMILES IDX 72 54 28 56 60 57 40 58 59 59 41 60 44 61 58 62 77 63 42 64
REMARK SMILES IDX 43 65 57 67 78 68 45 69 29 70 30 71 38 72 31 73 32 74 36 75
REMARK SMILES IDX 39 76 33 77 34 78 37 79 35 80 61 81 62 82 70 83 63 84 64 85
REMARK SMILES IDX 68 86 71 87 65 88 66 89 69 90 67 91 46 92 47 93 55 94 48 95
REMARK SMILES IDX 49 96 53 97 56 98 50 99 51 100 54 101 52 102
REMARK H PARENT 76 55 44 66
REMARK Flexibility Score: inf
ROOT
ATOM      1  C   UNL A   1      34.364  32.153  28.114  1.00  0.00     0.188 C 
ENDROOT
BRANCH   1   2
ATOM      2  O   UNL A   1      34.862  30.893  28.512  1.00  0.00    -0.376 OA
BRANCH   2   3
ATOM      3  C   UNL A   1      36.289  30.839  28.604  1.00  0.00     0.202 C 
BRANCH   3   4
ATOM      4  C   UNL A   1      36.961  29.490  28.294  1.00  0.00     0.261 C 
BRANCH   4   5
ATOM      5  O   UNL A   1      38.336  29.287  28.699  1.00  0.00    -0.462 OA
BRANCH   5   6
ATOM      6  C   UNL A   1      39.253  28.479  28.083  1.00  0.00     0.329 C 
ATOM      7  O   UNL A   1      39.761  28.723  26.997  1.00  0.00    -0.250 OA
BRANCH   6   8
ATOM      8  C   UNL A   1      39.788  27.404  29.149  1.00  0.00     0.202 C 
BRANCH   8   9
ATOM      9  C   UNL A   1      38.711  27.301  30.321  1.00  0.00     0.048 C 
BRANCH   9  10
ATOM     10  C   UNL A   1      39.102  28.063  31.609  1.00  0.00     0.072 C 
BRANCH  10  11
ATOM     11  S   UNL A   1      40.788  28.779  31.545  1.00  0.00    -0.165 SA
ATOM     12  C   UNL A   1      40.389  30.544  31.480  1.00  0.00     0.085 C 
ENDBRANCH  10  11
ENDBRANCH   9  10
ENDBRANCH   8   9
BRANCH   8  13
ATOM     13  N   UNL A   1      40.409  25.880  28.491  1.00  0.00    -0.278 N 
ATOM     14  C   UNL A   1      41.677  26.197  28.584  1.00  0.00     0.266 C 
ATOM     15  C   UNL A   1      39.590  24.488  27.290  1.00  0.00     0.149 C 
ATOM     16  O   UNL A   1      42.428  27.107  28.762  1.00  0.00    -0.268 OA
ATOM     17  C   UNL A   1      41.604  24.831  28.507  1.00  0.00     0.081 C 
ATOM     18  S   UNL A   1      40.466  23.367  26.845  1.00  0.00    -0.054 SA
ATOM     19  S   UNL A   1      37.913  24.138  26.312  1.00  0.00    -0.052 S 
ATOM     20  C   UNL A   1      42.904  24.530  29.025  1.00  0.00     0.031 C 
BRANCH  20  21
ATOM     21  C   UNL A   1      43.370  23.387  28.377  1.00  0.00     0.001 A 
ATOM     22  C   UNL A   1      44.201  23.420  27.248  1.00  0.00     0.094 A 
ATOM     23  C   UNL A   1      44.260  23.222  29.464  1.00  0.00     0.007 A 
ATOM     24  N   UNL A   1      45.337  24.242  27.448  1.00  0.00    -0.350 N 
ATOM     25  C   UNL A   1      45.218  24.792  28.732  1.00  0.00     0.048 A 
ATOM     26  C   UNL A   1      44.133  23.442  31.451  1.00  0.00     0.011 A 
ATOM     27  C   UNL A   1      46.625  23.876  26.871  1.00  0.00     0.149 C 
ATOM     28  C   UNL A   1      45.787  26.245  29.897  1.00  0.00     0.027 A 
ATOM     29  C   UNL A   1      44.837  24.826  32.661  1.00  0.00     0.001 A 
ATOM     30  C   UNL A   1      45.741  26.438  31.862  1.00  0.00     0.002 A 
ENDBRANCH  20  21
ENDBRANCH   8  13
ENDBRANCH   6   8
ENDBRANCH   5   6
ENDBRANCH   4   5
ENDBRANCH   3   4
ENDBRANCH   2   3
ENDBRANCH   1   2
BRANCH   1  31
ATOM     31  C   UNL A   1      34.355  33.243  29.155  1.00  0.00     0.188 C 
BRANCH  31  32
ATOM     32  O   UNL A   1      34.062  32.879  30.493  1.00  0.00    -0.376 OA
BRANCH  32  33
ATOM     33  C   UNL A   1      35.072  33.157  31.459  1.00  0.00     0.202 C 
BRANCH  33  34
ATOM     34  C   UNL A   1      36.196  34.130  31.052  1.00  0.00     0.261 C 
BRANCH  34  35
ATOM     35  O   UNL A   1      37.533  33.611  31.123  1.00  0.00    -0.460 OA
BRANCH  35  36
ATOM     36  C   UNL A   1      38.412  34.367  31.837  1.00  0.00     0.338 C 
ATOM     37  O   UNL A   1      38.285  34.769  32.980  1.00  0.00    -0.246 OA
BRANCH  36  38
ATOM     38  C   UNL A   1      39.692  34.432  31.089  1.00  0.00     0.060 A 
ATOM     39  C   UNL A   1      40.894  34.213  31.788  1.00  0.00     0.016 A 
ATOM     40  C   UNL A   1      39.708  34.663  29.715  1.00  0.00     0.016 A 
ATOM     41  C   UNL A   1      42.115  34.243  31.116  1.00  0.00     0.010 A 
ATOM     42  C   UNL A   1      40.933  34.738  29.051  1.00  0.00     0.010 A 
ATOM     43  C   UNL A   1      42.140  34.560  29.755  1.00  0.00    -0.014 A 
BRANCH  43  44
ATOM     44  C   UNL A   1      43.411  34.983  29.123  1.00  0.00     0.031 A 
ATOM     45  C   UNL A   1      44.396  33.904  28.770  1.00  0.00     0.074 A 
ATOM     46  C   UNL A   1      43.691  36.274  28.875  1.00  0.00     0.049 A 
ATOM     47  N   UNL A   1      45.626  34.000  28.339  1.00  0.00    -0.248 NA
ATOM     48  C   UNL A   1      43.922  32.518  28.934  1.00  0.00     0.031 C 
ATOM     49  C   UNL A   1      42.792  37.399  29.108  1.00  0.00     0.029 A 
ATOM     50  N   UNL A   1      44.837  36.850  28.384  1.00  0.00    -0.354 N 
ATOM     51  C   UNL A   1      46.075  32.693  28.199  1.00  0.00     0.074 A 
ATOM     52  C   UNL A   1      44.999  31.821  28.613  1.00  0.00     0.031 C 
ATOM     53  C   UNL A   1      43.430  38.539  28.785  1.00  0.00     0.029 A 
ATOM     54  C   UNL A   1      44.795  38.223  28.367  1.00  0.00     0.049 A 
ATOM     55  H   UNL A   1      45.614  36.330  28.075  1.00  0.00     0.167 HD
ATOM     56  C   UNL A   1      47.279  32.260  27.759  1.00  0.00     0.037 A 
ATOM     57  C   UNL A   1      45.767  39.112  28.081  1.00  0.00     0.037 A 
ATOM     58  C   UNL A   1      48.346  33.135  27.359  1.00  0.00     0.049 A 
ATOM     59  C   UNL A   1      47.136  38.607  27.691  1.00  0.00     0.074 A 
ATOM     60  C   UNL A   1      49.607  32.803  26.897  1.00  0.00     0.029 A 
ATOM     61  N   UNL A   1      48.279  34.520  27.385  1.00  0.00    -0.354 N 
ATOM     62  N   UNL A   1      47.558  37.372  27.551  1.00  0.00    -0.248 NA
ATOM     63  C   UNL A   1      48.164  39.621  27.416  1.00  0.00     0.031 C 
ATOM     64  C   UNL A   1      50.322  33.988  26.700  1.00  0.00     0.029 A 
ATOM     65  C   UNL A   1      49.484  35.059  26.970  1.00  0.00     0.049 A 
ATOM     66  H   UNL A   1      47.490  35.042  27.658  1.00  0.00     0.167 HD
ATOM     67  C   UNL A   1      48.882  37.463  27.139  1.00  0.00     0.074 A 
ATOM     68  C   UNL A   1      49.191  38.874  27.039  1.00  0.00     0.031 C 
ATOM     69  C   UNL A   1      49.765  36.469  26.863  1.00  0.00     0.037 A 
BRANCH  56  70
ATOM     70  C   UNL A   1      47.512  30.776  27.729  1.00  0.00     0.064 A 
ATOM     71  C   UNL A   1      48.198  30.114  28.759  1.00  0.00     0.173 A 
ATOM     72  C   UNL A   1      47.027  30.005  26.662  1.00  0.00     0.173 A 
ATOM     73  F   UNL A   1      48.701  30.806  29.791  1.00  0.00    -0.203 F 
ATOM     74  C   UNL A   1      48.415  28.738  28.706  1.00  0.00     0.198 A 
ATOM     75  C   UNL A   1      47.215  28.626  26.630  1.00  0.00     0.198 A 
ATOM     76  F   UNL A   1      46.367  30.588  25.650  1.00  0.00    -0.203 F 
ATOM     77  F   UNL A   1      49.121  28.136  29.672  1.00  0.00    -0.200 F 
ATOM     78  C   UNL A   1      47.916  27.996  27.647  1.00  0.00     0.200 A 
ATOM     79  F   UNL A   1      46.721  27.908  25.612  1.00  0.00    -0.200 F 
ATOM     80  F   UNL A   1      48.118  26.671  27.602  1.00  0.00    -0.200 F 
ENDBRANCH  56  70
BRANCH  57  81
ATOM     81  C   UNL A   1      45.496  40.573  28.171  1.00  0.00     0.064 A 
ATOM     82  C   UNL A   1      45.015  41.286  27.064  1.00  0.00     0.173 A 
ATOM     83  C   UNL A   1      45.743  41.292  29.349  1.00  0.00     0.173 A 
ATOM     84  F   UNL A   1      44.787  40.650  25.906  1.00  0.00    -0.203 F 
ATOM     85  C   UNL A   1      44.814  42.664  27.125  1.00  0.00     0.198 A 
ATOM     86  C   UNL A   1      45.510  42.664  29.420  1.00  0.00     0.198 A 
ATOM     87  F   UNL A   1      46.210  40.661  30.436  1.00  0.00    -0.203 F 
ATOM     88  F   UNL A   1      44.408  43.327  26.034  1.00  0.00    -0.200 F 
ATOM     89  C   UNL A   1      45.056  43.351  28.305  1.00  0.00     0.200 A 
ATOM     90  F   UNL A   1      45.738  43.323  30.565  1.00  0.00    -0.200 F 
ATOM     91  F   UNL A   1      44.864  44.676  28.362  1.00  0.00    -0.200 F 
ENDBRANCH  57  81
BRANCH  69  92
ATOM     92  C   UNL A   1      51.128  36.866  26.370  1.00  0.00     0.064 A 
ATOM     93  C   UNL A   1      52.171  37.193  27.248  1.00  0.00     0.173 A 
ATOM     94  C   UNL A   1      51.407  36.868  24.993  1.00  0.00     0.173 A 
ATOM     95  F   UNL A   1      51.956  37.216  28.572  1.00  0.00    -0.203 F 
ATOM     96  C   UNL A   1      53.433  37.537  26.767  1.00  0.00     0.198 A 
ATOM     97  C   UNL A   1      52.678  37.176  24.517  1.00  0.00     0.198 A 
ATOM     98  F   UNL A   1      50.449  36.553  24.108  1.00  0.00    -0.203 F 
ATOM     99  F   UNL A   1      54.398  37.897  27.623  1.00  0.00    -0.200 F 
ATOM    100  C   UNL A   1      53.687  37.518  25.404  1.00  0.00     0.200 A 
ATOM    101  F   UNL A   1      52.927  37.137  23.201  1.00  0.00    -0.200 F 
ATOM    102  F   UNL A   1      54.905  37.838  24.943  1.00  0.00    -0.200 F 
ENDBRANCH  69  92
ENDBRANCH  43  44
ENDBRANCH  36  38
ENDBRANCH  35  36
ENDBRANCH  34  35
ENDBRANCH  33  34
ENDBRANCH  32  33
ENDBRANCH  31  32
ENDBRANCH   1  31
TORSDOF 22
ENDMDL
MODEL 2
REMARK VINA RESULT:      -8.2      5.507     12.189
REMARK SMILES CSCC[C@H](C(=O)OCCOCCOCCOC(=O)c1ccc(-c2c3nc(c(-c4c(F)c(F)c(F)c(F)c4F)c4ccc([nH]4)c(-c4c(F)c(F)c(F)c(F)c4F)c4nc(c(-c5c(F)c(F)c(F)c(F)c5F)c5ccc2[nH]5)C=C4)C=C3)cc1)N1C(=O)/C(=C/c2cn(C)c3ccccc23)SC1=S
REMARK SMILES IDX 12 1 11 2 10 3 9 4 8 5 6 6 7 7 5 8 4 9 3 10 2 11 1 12 83 13
REMARK SMILES IDX 84 14 99 15 85 16 86 17 98 18 100 19 87 20 88 21 89 22 97 23
REMARK SMILES IDX 90 24 92 25 96 26 91 27 93 28 95 29 94 30 13 31 14 32 15 33
REMARK SMILES IDX 16 34 17 35 18 36 19 37 20 38 21 39 82 40 22 41 81 42 23 43
REMARK SMILES IDX 24 44 25 45 75 46 26 47 80 48 74 49 76 50 27 51 79 52 73 53
REMARK SMILES IDX 72 54 28 56 60 57 40 58 59 59 41 60 44 61 58 62 77 63 42 64
REMARK SMILES IDX 43 65 57 67 78 68 45 69 29 70 30 71 38 72 31 73 32 74 36 75
REMARK SMILES IDX 39 76 33 77 34 78 37 79 35 80 61 81 62 82 70 83 63 84 64 85
REMARK SMILES IDX 68 86 71 87 65 88 66 89 69 90 67 91 46 92 47 93 55 94 48 95
REMARK SMILES IDX 49 96 53 97 56 98 50 99 51 100 54 101 52 102
REMARK H PARENT 76 55 44 66
REMARK Flexibility Score: inf
ROOT
ATOM      1  C   UNL A   1      48.049  24.868  27.069  1.00  0.00     0.188 C 
ENDROOT
BRANCH   1   2
ATOM      2  O   UNL A   1      48.092  26.257  26.822  1.00  0.00    -0.376 OA
BRANCH   2   3
ATOM      3  C   UNL A   1      46.811  26.836  26.548  1.00  0.00     0.202 C 
BRANCH   3   4
ATOM      4  C   UNL A   1      46.728  28.372  26.518  1.00  0.00     0.261 C 
BRANCH   4   5
ATOM      5  O   UNL A   1      45.761  29.033  27.369  1.00  0.00    -0.462 OA
BRANCH   5   6
ATOM      6  C   UNL A   1      44.769  29.885  26.963  1.00  0.00     0.329 C 
ATOM      7  O   UNL A   1      43.923  29.599  26.126  1.00  0.00    -0.250 OA
BRANCH   6   8
ATOM      8  C   UNL A   1      44.696  31.116  27.989  1.00  0.00     0.202 C 
BRANCH   8   9
ATOM      9  C   UNL A   1      44.163  30.557  29.386  1.00  0.00     0.048 C 
BRANCH   9  10
ATOM     10  C   UNL A   1      43.638  31.651  30.346  1.00  0.00     0.072 C 
BRANCH  10  11
ATOM     11  S   UNL A   1      44.759  31.973  31.760  1.00  0.00    -0.165 SA
ATOM     12  C   UNL A   1      44.254  33.655  32.198  1.00  0.00     0.085 C 
ENDBRANCH  10  11
ENDBRANCH   9  10
ENDBRANCH   8   9
BRANCH   8  13
ATOM     13  N   UNL A   1      46.107  32.188  28.039  1.00  0.00    -0.278 N 
ATOM     14  C   UNL A   1      45.563  33.162  27.352  1.00  0.00     0.266 C 
ATOM     15  C   UNL A   1      48.071  31.834  28.298  1.00  0.00     0.149 C 
ATOM     16  O   UNL A   1      44.639  33.442  26.651  1.00  0.00    -0.268 OA
ATOM     17  C   UNL A   1      46.613  33.695  28.052  1.00  0.00     0.081 C 
ATOM     18  S   UNL A   1      48.998  32.994  28.168  1.00  0.00    -0.054 SA
ATOM     19  S   UNL A   1      49.309  30.321  28.561  1.00  0.00    -0.052 S 
ATOM     20  C   UNL A   1      46.225  35.072  27.980  1.00  0.00     0.031 C 
BRANCH  20  21
ATOM     21  C   UNL A   1      47.385  35.841  27.906  1.00  0.00     0.001 A 
ATOM     22  C   UNL A   1      47.837  36.452  26.728  1.00  0.00     0.094 A 
ATOM     23  C   UNL A   1      46.666  36.859  28.577  1.00  0.00     0.007 A 
ATOM     24  N   UNL A   1      46.823  37.221  26.105  1.00  0.00    -0.350 N 
ATOM     25  C   UNL A   1      45.666  37.070  26.882  1.00  0.00     0.048 A 
ATOM     26  C   UNL A   1      45.350  36.910  30.086  1.00  0.00     0.011 A 
ATOM     27  C   UNL A   1      47.153  38.469  25.428  1.00  0.00     0.149 C 
ATOM     28  C   UNL A   1      43.723  37.205  26.880  1.00  0.00     0.027 A 
ATOM     29  C   UNL A   1      43.403  37.200  30.114  1.00  0.00     0.001 A 
ATOM     30  C   UNL A   1      42.422  37.338  28.361  1.00  0.00     0.002 A 
ENDBRANCH  20  21
ENDBRANCH   8  13
ENDBRANCH   6   8
ENDBRANCH   5   6
ENDBRANCH   4   5
ENDBRANCH   3   4
ENDBRANCH   2   3
ENDBRANCH   1   2
BRANCH   1  31
ATOM     31  C   UNL A   1      46.740  24.169  26.806  1.00  0.00     0.188 C 
BRANCH  31  32
ATOM     32  O   UNL A   1      46.744  23.066  25.915  1.00  0.00    -0.376 OA
BRANCH  32  33
ATOM     33  C   UNL A   1      45.492  22.419  25.704  1.00  0.00     0.202 C 
BRANCH  33  34
ATOM     34  C   UNL A   1      44.720  22.765  24.416  1.00  0.00     0.261 C 
BRANCH  34  35
ATOM     35  O   UNL A   1      43.679  23.745  24.551  1.00  0.00    -0.460 OA
BRANCH  35  36
ATOM     36  C   UNL A   1      42.658  23.396  25.383  1.00  0.00     0.338 C 
ATOM     37  O   UNL A   1      42.016  22.361  25.373  1.00  0.00    -0.246 OA
BRANCH  36  38
ATOM     38  C   UNL A   1      42.595  24.383  26.489  1.00  0.00     0.060 A 
ATOM     39  C   UNL A   1      41.850  24.062  27.639  1.00  0.00     0.016 A 
ATOM     40  C   UNL A   1      43.291  25.588  26.414  1.00  0.00     0.016 A 
ATOM     41  C   UNL A   1      41.785  24.953  28.708  1.00  0.00     0.010 A 
ATOM     42  C   UNL A   1      43.189  26.500  27.466  1.00  0.00     0.010 A 
ATOM     43  C   UNL A   1      42.411  26.199  28.601  1.00  0.00    -0.014 A 
BRANCH  43  44
ATOM     44  C   UNL A   1      42.035  27.292  29.526  1.00  0.00     0.031 A 
ATOM     45  C   UNL A   1      42.850  27.442  30.781  1.00  0.00     0.074 A 
ATOM     46  C   UNL A   1      41.007  28.121  29.274  1.00  0.00     0.049 A 
ATOM     47  N   UNL A   1      42.658  28.215  31.817  1.00  0.00    -0.248 NA
ATOM     48  C   UNL A   1      44.048  26.590  30.878  1.00  0.00     0.031 C 
ATOM     49  C   UNL A   1      40.190  28.118  28.064  1.00  0.00     0.029 A 
ATOM     50  N   UNL A   1      40.467  29.119  30.047  1.00  0.00    -0.354 N 
ATOM     51  C   UNL A   1      43.698  27.929  32.692  1.00  0.00     0.074 A 
ATOM     52  C   UNL A   1      44.504  26.896  32.081  1.00  0.00     0.031 C 
ATOM     53  C   UNL A   1      39.231  29.054  28.187  1.00  0.00     0.029 A 
ATOM     54  C   UNL A   1      39.342  29.686  29.501  1.00  0.00     0.049 A 
ATOM     55  H   UNL A   1      40.848  29.399  30.911  1.00  0.00     0.167 HD
ATOM     56  C   UNL A   1      43.960  28.484  33.898  1.00  0.00     0.037 A 
ATOM     57  C   UNL A   1      38.487  30.586  30.027  1.00  0.00     0.037 A 
ATOM     58  C   UNL A   1      43.147  29.504  34.502  1.00  0.00     0.049 A 
ATOM     59  C   UNL A   1      38.741  31.117  31.418  1.00  0.00     0.074 A 
ATOM     60  C   UNL A   1      43.320  30.137  35.719  1.00  0.00     0.029 A 
ATOM     61  N   UNL A   1      41.997  30.033  33.933  1.00  0.00    -0.354 N 
ATOM     62  N   UNL A   1      39.728  30.853  32.241  1.00  0.00    -0.248 NA
ATOM     63  C   UNL A   1      37.761  32.074  31.951  1.00  0.00     0.031 C 
ATOM     64  C   UNL A   1      42.241  31.006  35.913  1.00  0.00     0.029 A 
ATOM     65  C   UNL A   1      41.436  30.967  34.785  1.00  0.00     0.049 A 
ATOM     66  H   UNL A   1      41.635  29.780  33.053  1.00  0.00     0.167 HD
ATOM     67  C   UNL A   1      39.508  31.636  33.369  1.00  0.00     0.074 A 
ATOM     68  C   UNL A   1      38.300  32.394  33.119  1.00  0.00     0.031 C 
ATOM     69  C   UNL A   1      40.239  31.724  34.509  1.00  0.00     0.037 A 
BRANCH  56  70
ATOM     70  C   UNL A   1      45.150  27.968  34.654  1.00  0.00     0.064 A 
ATOM     71  C   UNL A   1      45.040  26.917  35.579  1.00  0.00     0.173 A 
ATOM     72  C   UNL A   1      46.421  28.521  34.439  1.00  0.00     0.173 A 
ATOM     73  F   UNL A   1      43.844  26.367  35.839  1.00  0.00    -0.203 F 
ATOM     74  C   UNL A   1      46.154  26.461  36.280  1.00  0.00     0.198 A 
ATOM     75  C   UNL A   1      47.537  28.039  35.116  1.00  0.00     0.198 A 
ATOM     76  F   UNL A   1      46.581  29.529  33.568  1.00  0.00    -0.203 F 
ATOM     77  F   UNL A   1      46.015  25.495  37.199  1.00  0.00    -0.200 F 
ATOM     78  C   UNL A   1      47.402  27.015  36.041  1.00  0.00     0.200 A 
ATOM     79  F   UNL A   1      48.745  28.568  34.874  1.00  0.00    -0.200 F 
ATOM     80  F   UNL A   1      48.474  26.569  36.710  1.00  0.00    -0.200 F 
ENDBRANCH  56  70
BRANCH  57  81
ATOM     81  C   UNL A   1      37.297  31.030  29.252  1.00  0.00     0.064 A 
ATOM     82  C   UNL A   1      37.210  32.336  28.751  1.00  0.00     0.173 A 
ATOM     83  C   UNL A   1      36.209  30.174  29.026  1.00  0.00     0.173 A 
ATOM     84  F   UNL A   1      38.212  33.202  28.962  1.00  0.00    -0.203 F 
ATOM     85  C   UNL A   1      36.074  32.776  28.073  1.00  0.00     0.198 A 
ATOM     86  C   UNL A   1      35.087  30.604  28.320  1.00  0.00     0.198 A 
ATOM     87  F   UNL A   1      36.237  28.916  29.489  1.00  0.00    -0.203 F 
ATOM     88  F   UNL A   1      35.996  34.047  27.656  1.00  0.00    -0.200 F 
ATOM     89  C   UNL A   1      35.015  31.907  27.853  1.00  0.00     0.200 A 
ATOM     90  F   UNL A   1      34.070  29.759  28.102  1.00  0.00    -0.200 F 
ATOM     91  F   UNL A   1      33.922  32.332  27.204  1.00  0.00    -0.200 F 
ENDBRANCH  57  81
BRANCH  69  92
ATOM     92  C   UNL A   1      39.793  32.714  35.548  1.00  0.00     0.064 A 
ATOM     93  C   UNL A   1      38.899  32.367  36.570  1.00  0.00     0.173 A 
ATOM     94  C   UNL A   1      40.313  34.019  35.547  1.00  0.00     0.173 A 
ATOM     95  F   UNL A   1      38.365  31.137  36.612  1.00  0.00    -0.203 F 
ATOM     96  C   UNL A   1      38.517  33.297  37.535  1.00  0.00     0.198 A 
ATOM     97  C   UNL A   1      39.959  34.934  36.534  1.00  0.00     0.198 A 
ATOM     98  F   UNL A   1      41.181  34.401  34.598  1.00  0.00    -0.203 F 
ATOM     99  F   UNL A   1      37.621  32.958  38.471  1.00  0.00    -0.200 F 
ATOM    100  C   UNL A   1      39.054  34.576  37.522  1.00  0.00     0.200 A 
ATOM    101  F   UNL A   1      40.495  36.162  36.530  1.00  0.00    -0.200 F 
ATOM    102  F   UNL A   1      38.695  35.465  38.457  1.00  0.00    -0.200 F 
ENDBRANCH  69  92
ENDBRANCH  43  44
ENDBRANCH  36  38
ENDBRANCH  35  36
ENDBRANCH  34  35
ENDBRANCH  33  34
ENDBRANCH  32  33
ENDBRANCH  31  32
ENDBRANCH   1  31
TORSDOF 22
ENDMDL
MODEL 3
REMARK VINA RESULT:      -7.6      6.039     12.223
REMARK SMILES CSCC[C@H](C(=O)OCCOCCOCCOC(=O)c1ccc(-c2c3nc(c(-c4c(F)c(F)c(F)c(F)c4F)c4ccc([nH]4)c(-c4c(F)c(F)c(F)c(F)c4F)c4nc(c(-c5c(F)c(F)c(F)c(F)c5F)c5ccc2[nH]5)C=C4)C=C3)cc1)N1C(=O)/C(=C/c2cn(C)c3ccccc23)SC1=S
REMARK SMILES IDX 12 1 11 2 10 3 9 4 8 5 6 6 7 7 5 8 4 9 3 10 2 11 1 12 83 13
REMARK SMILES IDX 84 14 99 15 85 16 86 17 98 18 100 19 87 20 88 21 89 22 97 23
REMARK SMILES IDX 90 24 92 25 96 26 91 27 93 28 95 29 94 30 13 31 14 32 15 33
REMARK SMILES IDX 16 34 17 35 18 36 19 37 20 38 21 39 82 40 22 41 81 42 23 43
REMARK SMILES IDX 24 44 25 45 75 46 26 47 80 48 74 49 76 50 27 51 79 52 73 53
REMARK SMILES IDX 72 54 28 56 60 57 40 58 59 59 41 60 44 61 58 62 77 63 42 64
REMARK SMILES IDX 43 65 57 67 78 68 45 69 29 70 30 71 38 72 31 73 32 74 36 75
REMARK SMILES IDX 39 76 33 77 34 78 37 79 35 80 61 81 62 82 70 83 63 84 64 85
REMARK SMILES IDX 68 86 71 87 65 88 66 89 69 90 67 91 46 92 47 93 55 94 48 95
REMARK SMILES IDX 49 96 53 97 56 98 50 99 51 100 54 101 52 102
REMARK H PARENT 76 55 44 66
REMARK Flexibility Score: inf
ROOT
ATOM      1  C   UNL A   1      48.983  32.494  32.933  1.00  0.00     0.188 C 
ENDROOT
BRANCH   1   2
ATOM      2  O   UNL A   1      48.874  31.639  31.816  1.00  0.00    -0.376 OA
BRANCH   2   3
ATOM      3  C   UNL A   1      47.714  30.800  31.841  1.00  0.00     0.202 C 
BRANCH   3   4
ATOM      4  C   UNL A   1      47.458  29.995  33.126  1.00  0.00     0.261 C 
BRANCH   4   5
ATOM      5  O   UNL A   1      48.459  29.044  33.564  1.00  0.00    -0.462 OA
BRANCH   5   6
ATOM      6  C   UNL A   1      48.985  28.020  32.822  1.00  0.00     0.329 C 
ATOM      7  O   UNL A   1      50.163  27.941  32.505  1.00  0.00    -0.250 OA
BRANCH   6   8
ATOM      8  C   UNL A   1      47.914  26.826  32.766  1.00  0.00     0.202 C 
BRANCH   8   9
ATOM      9  C   UNL A   1      47.518  26.597  31.237  1.00  0.00     0.048 C 
BRANCH   9  10
ATOM     10  C   UNL A   1      46.034  26.219  31.018  1.00  0.00     0.072 C 
BRANCH  10  11
ATOM     11  S   UNL A   1      44.920  26.870  32.320  1.00  0.00    -0.165 SA
ATOM     12  C   UNL A   1      43.455  27.257  31.329  1.00  0.00     0.085 C 
ENDBRANCH  10  11
ENDBRANCH   9  10
ENDBRANCH   8   9
BRANCH   8  13
ATOM     13  N   UNL A   1      48.290  25.382  33.723  1.00  0.00    -0.278 N 
ATOM     14  C   UNL A   1      47.625  25.749  34.791  1.00  0.00     0.266 C 
ATOM     15  C   UNL A   1      49.789  24.043  33.627  1.00  0.00     0.149 C 
ATOM     16  O   UNL A   1      47.090  26.677  35.316  1.00  0.00    -0.268 OA
ATOM     17  C   UNL A   1      47.786  24.390  34.859  1.00  0.00     0.081 C 
ATOM     18  S   UNL A   1      49.843  22.998  34.689  1.00  0.00    -0.054 SA
ATOM     19  S   UNL A   1      51.430  23.687  32.590  1.00  0.00    -0.052 S 
ATOM     20  C   UNL A   1      46.754  24.113  35.811  1.00  0.00     0.031 C 
BRANCH  20  21
ATOM     21  C   UNL A   1      47.174  23.042  36.599  1.00  0.00     0.001 A 
ATOM     22  C   UNL A   1      47.304  23.109  37.993  1.00  0.00     0.094 A 
ATOM     23  C   UNL A   1      45.891  22.481  36.392  1.00  0.00     0.007 A 
ATOM     24  N   UNL A   1      46.132  23.608  38.614  1.00  0.00    -0.350 N 
ATOM     25  C   UNL A   1      45.230  23.915  37.586  1.00  0.00     0.048 A 
ATOM     26  C   UNL A   1      44.637  22.338  34.837  1.00  0.00     0.011 A 
ATOM     27  C   UNL A   1      45.701  23.088  39.905  1.00  0.00     0.149 C 
ATOM     28  C   UNL A   1      43.655  24.958  37.114  1.00  0.00     0.027 A 
ATOM     29  C   UNL A   1      42.957  23.277  34.422  1.00  0.00     0.001 A 
ATOM     30  C   UNL A   1      42.364  24.776  35.629  1.00  0.00     0.002 A 
ENDBRANCH  20  21
ENDBRANCH   8  13
ENDBRANCH   6   8
ENDBRANCH   5   6
ENDBRANCH   4   5
ENDBRANCH   3   4
ENDBRANCH   2   3
ENDBRANCH   1   2
BRANCH   1  31
ATOM     31  C   UNL A   1      49.875  33.700  32.785  1.00  0.00     0.188 C 
BRANCH  31  32
ATOM     32  O   UNL A   1      50.587  33.852  31.568  1.00  0.00    -0.376 OA
BRANCH  32  33
ATOM     33  C   UNL A   1      50.692  35.179  31.060  1.00  0.00     0.202 C 
BRANCH  33  34
ATOM     34  C   UNL A   1      49.545  35.692  30.168  1.00  0.00     0.261 C 
BRANCH  34  35
ATOM     35  O   UNL A   1      48.467  36.354  30.849  1.00  0.00    -0.460 OA
BRANCH  35  36
ATOM     36  C   UNL A   1      47.441  36.764  30.052  1.00  0.00     0.338 C 
ATOM     37  O   UNL A   1      47.325  37.838  29.490  1.00  0.00    -0.246 OA
BRANCH  36  38
ATOM     38  C   UNL A   1      46.576  35.594  29.760  1.00  0.00     0.060 A 
ATOM     39  C   UNL A   1      46.484  34.568  30.719  1.00  0.00     0.016 A 
ATOM     40  C   UNL A   1      45.836  35.526  28.581  1.00  0.00     0.016 A 
ATOM     41  C   UNL A   1      45.664  33.463  30.492  1.00  0.00     0.010 A 
ATOM     42  C   UNL A   1      45.052  34.399  28.334  1.00  0.00     0.010 A 
ATOM     43  C   UNL A   1      44.988  33.351  29.273  1.00  0.00    -0.014 A 
BRANCH  43  44
ATOM     44  C   UNL A   1      44.448  32.039  28.851  1.00  0.00     0.031 A 
ATOM     45  C   UNL A   1      43.073  31.673  29.338  1.00  0.00     0.074 A 
ATOM     46  C   UNL A   1      45.145  31.194  28.073  1.00  0.00     0.049 A 
ATOM     47  N   UNL A   1      42.421  30.545  29.237  1.00  0.00    -0.248 NA
ATOM     48  C   UNL A   1      42.336  32.734  30.047  1.00  0.00     0.031 C 
ATOM     49  C   UNL A   1      46.453  31.465  27.485  1.00  0.00     0.029 A 
ATOM     50  N   UNL A   1      44.844  29.919  27.661  1.00  0.00    -0.354 N 
ATOM     51  C   UNL A   1      41.209  30.756  29.882  1.00  0.00     0.074 A 
ATOM     52  C   UNL A   1      41.223  32.108  30.393  1.00  0.00     0.031 C 
ATOM     53  C   UNL A   1      46.858  30.375  26.807  1.00  0.00     0.029 A 
ATOM     54  C   UNL A   1      45.857  29.319  26.954  1.00  0.00     0.049 A 
ATOM     55  H   UNL A   1      43.986  29.477  27.856  1.00  0.00     0.167 HD
ATOM     56  C   UNL A   1      40.173  29.899  30.029  1.00  0.00     0.037 A 
ATOM     57  C   UNL A   1      45.967  28.049  26.515  1.00  0.00     0.037 A 
ATOM     58  C   UNL A   1      40.172  28.552  29.526  1.00  0.00     0.049 A 
ATOM     59  C   UNL A   1      44.842  27.078  26.780  1.00  0.00     0.074 A 
ATOM     60  C   UNL A   1      39.177  27.597  29.618  1.00  0.00     0.029 A 
ATOM     61  N   UNL A   1      41.228  27.968  28.841  1.00  0.00    -0.354 N 
ATOM     62  N   UNL A   1      43.694  27.280  27.382  1.00  0.00    -0.248 NA
ATOM     63  C   UNL A   1      45.029  25.700  26.301  1.00  0.00     0.031 C 
ATOM     64  C   UNL A   1      39.654  26.416  29.042  1.00  0.00     0.029 A 
ATOM     65  C   UNL A   1      40.919  26.657  28.527  1.00  0.00     0.049 A 
ATOM     66  H   UNL A   1      42.073  28.420  28.614  1.00  0.00     0.167 HD
ATOM     67  C   UNL A   1      43.010  26.071  27.322  1.00  0.00     0.074 A 
ATOM     68  C   UNL A   1      43.867  25.144  26.613  1.00  0.00     0.031 C 
ATOM     69  C   UNL A   1      41.782  25.754  27.805  1.00  0.00     0.037 A 
BRANCH  56  70
ATOM     70  C   UNL A   1      38.978  30.382  30.800  1.00  0.00     0.064 A 
ATOM     71  C   UNL A   1      38.891  30.245  32.194  1.00  0.00     0.173 A 
ATOM     72  C   UNL A   1      37.911  31.005  30.135  1.00  0.00     0.173 A 
ATOM     73  F   UNL A   1      39.873  29.637  32.876  1.00  0.00    -0.203 F 
ATOM     74  C   UNL A   1      37.768  30.688  32.889  1.00  0.00     0.198 A 
ATOM     75  C   UNL A   1      36.807  31.478  30.837  1.00  0.00     0.198 A 
ATOM     76  F   UNL A   1      37.942  31.159  28.802  1.00  0.00    -0.203 F 
ATOM     77  F   UNL A   1      37.683  30.496  34.212  1.00  0.00    -0.200 F 
ATOM     78  C   UNL A   1      36.732  31.312  32.211  1.00  0.00     0.200 A 
ATOM     79  F   UNL A   1      35.812  32.093  30.181  1.00  0.00    -0.200 F 
ATOM     80  F   UNL A   1      35.655  31.746  32.882  1.00  0.00    -0.200 F 
ENDBRANCH  56  70
BRANCH  57  81
ATOM     81  C   UNL A   1      47.194  27.610  25.795  1.00  0.00     0.064 A 
ATOM     82  C   UNL A   1      48.290  27.084  26.493  1.00  0.00     0.173 A 
ATOM     83  C   UNL A   1      47.311  27.737  24.403  1.00  0.00     0.173 A 
ATOM     84  F   UNL A   1      48.238  26.966  27.828  1.00  0.00    -0.203 F 
ATOM     85  C   UNL A   1      49.462  26.725  25.831  1.00  0.00     0.198 A 
ATOM     86  C   UNL A   1      48.472  27.347  23.738  1.00  0.00     0.198 A 
ATOM     87  F   UNL A   1      46.295  28.240  23.687  1.00  0.00    -0.203 F 
ATOM     88  F   UNL A   1      50.514  26.279  26.532  1.00  0.00    -0.200 F 
ATOM     89  C   UNL A   1      49.551  26.851  24.453  1.00  0.00     0.200 A 
ATOM     90  F   UNL A   1      48.549  27.462  22.405  1.00  0.00    -0.200 F 
ATOM     91  F   UNL A   1      50.679  26.506  23.818  1.00  0.00    -0.200 F 
ENDBRANCH  57  81
BRANCH  69  92
ATOM     92  C   UNL A   1      41.263  24.370  27.535  1.00  0.00     0.064 A 
ATOM     93  C   UNL A   1      41.787  23.240  28.179  1.00  0.00     0.173 A 
ATOM     94  C   UNL A   1      40.185  24.181  26.653  1.00  0.00     0.173 A 
ATOM     95  F   UNL A   1      42.822  23.364  29.023  1.00  0.00    -0.203 F 
ATOM     96  C   UNL A   1      41.274  21.969  27.928  1.00  0.00     0.198 A 
ATOM     97  C   UNL A   1      39.651  22.915  26.433  1.00  0.00     0.198 A 
ATOM     98  F   UNL A   1      39.638  25.229  26.019  1.00  0.00    -0.203 F 
ATOM     99  F   UNL A   1      41.826  20.899  28.514  1.00  0.00    -0.200 F 
ATOM    100  C   UNL A   1      40.201  21.809  27.063  1.00  0.00     0.200 A 
ATOM    101  F   UNL A   1      38.601  22.766  25.614  1.00  0.00    -0.200 F 
ATOM    102  F   UNL A   1      39.701  20.587  26.832  1.00  0.00    -0.200 F 
ENDBRANCH  69  92
ENDBRANCH  43  44
ENDBRANCH  36  38
ENDBRANCH  35  36
ENDBRANCH  34  35
ENDBRANCH  33  34
ENDBRANCH  32  33
ENDBRANCH  31  32
ENDBRANCH   1  31
TORSDOF 22
ENDMDL
