MODEL 1
REMARK VINA RESULT:     -11.2      0.000      0.000
REMARK SMILES CCc1cccc(-c2ccc([C@@H](C)C(=O)OCCOCCOCCOC(=O)c3ccc(-c4c5nc(c(-c6c(F)c(F)c(F)c(F)c6F)c6ccc([nH]6)c(-c6c(F)c(F)c(F)c(F)c6F)c6nc(c(-c7c(F)c(F)c(F)c(F)c7F)c7ccc4[nH]7)C=C6)C=C5)cc3)cc2)c1
REMARK SMILES IDX 20 1 19 2 18 3 17 4 16 5 14 6 15 7 12 8 13 9 11 10 8 11 9 12
REMARK SMILES IDX 92 13 10 14 91 15 7 16 3 17 4 18 93 19 5 20 6 21 2 22 1 23
REMARK SMILES IDX 21 24 22 25 23 26 24 27 25 28 26 29 27 30 28 31 29 32 90 33
REMARK SMILES IDX 30 34 89 35 31 36 32 37 33 38 83 39 34 40 88 41 82 42 84 43
REMARK SMILES IDX 35 44 87 45 81 46 80 47 36 49 68 50 48 51 67 52 49 53 52 54
REMARK SMILES IDX 66 55 85 56 50 57 51 58 65 60 86 61 53 62 37 63 38 64 46 65
REMARK SMILES IDX 39 66 40 67 44 68 47 69 41 70 42 71 45 72 43 73 69 74 70 75
REMARK SMILES IDX 78 76 71 77 72 78 76 79 79 80 73 81 74 82 77 83 75 84 54 85
REMARK SMILES IDX 55 86 63 87 56 88 57 89 61 90 64 91 58 92 59 93 62 94 60 95
REMARK H PARENT 84 48 52 59
REMARK Flexibility Score: inf
ROOT
ATOM      1  C   UNL A   1      34.070  37.333  32.460  1.00  0.00     0.188 C 
ENDROOT
BRANCH   1   2
ATOM      2  O   UNL A   1      32.946  37.470  31.599  1.00  0.00    -0.376 OA
BRANCH   2   3
ATOM      3  C   UNL A   1      32.885  36.699  30.405  1.00  0.00     0.202 C 
BRANCH   3   4
ATOM      4  C   UNL A   1      33.761  35.439  30.302  1.00  0.00     0.261 C 
BRANCH   4   5
ATOM      5  O   UNL A   1      33.080  34.225  29.907  1.00  0.00    -0.463 OA
BRANCH   5   6
ATOM      6  C   UNL A   1      33.268  33.812  28.628  1.00  0.00     0.313 C 
ATOM      7  O   UNL A   1      32.684  34.313  27.667  1.00  0.00    -0.252 OA
BRANCH   6   8
ATOM      8  C   UNL A   1      34.276  32.677  28.414  1.00  0.00     0.126 C 
ATOM      9  C   UNL A   1      35.514  33.248  27.727  1.00  0.00     0.025 C 
BRANCH   8  10
ATOM     10  C   UNL A   1      33.868  31.353  27.769  1.00  0.00    -0.034 A 
ATOM     11  C   UNL A   1      33.221  28.837  26.552  1.00  0.00    -0.018 A 
ATOM     12  C   UNL A   1      32.280  29.879  26.646  1.00  0.00     0.009 A 
ATOM     13  C   UNL A   1      34.494  29.075  27.083  1.00  0.00     0.009 A 
ATOM     14  C   UNL A   1      32.596  31.119  27.232  1.00  0.00     0.005 A 
ATOM     15  C   UNL A   1      34.814  30.310  27.673  1.00  0.00     0.005 A 
BRANCH  11  16
ATOM     16  C   UNL A   1      32.905  27.581  25.838  1.00  0.00    -0.018 A 
ATOM     17  C   UNL A   1      33.385  25.236  25.230  1.00  0.00    -0.048 A 
ATOM     18  C   UNL A   1      32.245  25.229  24.417  1.00  0.00     0.004 A 
ATOM     19  C   UNL A   1      33.699  26.421  25.940  1.00  0.00     0.012 A 
ATOM     20  C   UNL A   1      31.450  26.366  24.301  1.00  0.00     0.001 A 
ATOM     21  C   UNL A   1      31.778  27.527  25.002  1.00  0.00     0.009 A 
BRANCH  17  22
ATOM     22  C   UNL A   1      34.273  24.020  25.397  1.00  0.00     0.032 C 
ATOM     23  C   UNL A   1      35.598  24.021  24.633  1.00  0.00     0.009 C 
ENDBRANCH  17  22
ENDBRANCH  11  16
ENDBRANCH   8  10
ENDBRANCH   6   8
ENDBRANCH   5   6
ENDBRANCH   4   5
ENDBRANCH   3   4
ENDBRANCH   2   3
ENDBRANCH   1   2
BRANCH   1  24
ATOM     24  C   UNL A   1      33.906  36.631  33.817  1.00  0.00     0.188 C 
BRANCH  24  25
ATOM     25  O   UNL A   1      34.764  35.530  34.015  1.00  0.00    -0.376 OA
BRANCH  25  26
ATOM     26  C   UNL A   1      35.770  35.331  33.041  1.00  0.00     0.202 C 
BRANCH  26  27
ATOM     27  C   UNL A   1      36.744  34.191  33.369  1.00  0.00     0.261 C 
BRANCH  27  28
ATOM     28  O   UNL A   1      36.131  32.940  33.742  1.00  0.00    -0.460 OA
BRANCH  28  29
ATOM     29  C   UNL A   1      35.497  32.256  32.768  1.00  0.00     0.338 C 
ATOM     30  O   UNL A   1      34.338  32.406  32.396  1.00  0.00    -0.246 OA
BRANCH  29  31
ATOM     31  C   UNL A   1      36.489  31.420  32.057  1.00  0.00     0.060 A 
ATOM     32  C   UNL A   1      37.456  30.731  32.803  1.00  0.00     0.016 A 
ATOM     33  C   UNL A   1      36.488  31.340  30.663  1.00  0.00     0.016 A 
ATOM     34  C   UNL A   1      38.463  30.014  32.153  1.00  0.00     0.010 A 
ATOM     35  C   UNL A   1      37.506  30.635  30.012  1.00  0.00     0.010 A 
ATOM     36  C   UNL A   1      38.528  30.011  30.753  1.00  0.00    -0.014 A 
BRANCH  36  37
ATOM     37  C   UNL A   1      39.778  29.575  30.079  1.00  0.00     0.031 A 
ATOM     38  C   UNL A   1      40.894  30.577  29.934  1.00  0.00     0.074 A 
ATOM     39  C   UNL A   1      39.946  28.319  29.632  1.00  0.00     0.049 A 
ATOM     40  N   UNL A   1      42.063  30.451  29.358  1.00  0.00    -0.248 NA
ATOM     41  C   UNL A   1      40.651  31.905  30.516  1.00  0.00     0.031 C 
ATOM     42  C   UNL A   1      38.963  27.245  29.737  1.00  0.00     0.029 A 
ATOM     43  N   UNL A   1      41.013  27.741  28.986  1.00  0.00    -0.354 N 
ATOM     44  C   UNL A   1      42.689  31.683  29.506  1.00  0.00     0.074 A 
ATOM     45  C   UNL A   1      41.754  32.555  30.182  1.00  0.00     0.031 C 
ATOM     46  C   UNL A   1      39.465  26.140  29.157  1.00  0.00     0.029 A 
ATOM     47  C   UNL A   1      40.791  26.438  28.617  1.00  0.00     0.049 A 
ATOM     48  H   UNL A   1      41.856  28.217  28.806  1.00  0.00     0.167 HD
ATOM     49  C   UNL A   1      43.937  32.053  29.129  1.00  0.00     0.037 A 
ATOM     50  C   UNL A   1      41.563  25.592  27.904  1.00  0.00     0.037 A 
ATOM     51  C   UNL A   1      44.865  31.190  28.445  1.00  0.00     0.049 A 
ATOM     52  C   UNL A   1      42.923  26.043  27.432  1.00  0.00     0.074 A 
ATOM     53  C   UNL A   1      46.153  31.469  28.021  1.00  0.00     0.029 A 
ATOM     54  N   UNL A   1      44.596  29.881  28.073  1.00  0.00    -0.354 N 
ATOM     55  N   UNL A   1      43.519  27.200  27.595  1.00  0.00    -0.248 NA
ATOM     56  C   UNL A   1      43.724  25.062  26.685  1.00  0.00     0.031 C 
ATOM     57  C   UNL A   1      46.641  30.348  27.341  1.00  0.00     0.029 A 
ATOM     58  C   UNL A   1      45.687  29.345  27.404  1.00  0.00     0.049 A 
ATOM     59  H   UNL A   1      43.756  29.403  28.256  1.00  0.00     0.167 HD
ATOM     60  C   UNL A   1      44.770  27.077  27.003  1.00  0.00     0.074 A 
ATOM     61  C   UNL A   1      44.854  25.726  26.488  1.00  0.00     0.031 C 
ATOM     62  C   UNL A   1      45.762  27.997  26.898  1.00  0.00     0.037 A 
BRANCH  49  63
ATOM     63  C   UNL A   1      44.353  33.466  29.427  1.00  0.00     0.064 A 
ATOM     64  C   UNL A   1      45.005  33.810  30.623  1.00  0.00     0.173 A 
ATOM     65  C   UNL A   1      44.094  34.493  28.506  1.00  0.00     0.173 A 
ATOM     66  F   UNL A   1      45.262  32.870  31.546  1.00  0.00    -0.203 F 
ATOM     67  C   UNL A   1      45.341  35.132  30.903  1.00  0.00     0.198 A 
ATOM     68  C   UNL A   1      44.467  35.808  28.774  1.00  0.00     0.198 A 
ATOM     69  F   UNL A   1      43.478  34.222  27.346  1.00  0.00    -0.203 F 
ATOM     70  F   UNL A   1      45.899  35.444  32.081  1.00  0.00    -0.200 F 
ATOM     71  C   UNL A   1      45.077  36.128  29.976  1.00  0.00     0.200 A 
ATOM     72  F   UNL A   1      44.225  36.768  27.870  1.00  0.00    -0.200 F 
ATOM     73  F   UNL A   1      45.402  37.400  30.247  1.00  0.00    -0.200 F 
ENDBRANCH  49  63
BRANCH  50  74
ATOM     74  C   UNL A   1      41.059  24.231  27.580  1.00  0.00     0.064 A 
ATOM     75  C   UNL A   1      41.595  23.089  28.193  1.00  0.00     0.173 A 
ATOM     76  C   UNL A   1      40.034  24.044  26.639  1.00  0.00     0.173 A 
ATOM     77  F   UNL A   1      42.596  23.212  29.077  1.00  0.00    -0.203 F 
ATOM     78  C   UNL A   1      41.138  21.814  27.865  1.00  0.00     0.198 A 
ATOM     79  C   UNL A   1      39.556  22.771  26.336  1.00  0.00     0.198 A 
ATOM     80  F   UNL A   1      39.491  25.102  26.020  1.00  0.00    -0.203 F 
ATOM     81  F   UNL A   1      41.701  20.738  28.429  1.00  0.00    -0.200 F 
ATOM     82  C   UNL A   1      40.113  21.656  26.944  1.00  0.00     0.200 A 
ATOM     83  F   UNL A   1      38.558  22.625  25.453  1.00  0.00    -0.200 F 
ATOM     84  F   UNL A   1      39.669  20.430  26.635  1.00  0.00    -0.200 F 
ENDBRANCH  50  74
BRANCH  62  85
ATOM     85  C   UNL A   1      47.046  27.564  26.244  1.00  0.00     0.064 A 
ATOM     86  C   UNL A   1      48.114  27.028  26.979  1.00  0.00     0.173 A 
ATOM     87  C   UNL A   1      47.196  27.658  24.851  1.00  0.00     0.173 A 
ATOM     88  F   UNL A   1      48.028  26.923  28.315  1.00  0.00    -0.203 F 
ATOM     89  C   UNL A   1      49.296  26.641  26.351  1.00  0.00     0.198 A 
ATOM     90  C   UNL A   1      48.364  27.236  24.221  1.00  0.00     0.198 A 
ATOM     91  F   UNL A   1      46.203  28.152  24.094  1.00  0.00    -0.203 F 
ATOM     92  F   UNL A   1      50.325  26.190  27.082  1.00  0.00    -0.200 F 
ATOM     93  C   UNL A   1      49.417  26.739  24.973  1.00  0.00     0.200 A 
ATOM     94  F   UNL A   1      48.471  27.314  22.888  1.00  0.00    -0.200 F 
ATOM     95  F   UNL A   1      50.553  26.361  24.370  1.00  0.00    -0.200 F 
ENDBRANCH  62  85
ENDBRANCH  36  37
ENDBRANCH  29  31
ENDBRANCH  28  29
ENDBRANCH  27  28
ENDBRANCH  26  27
ENDBRANCH  25  26
ENDBRANCH  24  25
ENDBRANCH   1  24
TORSDOF 20
ENDMDL
MODEL 2
REMARK VINA RESULT:     -10.9      4.199      9.540
REMARK SMILES CCc1cccc(-c2ccc([C@@H](C)C(=O)OCCOCCOCCOC(=O)c3ccc(-c4c5nc(c(-c6c(F)c(F)c(F)c(F)c6F)c6ccc([nH]6)c(-c6c(F)c(F)c(F)c(F)c6F)c6nc(c(-c7c(F)c(F)c(F)c(F)c7F)c7ccc4[nH]7)C=C6)C=C5)cc3)cc2)c1
REMARK SMILES IDX 20 1 19 2 18 3 17 4 16 5 14 6 15 7 12 8 13 9 11 10 8 11 9 12
REMARK SMILES IDX 92 13 10 14 91 15 7 16 3 17 4 18 93 19 5 20 6 21 2 22 1 23
REMARK SMILES IDX 21 24 22 25 23 26 24 27 25 28 26 29 27 30 28 31 29 32 90 33
REMARK SMILES IDX 30 34 89 35 31 36 32 37 33 38 83 39 34 40 88 41 82 42 84 43
REMARK SMILES IDX 35 44 87 45 81 46 80 47 36 49 68 50 48 51 67 52 49 53 52 54
REMARK SMILES IDX 66 55 85 56 50 57 51 58 65 60 86 61 53 62 37 63 38 64 46 65
REMARK SMILES IDX 39 66 40 67 44 68 47 69 41 70 42 71 45 72 43 73 69 74 70 75
REMARK SMILES IDX 78 76 71 77 72 78 76 79 79 80 73 81 74 82 77 83 75 84 54 85
REMARK SMILES IDX 55 86 63 87 56 88 57 89 61 90 64 91 58 92 59 93 62 94 60 95
REMARK H PARENT 84 48 52 59
REMARK Flexibility Score: inf
ROOT
ATOM      1  C   UNL A   1      34.376  23.258  23.207  1.00  0.00     0.188 C 
ENDROOT
BRANCH   1   2
ATOM      2  O   UNL A   1      33.376  22.262  23.028  1.00  0.00    -0.376 OA
BRANCH   2   3
ATOM      3  C   UNL A   1      32.550  21.898  24.127  1.00  0.00     0.202 C 
BRANCH   3   4
ATOM      4  C   UNL A   1      31.618  22.965  24.726  1.00  0.00     0.261 C 
BRANCH   4   5
ATOM      5  O   UNL A   1      30.607  23.494  23.835  1.00  0.00    -0.463 OA
BRANCH   5   6
ATOM      6  C   UNL A   1      30.714  24.806  23.506  1.00  0.00     0.313 C 
ATOM      7  O   UNL A   1      31.227  25.197  22.456  1.00  0.00    -0.252 OA
BRANCH   6   8
ATOM      8  C   UNL A   1      30.141  25.814  24.508  1.00  0.00     0.126 C 
ATOM      9  C   UNL A   1      28.928  26.494  23.877  1.00  0.00     0.025 C 
BRANCH   8  10
ATOM     10  C   UNL A   1      31.029  26.845  25.206  1.00  0.00    -0.034 A 
ATOM     11  C   UNL A   1      32.675  28.855  26.421  1.00  0.00    -0.018 A 
ATOM     12  C   UNL A   1      32.676  27.522  26.874  1.00  0.00     0.009 A 
ATOM     13  C   UNL A   1      31.830  29.166  25.350  1.00  0.00     0.009 A 
ATOM     14  C   UNL A   1      31.878  26.531  26.273  1.00  0.00     0.005 A 
ATOM     15  C   UNL A   1      31.028  28.180  24.749  1.00  0.00     0.005 A 
BRANCH  11  16
ATOM     16  C   UNL A   1      33.598  29.859  26.994  1.00  0.00    -0.018 A 
ATOM     17  C   UNL A   1      34.126  32.140  27.779  1.00  0.00    -0.048 A 
ATOM     18  C   UNL A   1      35.432  31.724  28.063  1.00  0.00     0.004 A 
ATOM     19  C   UNL A   1      33.217  31.192  27.249  1.00  0.00     0.012 A 
ATOM     20  C   UNL A   1      35.828  30.412  27.815  1.00  0.00     0.001 A 
ATOM     21  C   UNL A   1      34.922  29.493  27.285  1.00  0.00     0.009 A 
BRANCH  17  22
ATOM     22  C   UNL A   1      33.646  33.553  28.045  1.00  0.00     0.032 C 
ATOM     23  C   UNL A   1      34.721  34.632  28.189  1.00  0.00     0.009 C 
ENDBRANCH  17  22
ENDBRANCH  11  16
ENDBRANCH   8  10
ENDBRANCH   6   8
ENDBRANCH   5   6
ENDBRANCH   4   5
ENDBRANCH   3   4
ENDBRANCH   2   3
ENDBRANCH   1   2
BRANCH   1  24
ATOM     24  C   UNL A   1      35.807  22.840  23.579  1.00  0.00     0.188 C 
BRANCH  24  25
ATOM     25  O   UNL A   1      35.945  22.310  24.879  1.00  0.00    -0.376 OA
BRANCH  25  26
ATOM     26  C   UNL A   1      36.196  20.921  24.970  1.00  0.00     0.202 C 
BRANCH  26  27
ATOM     27  C   UNL A   1      37.679  20.562  25.139  1.00  0.00     0.261 C 
BRANCH  27  28
ATOM     28  O   UNL A   1      38.563  21.676  25.376  1.00  0.00    -0.460 OA
BRANCH  28  29
ATOM     29  C   UNL A   1      39.594  21.468  26.220  1.00  0.00     0.338 C 
ATOM     30  O   UNL A   1      40.271  20.451  26.321  1.00  0.00    -0.246 OA
BRANCH  29  31
ATOM     31  C   UNL A   1      39.931  22.750  26.877  1.00  0.00     0.060 A 
ATOM     32  C   UNL A   1      39.236  23.909  26.501  1.00  0.00     0.016 A 
ATOM     33  C   UNL A   1      40.945  22.818  27.835  1.00  0.00     0.016 A 
ATOM     34  C   UNL A   1      39.599  25.148  27.033  1.00  0.00     0.010 A 
ATOM     35  C   UNL A   1      41.318  24.061  28.356  1.00  0.00     0.010 A 
ATOM     36  C   UNL A   1      40.681  25.239  27.919  1.00  0.00    -0.014 A 
BRANCH  36  37
ATOM     37  C   UNL A   1      41.296  26.564  28.191  1.00  0.00     0.031 A 
ATOM     38  C   UNL A   1      42.697  26.812  27.697  1.00  0.00     0.074 A 
ATOM     39  C   UNL A   1      40.629  27.542  28.828  1.00  0.00     0.049 A 
ATOM     40  N   UNL A   1      43.460  27.868  27.837  1.00  0.00    -0.248 NA
ATOM     41  C   UNL A   1      43.323  25.714  26.947  1.00  0.00     0.031 C 
ATOM     42  C   UNL A   1      39.261  27.446  29.328  1.00  0.00     0.029 A 
ATOM     43  N   UNL A   1      41.028  28.811  29.172  1.00  0.00    -0.354 N 
ATOM     44  C   UNL A   1      44.653  27.556  27.196  1.00  0.00     0.074 A 
ATOM     45  C   UNL A   1      44.531  26.199  26.711  1.00  0.00     0.031 C 
ATOM     46  C   UNL A   1      38.939  28.603  29.934  1.00  0.00     0.029 A 
ATOM     47  C   UNL A   1      40.087  29.508  29.887  1.00  0.00     0.049 A 
ATOM     48  H   UNL A   1      41.906  29.184  28.928  1.00  0.00     0.167 HD
ATOM     49  C   UNL A   1      45.747  28.334  27.012  1.00  0.00     0.037 A 
ATOM     50  C   UNL A   1      40.156  30.728  30.458  1.00  0.00     0.037 A 
ATOM     51  C   UNL A   1      45.876  29.679  27.506  1.00  0.00     0.049 A 
ATOM     52  C   UNL A   1      41.409  31.554  30.302  1.00  0.00     0.074 A 
ATOM     53  C   UNL A   1      46.942  30.552  27.372  1.00  0.00     0.029 A 
ATOM     54  N   UNL A   1      44.906  30.345  28.241  1.00  0.00    -0.354 N 
ATOM     55  N   UNL A   1      42.524  31.264  29.675  1.00  0.00    -0.248 NA
ATOM     56  C   UNL A   1      41.406  32.887  30.924  1.00  0.00     0.031 C 
ATOM     57  C   UNL A   1      46.641  31.722  28.076  1.00  0.00     0.029 A 
ATOM     58  C   UNL A   1      45.358  31.610  28.587  1.00  0.00     0.049 A 
ATOM     59  H   UNL A   1      44.026  29.975  28.482  1.00  0.00     0.167 HD
ATOM     60  C   UNL A   1      43.339  32.383  29.800  1.00  0.00     0.074 A 
ATOM     61  C   UNL A   1      42.584  33.365  30.551  1.00  0.00     0.031 C 
ATOM     62  C   UNL A   1      44.597  32.582  29.332  1.00  0.00     0.037 A 
BRANCH  49  63
ATOM     63  C   UNL A   1      46.903  27.725  26.268  1.00  0.00     0.064 A 
ATOM     64  C   UNL A   1      46.988  27.772  24.867  1.00  0.00     0.173 A 
ATOM     65  C   UNL A   1      47.940  27.085  26.964  1.00  0.00     0.173 A 
ATOM     66  F   UNL A   1      46.016  28.357  24.150  1.00  0.00    -0.203 F 
ATOM     67  C   UNL A   1      48.042  27.163  24.191  1.00  0.00     0.198 A 
ATOM     68  C   UNL A   1      49.013  26.511  26.285  1.00  0.00     0.198 A 
ATOM     69  F   UNL A   1      47.914  27.015  28.303  1.00  0.00    -0.203 F 
ATOM     70  F   UNL A   1      48.064  27.160  22.850  1.00  0.00    -0.200 F 
ATOM     71  C   UNL A   1      49.056  26.539  24.900  1.00  0.00     0.200 A 
ATOM     72  F   UNL A   1      49.999  25.921  26.975  1.00  0.00    -0.200 F 
ATOM     73  F   UNL A   1      50.070  25.954  24.248  1.00  0.00    -0.200 F 
ENDBRANCH  49  63
BRANCH  50  74
ATOM     74  C   UNL A   1      39.002  31.239  31.245  1.00  0.00     0.064 A 
ATOM     75  C   UNL A   1      38.832  30.901  32.595  1.00  0.00     0.173 A 
ATOM     76  C   UNL A   1      38.036  32.071  30.656  1.00  0.00     0.173 A 
ATOM     77  F   UNL A   1      39.711  30.086  33.196  1.00  0.00    -0.203 F 
ATOM     78  C   UNL A   1      37.734  31.361  33.320  1.00  0.00     0.198 A 
ATOM     79  C   UNL A   1      36.956  32.556  31.391  1.00  0.00     0.198 A 
ATOM     80  F   UNL A   1      38.148  32.420  29.366  1.00  0.00    -0.203 F 
ATOM     81  F   UNL A   1      37.570  30.983  34.595  1.00  0.00    -0.200 F 
ATOM     82  C   UNL A   1      36.802  32.194  32.720  1.00  0.00     0.200 A 
ATOM     83  F   UNL A   1      36.064  33.369  30.809  1.00  0.00    -0.200 F 
ATOM     84  F   UNL A   1      35.750  32.642  33.420  1.00  0.00    -0.200 F 
ENDBRANCH  50  74
BRANCH  62  85
ATOM     85  C   UNL A   1      45.224  33.928  29.574  1.00  0.00     0.064 A 
ATOM     86  C   UNL A   1      46.006  34.194  30.708  1.00  0.00     0.173 A 
ATOM     87  C   UNL A   1      45.062  34.961  28.636  1.00  0.00     0.173 A 
ATOM     88  F   UNL A   1      46.185  33.246  31.641  1.00  0.00    -0.203 F 
ATOM     89  C   UNL A   1      46.570  35.452  30.912  1.00  0.00     0.198 A 
ATOM     90  C   UNL A   1      45.658  36.206  28.825  1.00  0.00     0.198 A 
ATOM     91  F   UNL A   1      44.335  34.762  27.526  1.00  0.00    -0.203 F 
ATOM     92  F   UNL A   1      47.262  35.700  32.033  1.00  0.00    -0.200 F 
ATOM     93  C   UNL A   1      46.401  36.453  29.968  1.00  0.00     0.200 A 
ATOM     94  F   UNL A   1      45.509  37.165  27.902  1.00  0.00    -0.200 F 
ATOM     95  F   UNL A   1      46.949  37.661  30.164  1.00  0.00    -0.200 F 
ENDBRANCH  62  85
ENDBRANCH  36  37
ENDBRANCH  29  31
ENDBRANCH  28  29
ENDBRANCH  27  28
ENDBRANCH  26  27
ENDBRANCH  25  26
ENDBRANCH  24  25
ENDBRANCH   1  24
TORSDOF 20
ENDMDL
MODEL 3
REMARK VINA RESULT:     -10.7      4.182      9.010
REMARK SMILES CCc1cccc(-c2ccc([C@@H](C)C(=O)OCCOCCOCCOC(=O)c3ccc(-c4c5nc(c(-c6c(F)c(F)c(F)c(F)c6F)c6ccc([nH]6)c(-c6c(F)c(F)c(F)c(F)c6F)c6nc(c(-c7c(F)c(F)c(F)c(F)c7F)c7ccc4[nH]7)C=C6)C=C5)cc3)cc2)c1
REMARK SMILES IDX 20 1 19 2 18 3 17 4 16 5 14 6 15 7 12 8 13 9 11 10 8 11 9 12
REMARK SMILES IDX 92 13 10 14 91 15 7 16 3 17 4 18 93 19 5 20 6 21 2 22 1 23
REMARK SMILES IDX 21 24 22 25 23 26 24 27 25 28 26 29 27 30 28 31 29 32 90 33
REMARK SMILES IDX 30 34 89 35 31 36 32 37 33 38 83 39 34 40 88 41 82 42 84 43
REMARK SMILES IDX 35 44 87 45 81 46 80 47 36 49 68 50 48 51 67 52 49 53 52 54
REMARK SMILES IDX 66 55 85 56 50 57 51 58 65 60 86 61 53 62 37 63 38 64 46 65
REMARK SMILES IDX 39 66 40 67 44 68 47 69 41 70 42 71 45 72 43 73 69 74 70 75
REMARK SMILES IDX 78 76 71 77 72 78 76 79 79 80 73 81 74 82 77 83 75 84 54 85
REMARK SMILES IDX 55 86 63 87 56 88 57 89 61 90 64 91 58 92 59 93 62 94 60 95
REMARK H PARENT 84 48 52 59
REMARK Flexibility Score: inf
ROOT
ATOM      1  C   UNL A   1      34.259  23.654  25.934  1.00  0.00     0.188 C 
ENDROOT
BRANCH   1   2
ATOM      2  O   UNL A   1      33.228  23.010  25.195  1.00  0.00    -0.376 OA
BRANCH   2   3
ATOM      3  C   UNL A   1      31.998  22.701  25.839  1.00  0.00     0.202 C 
BRANCH   3   4
ATOM      4  C   UNL A   1      30.697  23.264  25.241  1.00  0.00     0.261 C 
BRANCH   4   5
ATOM      5  O   UNL A   1      30.730  23.564  23.826  1.00  0.00    -0.463 OA
BRANCH   5   6
ATOM      6  C   UNL A   1      30.785  24.876  23.484  1.00  0.00     0.313 C 
ATOM      7  O   UNL A   1      31.251  25.274  22.415  1.00  0.00    -0.252 OA
BRANCH   6   8
ATOM      8  C   UNL A   1      30.214  25.874  24.497  1.00  0.00     0.126 C 
ATOM      9  C   UNL A   1      28.991  26.549  23.880  1.00  0.00     0.025 C 
BRANCH   8  10
ATOM     10  C   UNL A   1      31.101  26.906  25.194  1.00  0.00    -0.034 A 
ATOM     11  C   UNL A   1      32.738  28.923  26.412  1.00  0.00    -0.018 A 
ATOM     12  C   UNL A   1      32.815  27.572  26.798  1.00  0.00     0.009 A 
ATOM     13  C   UNL A   1      31.820  29.249  25.406  1.00  0.00     0.009 A 
ATOM     14  C   UNL A   1      32.023  26.578  26.195  1.00  0.00     0.005 A 
ATOM     15  C   UNL A   1      31.023  28.260  24.804  1.00  0.00     0.005 A 
BRANCH  11  16
ATOM     16  C   UNL A   1      33.653  29.935  26.981  1.00  0.00    -0.018 A 
ATOM     17  C   UNL A   1      34.160  32.220  27.772  1.00  0.00    -0.048 A 
ATOM     18  C   UNL A   1      35.474  31.819  28.041  1.00  0.00     0.004 A 
ATOM     19  C   UNL A   1      33.258  31.263  27.245  1.00  0.00     0.012 A 
ATOM     20  C   UNL A   1      35.884  30.512  27.784  1.00  0.00     0.001 A 
ATOM     21  C   UNL A   1      34.984  29.585  27.258  1.00  0.00     0.009 A 
BRANCH  17  22
ATOM     22  C   UNL A   1      33.665  33.625  28.047  1.00  0.00     0.032 C 
ATOM     23  C   UNL A   1      34.692  34.628  28.576  1.00  0.00     0.009 C 
ENDBRANCH  17  22
ENDBRANCH  11  16
ENDBRANCH   8  10
ENDBRANCH   6   8
ENDBRANCH   5   6
ENDBRANCH   4   5
ENDBRANCH   3   4
ENDBRANCH   2   3
ENDBRANCH   1   2
BRANCH   1  24
ATOM     24  C   UNL A   1      35.620  22.961  26.102  1.00  0.00     0.188 C 
BRANCH  24  25
ATOM     25  O   UNL A   1      35.556  21.554  26.181  1.00  0.00    -0.376 OA
BRANCH  25  26
ATOM     26  C   UNL A   1      35.941  20.839  25.023  1.00  0.00     0.202 C 
BRANCH  26  27
ATOM     27  C   UNL A   1      37.420  20.430  25.001  1.00  0.00     0.261 C 
BRANCH  27  28
ATOM     28  O   UNL A   1      38.359  21.487  25.280  1.00  0.00    -0.460 OA
BRANCH  28  29
ATOM     29  C   UNL A   1      39.381  21.193  26.111  1.00  0.00     0.338 C 
ATOM     30  O   UNL A   1      39.936  20.108  26.241  1.00  0.00    -0.246 OA
BRANCH  29  31
ATOM     31  C   UNL A   1      39.882  22.452  26.705  1.00  0.00     0.060 A 
ATOM     32  C   UNL A   1      39.331  23.670  26.280  1.00  0.00     0.016 A 
ATOM     33  C   UNL A   1      40.908  22.437  27.652  1.00  0.00     0.016 A 
ATOM     34  C   UNL A   1      39.851  24.877  26.752  1.00  0.00     0.010 A 
ATOM     35  C   UNL A   1      41.439  23.647  28.112  1.00  0.00     0.010 A 
ATOM     36  C   UNL A   1      40.947  24.873  27.625  1.00  0.00    -0.014 A 
BRANCH  36  37
ATOM     37  C   UNL A   1      41.724  26.122  27.831  1.00  0.00     0.031 A 
ATOM     38  C   UNL A   1      41.094  27.227  28.638  1.00  0.00     0.074 A 
ATOM     39  C   UNL A   1      42.970  26.275  27.349  1.00  0.00     0.049 A 
ATOM     40  N   UNL A   1      41.552  28.419  28.928  1.00  0.00    -0.248 NA
ATOM     41  C   UNL A   1      39.760  26.946  29.188  1.00  0.00     0.031 C 
ATOM     42  C   UNL A   1      43.708  25.276  26.581  1.00  0.00     0.029 A 
ATOM     43  N   UNL A   1      43.829  27.345  27.430  1.00  0.00    -0.354 N 
ATOM     44  C   UNL A   1      40.561  29.027  29.690  1.00  0.00     0.074 A 
ATOM     45  C   UNL A   1      39.459  28.093  29.775  1.00  0.00     0.031 C 
ATOM     46  C   UNL A   1      44.905  25.787  26.244  1.00  0.00     0.029 A 
ATOM     47  C   UNL A   1      45.005  27.157  26.748  1.00  0.00     0.049 A 
ATOM     48  H   UNL A   1      43.620  28.166  27.929  1.00  0.00     0.167 HD
ATOM     49  C   UNL A   1      40.571  30.247  30.280  1.00  0.00     0.037 A 
ATOM     50  C   UNL A   1      46.032  28.005  26.536  1.00  0.00     0.037 A 
ATOM     51  C   UNL A   1      41.660  31.182  30.185  1.00  0.00     0.049 A 
ATOM     52  C   UNL A   1      45.997  29.385  27.143  1.00  0.00     0.074 A 
ATOM     53  C   UNL A   1      41.769  32.443  30.747  1.00  0.00     0.029 A 
ATOM     54  N   UNL A   1      42.828  30.962  29.470  1.00  0.00    -0.354 N 
ATOM     55  N   UNL A   1      45.068  29.946  27.881  1.00  0.00    -0.248 NA
ATOM     56  C   UNL A   1      47.162  30.248  26.897  1.00  0.00     0.031 C 
ATOM     57  C   UNL A   1      42.976  33.008  30.324  1.00  0.00     0.029 A 
ATOM     58  C   UNL A   1      43.654  32.073  29.558  1.00  0.00     0.049 A 
ATOM     59  H   UNL A   1      43.040  30.140  28.973  1.00  0.00     0.167 HD
ATOM     60  C   UNL A   1      45.548  31.208  28.212  1.00  0.00     0.074 A 
ATOM     61  C   UNL A   1      46.858  31.325  27.606  1.00  0.00     0.031 C 
ATOM     62  C   UNL A   1      44.959  32.179  28.954  1.00  0.00     0.037 A 
BRANCH  49  63
ATOM     63  C   UNL A   1      39.345  30.643  31.055  1.00  0.00     0.064 A 
ATOM     64  C   UNL A   1      38.360  31.479  30.506  1.00  0.00     0.173 A 
ATOM     65  C   UNL A   1      39.152  30.180  32.366  1.00  0.00     0.173 A 
ATOM     66  F   UNL A   1      38.501  31.963  29.262  1.00  0.00    -0.203 F 
ATOM     67  C   UNL A   1      37.254  31.873  31.254  1.00  0.00     0.198 A 
ATOM     68  C   UNL A   1      38.024  30.545  33.097  1.00  0.00     0.198 A 
ATOM     69  F   UNL A   1      40.058  29.374  32.940  1.00  0.00    -0.203 F 
ATOM     70  F   UNL A   1      36.363  32.728  30.732  1.00  0.00    -0.200 F 
ATOM     71  C   UNL A   1      37.084  31.402  32.546  1.00  0.00     0.200 A 
ATOM     72  F   UNL A   1      37.855  30.076  34.341  1.00  0.00    -0.200 F 
ATOM     73  F   UNL A   1      36.018  31.781  33.265  1.00  0.00    -0.200 F 
ENDBRANCH  49  63
BRANCH  50  74
ATOM     74  C   UNL A   1      47.182  27.574  25.696  1.00  0.00     0.064 A 
ATOM     75  C   UNL A   1      47.164  27.725  24.301  1.00  0.00     0.173 A 
ATOM     76  C   UNL A   1      48.320  26.990  26.272  1.00  0.00     0.173 A 
ATOM     77  F   UNL A   1      46.087  28.251  23.699  1.00  0.00    -0.203 F 
ATOM     78  C   UNL A   1      48.232  27.295  23.516  1.00  0.00     0.198 A 
ATOM     79  C   UNL A   1      49.401  26.589  25.489  1.00  0.00     0.198 A 
ATOM     80  F   UNL A   1      48.385  26.817  27.600  1.00  0.00    -0.203 F 
ATOM     81  F   UNL A   1      48.169  27.407  22.183  1.00  0.00    -0.200 F 
ATOM     82  C   UNL A   1      49.353  26.735  24.112  1.00  0.00     0.200 A 
ATOM     83  F   UNL A   1      50.486  26.058  26.070  1.00  0.00    -0.200 F 
ATOM     84  F   UNL A   1      50.383  26.328  23.357  1.00  0.00    -0.200 F 
ENDBRANCH  50  74
BRANCH  62  85
ATOM     85  C   UNL A   1      45.744  33.440  29.196  1.00  0.00     0.064 A 
ATOM     86  C   UNL A   1      46.632  33.570  30.275  1.00  0.00     0.173 A 
ATOM     87  C   UNL A   1      45.626  34.526  28.314  1.00  0.00     0.173 A 
ATOM     88  F   UNL A   1      46.777  32.566  31.154  1.00  0.00    -0.203 F 
ATOM     89  C   UNL A   1      47.342  34.751  30.482  1.00  0.00     0.198 A 
ATOM     90  C   UNL A   1      46.365  35.692  28.503  1.00  0.00     0.198 A 
ATOM     91  F   UNL A   1      44.801  34.456  27.259  1.00  0.00    -0.203 F 
ATOM     92  F   UNL A   1      48.138  34.873  31.553  1.00  0.00    -0.200 F 
ATOM     93  C   UNL A   1      47.213  35.807  29.593  1.00  0.00     0.200 A 
ATOM     94  F   UNL A   1      46.253  36.703  27.632  1.00  0.00    -0.200 F 
ATOM     95  F   UNL A   1      47.901  36.940  29.791  1.00  0.00    -0.200 F 
ENDBRANCH  62  85
ENDBRANCH  36  37
ENDBRANCH  29  31
ENDBRANCH  28  29
ENDBRANCH  27  28
ENDBRANCH  26  27
ENDBRANCH  25  26
ENDBRANCH  24  25
ENDBRANCH   1  24
TORSDOF 20
ENDMDL
