MODEL 1
REMARK VINA RESULT:      -8.8      0.000      0.000
REMARK SMILES Cc1nc(N2CCN(c3ccccc3)CC2)nc(OCC(=O)OCCOCCOCCOC(=O)c2ccc(-c3c4nc(c(-c5c(F)c(F)c(F)c(F)c5F)c5ccc([nH]5)c(-c5c(F)c(F)c(F)c(F)c5F)c5nc(c(-c6c(F)c(F)c(F)c(F)c6F)c6ccc3[nH]6)C=C5)C=C4)cc2)c1C
REMARK SMILES IDX 27 1 26 2 25 3 24 4 23 5 21 6 22 7 20 8 19 9 18 10 1 11 2 12
REMARK SMILES IDX 3 13 98 14 4 15 99 16 17 17 5 18 6 19 16 20 7 21 15 22 8 23
REMARK SMILES IDX 9 24 10 25 14 26 11 27 13 28 12 29 28 30 29 31 30 32 31 33
REMARK SMILES IDX 32 34 33 35 34 36 35 37 36 38 97 39 37 40 96 41 38 42 39 43
REMARK SMILES IDX 40 44 90 45 41 46 95 47 89 48 91 49 42 50 94 51 88 52 87 53
REMARK SMILES IDX 43 55 75 56 55 57 74 58 56 59 59 60 73 61 92 62 57 63 58 64
REMARK SMILES IDX 72 66 93 67 60 68 44 69 45 70 53 71 46 72 47 73 51 74 54 75
REMARK SMILES IDX 48 76 49 77 52 78 50 79 76 80 77 81 85 82 78 83 79 84 83 85
REMARK SMILES IDX 86 86 80 87 81 88 84 89 82 90 61 91 62 92 70 93 63 94 64 95
REMARK SMILES IDX 68 96 71 97 65 98 66 99 69 100 67 101
REMARK H PARENT 91 54 59 65
REMARK Flexibility Score: inf
ROOT
ATOM      1  C   UNL A   1      47.864  23.175  34.817  1.00  0.00     0.188 C 
ENDROOT
BRANCH   1   2
ATOM      2  O   UNL A   1      48.599  24.254  34.251  1.00  0.00    -0.376 OA
BRANCH   2   3
ATOM      3  C   UNL A   1      48.031  24.913  33.123  1.00  0.00     0.202 C 
BRANCH   3   4
ATOM      4  C   UNL A   1      47.874  26.424  33.291  1.00  0.00     0.261 C 
BRANCH   4   5
ATOM      5  O   UNL A   1      48.779  27.142  32.426  1.00  0.00    -0.461 OA
BRANCH   5   6
ATOM      6  C   UNL A   1      48.512  27.157  31.092  1.00  0.00     0.344 C 
ATOM      7  O   UNL A   1      48.992  26.390  30.267  1.00  0.00    -0.248 OA
BRANCH   6   8
ATOM      8  C   UNL A   1      47.562  28.294  30.725  1.00  0.00     0.353 C 
BRANCH   8   9
ATOM      9  O   UNL A   1      46.575  27.958  29.782  1.00  0.00    -0.465 OA
BRANCH   9  10
ATOM     10  C   UNL A   1      46.771  27.530  28.513  1.00  0.00     0.221 A 
ATOM     11  C   UNL A   1      48.218  27.746  25.026  1.00  0.00     0.067 C 
ATOM     12  C   UNL A   1      47.524  27.350  26.296  1.00  0.00     0.050 A 
ATOM     13  N   UNL A   1      46.966  26.128  26.202  1.00  0.00    -0.218 NA
ATOM     14  C   UNL A   1      47.480  28.115  27.469  1.00  0.00     0.033 A 
ATOM     15  C   UNL A   1      46.299  25.655  27.250  1.00  0.00     0.229 A 
ATOM     16  C   UNL A   1      48.133  29.456  27.544  1.00  0.00     0.052 C 
ATOM     17  N   UNL A   1      46.194  26.320  28.395  1.00  0.00    -0.177 NA
BRANCH  15  18
ATOM     18  N   UNL A   1      45.569  24.490  27.112  1.00  0.00    -0.337 N 
ATOM     19  C   UNL A   1      45.315  24.079  25.725  1.00  0.00     0.141 C 
ATOM     20  C   UNL A   1      44.369  24.502  27.956  1.00  0.00     0.141 C 
ATOM     21  C   UNL A   1      44.640  22.681  25.699  1.00  0.00     0.138 C 
ATOM     22  C   UNL A   1      43.698  23.117  27.955  1.00  0.00     0.138 C 
ATOM     23  N   UNL A   1      43.448  22.661  26.571  1.00  0.00    -0.368 N 
BRANCH  23  24
ATOM     24  C   UNL A   1      42.507  21.645  26.456  1.00  0.00     0.037 A 
ATOM     25  C   UNL A   1      41.137  21.845  26.662  1.00  0.00     0.026 A 
ATOM     26  C   UNL A   1      42.932  20.361  26.084  1.00  0.00     0.026 A 
ATOM     27  C   UNL A   1      40.224  20.799  26.489  1.00  0.00     0.002 A 
ATOM     28  C   UNL A   1      42.027  19.311  25.921  1.00  0.00     0.002 A 
ATOM     29  C   UNL A   1      40.669  19.532  26.121  1.00  0.00     0.000 A 
ENDBRANCH  23  24
ENDBRANCH  15  18
ENDBRANCH   9  10
ENDBRANCH   8   9
ENDBRANCH   6   8
ENDBRANCH   5   6
ENDBRANCH   4   5
ENDBRANCH   3   4
ENDBRANCH   2   3
ENDBRANCH   1   2
BRANCH   1  30
ATOM     30  C   UNL A   1      46.379  23.054  34.427  1.00  0.00     0.188 C 
BRANCH  30  31
ATOM     31  O   UNL A   1      45.474  22.571  35.411  1.00  0.00    -0.376 OA
BRANCH  31  32
ATOM     32  C   UNL A   1      46.037  21.967  36.569  1.00  0.00     0.202 C 
BRANCH  32  33
ATOM     33  C   UNL A   1      45.801  22.757  37.852  1.00  0.00     0.261 C 
BRANCH  33  34
ATOM     34  O   UNL A   1      46.223  24.121  37.683  1.00  0.00    -0.460 OA
BRANCH  34  35
ATOM     35  C   UNL A   1      45.287  25.024  38.050  1.00  0.00     0.338 C 
ATOM     36  O   UNL A   1      44.943  25.293  39.187  1.00  0.00    -0.246 OA
BRANCH  35  37
ATOM     37  C   UNL A   1      44.699  25.675  36.859  1.00  0.00     0.060 A 
ATOM     38  C   UNL A   1      45.320  26.754  36.226  1.00  0.00     0.016 A 
ATOM     39  C   UNL A   1      43.419  25.281  36.463  1.00  0.00     0.016 A 
ATOM     40  C   UNL A   1      44.620  27.495  35.269  1.00  0.00     0.010 A 
ATOM     41  C   UNL A   1      42.739  25.997  35.476  1.00  0.00     0.010 A 
ATOM     42  C   UNL A   1      43.311  27.146  34.908  1.00  0.00    -0.014 A 
BRANCH  42  43
ATOM     43  C   UNL A   1      42.489  28.025  34.033  1.00  0.00     0.031 A 
ATOM     44  C   UNL A   1      41.648  29.113  34.651  1.00  0.00     0.074 A 
ATOM     45  C   UNL A   1      42.510  27.901  32.693  1.00  0.00     0.049 A 
ATOM     46  N   UNL A   1      40.678  29.814  34.123  1.00  0.00    -0.248 NA
ATOM     47  C   UNL A   1      41.954  29.467  36.047  1.00  0.00     0.031 C 
ATOM     48  C   UNL A   1      43.377  27.000  31.938  1.00  0.00     0.029 A 
ATOM     49  N   UNL A   1      41.773  28.546  31.728  1.00  0.00    -0.354 N 
ATOM     50  C   UNL A   1      40.230  30.660  35.130  1.00  0.00     0.074 A 
ATOM     51  C   UNL A   1      41.041  30.394  36.299  1.00  0.00     0.031 C 
ATOM     52  C   UNL A   1      43.141  27.164  30.627  1.00  0.00     0.029 A 
ATOM     53  C   UNL A   1      42.030  28.097  30.456  1.00  0.00     0.049 A 
ATOM     54  H   UNL A   1      41.126  29.260  31.929  1.00  0.00     0.167 HD
ATOM     55  C   UNL A   1      39.225  31.569  35.081  1.00  0.00     0.037 A 
ATOM     56  C   UNL A   1      41.400  28.351  29.293  1.00  0.00     0.037 A 
ATOM     57  C   UNL A   1      38.435  31.841  33.909  1.00  0.00     0.049 A 
ATOM     58  C   UNL A   1      40.188  29.241  29.288  1.00  0.00     0.074 A 
ATOM     59  C   UNL A   1      37.353  32.695  33.774  1.00  0.00     0.029 A 
ATOM     60  N   UNL A   1      38.651  31.272  32.664  1.00  0.00    -0.354 N 
ATOM     61  N   UNL A   1      39.663  29.925  30.275  1.00  0.00    -0.248 NA
ATOM     62  C   UNL A   1      39.458  29.359  28.018  1.00  0.00     0.031 C 
ATOM     63  C   UNL A   1      36.895  32.617  32.455  1.00  0.00     0.029 A 
ATOM     64  C   UNL A   1      37.716  31.746  31.759  1.00  0.00     0.049 A 
ATOM     65  H   UNL A   1      39.364  30.626  32.455  1.00  0.00     0.167 HD
ATOM     66  C   UNL A   1      38.544  30.557  29.747  1.00  0.00     0.074 A 
ATOM     67  C   UNL A   1      38.476  30.188  28.349  1.00  0.00     0.031 C 
ATOM     68  C   UNL A   1      37.653  31.364  30.371  1.00  0.00     0.037 A 
BRANCH  55  69
ATOM     69  C   UNL A   1      38.888  32.308  36.342  1.00  0.00     0.064 A 
ATOM     70  C   UNL A   1      38.078  31.743  37.336  1.00  0.00     0.173 A 
ATOM     71  C   UNL A   1      39.441  33.574  36.585  1.00  0.00     0.173 A 
ATOM     72  F   UNL A   1      37.514  30.541  37.145  1.00  0.00    -0.203 F 
ATOM     73  C   UNL A   1      37.829  32.422  38.526  1.00  0.00     0.198 A 
ATOM     74  C   UNL A   1      39.210  34.241  37.785  1.00  0.00     0.198 A 
ATOM     75  F   UNL A   1      40.227  34.156  35.665  1.00  0.00    -0.203 F 
ATOM     76  F   UNL A   1      37.033  31.875  39.455  1.00  0.00    -0.200 F 
ATOM     77  C   UNL A   1      38.402  33.666  38.754  1.00  0.00     0.200 A 
ATOM     78  F   UNL A   1      39.773  35.436  38.006  1.00  0.00    -0.200 F 
ATOM     79  F   UNL A   1      38.174  34.311  39.906  1.00  0.00    -0.200 F 
ENDBRANCH  55  69
BRANCH  56  80
ATOM     80  C   UNL A   1      41.870  27.686  28.051  1.00  0.00     0.064 A 
ATOM     81  C   UNL A   1      41.163  26.610  27.501  1.00  0.00     0.173 A 
ATOM     82  C   UNL A   1      43.007  28.143  27.366  1.00  0.00     0.173 A 
ATOM     83  F   UNL A   1      40.089  26.119  28.136  1.00  0.00    -0.203 F 
ATOM     84  C   UNL A   1      41.566  26.027  26.300  1.00  0.00     0.198 A 
ATOM     85  C   UNL A   1      43.391  27.578  26.153  1.00  0.00     0.198 A 
ATOM     86  F   UNL A   1      43.723  29.163  27.860  1.00  0.00    -0.203 F 
ATOM     87  F   UNL A   1      40.883  24.988  25.801  1.00  0.00    -0.200 F 
ATOM     88  C   UNL A   1      42.670  26.521  25.621  1.00  0.00     0.200 A 
ATOM     89  F   UNL A   1      44.448  28.071  25.494  1.00  0.00    -0.200 F 
ATOM     90  F   UNL A   1      43.039  25.979  24.453  1.00  0.00    -0.200 F 
ENDBRANCH  56  80
BRANCH  68  91
ATOM     91  C   UNL A   1      36.529  31.917  29.547  1.00  0.00     0.064 A 
ATOM     92  C   UNL A   1      35.470  31.105  29.119  1.00  0.00     0.173 A 
ATOM     93  C   UNL A   1      36.487  33.282  29.226  1.00  0.00     0.173 A 
ATOM     94  F   UNL A   1      35.475  29.791  29.390  1.00  0.00    -0.203 F 
ATOM     95  C   UNL A   1      34.413  31.638  28.384  1.00  0.00     0.198 A 
ATOM     96  C   UNL A   1      35.418  33.815  28.511  1.00  0.00     0.198 A 
ATOM     97  F   UNL A   1      37.474  34.100  29.619  1.00  0.00    -0.203 F 
ATOM     98  F   UNL A   1      33.428  30.838  27.955  1.00  0.00    -0.200 F 
ATOM     99  C   UNL A   1      34.385  32.993  28.086  1.00  0.00     0.200 A 
ATOM    100  F   UNL A   1      35.387  35.126  28.232  1.00  0.00    -0.200 F 
ATOM    101  F   UNL A   1      33.365  33.504  27.384  1.00  0.00    -0.200 F 
ENDBRANCH  68  91
ENDBRANCH  42  43
ENDBRANCH  35  37
ENDBRANCH  34  35
ENDBRANCH  33  34
ENDBRANCH  32  33
ENDBRANCH  31  32
ENDBRANCH  30  31
ENDBRANCH   1  30
TORSDOF 21
ENDMDL
MODEL 2
REMARK VINA RESULT:      -8.8      5.006     13.136
REMARK SMILES Cc1nc(N2CCN(c3ccccc3)CC2)nc(OCC(=O)OCCOCCOCCOC(=O)c2ccc(-c3c4nc(c(-c5c(F)c(F)c(F)c(F)c5F)c5ccc([nH]5)c(-c5c(F)c(F)c(F)c(F)c5F)c5nc(c(-c6c(F)c(F)c(F)c(F)c6F)c6ccc3[nH]6)C=C5)C=C4)cc2)c1C
REMARK SMILES IDX 27 1 26 2 25 3 24 4 23 5 21 6 22 7 20 8 19 9 18 10 1 11 2 12
REMARK SMILES IDX 3 13 98 14 4 15 99 16 17 17 5 18 6 19 16 20 7 21 15 22 8 23
REMARK SMILES IDX 9 24 10 25 14 26 11 27 13 28 12 29 28 30 29 31 30 32 31 33
REMARK SMILES IDX 32 34 33 35 34 36 35 37 36 38 97 39 37 40 96 41 38 42 39 43
REMARK SMILES IDX 40 44 90 45 41 46 95 47 89 48 91 49 42 50 94 51 88 52 87 53
REMARK SMILES IDX 43 55 75 56 55 57 74 58 56 59 59 60 73 61 92 62 57 63 58 64
REMARK SMILES IDX 72 66 93 67 60 68 44 69 45 70 53 71 46 72 47 73 51 74 54 75
REMARK SMILES IDX 48 76 49 77 52 78 50 79 76 80 77 81 85 82 78 83 79 84 83 85
REMARK SMILES IDX 86 86 80 87 81 88 84 89 82 90 61 91 62 92 70 93 63 94 64 95
REMARK SMILES IDX 68 96 71 97 65 98 66 99 69 100 67 101
REMARK H PARENT 91 54 59 65
REMARK Flexibility Score: inf
ROOT
ATOM      1  C   UNL A   1      44.265  38.059  30.900  1.00  0.00     0.188 C 
ENDROOT
BRANCH   1   2
ATOM      2  O   UNL A   1      44.286  38.458  32.265  1.00  0.00    -0.376 OA
BRANCH   2   3
ATOM      3  C   UNL A   1      43.944  37.477  33.239  1.00  0.00     0.202 C 
BRANCH   3   4
ATOM      4  C   UNL A   1      43.076  38.002  34.383  1.00  0.00     0.261 C 
BRANCH   4   5
ATOM      5  O   UNL A   1      41.903  37.182  34.566  1.00  0.00    -0.461 OA
BRANCH   5   6
ATOM      6  C   UNL A   1      41.921  36.255  35.562  1.00  0.00     0.344 C 
ATOM      7  O   UNL A   1      42.863  35.518  35.825  1.00  0.00    -0.248 OA
BRANCH   6   8
ATOM      8  C   UNL A   1      40.586  36.203  36.301  1.00  0.00     0.353 C 
BRANCH   8   9
ATOM      9  O   UNL A   1      40.350  35.013  37.011  1.00  0.00    -0.465 OA
BRANCH   9  10
ATOM     10  C   UNL A   1      39.180  34.337  37.105  1.00  0.00     0.221 A 
ATOM     11  C   UNL A   1      36.394  32.584  38.964  1.00  0.00     0.067 C 
ATOM     12  C   UNL A   1      37.293  33.224  37.948  1.00  0.00     0.050 A 
ATOM     13  N   UNL A   1      36.747  33.209  36.717  1.00  0.00    -0.218 NA
ATOM     14  C   UNL A   1      38.534  33.812  38.219  1.00  0.00     0.033 A 
ATOM     15  C   UNL A   1      37.444  33.728  35.709  1.00  0.00     0.229 A 
ATOM     16  C   UNL A   1      39.096  33.832  39.603  1.00  0.00     0.052 C 
ATOM     17  N   UNL A   1      38.635  34.291  35.875  1.00  0.00    -0.177 NA
BRANCH  15  18
ATOM     18  N   UNL A   1      36.983  33.560  34.418  1.00  0.00    -0.337 N 
ATOM     19  C   UNL A   1      37.717  34.317  33.395  1.00  0.00     0.141 C 
ATOM     20  C   UNL A   1      35.526  33.716  34.340  1.00  0.00     0.141 C 
ATOM     21  C   UNL A   1      37.220  33.918  31.979  1.00  0.00     0.138 C 
ATOM     22  C   UNL A   1      35.016  33.307  32.947  1.00  0.00     0.138 C 
ATOM     23  N   UNL A   1      35.751  34.034  31.890  1.00  0.00    -0.368 N 
BRANCH  23  24
ATOM     24  C   UNL A   1      35.118  34.053  30.653  1.00  0.00     0.037 A 
ATOM     25  C   UNL A   1      33.862  34.634  30.444  1.00  0.00     0.026 A 
ATOM     26  C   UNL A   1      35.774  33.496  29.544  1.00  0.00     0.026 A 
ATOM     27  C   UNL A   1      33.288  34.668  29.169  1.00  0.00     0.002 A 
ATOM     28  C   UNL A   1      35.201  33.516  28.271  1.00  0.00     0.002 A 
ATOM     29  C   UNL A   1      33.956  34.107  28.083  1.00  0.00     0.000 A 
ENDBRANCH  23  24
ENDBRANCH  15  18
ENDBRANCH   9  10
ENDBRANCH   8   9
ENDBRANCH   6   8
ENDBRANCH   5   6
ENDBRANCH   4   5
ENDBRANCH   3   4
ENDBRANCH   2   3
ENDBRANCH   1   2
BRANCH   1  30
ATOM     30  C   UNL A   1      44.347  39.172  29.839  1.00  0.00     0.188 C 
BRANCH  30  31
ATOM     31  O   UNL A   1      45.622  39.459  29.278  1.00  0.00    -0.376 OA
BRANCH  31  32
ATOM     32  C   UNL A   1      45.642  40.073  27.996  1.00  0.00     0.202 C 
BRANCH  32  33
ATOM     33  C   UNL A   1      46.216  39.184  26.897  1.00  0.00     0.261 C 
BRANCH  33  34
ATOM     34  O   UNL A   1      45.502  37.938  26.839  1.00  0.00    -0.460 OA
BRANCH  34  35
ATOM     35  C   UNL A   1      46.297  36.871  26.605  1.00  0.00     0.338 C 
ATOM     36  O   UNL A   1      47.402  36.887  26.094  1.00  0.00    -0.246 OA
BRANCH  35  37
ATOM     37  C   UNL A   1      45.641  35.625  27.058  1.00  0.00     0.060 A 
ATOM     38  C   UNL A   1      46.029  34.971  28.229  1.00  0.00     0.016 A 
ATOM     39  C   UNL A   1      44.713  35.026  26.203  1.00  0.00     0.016 A 
ATOM     40  C   UNL A   1      45.563  33.678  28.490  1.00  0.00     0.010 A 
ATOM     41  C   UNL A   1      44.216  33.753  26.490  1.00  0.00     0.010 A 
ATOM     42  C   UNL A   1      44.679  33.042  27.608  1.00  0.00    -0.014 A 
BRANCH  42  43
ATOM     43  C   UNL A   1      44.320  31.608  27.772  1.00  0.00     0.031 A 
ATOM     44  C   UNL A   1      45.175  30.547  27.128  1.00  0.00     0.074 A 
ATOM     45  C   UNL A   1      43.268  31.228  28.522  1.00  0.00     0.049 A 
ATOM     46  N   UNL A   1      44.917  29.281  26.924  1.00  0.00    -0.248 NA
ATOM     47  C   UNL A   1      46.508  30.970  26.665  1.00  0.00     0.031 C 
ATOM     48  C   UNL A   1      42.433  32.118  29.324  1.00  0.00     0.029 A 
ATOM     49  N   UNL A   1      42.726  29.982  28.728  1.00  0.00    -0.354 N 
ATOM     50  C   UNL A   1      46.031  28.766  26.275  1.00  0.00     0.074 A 
ATOM     51  C   UNL A   1      46.975  29.853  26.126  1.00  0.00     0.031 C 
ATOM     52  C   UNL A   1      41.499  31.389  29.955  1.00  0.00     0.029 A 
ATOM     53  C   UNL A   1      41.600  30.001  29.513  1.00  0.00     0.049 A 
ATOM     54  H   UNL A   1      43.108  29.157  28.352  1.00  0.00     0.167 HD
ATOM     55  C   UNL A   1      46.239  27.501  25.834  1.00  0.00     0.037 A 
ATOM     56  C   UNL A   1      40.708  29.030  29.790  1.00  0.00     0.037 A 
ATOM     57  C   UNL A   1      45.303  26.420  26.001  1.00  0.00     0.049 A 
ATOM     58  C   UNL A   1      40.873  27.674  29.163  1.00  0.00     0.074 A 
ATOM     59  C   UNL A   1      45.391  25.119  25.536  1.00  0.00     0.029 A 
ATOM     60  N   UNL A   1      44.111  26.513  26.703  1.00  0.00    -0.354 N 
ATOM     61  N   UNL A   1      41.851  27.224  28.415  1.00  0.00    -0.248 NA
ATOM     62  C   UNL A   1      39.790  26.705  29.383  1.00  0.00     0.031 C 
ATOM     63  C   UNL A   1      44.236  24.434  25.928  1.00  0.00     0.029 A 
ATOM     64  C   UNL A   1      43.448  25.297  26.671  1.00  0.00     0.049 A 
ATOM     65  H   UNL A   1      43.784  27.324  27.155  1.00  0.00     0.167 HD
ATOM     66  C   UNL A   1      41.505  25.922  28.077  1.00  0.00     0.074 A 
ATOM     67  C   UNL A   1      40.235  25.648  28.716  1.00  0.00     0.031 C 
ATOM     68  C   UNL A   1      42.179  25.039  27.303  1.00  0.00     0.037 A 
BRANCH  55  69
ATOM     69  C   UNL A   1      47.509  27.220  25.087  1.00  0.00     0.064 A 
ATOM     70  C   UNL A   1      47.680  27.602  23.750  1.00  0.00     0.173 A 
ATOM     71  C   UNL A   1      48.593  26.617  25.744  1.00  0.00     0.173 A 
ATOM     72  F   UNL A   1      46.669  28.168  23.075  1.00  0.00    -0.203 F 
ATOM     73  C   UNL A   1      48.891  27.387  23.096  1.00  0.00     0.198 A 
ATOM     74  C   UNL A   1      49.809  26.423  25.094  1.00  0.00     0.198 A 
ATOM     75  F   UNL A   1      48.479  26.236  27.026  1.00  0.00    -0.203 F 
ATOM     76  F   UNL A   1      49.028  27.739  21.810  1.00  0.00    -0.200 F 
ATOM     77  C   UNL A   1      49.956  26.807  23.770  1.00  0.00     0.200 A 
ATOM     78  F   UNL A   1      50.838  25.873  25.750  1.00  0.00    -0.200 F 
ATOM     79  F   UNL A   1      51.125  26.614  23.142  1.00  0.00    -0.200 F 
ENDBRANCH  55  69
BRANCH  56  80
ATOM     80  C   UNL A   1      39.537  29.342  30.650  1.00  0.00     0.064 A 
ATOM     81  C   UNL A   1      39.664  29.402  32.043  1.00  0.00     0.173 A 
ATOM     82  C   UNL A   1      38.282  29.631  30.093  1.00  0.00     0.173 A 
ATOM     83  F   UNL A   1      40.836  29.102  32.622  1.00  0.00    -0.203 F 
ATOM     84  C   UNL A   1      38.582  29.758  32.846  1.00  0.00     0.198 A 
ATOM     85  C   UNL A   1      37.211  30.015  30.894  1.00  0.00     0.198 A 
ATOM     86  F   UNL A   1      38.109  29.576  28.764  1.00  0.00    -0.203 F 
ATOM     87  F   UNL A   1      38.724  29.793  34.178  1.00  0.00    -0.200 F 
ATOM     88  C   UNL A   1      37.362  30.079  32.270  1.00  0.00     0.200 A 
ATOM     89  F   UNL A   1      36.039  30.339  30.331  1.00  0.00    -0.200 F 
ATOM     90  F   UNL A   1      36.331  30.449  33.042  1.00  0.00    -0.200 F 
ENDBRANCH  56  80
BRANCH  68  91
ATOM     91  C   UNL A   1      41.567  23.685  27.107  1.00  0.00     0.064 A 
ATOM     92  C   UNL A   1      42.132  22.539  27.684  1.00  0.00     0.173 A 
ATOM     93  C   UNL A   1      40.377  23.540  26.379  1.00  0.00     0.173 A 
ATOM     94  F   UNL A   1      43.277  22.627  28.377  1.00  0.00    -0.203 F 
ATOM     95  C   UNL A   1      41.534  21.291  27.525  1.00  0.00     0.198 A 
ATOM     96  C   UNL A   1      39.770  22.294  26.241  1.00  0.00     0.198 A 
ATOM     97  F   UNL A   1      39.795  24.608  25.814  1.00  0.00    -0.203 F 
ATOM     98  F   UNL A   1      42.109  20.202  28.055  1.00  0.00    -0.200 F 
ATOM     99  C   UNL A   1      40.352  21.170  26.810  1.00  0.00     0.200 A 
ATOM    100  F   UNL A   1      38.623  22.181  25.558  1.00  0.00    -0.200 F 
ATOM    101  F   UNL A   1      39.775  19.969  26.663  1.00  0.00    -0.200 F 
ENDBRANCH  68  91
ENDBRANCH  42  43
ENDBRANCH  35  37
ENDBRANCH  34  35
ENDBRANCH  33  34
ENDBRANCH  32  33
ENDBRANCH  31  32
ENDBRANCH  30  31
ENDBRANCH   1  30
TORSDOF 21
ENDMDL
MODEL 3
REMARK VINA RESULT:      -8.4      6.002     11.039
REMARK SMILES Cc1nc(N2CCN(c3ccccc3)CC2)nc(OCC(=O)OCCOCCOCCOC(=O)c2ccc(-c3c4nc(c(-c5c(F)c(F)c(F)c(F)c5F)c5ccc([nH]5)c(-c5c(F)c(F)c(F)c(F)c5F)c5nc(c(-c6c(F)c(F)c(F)c(F)c6F)c6ccc3[nH]6)C=C5)C=C4)cc2)c1C
REMARK SMILES IDX 27 1 26 2 25 3 24 4 23 5 21 6 22 7 20 8 19 9 18 10 1 11 2 12
REMARK SMILES IDX 3 13 98 14 4 15 99 16 17 17 5 18 6 19 16 20 7 21 15 22 8 23
REMARK SMILES IDX 9 24 10 25 14 26 11 27 13 28 12 29 28 30 29 31 30 32 31 33
REMARK SMILES IDX 32 34 33 35 34 36 35 37 36 38 97 39 37 40 96 41 38 42 39 43
REMARK SMILES IDX 40 44 90 45 41 46 95 47 89 48 91 49 42 50 94 51 88 52 87 53
REMARK SMILES IDX 43 55 75 56 55 57 74 58 56 59 59 60 73 61 92 62 57 63 58 64
REMARK SMILES IDX 72 66 93 67 60 68 44 69 45 70 53 71 46 72 47 73 51 74 54 75
REMARK SMILES IDX 48 76 49 77 52 78 50 79 76 80 77 81 85 82 78 83 79 84 83 85
REMARK SMILES IDX 86 86 80 87 81 88 84 89 82 90 61 91 62 92 70 93 63 94 64 95
REMARK SMILES IDX 68 96 71 97 65 98 66 99 69 100 67 101
REMARK H PARENT 91 54 59 65
REMARK Flexibility Score: inf
ROOT
ATOM      1  C   UNL A   1      35.857  23.097  26.194  1.00  0.00     0.188 C 
ENDROOT
BRANCH   1   2
ATOM      2  O   UNL A   1      34.622  23.645  25.750  1.00  0.00    -0.376 OA
BRANCH   2   3
ATOM      3  C   UNL A   1      34.643  24.974  25.237  1.00  0.00     0.202 C 
BRANCH   3   4
ATOM      4  C   UNL A   1      33.617  25.911  25.876  1.00  0.00     0.261 C 
BRANCH   4   5
ATOM      5  O   UNL A   1      34.137  27.252  25.993  1.00  0.00    -0.461 OA
BRANCH   5   6
ATOM      6  C   UNL A   1      33.650  28.202  25.151  1.00  0.00     0.344 C 
ATOM      7  O   UNL A   1      32.996  29.180  25.491  1.00  0.00    -0.248 OA
BRANCH   6   8
ATOM      8  C   UNL A   1      33.979  27.880  23.695  1.00  0.00     0.353 C 
BRANCH   8   9
ATOM      9  O   UNL A   1      32.861  27.737  22.855  1.00  0.00    -0.465 OA
BRANCH   9  10
ATOM     10  C   UNL A   1      31.684  27.139  23.157  1.00  0.00     0.221 A 
ATOM     11  C   UNL A   1      27.974  27.082  23.885  1.00  0.00     0.067 C 
ATOM     12  C   UNL A   1      29.413  26.755  23.612  1.00  0.00     0.050 A 
ATOM     13  N   UNL A   1      29.624  25.426  23.566  1.00  0.00    -0.218 NA
ATOM     14  C   UNL A   1      30.429  27.692  23.385  1.00  0.00     0.033 A 
ATOM     15  C   UNL A   1      30.862  24.989  23.350  1.00  0.00     0.229 A 
ATOM     16  C   UNL A   1      30.151  29.159  23.419  1.00  0.00     0.052 C 
ATOM     17  N   UNL A   1      31.886  25.808  23.141  1.00  0.00    -0.177 NA
BRANCH  15  18
ATOM     18  N   UNL A   1      31.130  23.640  23.481  1.00  0.00    -0.337 N 
ATOM     19  C   UNL A   1      31.378  23.187  24.856  1.00  0.00     0.141 C 
ATOM     20  C   UNL A   1      32.145  23.196  22.518  1.00  0.00     0.141 C 
ATOM     21  C   UNL A   1      31.498  21.640  24.893  1.00  0.00     0.138 C 
ATOM     22  C   UNL A   1      32.262  21.663  22.530  1.00  0.00     0.138 C 
ATOM     23  N   UNL A   1      32.490  21.169  23.906  1.00  0.00    -0.368 N 
BRANCH  23  24
ATOM     24  C   UNL A   1      33.005  19.881  23.982  1.00  0.00     0.037 A 
ATOM     25  C   UNL A   1      32.370  18.769  23.418  1.00  0.00     0.026 A 
ATOM     26  C   UNL A   1      34.236  19.677  24.623  1.00  0.00     0.026 A 
ATOM     27  C   UNL A   1      32.953  17.499  23.482  1.00  0.00     0.002 A 
ATOM     28  C   UNL A   1      34.817  18.409  24.701  1.00  0.00     0.002 A 
ATOM     29  C   UNL A   1      34.175  17.318  24.125  1.00  0.00     0.000 A 
ENDBRANCH  23  24
ENDBRANCH  15  18
ENDBRANCH   9  10
ENDBRANCH   8   9
ENDBRANCH   6   8
ENDBRANCH   5   6
ENDBRANCH   4   5
ENDBRANCH   3   4
ENDBRANCH   2   3
ENDBRANCH   1   2
BRANCH   1  30
ATOM     30  C   UNL A   1      36.453  21.943  25.366  1.00  0.00     0.188 C 
BRANCH  30  31
ATOM     31  O   UNL A   1      37.830  22.019  25.020  1.00  0.00    -0.376 OA
BRANCH  31  32
ATOM     32  C   UNL A   1      38.753  22.244  26.077  1.00  0.00     0.202 C 
BRANCH  32  33
ATOM     33  C   UNL A   1      38.953  23.718  26.416  1.00  0.00     0.261 C 
BRANCH  33  34
ATOM     34  O   UNL A   1      39.926  23.862  27.465  1.00  0.00    -0.460 OA
BRANCH  34  35
ATOM     35  C   UNL A   1      40.949  24.683  27.142  1.00  0.00     0.338 C 
ATOM     36  O   UNL A   1      41.776  24.504  26.266  1.00  0.00    -0.246 OA
BRANCH  35  37
ATOM     37  C   UNL A   1      40.951  25.877  28.016  1.00  0.00     0.060 A 
ATOM     38  C   UNL A   1      42.137  26.490  28.424  1.00  0.00     0.016 A 
ATOM     39  C   UNL A   1      39.732  26.295  28.555  1.00  0.00     0.016 A 
ATOM     40  C   UNL A   1      42.109  27.451  29.440  1.00  0.00     0.010 A 
ATOM     41  C   UNL A   1      39.703  27.286  29.538  1.00  0.00     0.010 A 
ATOM     42  C   UNL A   1      40.897  27.834  30.032  1.00  0.00    -0.014 A 
BRANCH  42  43
ATOM     43  C   UNL A   1      40.865  28.713  31.232  1.00  0.00     0.031 A 
ATOM     44  C   UNL A   1      39.804  29.777  31.347  1.00  0.00     0.074 A 
ATOM     45  C   UNL A   1      41.738  28.552  32.244  1.00  0.00     0.049 A 
ATOM     46  N   UNL A   1      39.739  30.802  32.158  1.00  0.00    -0.248 NA
ATOM     47  C   UNL A   1      38.654  29.661  30.434  1.00  0.00     0.031 C 
ATOM     48  C   UNL A   1      42.726  27.482  32.351  1.00  0.00     0.029 A 
ATOM     49  N   UNL A   1      41.928  29.299  33.382  1.00  0.00    -0.354 N 
ATOM     50  C   UNL A   1      38.569  31.474  31.828  1.00  0.00     0.074 A 
ATOM     51  C   UNL A   1      37.947  30.737  30.749  1.00  0.00     0.031 C 
ATOM     52  C   UNL A   1      43.402  27.625  33.501  1.00  0.00     0.029 A 
ATOM     53  C   UNL A   1      42.973  28.858  34.155  1.00  0.00     0.049 A 
ATOM     54  H   UNL A   1      41.369  30.073  33.620  1.00  0.00     0.167 HD
ATOM     55  C   UNL A   1      38.069  32.610  32.372  1.00  0.00     0.037 A 
ATOM     56  C   UNL A   1      43.567  29.417  35.227  1.00  0.00     0.037 A 
ATOM     57  C   UNL A   1      38.684  33.329  33.458  1.00  0.00     0.049 A 
ATOM     58  C   UNL A   1      43.095  30.757  35.719  1.00  0.00     0.074 A 
ATOM     59  C   UNL A   1      38.291  34.523  34.037  1.00  0.00     0.029 A 
ATOM     60  N   UNL A   1      39.817  32.909  34.137  1.00  0.00    -0.354 N 
ATOM     61  N   UNL A   1      42.080  31.476  35.308  1.00  0.00    -0.248 NA
ATOM     62  C   UNL A   1      43.878  31.381  36.795  1.00  0.00     0.031 C 
ATOM     63  C   UNL A   1      39.206  34.842  35.046  1.00  0.00     0.029 A 
ATOM     64  C   UNL A   1      40.145  33.827  35.121  1.00  0.00     0.049 A 
ATOM     65  H   UNL A   1      40.314  32.081  33.947  1.00  0.00     0.167 HD
ATOM     66  C   UNL A   1      42.098  32.635  36.073  1.00  0.00     0.074 A 
ATOM     67  C   UNL A   1      43.215  32.515  36.987  1.00  0.00     0.031 C 
ATOM     68  C   UNL A   1      41.266  33.701  36.018  1.00  0.00     0.037 A 
BRANCH  55  69
ATOM     69  C   UNL A   1      36.815  33.178  31.776  1.00  0.00     0.064 A 
ATOM     70  C   UNL A   1      36.804  33.779  30.510  1.00  0.00     0.173 A 
ATOM     71  C   UNL A   1      35.594  33.057  32.458  1.00  0.00     0.173 A 
ATOM     72  F   UNL A   1      37.947  33.931  29.825  1.00  0.00    -0.203 F 
ATOM     73  C   UNL A   1      35.617  34.243  29.950  1.00  0.00     0.198 A 
ATOM     74  C   UNL A   1      34.406  33.502  31.887  1.00  0.00     0.198 A 
ATOM     75  F   UNL A   1      35.552  32.486  33.672  1.00  0.00    -0.203 F 
ATOM     76  F   UNL A   1      35.630  34.835  28.748  1.00  0.00    -0.200 F 
ATOM     77  C   UNL A   1      34.417  34.096  30.634  1.00  0.00     0.200 A 
ATOM     78  F   UNL A   1      33.249  33.349  32.544  1.00  0.00    -0.200 F 
ATOM     79  F   UNL A   1      33.274  34.530  30.087  1.00  0.00    -0.200 F 
ENDBRANCH  55  69
BRANCH  56  80
ATOM     80  C   UNL A   1      44.727  28.733  35.855  1.00  0.00     0.064 A 
ATOM     81  C   UNL A   1      44.539  27.784  36.867  1.00  0.00     0.173 A 
ATOM     82  C   UNL A   1      46.039  28.980  35.423  1.00  0.00     0.173 A 
ATOM     83  F   UNL A   1      43.307  27.538  37.335  1.00  0.00    -0.203 F 
ATOM     84  C   UNL A   1      45.621  27.094  37.411  1.00  0.00     0.198 A 
ATOM     85  C   UNL A   1      47.115  28.269  35.947  1.00  0.00     0.198 A 
ATOM     86  F   UNL A   1      46.270  29.888  34.463  1.00  0.00    -0.203 F 
ATOM     87  F   UNL A   1      45.419  26.201  38.390  1.00  0.00    -0.200 F 
ATOM     88  C   UNL A   1      46.905  27.326  36.940  1.00  0.00     0.200 A 
ATOM     89  F   UNL A   1      48.350  28.486  35.476  1.00  0.00    -0.200 F 
ATOM     90  F   UNL A   1      47.941  26.641  37.444  1.00  0.00    -0.200 F 
ENDBRANCH  56  80
BRANCH  68  91
ATOM     91  C   UNL A   1      41.519  34.825  36.977  1.00  0.00     0.064 A 
ATOM     92  C   UNL A   1      40.944  34.836  38.255  1.00  0.00     0.173 A 
ATOM     93  C   UNL A   1      42.384  35.875  36.632  1.00  0.00     0.173 A 
ATOM     94  F   UNL A   1      40.099  33.862  38.624  1.00  0.00    -0.203 F 
ATOM     95  C   UNL A   1      41.215  35.868  39.151  1.00  0.00     0.198 A 
ATOM     96  C   UNL A   1      42.669  36.892  37.538  1.00  0.00     0.198 A 
ATOM     97  F   UNL A   1      42.962  35.904  35.422  1.00  0.00    -0.203 F 
ATOM     98  F   UNL A   1      40.628  35.878  40.356  1.00  0.00    -0.200 F 
ATOM     99  C   UNL A   1      42.082  36.891  38.794  1.00  0.00     0.200 A 
ATOM    100  F   UNL A   1      43.514  37.874  37.195  1.00  0.00    -0.200 F 
ATOM    101  F   UNL A   1      42.345  37.880  39.660  1.00  0.00    -0.200 F 
ENDBRANCH  68  91
ENDBRANCH  42  43
ENDBRANCH  35  37
ENDBRANCH  34  35
ENDBRANCH  33  34
ENDBRANCH  32  33
ENDBRANCH  31  32
ENDBRANCH  30  31
ENDBRANCH   1  30
TORSDOF 21
ENDMDL
