MODEL 1
REMARK VINA RESULT:     -11.5      0.000      0.000
REMARK SMILES COC(=O)c1cc(F)cc(-c2ccc(C(=O)OCCOCCOCCOC(=O)c3ccc(-c4c5nc(c(-c6c(F)c(F)c(F)c(F)c6F)c6ccc([nH]6)c(-c6c(F)c(F)c(F)c(F)c6F)c6nc(c(-c7c(F)c(F)c(F)c(F)c7F)c7ccc4[nH]7)C=C6)C=C5)cc3)cc2C)c1
REMARK SMILES IDX 21 1 20 2 19 3 18 4 17 5 15 6 16 7 14 8 11 9 12 10 93 11
REMARK SMILES IDX 13 12 92 13 94 14 10 15 5 16 6 17 95 18 7 19 8 20 9 21 3 22
REMARK SMILES IDX 4 23 2 24 1 25 22 26 23 27 24 28 25 29 26 30 27 31 28 32
REMARK SMILES IDX 29 33 30 34 91 35 31 36 90 37 32 38 33 39 34 40 84 41 35 42
REMARK SMILES IDX 89 43 83 44 85 45 36 46 88 47 82 48 81 49 37 51 69 52 49 53
REMARK SMILES IDX 68 54 50 55 53 56 67 57 86 58 51 59 52 60 66 62 87 63 54 64
REMARK SMILES IDX 38 65 39 66 47 67 40 68 41 69 45 70 48 71 42 72 43 73 46 74
REMARK SMILES IDX 44 75 70 76 71 77 79 78 72 79 73 80 77 81 80 82 74 83 75 84
REMARK SMILES IDX 78 85 76 86 55 87 56 88 64 89 57 90 58 91 62 92 65 93 59 94
REMARK SMILES IDX 60 95 63 96 61 97
REMARK H PARENT 85 50 53 61
REMARK Flexibility Score: inf
ROOT
ATOM      1  C   UNL A   1      40.611  21.850  26.386  1.00  0.00     0.188 C 
ENDROOT
BRANCH   1   2
ATOM      2  O   UNL A   1      39.284  22.299  26.164  1.00  0.00    -0.376 OA
BRANCH   2   3
ATOM      3  C   UNL A   1      38.431  21.469  25.389  1.00  0.00     0.202 C 
BRANCH   3   4
ATOM      4  C   UNL A   1      36.939  21.345  25.749  1.00  0.00     0.261 C 
BRANCH   4   5
ATOM      5  O   UNL A   1      36.090  22.506  25.630  1.00  0.00    -0.460 OA
BRANCH   5   6
ATOM      6  C   UNL A   1      34.763  22.261  25.391  1.00  0.00     0.338 C 
ATOM      7  O   UNL A   1      34.278  21.201  25.036  1.00  0.00    -0.246 OA
BRANCH   6   8
ATOM      8  C   UNL A   1      33.974  23.516  25.487  1.00  0.00     0.060 A 
ATOM      9  C   UNL A   1      32.615  26.042  25.404  1.00  0.00    -0.015 A 
ATOM     10  C   UNL A   1      33.943  25.894  24.995  1.00  0.00     0.010 A 
ATOM     11  C   UNL A   1      31.943  24.857  25.796  1.00  0.00    -0.042 A 
ATOM     12  C   UNL A   1      34.587  24.660  25.028  1.00  0.00     0.016 A 
ATOM     13  C   UNL A   1      32.632  23.602  25.839  1.00  0.00     0.019 A 
ATOM     14  C   UNL A   1      30.474  24.826  26.125  1.00  0.00     0.045 C 
BRANCH   9  15
ATOM     15  C   UNL A   1      32.063  27.422  25.382  1.00  0.00    -0.014 A 
ATOM     16  C   UNL A   1      30.778  29.175  24.208  1.00  0.00     0.063 A 
ATOM     17  C   UNL A   1      31.147  30.106  25.176  1.00  0.00     0.055 A 
ATOM     18  C   UNL A   1      31.222  27.845  24.324  1.00  0.00     0.024 A 
ATOM     19  C   UNL A   1      31.971  29.704  26.218  1.00  0.00     0.124 A 
ATOM     20  F   UNL A   1      32.332  30.603  27.144  1.00  0.00    -0.207 F 
ATOM     21  C   UNL A   1      32.441  28.393  26.321  1.00  0.00     0.048 A 
BRANCH  16  22
ATOM     22  C   UNL A   1      29.903  29.533  23.059  1.00  0.00     0.337 C 
ATOM     23  O   UNL A   1      29.907  28.938  22.001  1.00  0.00    -0.246 OA
BRANCH  22  24
ATOM     24  O   UNL A   1      29.121  30.600  23.377  1.00  0.00    -0.465 OA
ATOM     25  C   UNL A   1      27.760  30.458  22.971  1.00  0.00     0.282 C 
ENDBRANCH  22  24
ENDBRANCH  16  22
ENDBRANCH   9  15
ENDBRANCH   6   8
ENDBRANCH   5   6
ENDBRANCH   4   5
ENDBRANCH   3   4
ENDBRANCH   2   3
ENDBRANCH   1   2
BRANCH   1  26
ATOM     26  C   UNL A   1      40.936  21.146  27.708  1.00  0.00     0.188 C 
BRANCH  26  27
ATOM     27  O   UNL A   1      41.635  19.913  27.580  1.00  0.00    -0.376 OA
BRANCH  27  28
ATOM     28  C   UNL A   1      41.403  19.229  26.342  1.00  0.00     0.202 C 
BRANCH  28  29
ATOM     29  C   UNL A   1      42.579  18.340  25.908  1.00  0.00     0.261 C 
BRANCH  29  30
ATOM     30  O   UNL A   1      43.153  18.875  24.705  1.00  0.00    -0.460 OA
BRANCH  30  31
ATOM     31  C   UNL A   1      44.456  19.221  24.840  1.00  0.00     0.338 C 
ATOM     32  O   UNL A   1      45.387  18.447  24.986  1.00  0.00    -0.246 OA
BRANCH  31  33
ATOM     33  C   UNL A   1      44.562  20.701  24.964  1.00  0.00     0.060 A 
ATOM     34  C   UNL A   1      44.468  21.267  26.230  1.00  0.00     0.016 A 
ATOM     35  C   UNL A   1      44.621  21.537  23.833  1.00  0.00     0.016 A 
ATOM     36  C   UNL A   1      44.431  22.655  26.344  1.00  0.00     0.010 A 
ATOM     37  C   UNL A   1      44.553  22.928  23.950  1.00  0.00     0.010 A 
ATOM     38  C   UNL A   1      44.456  23.506  25.210  1.00  0.00    -0.014 A 
BRANCH  38  39
ATOM     39  C   UNL A   1      44.625  24.971  25.407  1.00  0.00     0.031 A 
ATOM     40  C   UNL A   1      43.505  25.915  25.756  1.00  0.00     0.074 A 
ATOM     41  C   UNL A   1      45.898  25.398  25.468  1.00  0.00     0.049 A 
ATOM     42  N   UNL A   1      43.579  26.999  26.491  1.00  0.00    -0.248 NA
ATOM     43  C   UNL A   1      42.131  25.557  25.374  1.00  0.00     0.031 C 
ATOM     44  C   UNL A   1      47.069  24.580  25.138  1.00  0.00     0.029 A 
ATOM     45  N   UNL A   1      46.419  26.596  25.864  1.00  0.00    -0.354 N 
ATOM     46  C   UNL A   1      42.270  27.318  26.839  1.00  0.00     0.074 A 
ATOM     47  C   UNL A   1      41.412  26.394  26.128  1.00  0.00     0.031 C 
ATOM     48  C   UNL A   1      48.175  25.297  25.361  1.00  0.00     0.029 A 
ATOM     49  C   UNL A   1      47.785  26.634  25.791  1.00  0.00     0.049 A 
ATOM     50  H   UNL A   1      45.869  27.353  26.168  1.00  0.00     0.167 HD
ATOM     51  C   UNL A   1      41.866  28.258  27.727  1.00  0.00     0.037 A 
ATOM     52  C   UNL A   1      48.631  27.655  26.001  1.00  0.00     0.037 A 
ATOM     53  C   UNL A   1      42.720  29.330  28.179  1.00  0.00     0.049 A 
ATOM     54  C   UNL A   1      48.077  28.925  26.564  1.00  0.00     0.074 A 
ATOM     55  C   UNL A   1      42.372  30.469  28.885  1.00  0.00     0.029 A 
ATOM     56  N   UNL A   1      44.067  29.449  27.872  1.00  0.00    -0.354 N 
ATOM     57  N   UNL A   1      46.866  29.163  27.006  1.00  0.00    -0.248 NA
ATOM     58  C   UNL A   1      48.995  30.060  26.666  1.00  0.00     0.031 C 
ATOM     59  C   UNL A   1      43.468  31.339  28.865  1.00  0.00     0.029 A 
ATOM     60  C   UNL A   1      44.531  30.698  28.248  1.00  0.00     0.049 A 
ATOM     61  H   UNL A   1      44.614  28.747  27.449  1.00  0.00     0.167 HD
ATOM     62  C   UNL A   1      46.875  30.473  27.456  1.00  0.00     0.074 A 
ATOM     63  C   UNL A   1      48.221  30.970  27.242  1.00  0.00     0.031 C 
ATOM     64  C   UNL A   1      45.864  31.191  28.007  1.00  0.00     0.037 A 
BRANCH  51  65
ATOM     65  C   UNL A   1      40.443  28.279  28.210  1.00  0.00     0.064 A 
ATOM     66  C   UNL A   1      39.456  28.955  27.480  1.00  0.00     0.173 A 
ATOM     67  C   UNL A   1      40.109  27.829  29.500  1.00  0.00     0.173 A 
ATOM     68  F   UNL A   1      39.735  29.429  26.258  1.00  0.00    -0.203 F 
ATOM     69  C   UNL A   1      38.198  29.204  28.026  1.00  0.00     0.198 A 
ATOM     70  C   UNL A   1      38.843  28.072  30.041  1.00  0.00     0.198 A 
ATOM     71  F   UNL A   1      41.021  27.198  30.253  1.00  0.00    -0.203 F 
ATOM     72  F   UNL A   1      37.291  29.899  27.325  1.00  0.00    -0.200 F 
ATOM     73  C   UNL A   1      37.894  28.768  29.308  1.00  0.00     0.200 A 
ATOM     74  F   UNL A   1      38.551  27.664  31.284  1.00  0.00    -0.200 F 
ATOM     75  F   UNL A   1      36.692  29.037  29.840  1.00  0.00    -0.200 F 
ENDBRANCH  51  65
BRANCH  52  76
ATOM     76  C   UNL A   1      50.043  27.490  25.582  1.00  0.00     0.064 A 
ATOM     77  C   UNL A   1      50.373  27.548  24.214  1.00  0.00     0.173 A 
ATOM     78  C   UNL A   1      51.065  27.195  26.487  1.00  0.00     0.173 A 
ATOM     79  F   UNL A   1      49.427  27.830  23.305  1.00  0.00    -0.203 F 
ATOM     80  C   UNL A   1      51.657  27.259  23.767  1.00  0.00     0.198 A 
ATOM     81  C   UNL A   1      52.362  26.946  26.040  1.00  0.00     0.198 A 
ATOM     82  F   UNL A   1      50.804  27.146  27.801  1.00  0.00    -0.203 F 
ATOM     83  F   UNL A   1      51.919  27.248  22.453  1.00  0.00    -0.200 F 
ATOM     84  C   UNL A   1      52.652  26.962  24.681  1.00  0.00     0.200 A 
ATOM     85  F   UNL A   1      53.333  26.683  26.925  1.00  0.00    -0.200 F 
ATOM     86  F   UNL A   1      53.892  26.687  24.254  1.00  0.00    -0.200 F 
ENDBRANCH  52  76
BRANCH  64  87
ATOM     87  C   UNL A   1      46.174  32.599  28.424  1.00  0.00     0.064 A 
ATOM     88  C   UNL A   1      45.992  33.665  27.531  1.00  0.00     0.173 A 
ATOM     89  C   UNL A   1      46.678  32.892  29.700  1.00  0.00     0.173 A 
ATOM     90  F   UNL A   1      45.520  33.444  26.296  1.00  0.00    -0.203 F 
ATOM     91  C   UNL A   1      46.301  34.971  27.898  1.00  0.00     0.198 A 
ATOM     92  C   UNL A   1      46.949  34.204  30.078  1.00  0.00     0.198 A 
ATOM     93  F   UNL A   1      46.860  31.911  30.597  1.00  0.00    -0.203 F 
ATOM     94  F   UNL A   1      46.138  35.968  27.019  1.00  0.00    -0.200 F 
ATOM     95  C   UNL A   1      46.767  35.241  29.175  1.00  0.00     0.200 A 
ATOM     96  F   UNL A   1      47.365  34.467  31.325  1.00  0.00    -0.200 F 
ATOM     97  F   UNL A   1      47.030  36.503  29.540  1.00  0.00    -0.200 F 
ENDBRANCH  64  87
ENDBRANCH  38  39
ENDBRANCH  31  33
ENDBRANCH  30  31
ENDBRANCH  29  30
ENDBRANCH  28  29
ENDBRANCH  27  28
ENDBRANCH  26  27
ENDBRANCH   1  26
TORSDOF 20
ENDMDL
MODEL 2
REMARK VINA RESULT:     -10.9      3.473      9.356
REMARK SMILES COC(=O)c1cc(F)cc(-c2ccc(C(=O)OCCOCCOCCOC(=O)c3ccc(-c4c5nc(c(-c6c(F)c(F)c(F)c(F)c6F)c6ccc([nH]6)c(-c6c(F)c(F)c(F)c(F)c6F)c6nc(c(-c7c(F)c(F)c(F)c(F)c7F)c7ccc4[nH]7)C=C6)C=C5)cc3)cc2C)c1
REMARK SMILES IDX 21 1 20 2 19 3 18 4 17 5 15 6 16 7 14 8 11 9 12 10 93 11
REMARK SMILES IDX 13 12 92 13 94 14 10 15 5 16 6 17 95 18 7 19 8 20 9 21 3 22
REMARK SMILES IDX 4 23 2 24 1 25 22 26 23 27 24 28 25 29 26 30 27 31 28 32
REMARK SMILES IDX 29 33 30 34 91 35 31 36 90 37 32 38 33 39 34 40 84 41 35 42
REMARK SMILES IDX 89 43 83 44 85 45 36 46 88 47 82 48 81 49 37 51 69 52 49 53
REMARK SMILES IDX 68 54 50 55 53 56 67 57 86 58 51 59 52 60 66 62 87 63 54 64
REMARK SMILES IDX 38 65 39 66 47 67 40 68 41 69 45 70 48 71 42 72 43 73 46 74
REMARK SMILES IDX 44 75 70 76 71 77 79 78 72 79 73 80 77 81 80 82 74 83 75 84
REMARK SMILES IDX 78 85 76 86 55 87 56 88 64 89 57 90 58 91 62 92 65 93 59 94
REMARK SMILES IDX 60 95 63 96 61 97
REMARK H PARENT 85 50 53 61
REMARK Flexibility Score: inf
ROOT
ATOM      1  C   UNL A   1      33.583  30.787  26.986  1.00  0.00     0.188 C 
ENDROOT
BRANCH   1   2
ATOM      2  O   UNL A   1      34.038  29.469  27.245  1.00  0.00    -0.376 OA
BRANCH   2   3
ATOM      3  C   UNL A   1      33.287  28.395  26.695  1.00  0.00     0.202 C 
BRANCH   3   4
ATOM      4  C   UNL A   1      31.926  28.013  27.305  1.00  0.00     0.261 C 
BRANCH   4   5
ATOM      5  O   UNL A   1      31.343  26.735  26.974  1.00  0.00    -0.460 OA
BRANCH   5   6
ATOM      6  C   UNL A   1      31.183  26.471  25.639  1.00  0.00     0.338 C 
ATOM      7  O   UNL A   1      30.457  27.072  24.867  1.00  0.00    -0.246 OA
BRANCH   6   8
ATOM      8  C   UNL A   1      31.922  25.240  25.258  1.00  0.00     0.060 A 
ATOM      9  C   UNL A   1      33.161  22.702  24.744  1.00  0.00    -0.015 A 
ATOM     10  C   UNL A   1      32.689  23.062  26.009  1.00  0.00     0.010 A 
ATOM     11  C   UNL A   1      32.928  23.633  23.700  1.00  0.00    -0.042 A 
ATOM     12  C   UNL A   1      32.078  24.291  26.243  1.00  0.00     0.016 A 
ATOM     13  C   UNL A   1      32.313  24.899  23.968  1.00  0.00     0.019 A 
ATOM     14  C   UNL A   1      33.244  23.335  22.259  1.00  0.00     0.045 C 
BRANCH   9  15
ATOM     15  C   UNL A   1      33.852  21.391  24.641  1.00  0.00    -0.014 A 
ATOM     16  C   UNL A   1      33.720  18.940  24.371  1.00  0.00     0.063 A 
ATOM     17  C   UNL A   1      35.083  18.827  24.635  1.00  0.00     0.055 A 
ATOM     18  C   UNL A   1      33.120  20.212  24.360  1.00  0.00     0.024 A 
ATOM     19  C   UNL A   1      35.812  19.976  24.911  1.00  0.00     0.124 A 
ATOM     20  F   UNL A   1      37.122  19.867  25.173  1.00  0.00    -0.207 F 
ATOM     21  C   UNL A   1      35.215  21.239  24.933  1.00  0.00     0.048 A 
BRANCH  16  22
ATOM     22  C   UNL A   1      32.873  17.752  24.073  1.00  0.00     0.337 C 
ATOM     23  O   UNL A   1      32.825  17.219  22.983  1.00  0.00    -0.246 OA
BRANCH  22  24
ATOM     24  O   UNL A   1      32.186  17.373  25.184  1.00  0.00    -0.465 OA
ATOM     25  C   UNL A   1      32.292  15.981  25.481  1.00  0.00     0.282 C 
ENDBRANCH  22  24
ENDBRANCH  16  22
ENDBRANCH   9  15
ENDBRANCH   6   8
ENDBRANCH   5   6
ENDBRANCH   4   5
ENDBRANCH   3   4
ENDBRANCH   2   3
ENDBRANCH   1   2
BRANCH   1  26
ATOM     26  C   UNL A   1      33.757  31.851  28.076  1.00  0.00     0.188 C 
BRANCH  26  27
ATOM     27  O   UNL A   1      33.361  33.167  27.704  1.00  0.00    -0.376 OA
BRANCH  27  28
ATOM     28  C   UNL A   1      33.960  34.207  28.487  1.00  0.00     0.202 C 
BRANCH  28  29
ATOM     29  C   UNL A   1      34.013  33.885  29.989  1.00  0.00     0.261 C 
BRANCH  29  30
ATOM     30  O   UNL A   1      35.362  34.036  30.454  1.00  0.00    -0.460 OA
BRANCH  30  31
ATOM     31  C   UNL A   1      35.689  33.173  31.447  1.00  0.00     0.338 C 
ATOM     32  O   UNL A   1      35.108  33.064  32.515  1.00  0.00    -0.246 OA
BRANCH  31  33
ATOM     33  C   UNL A   1      36.976  32.503  31.114  1.00  0.00     0.060 A 
ATOM     34  C   UNL A   1      37.181  32.077  29.808  1.00  0.00     0.016 A 
ATOM     35  C   UNL A   1      37.921  32.180  32.107  1.00  0.00     0.016 A 
ATOM     36  C   UNL A   1      38.321  31.332  29.516  1.00  0.00     0.010 A 
ATOM     37  C   UNL A   1      39.047  31.407  31.815  1.00  0.00     0.010 A 
ATOM     38  C   UNL A   1      39.262  30.971  30.514  1.00  0.00    -0.014 A 
BRANCH  38  39
ATOM     39  C   UNL A   1      40.555  30.360  30.103  1.00  0.00     0.031 A 
ATOM     40  C   UNL A   1      40.755  28.890  29.844  1.00  0.00     0.074 A 
ATOM     41  C   UNL A   1      41.517  31.232  29.758  1.00  0.00     0.049 A 
ATOM     42  N   UNL A   1      41.568  28.339  28.975  1.00  0.00    -0.248 NA
ATOM     43  C   UNL A   1      39.867  27.925  30.510  1.00  0.00     0.031 C 
ATOM     44  C   UNL A   1      41.447  32.681  29.973  1.00  0.00     0.029 A 
ATOM     45  N   UNL A   1      42.711  31.040  29.125  1.00  0.00    -0.354 N 
ATOM     46  C   UNL A   1      41.143  27.021  28.831  1.00  0.00     0.074 A 
ATOM     47  C   UNL A   1      40.086  26.817  29.798  1.00  0.00     0.031 C 
ATOM     48  C   UNL A   1      42.544  33.249  29.464  1.00  0.00     0.029 A 
ATOM     49  C   UNL A   1      43.413  32.200  28.943  1.00  0.00     0.049 A 
ATOM     50  H   UNL A   1      43.033  30.158  28.830  1.00  0.00     0.167 HD
ATOM     51  C   UNL A   1      41.574  26.118  27.918  1.00  0.00     0.037 A 
ATOM     52  C   UNL A   1      44.648  32.394  28.454  1.00  0.00     0.037 A 
ATOM     53  C   UNL A   1      42.808  26.270  27.185  1.00  0.00     0.049 A 
ATOM     54  C   UNL A   1      45.354  31.225  27.843  1.00  0.00     0.074 A 
ATOM     55  C   UNL A   1      43.472  25.332  26.413  1.00  0.00     0.029 A 
ATOM     56  N   UNL A   1      43.617  27.396  27.225  1.00  0.00    -0.354 N 
ATOM     57  N   UNL A   1      44.888  30.024  27.601  1.00  0.00    -0.248 NA
ATOM     58  C   UNL A   1      46.744  31.433  27.432  1.00  0.00     0.031 C 
ATOM     59  C   UNL A   1      44.745  25.837  26.123  1.00  0.00     0.029 A 
ATOM     60  C   UNL A   1      44.831  27.130  26.615  1.00  0.00     0.049 A 
ATOM     61  H   UNL A   1      43.365  28.258  27.629  1.00  0.00     0.167 HD
ATOM     62  C   UNL A   1      45.921  29.330  26.992  1.00  0.00     0.074 A 
ATOM     63  C   UNL A   1      47.034  30.256  26.894  1.00  0.00     0.031 C 
ATOM     64  C   UNL A   1      45.939  28.049  26.545  1.00  0.00     0.037 A 
BRANCH  51  65
ATOM     65  C   UNL A   1      40.813  24.841  27.701  1.00  0.00     0.064 A 
ATOM     66  C   UNL A   1      41.363  23.613  28.091  1.00  0.00     0.173 A 
ATOM     67  C   UNL A   1      39.652  24.814  26.909  1.00  0.00     0.173 A 
ATOM     68  F   UNL A   1      42.487  23.585  28.823  1.00  0.00    -0.203 F 
ATOM     69  C   UNL A   1      40.801  22.406  27.678  1.00  0.00     0.198 A 
ATOM     70  C   UNL A   1      39.084  23.603  26.504  1.00  0.00     0.198 A 
ATOM     71  F   UNL A   1      39.096  25.958  26.486  1.00  0.00    -0.203 F 
ATOM     72  F   UNL A   1      41.380  21.247  28.023  1.00  0.00    -0.200 F 
ATOM     73  C   UNL A   1      39.666  22.401  26.880  1.00  0.00     0.200 A 
ATOM     74  F   UNL A   1      37.996  23.595  25.722  1.00  0.00    -0.200 F 
ATOM     75  F   UNL A   1      39.147  21.238  26.460  1.00  0.00    -0.200 F 
ENDBRANCH  51  65
BRANCH  52  76
ATOM     76  C   UNL A   1      45.268  33.728  28.629  1.00  0.00     0.064 A 
ATOM     77  C   UNL A   1      45.269  34.640  27.555  1.00  0.00     0.173 A 
ATOM     78  C   UNL A   1      45.934  34.099  29.799  1.00  0.00     0.173 A 
ATOM     79  F   UNL A   1      44.641  34.331  26.410  1.00  0.00    -0.203 F 
ATOM     80  C   UNL A   1      45.960  35.843  27.629  1.00  0.00     0.198 A 
ATOM     81  C   UNL A   1      46.592  35.325  29.885  1.00  0.00     0.198 A 
ATOM     82  F   UNL A   1      45.946  33.273  30.855  1.00  0.00    -0.203 F 
ATOM     83  F   UNL A   1      46.005  36.653  26.561  1.00  0.00    -0.200 F 
ATOM     84  C   UNL A   1      46.619  36.186  28.795  1.00  0.00     0.200 A 
ATOM     85  F   UNL A   1      47.209  35.671  31.023  1.00  0.00    -0.200 F 
ATOM     86  F   UNL A   1      47.284  37.348  28.871  1.00  0.00    -0.200 F 
ENDBRANCH  52  76
BRANCH  64  87
ATOM     87  C   UNL A   1      47.207  27.568  25.902  1.00  0.00     0.064 A 
ATOM     88  C   UNL A   1      47.388  27.671  24.514  1.00  0.00     0.173 A 
ATOM     89  C   UNL A   1      48.234  26.978  26.654  1.00  0.00     0.173 A 
ATOM     90  F   UNL A   1      46.437  28.220  23.745  1.00  0.00    -0.203 F 
ATOM     91  C   UNL A   1      48.547  27.205  23.904  1.00  0.00     0.198 A 
ATOM     92  C   UNL A   1      49.409  26.547  26.046  1.00  0.00     0.198 A 
ATOM     93  F   UNL A   1      48.116  26.865  27.986  1.00  0.00    -0.203 F 
ATOM     94  F   UNL A   1      48.686  27.297  22.575  1.00  0.00    -0.200 F 
ATOM     95  C   UNL A   1      49.562  26.655  24.672  1.00  0.00     0.200 A 
ATOM     96  F   UNL A   1      50.404  26.050  26.794  1.00  0.00    -0.200 F 
ATOM     97  F   UNL A   1      50.694  26.239  24.087  1.00  0.00    -0.200 F 
ENDBRANCH  64  87
ENDBRANCH  38  39
ENDBRANCH  31  33
ENDBRANCH  30  31
ENDBRANCH  29  30
ENDBRANCH  28  29
ENDBRANCH  27  28
ENDBRANCH  26  27
ENDBRANCH   1  26
TORSDOF 20
ENDMDL
MODEL 3
REMARK VINA RESULT:     -10.7      5.691     11.628
REMARK SMILES COC(=O)c1cc(F)cc(-c2ccc(C(=O)OCCOCCOCCOC(=O)c3ccc(-c4c5nc(c(-c6c(F)c(F)c(F)c(F)c6F)c6ccc([nH]6)c(-c6c(F)c(F)c(F)c(F)c6F)c6nc(c(-c7c(F)c(F)c(F)c(F)c7F)c7ccc4[nH]7)C=C6)C=C5)cc3)cc2C)c1
REMARK SMILES IDX 21 1 20 2 19 3 18 4 17 5 15 6 16 7 14 8 11 9 12 10 93 11
REMARK SMILES IDX 13 12 92 13 94 14 10 15 5 16 6 17 95 18 7 19 8 20 9 21 3 22
REMARK SMILES IDX 4 23 2 24 1 25 22 26 23 27 24 28 25 29 26 30 27 31 28 32
REMARK SMILES IDX 29 33 30 34 91 35 31 36 90 37 32 38 33 39 34 40 84 41 35 42
REMARK SMILES IDX 89 43 83 44 85 45 36 46 88 47 82 48 81 49 37 51 69 52 49 53
REMARK SMILES IDX 68 54 50 55 53 56 67 57 86 58 51 59 52 60 66 62 87 63 54 64
REMARK SMILES IDX 38 65 39 66 47 67 40 68 41 69 45 70 48 71 42 72 43 73 46 74
REMARK SMILES IDX 44 75 70 76 71 77 79 78 72 79 73 80 77 81 80 82 74 83 75 84
REMARK SMILES IDX 78 85 76 86 55 87 56 88 64 89 57 90 58 91 62 92 65 93 59 94
REMARK SMILES IDX 60 95 63 96 61 97
REMARK H PARENT 85 50 53 61
REMARK Flexibility Score: inf
ROOT
ATOM      1  C   UNL A   1      32.529  29.154  25.019  1.00  0.00     0.188 C 
ENDROOT
BRANCH   1   2
ATOM      2  O   UNL A   1      32.614  28.672  23.687  1.00  0.00    -0.376 OA
BRANCH   2   3
ATOM      3  C   UNL A   1      32.070  27.388  23.418  1.00  0.00     0.202 C 
BRANCH   3   4
ATOM      4  C   UNL A   1      30.668  27.019  23.935  1.00  0.00     0.261 C 
BRANCH   4   5
ATOM      5  O   UNL A   1      30.339  25.630  24.143  1.00  0.00    -0.460 OA
BRANCH   5   6
ATOM      6  C   UNL A   1      30.491  25.158  25.421  1.00  0.00     0.338 C 
ATOM      7  O   UNL A   1      30.057  25.673  26.436  1.00  0.00    -0.246 OA
BRANCH   6   8
ATOM      8  C   UNL A   1      31.393  23.978  25.437  1.00  0.00     0.060 A 
ATOM      9  C   UNL A   1      33.257  21.810  25.181  1.00  0.00    -0.015 A 
ATOM     10  C   UNL A   1      32.651  22.410  24.074  1.00  0.00     0.010 A 
ATOM     11  C   UNL A   1      32.959  22.379  26.445  1.00  0.00    -0.042 A 
ATOM     12  C   UNL A   1      31.758  23.469  24.211  1.00  0.00     0.016 A 
ATOM     13  C   UNL A   1      32.023  23.457  26.562  1.00  0.00     0.019 A 
ATOM     14  C   UNL A   1      33.639  21.942  27.715  1.00  0.00     0.045 C 
BRANCH   9  15
ATOM     15  C   UNL A   1      34.138  20.645  24.906  1.00  0.00    -0.014 A 
ATOM     16  C   UNL A   1      34.390  18.216  24.541  1.00  0.00     0.063 A 
ATOM     17  C   UNL A   1      35.776  18.343  24.582  1.00  0.00     0.055 A 
ATOM     18  C   UNL A   1      33.585  19.360  24.687  1.00  0.00     0.024 A 
ATOM     19  C   UNL A   1      36.330  19.598  24.795  1.00  0.00     0.124 A 
ATOM     20  F   UNL A   1      37.664  19.719  24.843  1.00  0.00    -0.207 F 
ATOM     21  C   UNL A   1      35.536  20.733  24.973  1.00  0.00     0.048 A 
BRANCH  16  22
ATOM     22  C   UNL A   1      33.723  16.903  24.322  1.00  0.00     0.337 C 
ATOM     23  O   UNL A   1      33.890  16.222  23.330  1.00  0.00    -0.246 OA
BRANCH  22  24
ATOM     24  O   UNL A   1      32.925  16.597  25.380  1.00  0.00    -0.465 OA
ATOM     25  C   UNL A   1      32.511  15.231  25.415  1.00  0.00     0.282 C 
ENDBRANCH  22  24
ENDBRANCH  16  22
ENDBRANCH   9  15
ENDBRANCH   6   8
ENDBRANCH   5   6
ENDBRANCH   4   5
ENDBRANCH   3   4
ENDBRANCH   2   3
ENDBRANCH   1   2
BRANCH   1  26
ATOM     26  C   UNL A   1      31.458  30.197  25.356  1.00  0.00     0.188 C 
BRANCH  26  27
ATOM     27  O   UNL A   1      31.505  30.703  26.685  1.00  0.00    -0.376 OA
BRANCH  27  28
ATOM     28  C   UNL A   1      32.590  31.607  26.935  1.00  0.00     0.202 C 
BRANCH  28  29
ATOM     29  C   UNL A   1      32.159  33.081  26.973  1.00  0.00     0.261 C 
BRANCH  29  30
ATOM     30  O   UNL A   1      32.763  33.716  28.111  1.00  0.00    -0.460 OA
BRANCH  30  31
ATOM     31  C   UNL A   1      34.014  34.177  27.867  1.00  0.00     0.338 C 
ATOM     32  O   UNL A   1      34.309  35.048  27.066  1.00  0.00    -0.246 OA
BRANCH  31  33
ATOM     33  C   UNL A   1      35.000  33.331  28.595  1.00  0.00     0.060 A 
ATOM     34  C   UNL A   1      34.543  32.527  29.632  1.00  0.00     0.016 A 
ATOM     35  C   UNL A   1      36.383  33.425  28.347  1.00  0.00     0.016 A 
ATOM     36  C   UNL A   1      35.473  31.835  30.405  1.00  0.00     0.010 A 
ATOM     37  C   UNL A   1      37.313  32.753  29.143  1.00  0.00     0.010 A 
ATOM     38  C   UNL A   1      36.870  31.948  30.185  1.00  0.00    -0.014 A 
BRANCH  38  39
ATOM     39  C   UNL A   1      37.793  31.028  30.903  1.00  0.00     0.031 A 
ATOM     40  C   UNL A   1      38.412  29.800  30.290  1.00  0.00     0.074 A 
ATOM     41  C   UNL A   1      38.230  31.469  32.095  1.00  0.00     0.049 A 
ATOM     42  N   UNL A   1      39.593  29.290  30.551  1.00  0.00    -0.248 NA
ATOM     43  C   UNL A   1      37.722  29.139  29.172  1.00  0.00     0.031 C 
ATOM     44  C   UNL A   1      37.697  32.640  32.798  1.00  0.00     0.029 A 
ATOM     45  N   UNL A   1      39.237  31.018  32.899  1.00  0.00    -0.354 N 
ATOM     46  C   UNL A   1      39.874  28.415  29.506  1.00  0.00     0.074 A 
ATOM     47  C   UNL A   1      38.689  28.361  28.677  1.00  0.00     0.031 C 
ATOM     48  C   UNL A   1      38.394  32.824  33.923  1.00  0.00     0.029 A 
ATOM     49  C   UNL A   1      39.377  31.755  34.043  1.00  0.00     0.049 A 
ATOM     50  H   UNL A   1      39.802  30.243  32.678  1.00  0.00     0.167 HD
ATOM     51  C   UNL A   1      41.049  27.788  29.258  1.00  0.00     0.037 A 
ATOM     52  C   UNL A   1      40.181  31.561  35.100  1.00  0.00     0.037 A 
ATOM     53  C   UNL A   1      42.086  27.643  30.251  1.00  0.00     0.049 A 
ATOM     54  C   UNL A   1      41.222  30.491  35.006  1.00  0.00     0.074 A 
ATOM     55  C   UNL A   1      43.213  26.839  30.209  1.00  0.00     0.029 A 
ATOM     56  N   UNL A   1      42.064  28.230  31.508  1.00  0.00    -0.354 N 
ATOM     57  N   UNL A   1      41.556  29.765  33.967  1.00  0.00    -0.248 NA
ATOM     58  C   UNL A   1      42.000  30.216  36.216  1.00  0.00     0.031 C 
ATOM     59  C   UNL A   1      43.778  26.822  31.489  1.00  0.00     0.029 A 
ATOM     60  C   UNL A   1      43.072  27.701  32.296  1.00  0.00     0.049 A 
ATOM     61  H   UNL A   1      41.425  28.921  31.797  1.00  0.00     0.167 HD
ATOM     62  C   UNL A   1      42.597  28.953  34.388  1.00  0.00     0.074 A 
ATOM     63  C   UNL A   1      42.843  29.291  35.778  1.00  0.00     0.031 C 
ATOM     64  C   UNL A   1      43.291  28.025  33.684  1.00  0.00     0.037 A 
BRANCH  51  65
ATOM     65  C   UNL A   1      41.282  27.114  27.935  1.00  0.00     0.064 A 
ATOM     66  C   UNL A   1      41.092  25.732  27.800  1.00  0.00     0.173 A 
ATOM     67  C   UNL A   1      41.906  27.795  26.875  1.00  0.00     0.173 A 
ATOM     68  F   UNL A   1      40.528  25.035  28.796  1.00  0.00    -0.203 F 
ATOM     69  C   UNL A   1      41.539  25.049  26.670  1.00  0.00     0.198 A 
ATOM     70  C   UNL A   1      42.345  27.109  25.739  1.00  0.00     0.198 A 
ATOM     71  F   UNL A   1      42.136  29.113  26.960  1.00  0.00    -0.203 F 
ATOM     72  F   UNL A   1      41.391  23.720  26.592  1.00  0.00    -0.200 F 
ATOM     73  C   UNL A   1      42.170  25.736  25.643  1.00  0.00     0.200 A 
ATOM     74  F   UNL A   1      42.967  27.768  24.751  1.00  0.00    -0.200 F 
ATOM     75  F   UNL A   1      42.625  25.070  24.572  1.00  0.00    -0.200 F 
ENDBRANCH  51  65
BRANCH  52  76
ATOM     76  C   UNL A   1      39.930  32.357  36.325  1.00  0.00     0.064 A 
ATOM     77  C   UNL A   1      38.837  32.032  37.153  1.00  0.00     0.173 A 
ATOM     78  C   UNL A   1      40.688  33.481  36.658  1.00  0.00     0.173 A 
ATOM     79  F   UNL A   1      38.079  30.960  36.877  1.00  0.00    -0.203 F 
ATOM     80  C   UNL A   1      38.483  32.835  38.230  1.00  0.00     0.198 A 
ATOM     81  C   UNL A   1      40.355  34.261  37.764  1.00  0.00     0.198 A 
ATOM     82  F   UNL A   1      41.748  33.820  35.911  1.00  0.00    -0.203 F 
ATOM     83  F   UNL A   1      37.392  32.540  38.951  1.00  0.00    -0.200 F 
ATOM     84  C   UNL A   1      39.244  33.948  38.537  1.00  0.00     0.200 A 
ATOM     85  F   UNL A   1      41.106  35.326  38.079  1.00  0.00    -0.200 F 
ATOM     86  F   UNL A   1      38.908  34.723  39.578  1.00  0.00    -0.200 F 
ENDBRANCH  52  76
BRANCH  64  87
ATOM     87  C   UNL A   1      44.393  27.304  34.404  1.00  0.00     0.064 A 
ATOM     88  C   UNL A   1      45.690  27.839  34.445  1.00  0.00     0.173 A 
ATOM     89  C   UNL A   1      44.174  26.068  35.031  1.00  0.00     0.173 A 
ATOM     90  F   UNL A   1      45.958  29.013  33.858  1.00  0.00    -0.203 F 
ATOM     91  C   UNL A   1      46.724  27.167  35.088  1.00  0.00     0.198 A 
ATOM     92  C   UNL A   1      45.202  25.417  35.706  1.00  0.00     0.198 A 
ATOM     93  F   UNL A   1      42.951  25.517  35.031  1.00  0.00    -0.203 F 
ATOM     94  F   UNL A   1      47.957  27.690  35.095  1.00  0.00    -0.200 F 
ATOM     95  C   UNL A   1      46.477  25.963  35.728  1.00  0.00     0.200 A 
ATOM     96  F   UNL A   1      44.953  24.271  36.355  1.00  0.00    -0.200 F 
ATOM     97  F   UNL A   1      47.466  25.334  36.378  1.00  0.00    -0.200 F 
ENDBRANCH  64  87
ENDBRANCH  38  39
ENDBRANCH  31  33
ENDBRANCH  30  31
ENDBRANCH  29  30
ENDBRANCH  28  29
ENDBRANCH  27  28
ENDBRANCH  26  27
ENDBRANCH   1  26
TORSDOF 20
ENDMDL
