MODEL 1
REMARK VINA RESULT:     -11.2      0.000      0.000
REMARK SMILES C[C@@H]1[C@H](C(=O)OCCOCCOCCOC(=O)c2ccc(-c3c4nc(c(-c5c(F)c(F)c(F)c(F)c5F)c5ccc([nH]5)c(-c5c(F)c(F)c(F)c(F)c5F)c5nc(c(-c6c(F)c(F)c(F)c(F)c6F)c6ccc3[nH]6)C=C5)C=C4)cc2)CC[N@@H+]1[C@@H](C)c1cc(F)cc(F)c1
REMARK SMILES IDX 10 1 9 2 8 3 7 4 6 5 4 6 5 7 3 8 1 9 2 10 83 11 81 12 82 13
REMARK SMILES IDX 84 15 85 16 86 17 87 18 93 19 88 20 91 21 89 22 90 23 92 24
REMARK SMILES IDX 11 25 12 26 13 27 14 28 15 29 16 30 17 31 18 32 19 33 80 34
REMARK SMILES IDX 20 35 79 36 21 37 22 38 23 39 73 40 24 41 78 42 72 43 74 44
REMARK SMILES IDX 25 45 77 46 71 47 70 48 26 50 58 51 38 52 57 53 39 54 42 55
REMARK SMILES IDX 56 56 75 57 40 58 41 59 55 61 76 62 43 63 27 64 28 65 36 66
REMARK SMILES IDX 29 67 30 68 34 69 37 70 31 71 32 72 35 73 33 74 59 75 60 76
REMARK SMILES IDX 68 77 61 78 62 79 66 80 69 81 63 82 64 83 67 84 65 85 44 86
REMARK SMILES IDX 45 87 53 88 46 89 47 90 51 91 54 92 48 93 49 94 52 95 50 96
REMARK H PARENT 83 14 74 49 42 60
REMARK Flexibility Score: inf
ROOT
ATOM      1  C   UNL A   1      41.842  19.283  26.878  1.00  0.00     0.188 C 
ENDROOT
BRANCH   1   2
ATOM      2  O   UNL A   1      40.699  19.604  26.118  1.00  0.00    -0.376 OA
BRANCH   2   3
ATOM      3  C   UNL A   1      40.013  20.810  26.437  1.00  0.00     0.202 C 
BRANCH   3   4
ATOM      4  C   UNL A   1      38.960  21.343  25.461  1.00  0.00     0.261 C 
BRANCH   4   5
ATOM      5  O   UNL A   1      37.919  22.066  26.149  1.00  0.00    -0.463 OA
BRANCH   5   6
ATOM      6  C   UNL A   1      36.663  21.912  25.679  1.00  0.00     0.315 C 
ATOM      7  O   UNL A   1      36.341  21.031  24.885  1.00  0.00    -0.252 OA
BRANCH   6   8
ATOM      8  C   UNL A   1      35.628  22.858  26.271  1.00  0.00     0.162 C 
ATOM      9  C   UNL A   1      35.007  23.962  23.990  1.00  0.00     0.076 C 
ATOM     10  C   UNL A   1      34.923  24.003  25.506  1.00  0.00     0.196 C 
ATOM     11  N   UNL A   1      33.557  24.057  26.078  1.00  0.00    -0.326 N 
ATOM     12  C   UNL A   1      34.473  22.003  26.770  1.00  0.00     0.083 C 
ATOM     13  C   UNL A   1      33.359  22.983  27.037  1.00  0.00     0.264 C 
ATOM     14  H   UNL A   1      33.569  24.955  26.559  1.00  0.00     0.348 HD
BRANCH  11  15
ATOM     15  C   UNL A   1      32.395  24.556  25.332  1.00  0.00     0.212 C 
ATOM     16  C   UNL A   1      31.058  23.846  25.635  1.00  0.00     0.081 C 
BRANCH  15  17
ATOM     17  C   UNL A   1      32.227  26.082  25.446  1.00  0.00     0.015 A 
ATOM     18  C   UNL A   1      31.801  26.699  26.639  1.00  0.00     0.049 A 
ATOM     19  C   UNL A   1      32.474  26.907  24.338  1.00  0.00     0.049 A 
ATOM     20  C   UNL A   1      31.560  28.069  26.691  1.00  0.00     0.126 A 
ATOM     21  C   UNL A   1      32.245  28.283  24.421  1.00  0.00     0.126 A 
ATOM     22  F   UNL A   1      31.103  28.607  27.829  1.00  0.00    -0.207 F 
ATOM     23  C   UNL A   1      31.770  28.871  25.586  1.00  0.00     0.078 A 
ATOM     24  F   UNL A   1      32.473  29.053  23.349  1.00  0.00    -0.207 F 
ENDBRANCH  15  17
ENDBRANCH  11  15
ENDBRANCH   6   8
ENDBRANCH   5   6
ENDBRANCH   4   5
ENDBRANCH   3   4
ENDBRANCH   2   3
ENDBRANCH   1   2
BRANCH   1  25
ATOM     25  C   UNL A   1      42.934  18.405  26.255  1.00  0.00     0.188 C 
BRANCH  25  26
ATOM     26  O   UNL A   1      44.051  18.909  25.554  1.00  0.00    -0.376 OA
BRANCH  26  27
ATOM     27  C   UNL A   1      44.025  20.184  24.930  1.00  0.00     0.202 C 
BRANCH  27  28
ATOM     28  C   UNL A   1      44.317  21.487  25.695  1.00  0.00     0.261 C 
BRANCH  28  29
ATOM     29  O   UNL A   1      43.270  22.455  25.690  1.00  0.00    -0.460 OA
BRANCH  29  30
ATOM     30  C   UNL A   1      43.641  23.693  25.268  1.00  0.00     0.338 C 
ATOM     31  O   UNL A   1      44.182  23.988  24.216  1.00  0.00    -0.246 OA
BRANCH  30  32
ATOM     32  C   UNL A   1      43.039  24.678  26.193  1.00  0.00     0.060 A 
ATOM     33  C   UNL A   1      43.465  26.014  26.105  1.00  0.00     0.016 A 
ATOM     34  C   UNL A   1      42.008  24.317  27.061  1.00  0.00     0.016 A 
ATOM     35  C   UNL A   1      42.876  26.989  26.907  1.00  0.00     0.010 A 
ATOM     36  C   UNL A   1      41.438  25.289  27.883  1.00  0.00     0.010 A 
ATOM     37  C   UNL A   1      41.892  26.621  27.832  1.00  0.00    -0.014 A 
BRANCH  37  38
ATOM     38  C   UNL A   1      41.505  27.553  28.916  1.00  0.00     0.031 A 
ATOM     39  C   UNL A   1      42.292  27.491  30.195  1.00  0.00     0.074 A 
ATOM     40  C   UNL A   1      40.489  28.423  28.784  1.00  0.00     0.049 A 
ATOM     41  N   UNL A   1      42.089  28.105  31.331  1.00  0.00    -0.248 NA
ATOM     42  C   UNL A   1      43.468  26.603  30.190  1.00  0.00     0.031 C 
ATOM     43  C   UNL A   1      39.688  28.619  27.579  1.00  0.00     0.029 A 
ATOM     44  N   UNL A   1      39.950  29.298  29.695  1.00  0.00    -0.354 N 
ATOM     45  C   UNL A   1      43.104  27.673  32.174  1.00  0.00     0.074 A 
ATOM     46  C   UNL A   1      43.899  26.718  31.435  1.00  0.00     0.031 C 
ATOM     47  C   UNL A   1      38.745  29.545  27.831  1.00  0.00     0.029 A 
ATOM     48  C   UNL A   1      38.852  29.975  29.225  1.00  0.00     0.049 A 
ATOM     49  H   UNL A   1      40.316  29.426  30.600  1.00  0.00     0.167 HD
ATOM     50  C   UNL A   1      43.356  28.044  33.450  1.00  0.00     0.037 A 
ATOM     51  C   UNL A   1      38.017  30.819  29.863  1.00  0.00     0.037 A 
ATOM     52  C   UNL A   1      42.558  28.986  34.187  1.00  0.00     0.049 A 
ATOM     53  C   UNL A   1      38.259  31.139  31.320  1.00  0.00     0.074 A 
ATOM     54  C   UNL A   1      42.726  29.428  35.488  1.00  0.00     0.029 A 
ATOM     55  N   UNL A   1      41.434  29.627  33.689  1.00  0.00    -0.354 N 
ATOM     56  N   UNL A   1      39.224  30.737  32.112  1.00  0.00    -0.248 NA
ATOM     57  C   UNL A   1      37.289  32.032  31.972  1.00  0.00     0.031 C 
ATOM     58  C   UNL A   1      41.673  30.293  35.794  1.00  0.00     0.029 A 
ATOM     59  C   UNL A   1      40.885  30.443  34.664  1.00  0.00     0.049 A 
ATOM     60  H   UNL A   1      41.079  29.518  32.776  1.00  0.00     0.167 HD
ATOM     61  C   UNL A   1      39.001  31.358  33.336  1.00  0.00     0.074 A 
ATOM     62  C   UNL A   1      37.814  32.171  33.180  1.00  0.00     0.031 C 
ATOM     63  C   UNL A   1      39.715  31.264  34.486  1.00  0.00     0.037 A 
BRANCH  50  64
ATOM     64  C   UNL A   1      44.527  27.407  34.136  1.00  0.00     0.064 A 
ATOM     65  C   UNL A   1      45.799  28.003  34.130  1.00  0.00     0.173 A 
ATOM     66  C   UNL A   1      44.373  26.199  34.832  1.00  0.00     0.173 A 
ATOM     67  F   UNL A   1      46.004  29.148  33.462  1.00  0.00    -0.203 F 
ATOM     68  C   UNL A   1      46.875  27.399  34.773  1.00  0.00     0.198 A 
ATOM     69  C   UNL A   1      45.443  25.615  35.501  1.00  0.00     0.198 A 
ATOM     70  F   UNL A   1      43.179  25.588  34.867  1.00  0.00    -0.203 F 
ATOM     71  F   UNL A   1      48.091  27.959  34.710  1.00  0.00    -0.200 F 
ATOM     72  C   UNL A   1      46.695  26.211  35.466  1.00  0.00     0.200 A 
ATOM     73  F   UNL A   1      45.264  24.473  36.180  1.00  0.00    -0.200 F 
ATOM     74  F   UNL A   1      47.730  25.635  36.092  1.00  0.00    -0.200 F 
ENDBRANCH  50  64
BRANCH  51  75
ATOM     75  C   UNL A   1      36.855  31.414  29.149  1.00  0.00     0.064 A 
ATOM     76  C   UNL A   1      36.823  32.782  28.837  1.00  0.00     0.173 A 
ATOM     77  C   UNL A   1      35.731  30.645  28.812  1.00  0.00     0.173 A 
ATOM     78  F   UNL A   1      37.858  33.567  29.166  1.00  0.00    -0.203 F 
ATOM     79  C   UNL A   1      35.701  33.360  28.244  1.00  0.00     0.198 A 
ATOM     80  C   UNL A   1      34.625  31.219  28.189  1.00  0.00     0.198 A 
ATOM     81  F   UNL A   1      35.704  29.334  29.095  1.00  0.00    -0.203 F 
ATOM     82  F   UNL A   1      35.673  34.681  28.018  1.00  0.00    -0.200 F 
ATOM     83  C   UNL A   1      34.605  32.578  27.916  1.00  0.00     0.200 A 
ATOM     84  F   UNL A   1      33.571  30.457  27.867  1.00  0.00    -0.200 F 
ATOM     85  F   UNL A   1      33.526  33.136  27.352  1.00  0.00    -0.200 F 
ENDBRANCH  51  75
BRANCH  63  86
ATOM     86  C   UNL A   1      39.272  32.104  35.652  1.00  0.00     0.064 A 
ATOM     87  C   UNL A   1      38.423  31.603  36.649  1.00  0.00     0.173 A 
ATOM     88  C   UNL A   1      39.750  33.417  35.798  1.00  0.00     0.173 A 
ATOM     89  F   UNL A   1      37.929  30.359  36.553  1.00  0.00    -0.203 F 
ATOM     90  C   UNL A   1      38.045  32.393  37.732  1.00  0.00     0.198 A 
ATOM     91  C   UNL A   1      39.400  34.191  36.900  1.00  0.00     0.198 A 
ATOM     92  F   UNL A   1      40.575  33.943  34.880  1.00  0.00    -0.203 F 
ATOM     93  F   UNL A   1      37.192  31.910  38.645  1.00  0.00    -0.200 F 
ATOM     94  C   UNL A   1      38.541  33.682  37.862  1.00  0.00     0.200 A 
ATOM     95  F   UNL A   1      39.895  35.429  37.033  1.00  0.00    -0.200 F 
ATOM     96  F   UNL A   1      38.185  34.436  38.911  1.00  0.00    -0.200 F 
ENDBRANCH  63  86
ENDBRANCH  37  38
ENDBRANCH  30  32
ENDBRANCH  29  30
ENDBRANCH  28  29
ENDBRANCH  27  28
ENDBRANCH  26  27
ENDBRANCH  25  26
ENDBRANCH   1  25
TORSDOF 19
ENDMDL
MODEL 2
REMARK VINA RESULT:     -11.0      4.354      6.769
REMARK SMILES C[C@@H]1[C@H](C(=O)OCCOCCOCCOC(=O)c2ccc(-c3c4nc(c(-c5c(F)c(F)c(F)c(F)c5F)c5ccc([nH]5)c(-c5c(F)c(F)c(F)c(F)c5F)c5nc(c(-c6c(F)c(F)c(F)c(F)c6F)c6ccc3[nH]6)C=C5)C=C4)cc2)CC[N@@H+]1[C@@H](C)c1cc(F)cc(F)c1
REMARK SMILES IDX 10 1 9 2 8 3 7 4 6 5 4 6 5 7 3 8 1 9 2 10 83 11 81 12 82 13
REMARK SMILES IDX 84 15 85 16 86 17 87 18 93 19 88 20 91 21 89 22 90 23 92 24
REMARK SMILES IDX 11 25 12 26 13 27 14 28 15 29 16 30 17 31 18 32 19 33 80 34
REMARK SMILES IDX 20 35 79 36 21 37 22 38 23 39 73 40 24 41 78 42 72 43 74 44
REMARK SMILES IDX 25 45 77 46 71 47 70 48 26 50 58 51 38 52 57 53 39 54 42 55
REMARK SMILES IDX 56 56 75 57 40 58 41 59 55 61 76 62 43 63 27 64 28 65 36 66
REMARK SMILES IDX 29 67 30 68 34 69 37 70 31 71 32 72 35 73 33 74 59 75 60 76
REMARK SMILES IDX 68 77 61 78 62 79 66 80 69 81 63 82 64 83 67 84 65 85 44 86
REMARK SMILES IDX 45 87 53 88 46 89 47 90 51 91 54 92 48 93 49 94 52 95 50 96
REMARK H PARENT 83 14 74 49 42 60
REMARK Flexibility Score: inf
ROOT
ATOM      1  C   UNL A   1      35.588  21.943  25.092  1.00  0.00     0.188 C 
ENDROOT
BRANCH   1   2
ATOM      2  O   UNL A   1      35.218  22.316  26.400  1.00  0.00    -0.376 OA
BRANCH   2   3
ATOM      3  C   UNL A   1      34.085  21.669  26.974  1.00  0.00     0.202 C 
BRANCH   3   4
ATOM      4  C   UNL A   1      32.803  22.476  27.191  1.00  0.00     0.261 C 
BRANCH   4   5
ATOM      5  O   UNL A   1      31.832  22.215  26.157  1.00  0.00    -0.463 OA
BRANCH   5   6
ATOM      6  C   UNL A   1      31.937  22.947  25.028  1.00  0.00     0.315 C 
ATOM      7  O   UNL A   1      32.310  22.483  23.954  1.00  0.00    -0.252 OA
BRANCH   6   8
ATOM      8  C   UNL A   1      31.470  24.392  25.146  1.00  0.00     0.162 C 
ATOM      9  C   UNL A   1      33.872  25.380  25.391  1.00  0.00     0.076 C 
ATOM     10  C   UNL A   1      32.373  25.595  25.506  1.00  0.00     0.196 C 
ATOM     11  N   UNL A   1      31.820  26.729  24.728  1.00  0.00    -0.326 N 
ATOM     12  C   UNL A   1      30.879  24.783  23.800  1.00  0.00     0.083 C 
ATOM     13  C   UNL A   1      30.739  26.282  23.865  1.00  0.00     0.264 C 
ATOM     14  H   UNL A   1      31.452  27.326  25.466  1.00  0.00     0.348 HD
BRANCH  11  15
ATOM     15  C   UNL A   1      32.629  27.878  24.302  1.00  0.00     0.212 C 
ATOM     16  C   UNL A   1      32.163  28.572  23.004  1.00  0.00     0.081 C 
BRANCH  15  17
ATOM     17  C   UNL A   1      32.819  28.917  25.423  1.00  0.00     0.015 A 
ATOM     18  C   UNL A   1      31.854  29.906  25.698  1.00  0.00     0.049 A 
ATOM     19  C   UNL A   1      33.991  28.919  26.195  1.00  0.00     0.049 A 
ATOM     20  C   UNL A   1      32.090  30.894  26.648  1.00  0.00     0.126 A 
ATOM     21  C   UNL A   1      34.197  29.910  27.159  1.00  0.00     0.126 A 
ATOM     22  F   UNL A   1      31.169  31.848  26.839  1.00  0.00    -0.207 F 
ATOM     23  C   UNL A   1      33.262  30.913  27.379  1.00  0.00     0.078 A 
ATOM     24  F   UNL A   1      35.328  29.904  27.876  1.00  0.00    -0.207 F 
ENDBRANCH  15  17
ENDBRANCH  11  15
ENDBRANCH   6   8
ENDBRANCH   5   6
ENDBRANCH   4   5
ENDBRANCH   3   4
ENDBRANCH   2   3
ENDBRANCH   1   2
BRANCH   1  25
ATOM     25  C   UNL A   1      37.070  21.964  24.699  1.00  0.00     0.188 C 
BRANCH  25  26
ATOM     26  O   UNL A   1      38.091  21.311  25.424  1.00  0.00    -0.376 OA
BRANCH  26  27
ATOM     27  C   UNL A   1      38.429  19.955  25.177  1.00  0.00     0.202 C 
BRANCH  27  28
ATOM     28  C   UNL A   1      39.692  19.297  25.758  1.00  0.00     0.261 C 
BRANCH  28  29
ATOM     29  O   UNL A   1      40.845  20.133  25.839  1.00  0.00    -0.460 OA
BRANCH  29  30
ATOM     30  C   UNL A   1      41.372  20.257  27.085  1.00  0.00     0.338 C 
ATOM     31  O   UNL A   1      41.847  19.377  27.783  1.00  0.00    -0.246 OA
BRANCH  30  32
ATOM     32  C   UNL A   1      41.516  21.702  27.366  1.00  0.00     0.060 A 
ATOM     33  C   UNL A   1      40.866  22.610  26.513  1.00  0.00     0.016 A 
ATOM     34  C   UNL A   1      42.193  22.153  28.500  1.00  0.00     0.016 A 
ATOM     35  C   UNL A   1      40.915  23.977  26.780  1.00  0.00     0.010 A 
ATOM     36  C   UNL A   1      42.265  23.523  28.750  1.00  0.00     0.010 A 
ATOM     37  C   UNL A   1      41.654  24.441  27.875  1.00  0.00    -0.014 A 
BRANCH  37  38
ATOM     38  C   UNL A   1      42.005  25.876  27.979  1.00  0.00     0.031 A 
ATOM     39  C   UNL A   1      43.336  26.304  27.428  1.00  0.00     0.074 A 
ATOM     40  C   UNL A   1      41.183  26.775  28.547  1.00  0.00     0.049 A 
ATOM     41  N   UNL A   1      43.934  27.464  27.495  1.00  0.00    -0.248 NA
ATOM     42  C   UNL A   1      44.100  25.271  26.706  1.00  0.00     0.031 C 
ATOM     43  C   UNL A   1      39.848  26.497  29.067  1.00  0.00     0.029 A 
ATOM     44  N   UNL A   1      41.372  28.113  28.794  1.00  0.00    -0.354 N 
ATOM     45  C   UNL A   1      45.144  27.299  26.834  1.00  0.00     0.074 A 
ATOM     46  C   UNL A   1      45.214  25.921  26.404  1.00  0.00     0.031 C 
ATOM     47  C   UNL A   1      39.341  27.629  29.589  1.00  0.00     0.029 A 
ATOM     48  C   UNL A   1      40.334  28.698  29.476  1.00  0.00     0.049 A 
ATOM     49  H   UNL A   1      42.176  28.605  28.509  1.00  0.00     0.167 HD
ATOM     50  C   UNL A   1      46.109  28.217  26.598  1.00  0.00     0.037 A 
ATOM     51  C   UNL A   1      40.220  29.945  29.975  1.00  0.00     0.037 A 
ATOM     52  C   UNL A   1      46.042  29.585  27.035  1.00  0.00     0.049 A 
ATOM     53  C   UNL A   1      41.356  30.924  29.789  1.00  0.00     0.074 A 
ATOM     54  C   UNL A   1      46.970  30.596  26.851  1.00  0.00     0.029 A 
ATOM     55  N   UNL A   1      44.990  30.133  27.753  1.00  0.00    -0.354 N 
ATOM     56  N   UNL A   1      42.493  30.768  29.154  1.00  0.00    -0.248 NA
ATOM     57  C   UNL A   1      41.190  32.254  30.393  1.00  0.00     0.031 C 
ATOM     58  C   UNL A   1      46.503  31.739  27.504  1.00  0.00     0.029 A 
ATOM     59  C   UNL A   1      45.255  31.462  28.038  1.00  0.00     0.049 A 
ATOM     60  H   UNL A   1      44.174  29.649  28.019  1.00  0.00     0.167 HD
ATOM     61  C   UNL A   1      43.156  31.987  29.248  1.00  0.00     0.074 A 
ATOM     62  C   UNL A   1      42.289  32.876  29.992  1.00  0.00     0.031 C 
ATOM     63  C   UNL A   1      44.371  32.340  28.761  1.00  0.00     0.037 A 
BRANCH  50  64
ATOM     64  C   UNL A   1      47.330  27.761  25.857  1.00  0.00     0.064 A 
ATOM     65  C   UNL A   1      48.473  27.302  26.531  1.00  0.00     0.173 A 
ATOM     66  C   UNL A   1      47.350  27.758  24.455  1.00  0.00     0.173 A 
ATOM     67  F   UNL A   1      48.513  27.305  27.872  1.00  0.00    -0.203 F 
ATOM     68  C   UNL A   1      49.598  26.881  25.828  1.00  0.00     0.198 A 
ATOM     69  C   UNL A   1      48.464  27.305  23.754  1.00  0.00     0.198 A 
ATOM     70  F   UNL A   1      46.284  28.188  23.763  1.00  0.00    -0.203 F 
ATOM     71  F   UNL A   1      50.696  26.497  26.492  1.00  0.00    -0.200 F 
ATOM     72  C   UNL A   1      49.589  26.874  24.441  1.00  0.00     0.200 A 
ATOM     73  F   UNL A   1      48.449  27.287  22.414  1.00  0.00    -0.200 F 
ATOM     74  F   UNL A   1      50.669  26.460  23.765  1.00  0.00    -0.200 F 
ENDBRANCH  50  64
BRANCH  51  75
ATOM     75  C   UNL A   1      38.997  30.350  30.720  1.00  0.00     0.064 A 
ATOM     76  C   UNL A   1      37.897  30.910  30.053  1.00  0.00     0.173 A 
ATOM     77  C   UNL A   1      38.921  30.240  32.117  1.00  0.00     0.173 A 
ATOM     78  F   UNL A   1      37.931  31.067  28.722  1.00  0.00    -0.203 F 
ATOM     79  C   UNL A   1      36.784  31.369  30.756  1.00  0.00     0.198 A 
ATOM     80  C   UNL A   1      37.794  30.668  32.814  1.00  0.00     0.198 A 
ATOM     81  F   UNL A   1      39.948  29.720  32.806  1.00  0.00    -0.203 F 
ATOM     82  F   UNL A   1      35.776  31.959  30.097  1.00  0.00    -0.200 F 
ATOM     83  C   UNL A   1      36.731  31.244  32.135  1.00  0.00     0.200 A 
ATOM     84  F   UNL A   1      37.744  30.537  34.147  1.00  0.00    -0.200 F 
ATOM     85  F   UNL A   1      35.663  31.691  32.810  1.00  0.00    -0.200 F 
ENDBRANCH  51  75
BRANCH  63  86
ATOM     86  C   UNL A   1      44.817  33.762  28.962  1.00  0.00     0.064 A 
ATOM     87  C   UNL A   1      44.469  34.784  28.067  1.00  0.00     0.173 A 
ATOM     88  C   UNL A   1      45.563  34.114  30.100  1.00  0.00     0.173 A 
ATOM     89  F   UNL A   1      43.767  34.502  26.959  1.00  0.00    -0.203 F 
ATOM     90  C   UNL A   1      44.875  36.098  28.288  1.00  0.00     0.198 A 
ATOM     91  C   UNL A   1      45.935  35.433  30.336  1.00  0.00     0.198 A 
ATOM     92  F   UNL A   1      45.913  33.178  30.995  1.00  0.00    -0.203 F 
ATOM     93  F   UNL A   1      44.574  37.049  27.392  1.00  0.00    -0.200 F 
ATOM     94  C   UNL A   1      45.599  36.423  29.425  1.00  0.00     0.200 A 
ATOM     95  F   UNL A   1      46.619  35.748  31.445  1.00  0.00    -0.200 F 
ATOM     96  F   UNL A   1      45.978  37.691  29.640  1.00  0.00    -0.200 F 
ENDBRANCH  63  86
ENDBRANCH  37  38
ENDBRANCH  30  32
ENDBRANCH  29  30
ENDBRANCH  28  29
ENDBRANCH  27  28
ENDBRANCH  26  27
ENDBRANCH  25  26
ENDBRANCH   1  25
TORSDOF 19
ENDMDL
MODEL 3
REMARK VINA RESULT:     -11.0      4.994      7.328
REMARK SMILES C[C@@H]1[C@H](C(=O)OCCOCCOCCOC(=O)c2ccc(-c3c4nc(c(-c5c(F)c(F)c(F)c(F)c5F)c5ccc([nH]5)c(-c5c(F)c(F)c(F)c(F)c5F)c5nc(c(-c6c(F)c(F)c(F)c(F)c6F)c6ccc3[nH]6)C=C5)C=C4)cc2)CC[N@@H+]1[C@@H](C)c1cc(F)cc(F)c1
REMARK SMILES IDX 10 1 9 2 8 3 7 4 6 5 4 6 5 7 3 8 1 9 2 10 83 11 81 12 82 13
REMARK SMILES IDX 84 15 85 16 86 17 87 18 93 19 88 20 91 21 89 22 90 23 92 24
REMARK SMILES IDX 11 25 12 26 13 27 14 28 15 29 16 30 17 31 18 32 19 33 80 34
REMARK SMILES IDX 20 35 79 36 21 37 22 38 23 39 73 40 24 41 78 42 72 43 74 44
REMARK SMILES IDX 25 45 77 46 71 47 70 48 26 50 58 51 38 52 57 53 39 54 42 55
REMARK SMILES IDX 56 56 75 57 40 58 41 59 55 61 76 62 43 63 27 64 28 65 36 66
REMARK SMILES IDX 29 67 30 68 34 69 37 70 31 71 32 72 35 73 33 74 59 75 60 76
REMARK SMILES IDX 68 77 61 78 62 79 66 80 69 81 63 82 64 83 67 84 65 85 44 86
REMARK SMILES IDX 45 87 53 88 46 89 47 90 51 91 54 92 48 93 49 94 52 95 50 96
REMARK H PARENT 83 14 74 49 42 60
REMARK Flexibility Score: inf
ROOT
ATOM      1  C   UNL A   1      40.753  21.928  27.098  1.00  0.00     0.188 C 
ENDROOT
BRANCH   1   2
ATOM      2  O   UNL A   1      39.783  22.491  26.243  1.00  0.00    -0.376 OA
BRANCH   2   3
ATOM      3  C   UNL A   1      38.649  21.692  25.917  1.00  0.00     0.202 C 
BRANCH   3   4
ATOM      4  C   UNL A   1      37.574  22.275  24.995  1.00  0.00     0.261 C 
BRANCH   4   5
ATOM      5  O   UNL A   1      36.817  23.311  25.654  1.00  0.00    -0.463 OA
BRANCH   5   6
ATOM      6  C   UNL A   1      35.526  23.032  25.932  1.00  0.00     0.315 C 
ATOM      7  O   UNL A   1      35.158  21.982  26.453  1.00  0.00    -0.252 OA
BRANCH   6   8
ATOM      8  C   UNL A   1      34.542  24.157  25.639  1.00  0.00     0.162 C 
ATOM      9  C   UNL A   1      34.265  23.556  23.116  1.00  0.00     0.076 C 
ATOM     10  C   UNL A   1      34.039  24.560  24.233  1.00  0.00     0.196 C 
ATOM     11  N   UNL A   1      32.637  24.990  24.442  1.00  0.00    -0.326 N 
ATOM     12  C   UNL A   1      33.261  23.839  26.396  1.00  0.00     0.083 C 
ATOM     13  C   UNL A   1      32.235  24.782  25.823  1.00  0.00     0.264 C 
ATOM     14  H   UNL A   1      32.695  25.988  24.243  1.00  0.00     0.348 HD
BRANCH  11  15
ATOM     15  C   UNL A   1      31.611  24.917  23.393  1.00  0.00     0.212 C 
ATOM     16  C   UNL A   1      30.680  23.687  23.461  1.00  0.00     0.081 C 
BRANCH  15  17
ATOM     17  C   UNL A   1      30.781  26.209  23.283  1.00  0.00     0.015 A 
ATOM     18  C   UNL A   1      29.437  26.271  23.700  1.00  0.00     0.049 A 
ATOM     19  C   UNL A   1      31.346  27.369  22.730  1.00  0.00     0.049 A 
ATOM     20  C   UNL A   1      28.677  27.419  23.500  1.00  0.00     0.126 A 
ATOM     21  C   UNL A   1      30.569  28.517  22.559  1.00  0.00     0.126 A 
ATOM     22  F   UNL A   1      27.387  27.418  23.861  1.00  0.00    -0.207 F 
ATOM     23  C   UNL A   1      29.229  28.547  22.922  1.00  0.00     0.078 A 
ATOM     24  F   UNL A   1      31.121  29.610  22.017  1.00  0.00    -0.207 F 
ENDBRANCH  15  17
ENDBRANCH  11  15
ENDBRANCH   6   8
ENDBRANCH   5   6
ENDBRANCH   4   5
ENDBRANCH   3   4
ENDBRANCH   2   3
ENDBRANCH   1   2
BRANCH   1  25
ATOM     25  C   UNL A   1      41.651  20.802  26.573  1.00  0.00     0.188 C 
BRANCH  25  26
ATOM     26  O   UNL A   1      42.042  19.680  27.337  1.00  0.00    -0.376 OA
BRANCH  26  27
ATOM     27  C   UNL A   1      42.655  18.549  26.737  1.00  0.00     0.202 C 
BRANCH  27  28
ATOM     28  C   UNL A   1      43.230  18.577  25.311  1.00  0.00     0.261 C 
BRANCH  28  29
ATOM     29  O   UNL A   1      44.649  18.472  25.212  1.00  0.00    -0.460 OA
BRANCH  29  30
ATOM     30  C   UNL A   1      45.217  19.281  24.279  1.00  0.00     0.338 C 
ATOM     31  O   UNL A   1      45.581  18.978  23.156  1.00  0.00    -0.246 OA
BRANCH  30  32
ATOM     32  C   UNL A   1      45.085  20.674  24.757  1.00  0.00     0.060 A 
ATOM     33  C   UNL A   1      44.590  21.637  23.862  1.00  0.00     0.016 A 
ATOM     34  C   UNL A   1      45.350  21.009  26.085  1.00  0.00     0.016 A 
ATOM     35  C   UNL A   1      44.383  22.947  24.289  1.00  0.00     0.010 A 
ATOM     36  C   UNL A   1      45.168  22.327  26.504  1.00  0.00     0.010 A 
ATOM     37  C   UNL A   1      44.715  23.307  25.600  1.00  0.00    -0.014 A 
BRANCH  37  38
ATOM     38  C   UNL A   1      44.831  24.735  25.972  1.00  0.00     0.031 A 
ATOM     39  C   UNL A   1      46.186  25.375  25.843  1.00  0.00     0.074 A 
ATOM     40  C   UNL A   1      43.782  25.448  26.415  1.00  0.00     0.049 A 
ATOM     41  N   UNL A   1      46.586  26.565  26.209  1.00  0.00    -0.248 NA
ATOM     42  C   UNL A   1      47.235  24.549  25.220  1.00  0.00     0.031 C 
ATOM     43  C   UNL A   1      42.411  24.961  26.531  1.00  0.00     0.029 A 
ATOM     44  N   UNL A   1      43.721  26.743  26.868  1.00  0.00    -0.354 N 
ATOM     45  C   UNL A   1      47.930  26.626  25.869  1.00  0.00     0.074 A 
ATOM     46  C   UNL A   1      48.289  25.346  25.302  1.00  0.00     0.031 C 
ATOM     47  C   UNL A   1      41.643  25.941  27.042  1.00  0.00     0.029 A 
ATOM     48  C   UNL A   1      42.479  27.108  27.326  1.00  0.00     0.049 A 
ATOM     49  H   UNL A   1      44.495  27.352  26.866  1.00  0.00     0.167 HD
ATOM     50  C   UNL A   1      48.789  27.661  26.009  1.00  0.00     0.037 A 
ATOM     51  C   UNL A   1      42.078  28.244  27.930  1.00  0.00     0.037 A 
ATOM     52  C   UNL A   1      48.433  28.931  26.582  1.00  0.00     0.049 A 
ATOM     53  C   UNL A   1      43.082  29.349  28.170  1.00  0.00     0.074 A 
ATOM     54  C   UNL A   1      49.231  30.046  26.773  1.00  0.00     0.029 A 
ATOM     55  N   UNL A   1      47.174  29.253  27.064  1.00  0.00    -0.354 N 
ATOM     56  N   UNL A   1      44.349  29.408  27.838  1.00  0.00    -0.248 NA
ATOM     57  C   UNL A   1      42.594  30.546  28.872  1.00  0.00     0.031 C 
ATOM     58  C   UNL A   1      48.469  31.021  27.420  1.00  0.00     0.029 A 
ATOM     59  C   UNL A   1      47.179  30.540  27.574  1.00  0.00     0.049 A 
ATOM     60  H   UNL A   1      46.391  28.654  27.046  1.00  0.00     0.167 HD
ATOM     61  C   UNL A   1      44.797  30.658  28.253  1.00  0.00     0.074 A 
ATOM     62  C   UNL A   1      43.663  31.329  28.852  1.00  0.00     0.031 C 
ATOM     63  C   UNL A   1      46.034  31.203  28.147  1.00  0.00     0.037 A 
BRANCH  50  64
ATOM     64  C   UNL A   1      50.204  27.451  25.559  1.00  0.00     0.064 A 
ATOM     65  C   UNL A   1      51.223  27.111  26.464  1.00  0.00     0.173 A 
ATOM     66  C   UNL A   1      50.543  27.564  24.203  1.00  0.00     0.173 A 
ATOM     67  F   UNL A   1      50.956  27.012  27.774  1.00  0.00    -0.203 F 
ATOM     68  C   UNL A   1      52.531  26.919  26.029  1.00  0.00     0.198 A 
ATOM     69  C   UNL A   1      51.845  27.338  23.767  1.00  0.00     0.198 A 
ATOM     70  F   UNL A   1      49.607  27.887  23.297  1.00  0.00    -0.203 F 
ATOM     71  F   UNL A   1      53.497  26.647  26.918  1.00  0.00    -0.200 F 
ATOM     72  C   UNL A   1      52.839  27.023  24.681  1.00  0.00     0.200 A 
ATOM     73  F   UNL A   1      52.138  27.426  22.462  1.00  0.00    -0.200 F 
ATOM     74  F   UNL A   1      54.097  26.827  24.263  1.00  0.00    -0.200 F 
ENDBRANCH  50  64
BRANCH  51  75
ATOM     75  C   UNL A   1      40.668  28.404  28.377  1.00  0.00     0.064 A 
ATOM     76  C   UNL A   1      39.705  28.984  27.537  1.00  0.00     0.173 A 
ATOM     77  C   UNL A   1      40.263  28.034  29.669  1.00  0.00     0.173 A 
ATOM     78  F   UNL A   1      40.048  29.384  26.304  1.00  0.00    -0.203 F 
ATOM     79  C   UNL A   1      38.404  29.213  27.981  1.00  0.00     0.198 A 
ATOM     80  C   UNL A   1      38.954  28.233  30.099  1.00  0.00     0.198 A 
ATOM     81  F   UNL A   1      41.145  27.484  30.517  1.00  0.00    -0.203 F 
ATOM     82  F   UNL A   1      37.524  29.829  27.178  1.00  0.00    -0.200 F 
ATOM     83  C   UNL A   1      38.028  28.834  29.260  1.00  0.00     0.200 A 
ATOM     84  F   UNL A   1      38.592  27.858  31.333  1.00  0.00    -0.200 F 
ATOM     85  F   UNL A   1      36.778  29.060  29.688  1.00  0.00    -0.200 F 
ENDBRANCH  51  75
BRANCH  63  86
ATOM     86  C   UNL A   1      46.220  32.613  28.633  1.00  0.00     0.064 A 
ATOM     87  C   UNL A   1      46.636  32.899  29.942  1.00  0.00     0.173 A 
ATOM     88  C   UNL A   1      46.028  33.694  27.756  1.00  0.00     0.173 A 
ATOM     89  F   UNL A   1      46.824  31.905  30.824  1.00  0.00    -0.203 F 
ATOM     90  C   UNL A   1      46.824  34.214  30.363  1.00  0.00     0.198 A 
ATOM     91  C   UNL A   1      46.251  35.003  28.169  1.00  0.00     0.198 A 
ATOM     92  F   UNL A   1      45.642  33.476  26.490  1.00  0.00    -0.203 F 
ATOM     93  F   UNL A   1      47.171  34.465  31.632  1.00  0.00    -0.200 F 
ATOM     94  C   UNL A   1      46.640  35.264  29.474  1.00  0.00     0.200 A 
ATOM     95  F   UNL A   1      46.092  36.014  27.304  1.00  0.00    -0.200 F 
ATOM     96  F   UNL A   1      46.833  36.527  29.879  1.00  0.00    -0.200 F 
ENDBRANCH  63  86
ENDBRANCH  37  38
ENDBRANCH  30  32
ENDBRANCH  29  30
ENDBRANCH  28  29
ENDBRANCH  27  28
ENDBRANCH  26  27
ENDBRANCH  25  26
ENDBRANCH   1  25
TORSDOF 19
ENDMDL
