MODEL 1
REMARK VINA RESULT:     -11.2      0.000      0.000
REMARK SMILES CCCc1cc(OC(F)(F)F)cc2c1O[C@@H](C(F)(F)F)C(C(=O)OCCOCCOCCOC(=O)c1ccc(-c3c4nc(c(-c5c(F)c(F)c(F)c(F)c5F)c5ccc([nH]5)c(-c5c(F)c(F)c(F)c(F)c5F)c5nc(c(-c6c(F)c(F)c(F)c(F)c6F)c6ccc3[nH]6)C=C5)C=C4)cc1)=C2
REMARK SMILES IDX 28 1 27 2 26 3 25 4 24 5 22 6 23 7 21 8 4 9 5 10 14 11 6 12
REMARK SMILES IDX 13 13 15 14 12 15 99 16 16 17 3 18 2 19 1 20 7 21 8 22 9 23
REMARK SMILES IDX 10 24 11 25 17 26 18 27 19 28 20 29 29 30 30 31 31 32 32 33
REMARK SMILES IDX 33 34 34 35 35 36 36 37 37 38 98 39 38 40 97 41 39 42 40 43
REMARK SMILES IDX 41 44 91 45 42 46 96 47 90 48 92 49 43 50 95 51 89 52 88 53
REMARK SMILES IDX 44 55 76 56 56 57 75 58 57 59 60 60 74 61 93 62 58 63 59 64
REMARK SMILES IDX 73 66 94 67 61 68 45 69 46 70 54 71 47 72 48 73 52 74 55 75
REMARK SMILES IDX 49 76 50 77 53 78 51 79 77 80 78 81 86 82 79 83 80 84 84 85
REMARK SMILES IDX 87 86 81 87 82 88 85 89 83 90 62 91 63 92 71 93 64 94 65 95
REMARK SMILES IDX 69 96 72 97 66 98 67 99 70 100 68 101
REMARK H PARENT 92 54 60 65
REMARK Flexibility Score: inf
ROOT
ATOM      1  C   UNL A   1      33.200  20.290  25.661  1.00  0.00     0.188 C 
ENDROOT
BRANCH   1   2
ATOM      2  O   UNL A   1      32.124  20.071  24.782  1.00  0.00    -0.376 OA
BRANCH   2   3
ATOM      3  C   UNL A   1      32.316  20.161  23.381  1.00  0.00     0.202 C 
BRANCH   3   4
ATOM      4  C   UNL A   1      32.061  21.414  22.514  1.00  0.00     0.261 C 
BRANCH   4   5
ATOM      5  O   UNL A   1      32.143  22.699  23.141  1.00  0.00    -0.460 OA
BRANCH   5   6
ATOM      6  C   UNL A   1      33.062  23.557  22.633  1.00  0.00     0.338 C 
ATOM      7  O   UNL A   1      33.966  23.273  21.867  1.00  0.00    -0.246 OA
BRANCH   6   8
ATOM      8  C   UNL A   1      32.730  24.944  23.005  1.00  0.00     0.087 C 
ATOM      9  C   UNL A   1      31.491  28.544  24.714  1.00  0.00    -0.002 A 
ATOM     10  C   UNL A   1      30.617  29.382  24.002  1.00  0.00     0.054 A 
ATOM     11  C   UNL A   1      31.874  27.331  24.132  1.00  0.00     0.131 A 
ATOM     12  C   UNL A   1      30.151  29.021  22.734  1.00  0.00     0.130 A 
ATOM     13  C   UNL A   1      31.425  26.956  22.855  1.00  0.00     0.021 A 
ATOM     14  O   UNL A   1      32.639  26.481  24.891  1.00  0.00    -0.475 OA
ATOM     15  C   UNL A   1      30.580  27.818  22.155  1.00  0.00     0.058 A 
ATOM     16  C   UNL A   1      31.770  25.621  22.350  1.00  0.00     0.027 C 
ATOM     17  C   UNL A   1      33.504  25.621  24.114  1.00  0.00     0.316 C 
BRANCH   9  18
ATOM     18  C   UNL A   1      31.971  28.954  26.090  1.00  0.00     0.039 C 
BRANCH  18  19
ATOM     19  C   UNL A   1      33.309  29.708  26.122  1.00  0.00     0.001 C 
ATOM     20  C   UNL A   1      34.442  28.914  26.756  1.00  0.00     0.004 C 
ENDBRANCH  18  19
ENDBRANCH   9  18
BRANCH  12  21
ATOM     21  O   UNL A   1      29.278  29.746  21.970  1.00  0.00    -0.406 OA
BRANCH  21  22
ATOM     22  C   UNL A   1      27.998  30.020  22.524  1.00  0.00     0.573 C 
ATOM     23  F   UNL A   1      27.255  30.785  21.694  1.00  0.00    -0.132 F 
ATOM     24  F   UNL A   1      27.334  28.875  22.795  1.00  0.00    -0.132 F 
ATOM     25  F   UNL A   1      28.160  30.694  23.682  1.00  0.00    -0.132 F 
ENDBRANCH  21  22
ENDBRANCH  12  21
BRANCH  17  26
ATOM     26  C   UNL A   1      34.331  24.775  25.096  1.00  0.00     0.430 C 
ATOM     27  F   UNL A   1      34.799  25.522  26.124  1.00  0.00    -0.167 F 
ATOM     28  F   UNL A   1      33.540  23.828  25.669  1.00  0.00    -0.167 F 
ATOM     29  F   UNL A   1      35.362  24.132  24.519  1.00  0.00    -0.167 F 
ENDBRANCH  17  26
ENDBRANCH   6   8
ENDBRANCH   5   6
ENDBRANCH   4   5
ENDBRANCH   3   4
ENDBRANCH   2   3
ENDBRANCH   1   2
BRANCH   1  30
ATOM     30  C   UNL A   1      34.594  20.265  25.001  1.00  0.00     0.188 C 
BRANCH  30  31
ATOM     31  O   UNL A   1      35.661  21.001  25.569  1.00  0.00    -0.376 OA
BRANCH  31  32
ATOM     32  C   UNL A   1      36.823  21.256  24.791  1.00  0.00     0.202 C 
BRANCH  32  33
ATOM     33  C   UNL A   1      38.208  21.470  25.434  1.00  0.00     0.261 C 
BRANCH  33  34
ATOM     34  O   UNL A   1      38.444  22.740  26.063  1.00  0.00    -0.460 OA
BRANCH  34  35
ATOM     35  C   UNL A   1      39.734  22.999  26.397  1.00  0.00     0.338 C 
ATOM     36  O   UNL A   1      40.716  22.330  26.139  1.00  0.00    -0.246 OA
BRANCH  35  37
ATOM     37  C   UNL A   1      39.825  24.348  26.994  1.00  0.00     0.060 A 
ATOM     38  C   UNL A   1      40.491  25.357  26.281  1.00  0.00     0.016 A 
ATOM     39  C   UNL A   1      39.323  24.600  28.270  1.00  0.00     0.016 A 
ATOM     40  C   UNL A   1      40.663  26.620  26.846  1.00  0.00     0.010 A 
ATOM     41  C   UNL A   1      39.520  25.860  28.846  1.00  0.00     0.010 A 
ATOM     42  C   UNL A   1      40.210  26.869  28.148  1.00  0.00    -0.014 A 
BRANCH  42  43
ATOM     43  C   UNL A   1      40.584  28.129  28.836  1.00  0.00     0.031 A 
ATOM     44  C   UNL A   1      41.990  28.290  29.345  1.00  0.00     0.074 A 
ATOM     45  C   UNL A   1      39.690  29.121  29.001  1.00  0.00     0.049 A 
ATOM     46  N   UNL A   1      42.518  29.265  30.043  1.00  0.00    -0.248 NA
ATOM     47  C   UNL A   1      42.928  27.204  29.025  1.00  0.00     0.031 C 
ATOM     48  C   UNL A   1      38.314  29.108  28.511  1.00  0.00     0.029 A 
ATOM     49  N   UNL A   1      39.809  30.328  29.645  1.00  0.00    -0.354 N 
ATOM     50  C   UNL A   1      43.842  28.905  30.253  1.00  0.00     0.074 A 
ATOM     51  C   UNL A   1      44.033  27.611  29.632  1.00  0.00     0.031 C 
ATOM     52  C   UNL A   1      37.707  30.245  28.891  1.00  0.00     0.029 A 
ATOM     53  C   UNL A   1      38.640  31.047  29.683  1.00  0.00     0.049 A 
ATOM     54  H   UNL A   1      40.652  30.647  30.042  1.00  0.00     0.167 HD
ATOM     55  C   UNL A   1      44.811  29.595  30.900  1.00  0.00     0.037 A 
ATOM     56  C   UNL A   1      38.351  32.203  30.311  1.00  0.00     0.037 A 
ATOM     57  C   UNL A   1      44.618  30.880  31.518  1.00  0.00     0.049 A 
ATOM     58  C   UNL A   1      39.426  32.910  31.100  1.00  0.00     0.074 A 
ATOM     59  C   UNL A   1      45.545  31.667  32.181  1.00  0.00     0.029 A 
ATOM     60  N   UNL A   1      43.413  31.564  31.562  1.00  0.00    -0.354 N 
ATOM     61  N   UNL A   1      40.684  32.578  31.272  1.00  0.00    -0.248 NA
ATOM     62  C   UNL A   1      39.041  34.156  31.779  1.00  0.00     0.031 C 
ATOM     63  C   UNL A   1      44.887  32.794  32.680  1.00  0.00     0.029 A 
ATOM     64  C   UNL A   1      43.564  32.747  32.268  1.00  0.00     0.049 A 
ATOM     65  H   UNL A   1      42.572  31.255  31.152  1.00  0.00     0.167 HD
ATOM     66  C   UNL A   1      41.245  33.588  32.045  1.00  0.00     0.074 A 
ATOM     67  C   UNL A   1      40.195  34.551  32.298  1.00  0.00     0.031 C 
ATOM     68  C   UNL A   1      42.516  33.707  32.503  1.00  0.00     0.037 A 
BRANCH  55  69
ATOM     69  C   UNL A   1      46.169  28.960  31.002  1.00  0.00     0.064 A 
ATOM     70  C   UNL A   1      46.524  28.142  32.086  1.00  0.00     0.173 A 
ATOM     71  C   UNL A   1      47.110  29.132  29.976  1.00  0.00     0.173 A 
ATOM     72  F   UNL A   1      45.667  27.954  33.100  1.00  0.00    -0.203 F 
ATOM     73  C   UNL A   1      47.778  27.540  32.148  1.00  0.00     0.198 A 
ATOM     74  C   UNL A   1      48.350  28.502  30.025  1.00  0.00     0.198 A 
ATOM     75  F   UNL A   1      46.821  29.900  28.914  1.00  0.00    -0.203 F 
ATOM     76  F   UNL A   1      48.112  26.798  33.213  1.00  0.00    -0.200 F 
ATOM     77  C   UNL A   1      48.686  27.712  31.113  1.00  0.00     0.200 A 
ATOM     78  F   UNL A   1      49.220  28.658  29.017  1.00  0.00    -0.200 F 
ATOM     79  F   UNL A   1      49.887  27.120  31.167  1.00  0.00    -0.200 F 
ENDBRANCH  55  69
BRANCH  56  80
ATOM     80  C   UNL A   1      36.973  32.764  30.248  1.00  0.00     0.064 A 
ATOM     81  C   UNL A   1      36.568  33.575  29.180  1.00  0.00     0.173 A 
ATOM     82  C   UNL A   1      36.048  32.532  31.277  1.00  0.00     0.173 A 
ATOM     83  F   UNL A   1      37.427  33.853  28.186  1.00  0.00    -0.203 F 
ATOM     84  C   UNL A   1      35.301  34.156  29.155  1.00  0.00     0.198 A 
ATOM     85  C   UNL A   1      34.769  33.086  31.235  1.00  0.00     0.198 A 
ATOM     86  F   UNL A   1      36.385  31.769  32.327  1.00  0.00    -0.203 F 
ATOM     87  F   UNL A   1      34.965  34.980  28.154  1.00  0.00    -0.200 F 
ATOM     88  C   UNL A   1      34.401  33.907  30.180  1.00  0.00     0.200 A 
ATOM     89  F   UNL A   1      33.899  32.834  32.223  1.00  0.00    -0.200 F 
ATOM     90  F   UNL A   1      33.185  34.469  30.158  1.00  0.00    -0.200 F 
ENDBRANCH  56  80
BRANCH  68  91
ATOM     91  C   UNL A   1      42.863  34.946  33.281  1.00  0.00     0.064 A 
ATOM     92  C   UNL A   1      42.799  34.985  34.682  1.00  0.00     0.173 A 
ATOM     93  C   UNL A   1      43.307  36.099  32.615  1.00  0.00     0.173 A 
ATOM     94  F   UNL A   1      42.369  33.915  35.369  1.00  0.00    -0.203 F 
ATOM     95  C   UNL A   1      43.137  36.141  35.383  1.00  0.00     0.198 A 
ATOM     96  C   UNL A   1      43.678  37.241  33.321  1.00  0.00     0.198 A 
ATOM     97  F   UNL A   1      43.397  36.115  31.276  1.00  0.00    -0.203 F 
ATOM     98  F   UNL A   1      43.016  36.171  36.718  1.00  0.00    -0.200 F 
ATOM     99  C   UNL A   1      43.584  37.264  34.704  1.00  0.00     0.200 A 
ATOM    100  F   UNL A   1      44.128  38.317  32.663  1.00  0.00    -0.200 F 
ATOM    101  F   UNL A   1      43.918  38.370  35.382  1.00  0.00    -0.200 F 
ENDBRANCH  68  91
ENDBRANCH  42  43
ENDBRANCH  35  37
ENDBRANCH  34  35
ENDBRANCH  33  34
ENDBRANCH  32  33
ENDBRANCH  31  32
ENDBRANCH  30  31
ENDBRANCH   1  30
TORSDOF 22
ENDMDL
MODEL 2
REMARK VINA RESULT:     -11.0      2.830      4.000
REMARK SMILES CCCc1cc(OC(F)(F)F)cc2c1O[C@@H](C(F)(F)F)C(C(=O)OCCOCCOCCOC(=O)c1ccc(-c3c4nc(c(-c5c(F)c(F)c(F)c(F)c5F)c5ccc([nH]5)c(-c5c(F)c(F)c(F)c(F)c5F)c5nc(c(-c6c(F)c(F)c(F)c(F)c6F)c6ccc3[nH]6)C=C5)C=C4)cc1)=C2
REMARK SMILES IDX 28 1 27 2 26 3 25 4 24 5 22 6 23 7 21 8 4 9 5 10 14 11 6 12
REMARK SMILES IDX 13 13 15 14 12 15 99 16 16 17 3 18 2 19 1 20 7 21 8 22 9 23
REMARK SMILES IDX 10 24 11 25 17 26 18 27 19 28 20 29 29 30 30 31 31 32 32 33
REMARK SMILES IDX 33 34 34 35 35 36 36 37 37 38 98 39 38 40 97 41 39 42 40 43
REMARK SMILES IDX 41 44 91 45 42 46 96 47 90 48 92 49 43 50 95 51 89 52 88 53
REMARK SMILES IDX 44 55 76 56 56 57 75 58 57 59 60 60 74 61 93 62 58 63 59 64
REMARK SMILES IDX 73 66 94 67 61 68 45 69 46 70 54 71 47 72 48 73 52 74 55 75
REMARK SMILES IDX 49 76 50 77 53 78 51 79 77 80 78 81 86 82 79 83 80 84 84 85
REMARK SMILES IDX 87 86 81 87 82 88 85 89 83 90 62 91 63 92 71 93 64 94 65 95
REMARK SMILES IDX 69 96 72 97 66 98 67 99 70 100 68 101
REMARK H PARENT 92 54 60 65
REMARK Flexibility Score: inf
ROOT
ATOM      1  C   UNL A   1      33.989  20.749  25.768  1.00  0.00     0.188 C 
ENDROOT
BRANCH   1   2
ATOM      2  O   UNL A   1      32.762  20.546  25.113  1.00  0.00    -0.376 OA
BRANCH   2   3
ATOM      3  C   UNL A   1      32.719  20.395  23.705  1.00  0.00     0.202 C 
BRANCH   3   4
ATOM      4  C   UNL A   1      32.031  21.360  22.715  1.00  0.00     0.261 C 
BRANCH   4   5
ATOM      5  O   UNL A   1      31.910  22.738  23.086  1.00  0.00    -0.460 OA
BRANCH   5   6
ATOM      6  C   UNL A   1      32.823  23.585  22.550  1.00  0.00     0.338 C 
ATOM      7  O   UNL A   1      33.667  23.302  21.718  1.00  0.00    -0.246 OA
BRANCH   6   8
ATOM      8  C   UNL A   1      32.561  24.967  22.991  1.00  0.00     0.087 C 
ATOM      9  C   UNL A   1      31.482  28.536  24.867  1.00  0.00    -0.002 A 
ATOM     10  C   UNL A   1      30.679  29.462  24.181  1.00  0.00     0.054 A 
ATOM     11  C   UNL A   1      31.811  27.336  24.227  1.00  0.00     0.131 A 
ATOM     12  C   UNL A   1      30.230  29.198  22.882  1.00  0.00     0.130 A 
ATOM     13  C   UNL A   1      31.379  27.058  22.920  1.00  0.00     0.021 A 
ATOM     14  O   UNL A   1      32.503  26.402  24.957  1.00  0.00    -0.475 OA
ATOM     15  C   UNL A   1      30.606  28.006  22.248  1.00  0.00     0.058 A 
ATOM     16  C   UNL A   1      31.661  25.735  22.350  1.00  0.00     0.027 C 
ATOM     17  C   UNL A   1      33.340  25.536  24.156  1.00  0.00     0.316 C 
BRANCH   9  18
ATOM     18  C   UNL A   1      31.944  28.841  26.275  1.00  0.00     0.039 C 
BRANCH  18  19
ATOM     19  C   UNL A   1      31.922  30.326  26.667  1.00  0.00     0.001 C 
ATOM     20  C   UNL A   1      33.259  30.844  27.178  1.00  0.00     0.004 C 
ENDBRANCH  18  19
ENDBRANCH   9  18
BRANCH  12  21
ATOM     21  O   UNL A   1      29.422  30.014  22.138  1.00  0.00    -0.406 OA
BRANCH  21  22
ATOM     22  C   UNL A   1      28.067  30.142  22.547  1.00  0.00     0.573 C 
ATOM     23  F   UNL A   1      27.429  28.952  22.517  1.00  0.00    -0.132 F 
ATOM     24  F   UNL A   1      27.986  30.666  23.790  1.00  0.00    -0.132 F 
ATOM     25  F   UNL A   1      27.433  30.979  21.698  1.00  0.00    -0.132 F 
ENDBRANCH  21  22
ENDBRANCH  12  21
BRANCH  17  26
ATOM     26  C   UNL A   1      34.088  24.591  25.110  1.00  0.00     0.430 C 
ATOM     27  F   UNL A   1      34.699  23.586  24.438  1.00  0.00    -0.167 F 
ATOM     28  F   UNL A   1      35.090  25.266  25.737  1.00  0.00    -0.167 F 
ATOM     29  F   UNL A   1      33.307  24.062  26.069  1.00  0.00    -0.167 F 
ENDBRANCH  17  26
ENDBRANCH   6   8
ENDBRANCH   5   6
ENDBRANCH   4   5
ENDBRANCH   3   4
ENDBRANCH   2   3
ENDBRANCH   1   2
BRANCH   1  30
ATOM     30  C   UNL A   1      35.236  20.366  24.945  1.00  0.00     0.188 C 
BRANCH  30  31
ATOM     31  O   UNL A   1      36.520  20.791  25.363  1.00  0.00    -0.376 OA
BRANCH  31  32
ATOM     32  C   UNL A   1      37.673  20.203  24.776  1.00  0.00     0.202 C 
BRANCH  32  33
ATOM     33  C   UNL A   1      38.779  19.543  25.626  1.00  0.00     0.261 C 
BRANCH  33  34
ATOM     34  O   UNL A   1      40.069  20.175  25.618  1.00  0.00    -0.460 OA
BRANCH  34  35
ATOM     35  C   UNL A   1      40.692  20.253  26.822  1.00  0.00     0.338 C 
ATOM     36  O   UNL A   1      41.149  19.340  27.481  1.00  0.00    -0.246 OA
BRANCH  35  37
ATOM     37  C   UNL A   1      40.907  21.673  27.171  1.00  0.00     0.060 A 
ATOM     38  C   UNL A   1      40.351  22.661  26.346  1.00  0.00     0.016 A 
ATOM     39  C   UNL A   1      41.704  22.028  28.259  1.00  0.00     0.016 A 
ATOM     40  C   UNL A   1      40.597  24.011  26.601  1.00  0.00     0.010 A 
ATOM     41  C   UNL A   1      41.972  23.381  28.497  1.00  0.00     0.010 A 
ATOM     42  C   UNL A   1      41.440  24.377  27.658  1.00  0.00    -0.014 A 
BRANCH  42  43
ATOM     43  C   UNL A   1      41.883  25.786  27.798  1.00  0.00     0.031 A 
ATOM     44  C   UNL A   1      43.227  26.183  27.252  1.00  0.00     0.074 A 
ATOM     45  C   UNL A   1      41.102  26.703  28.396  1.00  0.00     0.049 A 
ATOM     46  N   UNL A   1      43.853  27.331  27.331  1.00  0.00    -0.248 NA
ATOM     47  C   UNL A   1      43.966  25.144  26.519  1.00  0.00     0.031 C 
ATOM     48  C   UNL A   1      39.761  26.457  28.921  1.00  0.00     0.029 A 
ATOM     49  N   UNL A   1      41.337  28.027  28.674  1.00  0.00    -0.354 N 
ATOM     50  C   UNL A   1      45.060  27.148  26.669  1.00  0.00     0.074 A 
ATOM     51  C   UNL A   1      45.092  25.774  26.217  1.00  0.00     0.031 C 
ATOM     52  C   UNL A   1      39.298  27.589  29.479  1.00  0.00     0.029 A 
ATOM     53  C   UNL A   1      40.326  28.627  29.384  1.00  0.00     0.049 A 
ATOM     54  H   UNL A   1      42.153  28.501  28.393  1.00  0.00     0.167 HD
ATOM     55  C   UNL A   1      46.049  28.049  26.454  1.00  0.00     0.037 A 
ATOM     56  C   UNL A   1      40.253  29.860  29.921  1.00  0.00     0.037 A 
ATOM     57  C   UNL A   1      46.016  29.414  26.907  1.00  0.00     0.049 A 
ATOM     58  C   UNL A   1      41.406  30.817  29.742  1.00  0.00     0.074 A 
ATOM     59  C   UNL A   1      46.962  30.408  26.721  1.00  0.00     0.029 A 
ATOM     60  N   UNL A   1      44.988  29.977  27.649  1.00  0.00    -0.354 N 
ATOM     61  N   UNL A   1      42.533  30.648  29.092  1.00  0.00    -0.248 NA
ATOM     62  C   UNL A   1      41.274  32.140  30.369  1.00  0.00     0.031 C 
ATOM     63  C   UNL A   1      46.537  31.551  27.403  1.00  0.00     0.029 A 
ATOM     64  C   UNL A   1      45.292  31.294  27.956  1.00  0.00     0.049 A 
ATOM     65  H   UNL A   1      44.164  29.510  27.918  1.00  0.00     0.167 HD
ATOM     66  C   UNL A   1      43.224  31.849  29.202  1.00  0.00     0.074 A 
ATOM     67  C   UNL A   1      42.385  32.744  29.970  1.00  0.00     0.031 C 
ATOM     68  C   UNL A   1      44.444  32.182  28.710  1.00  0.00     0.037 A 
BRANCH  55  69
ATOM     69  C   UNL A   1      47.272  27.579  25.719  1.00  0.00     0.064 A 
ATOM     70  C   UNL A   1      47.384  27.685  24.325  1.00  0.00     0.173 A 
ATOM     71  C   UNL A   1      48.368  27.061  26.427  1.00  0.00     0.173 A 
ATOM     72  F   UNL A   1      46.362  28.162  23.599  1.00  0.00    -0.203 F 
ATOM     73  C   UNL A   1      48.538  27.270  23.665  1.00  0.00     0.198 A 
ATOM     74  C   UNL A   1      49.532  26.678  25.768  1.00  0.00     0.198 A 
ATOM     75  F   UNL A   1      48.316  26.941  27.762  1.00  0.00    -0.203 F 
ATOM     76  F   UNL A   1      48.607  27.341  22.328  1.00  0.00    -0.200 F 
ATOM     77  C   UNL A   1      49.614  26.776  24.388  1.00  0.00     0.200 A 
ATOM     78  F   UNL A   1      50.576  26.215  26.470  1.00  0.00    -0.200 F 
ATOM     79  F   UNL A   1      50.730  26.390  23.753  1.00  0.00    -0.200 F 
ENDBRANCH  55  69
BRANCH  56  80
ATOM     80  C   UNL A   1      39.055  30.264  30.707  1.00  0.00     0.064 A 
ATOM     81  C   UNL A   1      37.974  30.914  30.098  1.00  0.00     0.173 A 
ATOM     82  C   UNL A   1      38.988  30.045  32.091  1.00  0.00     0.173 A 
ATOM     83  F   UNL A   1      38.003  31.175  28.782  1.00  0.00    -0.203 F 
ATOM     84  C   UNL A   1      36.882  31.353  30.846  1.00  0.00     0.198 A 
ATOM     85  C   UNL A   1      37.881  30.455  32.833  1.00  0.00     0.198 A 
ATOM     86  F   UNL A   1      39.999  29.434  32.726  1.00  0.00    -0.203 F 
ATOM     87  F   UNL A   1      35.893  32.029  30.247  1.00  0.00    -0.200 F 
ATOM     88  C   UNL A   1      36.835  31.119  32.212  1.00  0.00     0.200 A 
ATOM     89  F   UNL A   1      37.835  30.218  34.151  1.00  0.00    -0.200 F 
ATOM     90  F   UNL A   1      35.788  31.546  32.931  1.00  0.00    -0.200 F 
ENDBRANCH  56  80
BRANCH  68  91
ATOM     91  C   UNL A   1      44.927  33.587  28.938  1.00  0.00     0.064 A 
ATOM     92  C   UNL A   1      45.754  33.920  30.022  1.00  0.00     0.173 A 
ATOM     93  C   UNL A   1      44.593  34.607  28.033  1.00  0.00     0.173 A 
ATOM     94  F   UNL A   1      46.094  32.987  30.924  1.00  0.00    -0.203 F 
ATOM     95  C   UNL A   1      46.200  35.227  30.207  1.00  0.00     0.198 A 
ATOM     96  C   UNL A   1      45.071  35.904  28.202  1.00  0.00     0.198 A 
ATOM     97  F   UNL A   1      43.813  34.342  26.974  1.00  0.00    -0.203 F 
ATOM     98  F   UNL A   1      46.944  35.533  31.279  1.00  0.00    -0.200 F 
ATOM     99  C   UNL A   1      45.866  36.215  29.293  1.00  0.00     0.200 A 
ATOM    100  F   UNL A   1      44.761  36.852  27.307  1.00  0.00    -0.200 F 
ATOM    101  F   UNL A   1      46.305  37.469  29.469  1.00  0.00    -0.200 F 
ENDBRANCH  68  91
ENDBRANCH  42  43
ENDBRANCH  35  37
ENDBRANCH  34  35
ENDBRANCH  33  34
ENDBRANCH  32  33
ENDBRANCH  31  32
ENDBRANCH  30  31
ENDBRANCH   1  30
TORSDOF 22
ENDMDL
MODEL 3
REMARK VINA RESULT:     -11.0      3.862      6.109
REMARK SMILES CCCc1cc(OC(F)(F)F)cc2c1O[C@@H](C(F)(F)F)C(C(=O)OCCOCCOCCOC(=O)c1ccc(-c3c4nc(c(-c5c(F)c(F)c(F)c(F)c5F)c5ccc([nH]5)c(-c5c(F)c(F)c(F)c(F)c5F)c5nc(c(-c6c(F)c(F)c(F)c(F)c6F)c6ccc3[nH]6)C=C5)C=C4)cc1)=C2
REMARK SMILES IDX 28 1 27 2 26 3 25 4 24 5 22 6 23 7 21 8 4 9 5 10 14 11 6 12
REMARK SMILES IDX 13 13 15 14 12 15 99 16 16 17 3 18 2 19 1 20 7 21 8 22 9 23
REMARK SMILES IDX 10 24 11 25 17 26 18 27 19 28 20 29 29 30 30 31 31 32 32 33
REMARK SMILES IDX 33 34 34 35 35 36 36 37 37 38 98 39 38 40 97 41 39 42 40 43
REMARK SMILES IDX 41 44 91 45 42 46 96 47 90 48 92 49 43 50 95 51 89 52 88 53
REMARK SMILES IDX 44 55 76 56 56 57 75 58 57 59 60 60 74 61 93 62 58 63 59 64
REMARK SMILES IDX 73 66 94 67 61 68 45 69 46 70 54 71 47 72 48 73 52 74 55 75
REMARK SMILES IDX 49 76 50 77 53 78 51 79 77 80 78 81 86 82 79 83 80 84 84 85
REMARK SMILES IDX 87 86 81 87 82 88 85 89 83 90 62 91 63 92 71 93 64 94 65 95
REMARK SMILES IDX 69 96 72 97 66 98 67 99 70 100 68 101
REMARK H PARENT 92 54 60 65
REMARK Flexibility Score: inf
ROOT
ATOM      1  C   UNL A   1      40.268  22.075  26.833  1.00  0.00     0.188 C 
ENDROOT
BRANCH   1   2
ATOM      2  O   UNL A   1      39.196  21.385  26.237  1.00  0.00    -0.376 OA
BRANCH   2   3
ATOM      3  C   UNL A   1      38.095  22.100  25.705  1.00  0.00     0.202 C 
BRANCH   3   4
ATOM      4  C   UNL A   1      36.985  21.509  24.808  1.00  0.00     0.261 C 
BRANCH   4   5
ATOM      5  O   UNL A   1      35.693  22.126  24.834  1.00  0.00    -0.460 OA
BRANCH   5   6
ATOM      6  C   UNL A   1      35.495  23.138  23.953  1.00  0.00     0.338 C 
ATOM      7  O   UNL A   1      36.031  23.263  22.867  1.00  0.00    -0.246 OA
BRANCH   6   8
ATOM      8  C   UNL A   1      34.401  24.012  24.414  1.00  0.00     0.087 C 
ATOM      9  C   UNL A   1      31.245  26.690  24.955  1.00  0.00    -0.002 A 
ATOM     10  C   UNL A   1      31.393  27.759  25.854  1.00  0.00     0.054 A 
ATOM     11  C   UNL A   1      32.325  25.820  24.771  1.00  0.00     0.131 A 
ATOM     12  C   UNL A   1      32.586  27.942  26.562  1.00  0.00     0.130 A 
ATOM     13  C   UNL A   1      33.526  25.980  25.481  1.00  0.00     0.021 A 
ATOM     14  O   UNL A   1      32.196  24.850  23.809  1.00  0.00    -0.475 OA
ATOM     15  C   UNL A   1      33.640  27.033  26.391  1.00  0.00     0.058 A 
ATOM     16  C   UNL A   1      34.659  25.103  25.159  1.00  0.00     0.027 C 
ATOM     17  C   UNL A   1      32.971  23.657  24.071  1.00  0.00     0.316 C 
BRANCH   9  18
ATOM     18  C   UNL A   1      29.949  26.524  24.193  1.00  0.00     0.039 C 
BRANCH  18  19
ATOM     19  C   UNL A   1      29.843  27.332  22.891  1.00  0.00     0.001 C 
ATOM     20  C   UNL A   1      29.036  28.614  23.031  1.00  0.00     0.004 C 
ENDBRANCH  18  19
ENDBRANCH   9  18
BRANCH  12  21
ATOM     21  O   UNL A   1      32.845  28.962  27.436  1.00  0.00    -0.406 OA
BRANCH  21  22
ATOM     22  C   UNL A   1      33.473  30.125  26.915  1.00  0.00     0.573 C 
ATOM     23  F   UNL A   1      32.914  31.251  27.410  1.00  0.00    -0.132 F 
ATOM     24  F   UNL A   1      34.796  30.123  27.186  1.00  0.00    -0.132 F 
ATOM     25  F   UNL A   1      33.320  30.137  25.573  1.00  0.00    -0.132 F 
ENDBRANCH  21  22
ENDBRANCH  12  21
BRANCH  17  26
ATOM     26  C   UNL A   1      32.681  22.651  22.946  1.00  0.00     0.430 C 
ATOM     27  F   UNL A   1      33.094  21.404  23.275  1.00  0.00    -0.167 F 
ATOM     28  F   UNL A   1      31.338  22.547  22.754  1.00  0.00    -0.167 F 
ATOM     29  F   UNL A   1      33.224  22.992  21.763  1.00  0.00    -0.167 F 
ENDBRANCH  17  26
ENDBRANCH   6   8
ENDBRANCH   5   6
ENDBRANCH   4   5
ENDBRANCH   3   4
ENDBRANCH   2   3
ENDBRANCH   1   2
BRANCH   1  30
ATOM     30  C   UNL A   1      41.656  21.441  26.605  1.00  0.00     0.188 C 
BRANCH  30  31
ATOM     31  O   UNL A   1      41.810  20.386  25.674  1.00  0.00    -0.376 OA
BRANCH  31  32
ATOM     32  C   UNL A   1      42.358  19.149  26.108  1.00  0.00     0.202 C 
BRANCH  32  33
ATOM     33  C   UNL A   1      43.561  18.493  25.401  1.00  0.00     0.261 C 
BRANCH  33  34
ATOM     34  O   UNL A   1      43.983  19.076  24.157  1.00  0.00    -0.460 OA
BRANCH  34  35
ATOM     35  C   UNL A   1      45.196  19.685  24.176  1.00  0.00     0.338 C 
ATOM     36  O   UNL A   1      46.235  19.284  23.689  1.00  0.00    -0.246 OA
BRANCH  35  37
ATOM     37  C   UNL A   1      45.054  21.043  24.743  1.00  0.00     0.060 A 
ATOM     38  C   UNL A   1      44.552  22.065  23.923  1.00  0.00     0.016 A 
ATOM     39  C   UNL A   1      45.474  21.323  26.042  1.00  0.00     0.016 A 
ATOM     40  C   UNL A   1      44.476  23.374  24.399  1.00  0.00     0.010 A 
ATOM     41  C   UNL A   1      45.423  22.642  26.508  1.00  0.00     0.010 A 
ATOM     42  C   UNL A   1      44.945  23.677  25.683  1.00  0.00    -0.014 A 
BRANCH  42  43
ATOM     43  C   UNL A   1      45.075  25.092  26.111  1.00  0.00     0.031 A 
ATOM     44  C   UNL A   1      46.427  25.748  26.052  1.00  0.00     0.074 A 
ATOM     45  C   UNL A   1      44.007  25.787  26.540  1.00  0.00     0.049 A 
ATOM     46  N   UNL A   1      46.792  26.942  26.448  1.00  0.00    -0.248 NA
ATOM     47  C   UNL A   1      47.515  24.949  25.468  1.00  0.00     0.031 C 
ATOM     48  C   UNL A   1      42.637  25.282  26.598  1.00  0.00     0.029 A 
ATOM     49  N   UNL A   1      43.916  27.069  27.025  1.00  0.00    -0.354 N 
ATOM     50  C   UNL A   1      48.150  27.032  26.171  1.00  0.00     0.074 A 
ATOM     51  C   UNL A   1      48.550  25.765  25.598  1.00  0.00     0.031 C 
ATOM     52  C   UNL A   1      41.843  26.238  27.111  1.00  0.00     0.029 A 
ATOM     53  C   UNL A   1      42.656  27.405  27.454  1.00  0.00     0.049 A 
ATOM     54  H   UNL A   1      44.681  27.687  27.063  1.00  0.00     0.167 HD
ATOM     55  C   UNL A   1      48.984  28.080  26.373  1.00  0.00     0.037 A 
ATOM     56  C   UNL A   1      42.217  28.515  28.079  1.00  0.00     0.037 A 
ATOM     57  C   UNL A   1      48.583  29.338  26.945  1.00  0.00     0.049 A 
ATOM     58  C   UNL A   1      43.186  29.635  28.371  1.00  0.00     0.074 A 
ATOM     59  C   UNL A   1      49.352  30.467  27.172  1.00  0.00     0.029 A 
ATOM     60  N   UNL A   1      47.305  29.631  27.395  1.00  0.00    -0.354 N 
ATOM     61  N   UNL A   1      44.462  29.726  28.083  1.00  0.00    -0.248 NA
ATOM     62  C   UNL A   1      42.650  30.810  29.074  1.00  0.00     0.031 C 
ATOM     63  C   UNL A   1      48.556  31.419  27.815  1.00  0.00     0.029 A 
ATOM     64  C   UNL A   1      47.271  30.911  27.927  1.00  0.00     0.049 A 
ATOM     65  H   UNL A   1      46.534  29.021  27.344  1.00  0.00     0.167 HD
ATOM     66  C   UNL A   1      44.870  30.975  28.534  1.00  0.00     0.074 A 
ATOM     67  C   UNL A   1      43.703  31.614  29.104  1.00  0.00     0.031 C 
ATOM     68  C   UNL A   1      46.101  31.544  28.480  1.00  0.00     0.037 A 
BRANCH  55  69
ATOM     69  C   UNL A   1      50.428  27.904  25.999  1.00  0.00     0.064 A 
ATOM     70  C   UNL A   1      50.875  28.050  24.677  1.00  0.00     0.173 A 
ATOM     71  C   UNL A   1      51.387  27.633  26.988  1.00  0.00     0.173 A 
ATOM     72  F   UNL A   1      49.999  28.297  23.692  1.00  0.00    -0.203 F 
ATOM     73  C   UNL A   1      52.223  27.911  24.357  1.00  0.00     0.198 A 
ATOM     74  C   UNL A   1      52.737  27.527  26.669  1.00  0.00     0.198 A 
ATOM     75  F   UNL A   1      51.015  27.488  28.269  1.00  0.00    -0.203 F 
ATOM     76  F   UNL A   1      52.621  28.012  23.081  1.00  0.00    -0.200 F 
ATOM     77  C   UNL A   1      53.153  27.659  25.354  1.00  0.00     0.200 A 
ATOM     78  F   UNL A   1      53.637  27.298  27.637  1.00  0.00    -0.200 F 
ATOM     79  F   UNL A   1      54.453  27.538  25.046  1.00  0.00    -0.200 F 
ENDBRANCH  55  69
BRANCH  56  80
ATOM     80  C   UNL A   1      40.793  28.623  28.500  1.00  0.00     0.064 A 
ATOM     81  C   UNL A   1      39.803  29.050  27.607  1.00  0.00     0.173 A 
ATOM     82  C   UNL A   1      40.403  28.340  29.818  1.00  0.00     0.173 A 
ATOM     83  F   UNL A   1      40.130  29.364  26.344  1.00  0.00    -0.203 F 
ATOM     84  C   UNL A   1      38.482  29.217  28.020  1.00  0.00     0.198 A 
ATOM     85  C   UNL A   1      39.076  28.475  30.222  1.00  0.00     0.198 A 
ATOM     86  F   UNL A   1      41.312  27.934  30.717  1.00  0.00    -0.203 F 
ATOM     87  F   UNL A   1      37.569  29.690  27.161  1.00  0.00    -0.200 F 
ATOM     88  C   UNL A   1      38.119  28.924  29.326  1.00  0.00     0.200 A 
ATOM     89  F   UNL A   1      38.728  28.181  31.483  1.00  0.00    -0.200 F 
ATOM     90  F   UNL A   1      36.850  29.089  29.724  1.00  0.00    -0.200 F 
ENDBRANCH  56  80
BRANCH  68  91
ATOM     91  C   UNL A   1      46.244  32.946  29.003  1.00  0.00     0.064 A 
ATOM     92  C   UNL A   1      46.032  34.068  28.189  1.00  0.00     0.173 A 
ATOM     93  C   UNL A   1      46.558  33.169  30.354  1.00  0.00     0.173 A 
ATOM     94  F   UNL A   1      45.741  33.913  26.888  1.00  0.00    -0.203 F 
ATOM     95  C   UNL A   1      46.158  35.359  28.698  1.00  0.00     0.198 A 
ATOM     96  C   UNL A   1      46.648  34.460  30.868  1.00  0.00     0.198 A 
ATOM     97  F   UNL A   1      46.762  32.132  31.181  1.00  0.00    -0.203 F 
ATOM     98  F   UNL A   1      46.004  36.415  27.888  1.00  0.00    -0.200 F 
ATOM     99  C   UNL A   1      46.458  35.553  30.038  1.00  0.00     0.200 A 
ATOM    100  F   UNL A   1      46.919  34.644  32.167  1.00  0.00    -0.200 F 
ATOM    101  F   UNL A   1      46.569  36.796  30.528  1.00  0.00    -0.200 F 
ENDBRANCH  68  91
ENDBRANCH  42  43
ENDBRANCH  35  37
ENDBRANCH  34  35
ENDBRANCH  33  34
ENDBRANCH  32  33
ENDBRANCH  31  32
ENDBRANCH  30  31
ENDBRANCH   1  30
TORSDOF 22
ENDMDL
