MODEL 1
REMARK VINA RESULT:     -11.0      0.000      0.000
REMARK SMILES C=Cc1cc(Cl)cc2c1O[C@H](C(F)(F)F)C(C(=O)OCCOCCOCCOC(=O)c1ccc(-c3c4nc(c(-c5c(F)c(F)c(F)c(F)c5F)c5ccc([nH]5)c(-c5c(F)c(F)c(F)c(F)c5F)c5nc(c(-c6c(F)c(F)c(F)c(F)c6F)c6ccc3[nH]6)C=C5)C=C4)cc1)=C2
REMARK SMILES IDX 24 1 23 2 22 3 21 4 20 5 19 6 17 7 18 8 16 9 3 10 4 11 9 12
REMARK SMILES IDX 5 13 8 14 10 15 6 16 7 17 94 18 11 19 2 20 1 21 12 22 13 23
REMARK SMILES IDX 14 24 15 25 25 26 26 27 27 28 28 29 29 30 30 31 31 32 32 33
REMARK SMILES IDX 93 34 33 35 92 36 34 37 35 38 36 39 86 40 37 41 91 42 85 43
REMARK SMILES IDX 87 44 38 45 90 46 84 47 83 48 39 50 71 51 51 52 70 53 52 54
REMARK SMILES IDX 55 55 69 56 88 57 53 58 54 59 68 61 89 62 56 63 40 64 41 65
REMARK SMILES IDX 49 66 42 67 43 68 47 69 50 70 44 71 45 72 48 73 46 74 72 75
REMARK SMILES IDX 73 76 81 77 74 78 75 79 79 80 82 81 76 82 77 83 80 84 78 85
REMARK SMILES IDX 57 86 58 87 66 88 59 89 60 90 64 91 67 92 61 93 62 94 65 95
REMARK SMILES IDX 63 96
REMARK H PARENT 87 49 55 60
REMARK Flexibility Score: inf
ROOT
ATOM      1  C   UNL A   1      31.336  29.039  22.779  1.00  0.00     0.188 C 
ENDROOT
BRANCH   1   2
ATOM      2  C   UNL A   1      29.796  28.976  22.842  1.00  0.00     0.188 C 
BRANCH   2   3
ATOM      3  O   UNL A   1      29.116  27.746  22.722  1.00  0.00    -0.376 OA
BRANCH   3   4
ATOM      4  C   UNL A   1      28.964  26.877  23.830  1.00  0.00     0.202 C 
BRANCH   4   5
ATOM      5  C   UNL A   1      30.085  25.981  24.372  1.00  0.00     0.261 C 
BRANCH   5   6
ATOM      6  O   UNL A   1      30.379  24.815  23.596  1.00  0.00    -0.460 OA
BRANCH   6   7
ATOM      7  C   UNL A   1      31.512  24.891  22.857  1.00  0.00     0.338 C 
ATOM      8  O   UNL A   1      31.807  25.765  22.058  1.00  0.00    -0.246 OA
BRANCH   7   9
ATOM      9  C   UNL A   1      32.449  23.832  23.276  1.00  0.00     0.087 C 
ATOM     10  C   UNL A   1      34.918  20.786  24.756  1.00  0.00     0.018 A 
ATOM     11  C   UNL A   1      34.405  19.480  24.814  1.00  0.00     0.032 A 
ATOM     12  C   UNL A   1      34.119  21.806  24.196  1.00  0.00     0.135 A 
ATOM     13  C   UNL A   1      33.145  19.191  24.293  1.00  0.00     0.042 A 
ATOM     14  C   UNL A   1      32.837  21.513  23.713  1.00  0.00     0.019 A 
ATOM     15  O   UNL A   1      34.653  23.067  24.145  1.00  0.00    -0.475 OA
ATOM     16  Cl  UNL A   1      32.536  17.585  24.366  1.00  0.00    -0.084 Cl
ATOM     17  C   UNL A   1      32.360  20.199  23.741  1.00  0.00     0.032 A 
ATOM     18  C   UNL A   1      31.974  22.581  23.242  1.00  0.00     0.027 C 
ATOM     19  C   UNL A   1      33.843  24.189  23.706  1.00  0.00     0.316 C 
BRANCH  10  20
ATOM     20  C   UNL A   1      36.224  21.107  25.363  1.00  0.00     0.004 C 
ATOM     21  C   UNL A   1      37.382  21.199  24.697  1.00  0.00     0.009 C 
ENDBRANCH  10  20
BRANCH  19  22
ATOM     22  C   UNL A   1      33.858  25.252  24.813  1.00  0.00     0.430 C 
ATOM     23  F   UNL A   1      33.774  26.501  24.297  1.00  0.00    -0.167 F 
ATOM     24  F   UNL A   1      32.813  25.109  25.660  1.00  0.00    -0.167 F 
ATOM     25  F   UNL A   1      34.990  25.191  25.552  1.00  0.00    -0.167 F 
ENDBRANCH  19  22
ENDBRANCH   7   9
ENDBRANCH   6   7
ENDBRANCH   5   6
ENDBRANCH   4   5
ENDBRANCH   3   4
ENDBRANCH   2   3
ENDBRANCH   1   2
BRANCH   1  26
ATOM     26  O   UNL A   1      32.105  29.115  23.960  1.00  0.00    -0.376 OA
BRANCH  26  27
ATOM     27  C   UNL A   1      31.470  29.342  25.208  1.00  0.00     0.202 C 
BRANCH  27  28
ATOM     28  C   UNL A   1      31.854  30.492  26.151  1.00  0.00     0.261 C 
BRANCH  28  29
ATOM     29  O   UNL A   1      33.253  30.789  26.237  1.00  0.00    -0.460 OA
BRANCH  29  30
ATOM     30  C   UNL A   1      33.599  31.664  27.220  1.00  0.00     0.338 C 
ATOM     31  O   UNL A   1      32.938  32.573  27.669  1.00  0.00    -0.246 OA
BRANCH  30  32
ATOM     32  C   UNL A   1      34.864  31.203  27.828  1.00  0.00     0.060 A 
ATOM     33  C   UNL A   1      35.924  32.087  28.024  1.00  0.00     0.016 A 
ATOM     34  C   UNL A   1      34.978  29.856  28.201  1.00  0.00     0.016 A 
ATOM     35  C   UNL A   1      37.098  31.622  28.622  1.00  0.00     0.010 A 
ATOM     36  C   UNL A   1      36.158  29.390  28.781  1.00  0.00     0.010 A 
ATOM     37  C   UNL A   1      37.217  30.277  29.016  1.00  0.00    -0.014 A 
BRANCH  37  38
ATOM     38  C   UNL A   1      38.375  29.856  29.841  1.00  0.00     0.031 A 
ATOM     39  C   UNL A   1      39.421  28.915  29.331  1.00  0.00     0.074 A 
ATOM     40  C   UNL A   1      38.465  30.353  31.089  1.00  0.00     0.049 A 
ATOM     41  N   UNL A   1      40.540  28.545  29.904  1.00  0.00    -0.248 NA
ATOM     42  C   UNL A   1      39.184  28.304  28.017  1.00  0.00     0.031 C 
ATOM     43  C   UNL A   1      37.482  31.247  31.703  1.00  0.00     0.029 A 
ATOM     44  N   UNL A   1      39.424  30.194  32.056  1.00  0.00    -0.354 N 
ATOM     45  C   UNL A   1      41.158  27.682  29.011  1.00  0.00     0.074 A 
ATOM     46  C   UNL A   1      40.263  27.540  27.881  1.00  0.00     0.031 C 
ATOM     47  C   UNL A   1      37.904  31.585  32.929  1.00  0.00     0.029 A 
ATOM     48  C   UNL A   1      39.174  30.915  33.196  1.00  0.00     0.049 A 
ATOM     49  H   UNL A   1      40.214  29.618  31.943  1.00  0.00     0.167 HD
ATOM     50  C   UNL A   1      42.371  27.086  29.123  1.00  0.00     0.037 A 
ATOM     51  C   UNL A   1      39.892  31.035  34.329  1.00  0.00     0.037 A 
ATOM     52  C   UNL A   1      43.245  27.220  30.264  1.00  0.00     0.049 A 
ATOM     53  C   UNL A   1      41.211  30.327  34.442  1.00  0.00     0.074 A 
ATOM     54  C   UNL A   1      44.509  26.685  30.448  1.00  0.00     0.029 A 
ATOM     55  N   UNL A   1      42.942  27.924  31.421  1.00  0.00    -0.354 N 
ATOM     56  N   UNL A   1      41.829  29.583  33.558  1.00  0.00    -0.248 NA
ATOM     57  C   UNL A   1      41.939  30.482  35.710  1.00  0.00     0.031 C 
ATOM     58  C   UNL A   1      44.946  27.015  31.735  1.00  0.00     0.029 A 
ATOM     59  C   UNL A   1      43.981  27.808  32.334  1.00  0.00     0.049 A 
ATOM     60  H   UNL A   1      42.112  28.431  31.573  1.00  0.00     0.167 HD
ATOM     61  C   UNL A   1      43.024  29.200  34.149  1.00  0.00     0.074 A 
ATOM     62  C   UNL A   1      43.054  29.808  35.462  1.00  0.00     0.031 C 
ATOM     63  C   UNL A   1      44.005  28.413  33.644  1.00  0.00     0.037 A 
BRANCH  50  64
ATOM     64  C   UNL A   1      42.847  26.240  27.976  1.00  0.00     0.064 A 
ATOM     65  C   UNL A   1      43.664  26.774  26.968  1.00  0.00     0.173 A 
ATOM     66  C   UNL A   1      42.569  24.865  27.934  1.00  0.00     0.173 A 
ATOM     67  F   UNL A   1      43.960  28.082  26.962  1.00  0.00    -0.203 F 
ATOM     68  C   UNL A   1      44.172  25.966  25.953  1.00  0.00     0.198 A 
ATOM     69  C   UNL A   1      43.102  24.055  26.934  1.00  0.00     0.198 A 
ATOM     70  F   UNL A   1      41.805  24.300  28.881  1.00  0.00    -0.203 F 
ATOM     71  F   UNL A   1      44.929  26.504  24.986  1.00  0.00    -0.200 F 
ATOM     72  C   UNL A   1      43.899  24.607  25.943  1.00  0.00     0.200 A 
ATOM     73  F   UNL A   1      42.853  22.739  26.936  1.00  0.00    -0.200 F 
ATOM     74  F   UNL A   1      44.406  23.827  24.978  1.00  0.00    -0.200 F 
ENDBRANCH  50  64
BRANCH  51  75
ATOM     75  C   UNL A   1      39.387  31.909  35.418  1.00  0.00     0.064 A 
ATOM     76  C   UNL A   1      38.522  31.405  36.398  1.00  0.00     0.173 A 
ATOM     77  C   UNL A   1      39.793  33.247  35.525  1.00  0.00     0.173 A 
ATOM     78  F   UNL A   1      38.096  30.136  36.327  1.00  0.00    -0.203 F 
ATOM     79  C   UNL A   1      38.077  32.210  37.444  1.00  0.00     0.198 A 
ATOM     80  C   UNL A   1      39.370  34.042  36.587  1.00  0.00     0.198 A 
ATOM     81  F   UNL A   1      40.627  33.772  34.616  1.00  0.00    -0.203 F 
ATOM     82  F   UNL A   1      37.227  31.713  38.353  1.00  0.00    -0.200 F 
ATOM     83  C   UNL A   1      38.508  33.524  37.543  1.00  0.00     0.200 A 
ATOM     84  F   UNL A   1      39.803  35.306  36.691  1.00  0.00    -0.200 F 
ATOM     85  F   UNL A   1      38.093  34.292  38.559  1.00  0.00    -0.200 F 
ENDBRANCH  51  75
BRANCH  63  86
ATOM     86  C   UNL A   1      45.210  28.164  34.506  1.00  0.00     0.064 A 
ATOM     87  C   UNL A   1      45.284  27.056  35.363  1.00  0.00     0.173 A 
ATOM     88  C   UNL A   1      46.329  29.008  34.428  1.00  0.00     0.173 A 
ATOM     89  F   UNL A   1      44.236  26.227  35.487  1.00  0.00    -0.203 F 
ATOM     90  C   UNL A   1      46.427  26.810  36.121  1.00  0.00     0.198 A 
ATOM     91  C   UNL A   1      47.482  28.742  35.164  1.00  0.00     0.198 A 
ATOM     92  F   UNL A   1      46.315  30.079  33.621  1.00  0.00    -0.203 F 
ATOM     93  F   UNL A   1      46.459  25.767  36.962  1.00  0.00    -0.200 F 
ATOM     94  C   UNL A   1      47.528  27.647  36.014  1.00  0.00     0.200 A 
ATOM     95  F   UNL A   1      48.550  29.542  35.046  1.00  0.00    -0.200 F 
ATOM     96  F   UNL A   1      48.633  27.400  36.730  1.00  0.00    -0.200 F 
ENDBRANCH  63  86
ENDBRANCH  37  38
ENDBRANCH  30  32
ENDBRANCH  29  30
ENDBRANCH  28  29
ENDBRANCH  27  28
ENDBRANCH  26  27
ENDBRANCH   1  26
TORSDOF 19
ENDMDL
MODEL 2
REMARK VINA RESULT:     -11.0      1.723      7.452
REMARK SMILES C=Cc1cc(Cl)cc2c1O[C@H](C(F)(F)F)C(C(=O)OCCOCCOCCOC(=O)c1ccc(-c3c4nc(c(-c5c(F)c(F)c(F)c(F)c5F)c5ccc([nH]5)c(-c5c(F)c(F)c(F)c(F)c5F)c5nc(c(-c6c(F)c(F)c(F)c(F)c6F)c6ccc3[nH]6)C=C5)C=C4)cc1)=C2
REMARK SMILES IDX 24 1 23 2 22 3 21 4 20 5 19 6 17 7 18 8 16 9 3 10 4 11 9 12
REMARK SMILES IDX 5 13 8 14 10 15 6 16 7 17 94 18 11 19 2 20 1 21 12 22 13 23
REMARK SMILES IDX 14 24 15 25 25 26 26 27 27 28 28 29 29 30 30 31 31 32 32 33
REMARK SMILES IDX 93 34 33 35 92 36 34 37 35 38 36 39 86 40 37 41 91 42 85 43
REMARK SMILES IDX 87 44 38 45 90 46 84 47 83 48 39 50 71 51 51 52 70 53 52 54
REMARK SMILES IDX 55 55 69 56 88 57 53 58 54 59 68 61 89 62 56 63 40 64 41 65
REMARK SMILES IDX 49 66 42 67 43 68 47 69 50 70 44 71 45 72 48 73 46 74 72 75
REMARK SMILES IDX 73 76 81 77 74 78 75 79 79 80 82 81 76 82 77 83 80 84 78 85
REMARK SMILES IDX 57 86 58 87 66 88 59 89 60 90 64 91 67 92 61 93 62 94 65 95
REMARK SMILES IDX 63 96
REMARK H PARENT 87 49 55 60
REMARK Flexibility Score: inf
ROOT
ATOM      1  C   UNL A   1      31.732  28.435  22.898  1.00  0.00     0.188 C 
ENDROOT
BRANCH   1   2
ATOM      2  C   UNL A   1      30.479  27.536  22.869  1.00  0.00     0.188 C 
BRANCH   2   3
ATOM      3  O   UNL A   1      30.457  26.303  23.554  1.00  0.00    -0.376 OA
BRANCH   3   4
ATOM      4  C   UNL A   1      29.987  26.208  24.887  1.00  0.00     0.202 C 
BRANCH   4   5
ATOM      5  C   UNL A   1      30.754  25.502  26.013  1.00  0.00     0.261 C 
BRANCH   5   6
ATOM      6  O   UNL A   1      31.562  24.391  25.613  1.00  0.00    -0.460 OA
BRANCH   6   7
ATOM      7  C   UNL A   1      31.853  23.510  26.601  1.00  0.00     0.338 C 
ATOM      8  O   UNL A   1      31.106  23.136  27.490  1.00  0.00    -0.246 OA
BRANCH   7   9
ATOM      9  C   UNL A   1      33.181  22.916  26.361  1.00  0.00     0.087 C 
ATOM     10  C   UNL A   1      36.977  21.427  25.391  1.00  0.00     0.018 A 
ATOM     11  C   UNL A   1      38.079  22.290  25.498  1.00  0.00     0.032 A 
ATOM     12  C   UNL A   1      35.704  21.898  25.781  1.00  0.00     0.135 A 
ATOM     13  C   UNL A   1      37.925  23.575  26.015  1.00  0.00     0.042 A 
ATOM     14  C   UNL A   1      35.553  23.206  26.260  1.00  0.00     0.019 A 
ATOM     15  O   UNL A   1      34.651  21.028  25.674  1.00  0.00    -0.475 OA
ATOM     16  Cl  UNL A   1      39.288  24.615  26.146  1.00  0.00    -0.084 Cl
ATOM     17  C   UNL A   1      36.669  24.036  26.399  1.00  0.00     0.032 A 
ATOM     18  C   UNL A   1      34.230  23.726  26.552  1.00  0.00     0.027 C 
ATOM     19  C   UNL A   1      33.296  21.483  25.929  1.00  0.00     0.316 C 
BRANCH  10  20
ATOM     20  C   UNL A   1      37.126  20.090  24.786  1.00  0.00     0.004 C 
ATOM     21  C   UNL A   1      38.048  19.184  25.135  1.00  0.00     0.009 C 
ENDBRANCH  10  20
BRANCH  19  22
ATOM     22  C   UNL A   1      32.448  21.178  24.686  1.00  0.00     0.430 C 
ATOM     23  F   UNL A   1      32.733  22.030  23.674  1.00  0.00    -0.167 F 
ATOM     24  F   UNL A   1      32.673  19.928  24.218  1.00  0.00    -0.167 F 
ATOM     25  F   UNL A   1      31.124  21.281  24.946  1.00  0.00    -0.167 F 
ENDBRANCH  19  22
ENDBRANCH   7   9
ENDBRANCH   6   7
ENDBRANCH   5   6
ENDBRANCH   4   5
ENDBRANCH   3   4
ENDBRANCH   2   3
ENDBRANCH   1   2
BRANCH   1  26
ATOM     26  O   UNL A   1      31.781  29.581  23.718  1.00  0.00    -0.376 OA
BRANCH  26  27
ATOM     27  C   UNL A   1      31.398  29.497  25.082  1.00  0.00     0.202 C 
BRANCH  27  28
ATOM     28  C   UNL A   1      31.861  30.499  26.150  1.00  0.00     0.261 C 
BRANCH  28  29
ATOM     29  O   UNL A   1      33.250  30.450  26.492  1.00  0.00    -0.460 OA
BRANCH  29  30
ATOM     30  C   UNL A   1      33.690  31.476  27.272  1.00  0.00     0.338 C 
ATOM     31  O   UNL A   1      33.082  32.467  27.604  1.00  0.00    -0.246 OA
BRANCH  30  32
ATOM     32  C   UNL A   1      34.997  31.094  27.847  1.00  0.00     0.060 A 
ATOM     33  C   UNL A   1      36.020  32.032  27.974  1.00  0.00     0.016 A 
ATOM     34  C   UNL A   1      35.187  29.767  28.261  1.00  0.00     0.016 A 
ATOM     35  C   UNL A   1      37.236  31.642  28.542  1.00  0.00     0.010 A 
ATOM     36  C   UNL A   1      36.408  29.376  28.810  1.00  0.00     0.010 A 
ATOM     37  C   UNL A   1      37.432  30.318  28.976  1.00  0.00    -0.014 A 
BRANCH  37  38
ATOM     38  C   UNL A   1      38.638  29.979  29.771  1.00  0.00     0.031 A 
ATOM     39  C   UNL A   1      38.874  30.531  31.142  1.00  0.00     0.074 A 
ATOM     40  C   UNL A   1      39.535  29.143  29.216  1.00  0.00     0.049 A 
ATOM     41  N   UNL A   1      39.828  30.238  31.989  1.00  0.00    -0.248 NA
ATOM     42  C   UNL A   1      37.927  31.544  31.624  1.00  0.00     0.031 C 
ATOM     43  C   UNL A   1      39.425  28.577  27.870  1.00  0.00     0.029 A 
ATOM     44  N   UNL A   1      40.699  28.614  29.709  1.00  0.00    -0.354 N 
ATOM     45  C   UNL A   1      39.584  31.005  33.119  1.00  0.00     0.074 A 
ATOM     46  C   UNL A   1      38.421  31.819  32.826  1.00  0.00     0.031 C 
ATOM     47  C   UNL A   1      40.460  27.752  27.658  1.00  0.00     0.029 A 
ATOM     48  C   UNL A   1      41.318  27.751  28.840  1.00  0.00     0.049 A 
ATOM     49  H   UNL A   1      41.057  28.833  30.600  1.00  0.00     0.167 HD
ATOM     50  C   UNL A   1      40.260  31.007  34.294  1.00  0.00     0.037 A 
ATOM     51  C   UNL A   1      42.443  27.025  28.982  1.00  0.00     0.037 A 
ATOM     52  C   UNL A   1      41.430  30.206  34.565  1.00  0.00     0.049 A 
ATOM     53  C   UNL A   1      43.196  27.083  30.280  1.00  0.00     0.074 A 
ATOM     54  C   UNL A   1      42.156  30.114  35.741  1.00  0.00     0.029 A 
ATOM     55  N   UNL A   1      42.055  29.373  33.648  1.00  0.00    -0.354 N 
ATOM     56  N   UNL A   1      42.909  27.744  31.374  1.00  0.00    -0.248 NA
ATOM     57  C   UNL A   1      44.427  26.284  30.367  1.00  0.00     0.031 C 
ATOM     58  C   UNL A   1      43.251  29.273  35.518  1.00  0.00     0.029 A 
ATOM     59  C   UNL A   1      43.177  28.791  34.222  1.00  0.00     0.049 A 
ATOM     60  H   UNL A   1      41.749  29.219  32.725  1.00  0.00     0.167 HD
ATOM     61  C   UNL A   1      43.907  27.427  32.285  1.00  0.00     0.074 A 
ATOM     62  C   UNL A   1      44.798  26.499  31.622  1.00  0.00     0.031 C 
ATOM     63  C   UNL A   1      44.065  27.869  33.556  1.00  0.00     0.037 A 
BRANCH  50  64
ATOM     64  C   UNL A   1      39.750  31.891  35.397  1.00  0.00     0.064 A 
ATOM     65  C   UNL A   1      40.194  33.216  35.532  1.00  0.00     0.173 A 
ATOM     66  C   UNL A   1      38.739  31.448  36.264  1.00  0.00     0.173 A 
ATOM     67  F   UNL A   1      41.158  33.689  34.730  1.00  0.00    -0.203 F 
ATOM     68  C   UNL A   1      39.656  34.057  36.504  1.00  0.00     0.198 A 
ATOM     69  C   UNL A   1      38.184  32.300  37.215  1.00  0.00     0.198 A 
ATOM     70  F   UNL A   1      38.267  30.195  36.169  1.00  0.00    -0.203 F 
ATOM     71  F   UNL A   1      40.116  35.310  36.631  1.00  0.00    -0.200 F 
ATOM     72  C   UNL A   1      38.645  33.602  37.337  1.00  0.00     0.200 A 
ATOM     73  F   UNL A   1      37.194  31.866  38.006  1.00  0.00    -0.200 F 
ATOM     74  F   UNL A   1      38.115  34.419  38.257  1.00  0.00    -0.200 F 
ENDBRANCH  50  64
BRANCH  51  75
ATOM     75  C   UNL A   1      42.884  26.146  27.870  1.00  0.00     0.064 A 
ATOM     76  C   UNL A   1      42.406  24.833  27.763  1.00  0.00     0.173 A 
ATOM     77  C   UNL A   1      43.752  26.612  26.873  1.00  0.00     0.173 A 
ATOM     78  F   UNL A   1      41.585  24.339  28.701  1.00  0.00    -0.203 F 
ATOM     79  C   UNL A   1      42.786  24.016  26.700  1.00  0.00     0.198 A 
ATOM     80  C   UNL A   1      44.108  25.804  25.796  1.00  0.00     0.198 A 
ATOM     81  F   UNL A   1      44.229  27.864  26.928  1.00  0.00    -0.203 F 
ATOM     82  F   UNL A   1      42.337  22.755  26.635  1.00  0.00    -0.200 F 
ATOM     83  C   UNL A   1      43.628  24.505  25.713  1.00  0.00     0.200 A 
ATOM     84  F   UNL A   1      44.907  26.286  24.834  1.00  0.00    -0.200 F 
ATOM     85  F   UNL A   1      43.978  23.725  24.682  1.00  0.00    -0.200 F 
ENDBRANCH  51  75
BRANCH  63  86
ATOM     86  C   UNL A   1      45.243  27.351  34.331  1.00  0.00     0.064 A 
ATOM     87  C   UNL A   1      46.468  28.035  34.350  1.00  0.00     0.173 A 
ATOM     88  C   UNL A   1      45.128  26.192  35.113  1.00  0.00     0.173 A 
ATOM     89  F   UNL A   1      46.635  29.140  33.608  1.00  0.00    -0.203 F 
ATOM     90  C   UNL A   1      47.537  27.570  35.112  1.00  0.00     0.198 A 
ATOM     91  C   UNL A   1      46.189  25.746  35.898  1.00  0.00     0.198 A 
ATOM     92  F   UNL A   1      43.978  25.501  35.136  1.00  0.00    -0.203 F 
ATOM     93  F   UNL A   1      48.710  28.219  35.085  1.00  0.00    -0.200 F 
ATOM     94  C   UNL A   1      47.394  26.432  35.893  1.00  0.00     0.200 A 
ATOM     95  F   UNL A   1      46.044  24.656  36.664  1.00  0.00    -0.200 F 
ATOM     96  F   UNL A   1      48.418  25.995  36.638  1.00  0.00    -0.200 F 
ENDBRANCH  63  86
ENDBRANCH  37  38
ENDBRANCH  30  32
ENDBRANCH  29  30
ENDBRANCH  28  29
ENDBRANCH  27  28
ENDBRANCH  26  27
ENDBRANCH   1  26
TORSDOF 19
ENDMDL
MODEL 3
REMARK VINA RESULT:     -11.0      1.100      7.236
REMARK SMILES C=Cc1cc(Cl)cc2c1O[C@H](C(F)(F)F)C(C(=O)OCCOCCOCCOC(=O)c1ccc(-c3c4nc(c(-c5c(F)c(F)c(F)c(F)c5F)c5ccc([nH]5)c(-c5c(F)c(F)c(F)c(F)c5F)c5nc(c(-c6c(F)c(F)c(F)c(F)c6F)c6ccc3[nH]6)C=C5)C=C4)cc1)=C2
REMARK SMILES IDX 24 1 23 2 22 3 21 4 20 5 19 6 17 7 18 8 16 9 3 10 4 11 9 12
REMARK SMILES IDX 5 13 8 14 10 15 6 16 7 17 94 18 11 19 2 20 1 21 12 22 13 23
REMARK SMILES IDX 14 24 15 25 25 26 26 27 27 28 28 29 29 30 30 31 31 32 32 33
REMARK SMILES IDX 93 34 33 35 92 36 34 37 35 38 36 39 86 40 37 41 91 42 85 43
REMARK SMILES IDX 87 44 38 45 90 46 84 47 83 48 39 50 71 51 51 52 70 53 52 54
REMARK SMILES IDX 55 55 69 56 88 57 53 58 54 59 68 61 89 62 56 63 40 64 41 65
REMARK SMILES IDX 49 66 42 67 43 68 47 69 50 70 44 71 45 72 48 73 46 74 72 75
REMARK SMILES IDX 73 76 81 77 74 78 75 79 79 80 82 81 76 82 77 83 80 84 78 85
REMARK SMILES IDX 57 86 58 87 66 88 59 89 60 90 64 91 67 92 61 93 62 94 65 95
REMARK SMILES IDX 63 96
REMARK H PARENT 87 49 55 60
REMARK Flexibility Score: inf
ROOT
ATOM      1  C   UNL A   1      32.521  27.712  23.718  1.00  0.00     0.188 C 
ENDROOT
BRANCH   1   2
ATOM      2  C   UNL A   1      31.196  27.635  22.932  1.00  0.00     0.188 C 
BRANCH   2   3
ATOM      3  O   UNL A   1      30.327  26.535  23.085  1.00  0.00    -0.376 OA
BRANCH   3   4
ATOM      4  C   UNL A   1      29.768  26.205  24.345  1.00  0.00     0.202 C 
BRANCH   4   5
ATOM      5  C   UNL A   1      30.419  25.234  25.338  1.00  0.00     0.261 C 
BRANCH   5   6
ATOM      6  O   UNL A   1      31.054  24.089  24.762  1.00  0.00    -0.460 OA
BRANCH   6   7
ATOM      7  C   UNL A   1      31.036  22.976  25.536  1.00  0.00     0.338 C 
ATOM      8  O   UNL A   1      30.125  22.599  26.253  1.00  0.00    -0.246 OA
BRANCH   7   9
ATOM      9  C   UNL A   1      32.237  22.164  25.265  1.00  0.00     0.087 C 
ATOM     10  C   UNL A   1      35.600  19.706  24.804  1.00  0.00     0.018 A 
ATOM     11  C   UNL A   1      35.400  18.328  24.623  1.00  0.00     0.032 A 
ATOM     12  C   UNL A   1      34.473  20.551  24.891  1.00  0.00     0.135 A 
ATOM     13  C   UNL A   1      34.112  17.811  24.496  1.00  0.00     0.042 A 
ATOM     14  C   UNL A   1      33.181  20.016  24.803  1.00  0.00     0.019 A 
ATOM     15  O   UNL A   1      34.703  21.892  25.057  1.00  0.00    -0.475 OA
ATOM     16  Cl  UNL A   1      33.886  16.122  24.267  1.00  0.00    -0.084 Cl
ATOM     17  C   UNL A   1      33.003  18.647  24.582  1.00  0.00     0.032 A 
ATOM     18  C   UNL A   1      32.024  20.868  25.007  1.00  0.00     0.027 C 
ATOM     19  C   UNL A   1      33.596  22.802  25.287  1.00  0.00     0.316 C 
BRANCH  10  20
ATOM     20  C   UNL A   1      36.958  20.247  25.002  1.00  0.00     0.004 C 
ATOM     21  C   UNL A   1      38.096  19.580  24.772  1.00  0.00     0.009 C 
ENDBRANCH  10  20
BRANCH  19  22
ATOM     22  C   UNL A   1      33.864  23.559  26.596  1.00  0.00     0.430 C 
ATOM     23  F   UNL A   1      33.160  23.028  27.624  1.00  0.00    -0.167 F 
ATOM     24  F   UNL A   1      35.169  23.505  26.950  1.00  0.00    -0.167 F 
ATOM     25  F   UNL A   1      33.524  24.864  26.499  1.00  0.00    -0.167 F 
ENDBRANCH  19  22
ENDBRANCH   7   9
ENDBRANCH   6   7
ENDBRANCH   5   6
ENDBRANCH   4   5
ENDBRANCH   3   4
ENDBRANCH   2   3
ENDBRANCH   1   2
BRANCH   1  26
ATOM     26  O   UNL A   1      32.760  28.760  24.631  1.00  0.00    -0.376 OA
BRANCH  26  27
ATOM     27  C   UNL A   1      31.721  29.668  24.959  1.00  0.00     0.202 C 
BRANCH  27  28
ATOM     28  C   UNL A   1      31.686  30.472  26.268  1.00  0.00     0.261 C 
BRANCH  28  29
ATOM     29  O   UNL A   1      32.824  30.321  27.124  1.00  0.00    -0.460 OA
BRANCH  29  30
ATOM     30  C   UNL A   1      33.545  31.457  27.332  1.00  0.00     0.338 C 
ATOM     31  O   UNL A   1      33.163  32.602  27.254  1.00  0.00    -0.246 OA
BRANCH  30  32
ATOM     32  C   UNL A   1      34.859  31.075  27.891  1.00  0.00     0.060 A 
ATOM     33  C   UNL A   1      35.826  32.043  28.161  1.00  0.00     0.016 A 
ATOM     34  C   UNL A   1      35.114  29.720  28.143  1.00  0.00     0.016 A 
ATOM     35  C   UNL A   1      37.049  31.650  28.709  1.00  0.00     0.010 A 
ATOM     36  C   UNL A   1      36.344  29.328  28.673  1.00  0.00     0.010 A 
ATOM     37  C   UNL A   1      37.310  30.294  28.982  1.00  0.00    -0.014 A 
BRANCH  37  38
ATOM     38  C   UNL A   1      38.516  29.923  29.761  1.00  0.00     0.031 A 
ATOM     39  C   UNL A   1      38.774  30.452  31.137  1.00  0.00     0.074 A 
ATOM     40  C   UNL A   1      39.393  29.078  29.188  1.00  0.00     0.049 A 
ATOM     41  N   UNL A   1      39.730  30.131  31.972  1.00  0.00    -0.248 NA
ATOM     42  C   UNL A   1      37.850  31.477  31.641  1.00  0.00     0.031 C 
ATOM     43  C   UNL A   1      39.261  28.532  27.836  1.00  0.00     0.029 A 
ATOM     44  N   UNL A   1      40.551  28.522  29.664  1.00  0.00    -0.354 N 
ATOM     45  C   UNL A   1      39.510  30.888  33.114  1.00  0.00     0.074 A 
ATOM     46  C   UNL A   1      38.360  31.727  32.842  1.00  0.00     0.031 C 
ATOM     47  C   UNL A   1      40.279  27.691  27.604  1.00  0.00     0.029 A 
ATOM     48  C   UNL A   1      41.146  27.659  28.778  1.00  0.00     0.049 A 
ATOM     49  H   UNL A   1      40.921  28.722  30.554  1.00  0.00     0.167 HD
ATOM     50  C   UNL A   1      40.196  30.862  34.283  1.00  0.00     0.037 A 
ATOM     51  C   UNL A   1      42.259  26.911  28.901  1.00  0.00     0.037 A 
ATOM     52  C   UNL A   1      41.353  30.036  34.533  1.00  0.00     0.049 A 
ATOM     53  C   UNL A   1      43.025  26.937  30.192  1.00  0.00     0.074 A 
ATOM     54  C   UNL A   1      42.088  29.915  35.702  1.00  0.00     0.029 A 
ATOM     55  N   UNL A   1      41.955  29.204  33.600  1.00  0.00    -0.354 N 
ATOM     56  N   UNL A   1      42.759  27.590  31.297  1.00  0.00    -0.248 NA
ATOM     57  C   UNL A   1      44.241  26.115  30.258  1.00  0.00     0.031 C 
ATOM     58  C   UNL A   1      43.165  29.057  35.458  1.00  0.00     0.029 A 
ATOM     59  C   UNL A   1      43.071  28.594  34.156  1.00  0.00     0.049 A 
ATOM     60  H   UNL A   1      41.638  29.067  32.678  1.00  0.00     0.167 HD
ATOM     61  C   UNL A   1      43.759  27.242  32.195  1.00  0.00     0.074 A 
ATOM     62  C   UNL A   1      44.627  26.307  31.512  1.00  0.00     0.031 C 
ATOM     63  C   UNL A   1      43.936  27.665  33.471  1.00  0.00     0.037 A 
BRANCH  50  64
ATOM     64  C   UNL A   1      39.712  31.741  35.402  1.00  0.00     0.064 A 
ATOM     65  C   UNL A   1      40.197  33.048  35.562  1.00  0.00     0.173 A 
ATOM     66  C   UNL A   1      38.687  31.312  36.259  1.00  0.00     0.173 A 
ATOM     67  F   UNL A   1      41.176  33.506  34.770  1.00  0.00    -0.203 F 
ATOM     68  C   UNL A   1      39.684  33.887  36.549  1.00  0.00     0.198 A 
ATOM     69  C   UNL A   1      38.157  32.164  37.226  1.00  0.00     0.198 A 
ATOM     70  F   UNL A   1      38.176  30.077  36.140  1.00  0.00    -0.203 F 
ATOM     71  F   UNL A   1      40.182  35.122  36.700  1.00  0.00    -0.200 F 
ATOM     72  C   UNL A   1      38.658  33.448  37.372  1.00  0.00     0.200 A 
ATOM     73  F   UNL A   1      37.152  31.746  38.007  1.00  0.00    -0.200 F 
ATOM     74  F   UNL A   1      38.152  34.264  38.307  1.00  0.00    -0.200 F 
ENDBRANCH  50  64
BRANCH  51  75
ATOM     75  C   UNL A   1      42.674  26.038  27.774  1.00  0.00     0.064 A 
ATOM     76  C   UNL A   1      43.605  26.484  26.827  1.00  0.00     0.173 A 
ATOM     77  C   UNL A   1      42.184  24.730  27.646  1.00  0.00     0.173 A 
ATOM     78  F   UNL A   1      44.091  27.732  26.900  1.00  0.00    -0.203 F 
ATOM     79  C   UNL A   1      44.027  25.655  25.790  1.00  0.00     0.198 A 
ATOM     80  C   UNL A   1      42.628  23.894  26.626  1.00  0.00     0.198 A 
ATOM     81  F   UNL A   1      41.296  24.256  28.533  1.00  0.00    -0.203 F 
ATOM     82  F   UNL A   1      44.898  26.115  24.881  1.00  0.00    -0.200 F 
ATOM     83  C   UNL A   1      43.545  24.358  25.696  1.00  0.00     0.200 A 
ATOM     84  F   UNL A   1      42.175  22.634  26.549  1.00  0.00    -0.200 F 
ATOM     85  F   UNL A   1      43.966  23.556  24.708  1.00  0.00    -0.200 F 
ENDBRANCH  51  75
BRANCH  63  86
ATOM     86  C   UNL A   1      45.112  27.115  34.228  1.00  0.00     0.064 A 
ATOM     87  C   UNL A   1      45.024  25.916  34.951  1.00  0.00     0.173 A 
ATOM     88  C   UNL A   1      46.357  27.761  34.179  1.00  0.00     0.173 A 
ATOM     89  F   UNL A   1      43.853  25.268  35.043  1.00  0.00    -0.203 F 
ATOM     90  C   UNL A   1      46.135  25.392  35.608  1.00  0.00     0.198 A 
ATOM     91  C   UNL A   1      47.473  27.218  34.811  1.00  0.00     0.198 A 
ATOM     92  F   UNL A   1      46.498  28.908  33.497  1.00  0.00    -0.203 F 
ATOM     93  F   UNL A   1      46.017  24.265  36.325  1.00  0.00    -0.200 F 
ATOM     94  C   UNL A   1      47.360  26.038  35.530  1.00  0.00     0.200 A 
ATOM     95  F   UNL A   1      48.659  27.835  34.720  1.00  0.00    -0.200 F 
ATOM     96  F   UNL A   1      48.431  25.523  36.148  1.00  0.00    -0.200 F 
ENDBRANCH  63  86
ENDBRANCH  37  38
ENDBRANCH  30  32
ENDBRANCH  29  30
ENDBRANCH  28  29
ENDBRANCH  27  28
ENDBRANCH  26  27
ENDBRANCH   1  26
TORSDOF 19
ENDMDL
