MODEL 1
REMARK VINA RESULT:     -11.1      0.000      0.000
REMARK SMILES O=C(OCCOCCOCCOC(=O)[C@H]1C[C@@H](O)C[N@H+]1Cc1ccccc1)c1ccc(-c2c3nc(c(-c4c(F)c(F)c(F)c(F)c4F)c4ccc([nH]4)c(-c4c(F)c(F)c(F)c(F)c4F)c4nc(c(-c5c(F)c(F)c(F)c(F)c5F)c5ccc2[nH]5)C=C4)C=C3)cc1
REMARK SMILES IDX 7 1 6 2 5 3 4 4 3 5 2 6 1 7 28 8 29 9 90 10 30 11 89 12
REMARK SMILES IDX 31 13 32 14 33 15 83 16 34 17 88 18 82 19 84 20 35 21 87 22
REMARK SMILES IDX 81 23 80 24 36 26 68 27 48 28 67 29 49 30 52 31 66 32 85 33
REMARK SMILES IDX 50 34 51 35 65 37 86 38 53 39 37 40 38 41 46 42 39 43 40 44
REMARK SMILES IDX 44 45 47 46 41 47 42 48 45 49 43 50 69 51 70 52 78 53 71 54
REMARK SMILES IDX 72 55 76 56 79 57 73 58 74 59 77 60 75 61 54 62 55 63 63 64
REMARK SMILES IDX 56 65 57 66 61 67 64 68 58 69 59 70 62 71 60 72 8 73 9 74
REMARK SMILES IDX 10 75 11 76 12 77 13 78 14 79 15 80 16 81 20 82 17 83 19 84
REMARK SMILES IDX 21 86 22 87 23 88 27 89 24 90 26 91 25 92 18 93
REMARK H PARENT 84 25 52 36 20 85 18 94
REMARK Flexibility Score: inf
ROOT
ATOM      1  C   UNL A   1      41.371  20.961  26.154  1.00  0.00     0.188 C 
ENDROOT
BRANCH   1   2
ATOM      2  O   UNL A   1      42.550  21.660  26.517  1.00  0.00    -0.376 OA
BRANCH   2   3
ATOM      3  C   UNL A   1      43.683  21.480  25.681  1.00  0.00     0.202 C 
BRANCH   3   4
ATOM      4  C   UNL A   1      44.459  22.781  25.420  1.00  0.00     0.261 C 
BRANCH   4   5
ATOM      5  O   UNL A   1      43.539  23.797  24.977  1.00  0.00    -0.460 OA
BRANCH   5   6
ATOM      6  C   UNL A   1      43.953  25.080  25.116  1.00  0.00     0.338 C 
ATOM      7  O   UNL A   1      45.016  25.556  24.736  1.00  0.00    -0.246 OA
BRANCH   6   8
ATOM      8  C   UNL A   1      42.954  25.819  25.920  1.00  0.00     0.060 A 
ATOM      9  C   UNL A   1      43.204  27.162  26.224  1.00  0.00     0.016 A 
ATOM     10  C   UNL A   1      41.755  25.224  26.333  1.00  0.00     0.016 A 
ATOM     11  C   UNL A   1      42.306  27.909  26.949  1.00  0.00     0.010 A 
ATOM     12  C   UNL A   1      40.874  25.950  27.145  1.00  0.00     0.010 A 
ATOM     13  C   UNL A   1      41.191  27.274  27.493  1.00  0.00    -0.014 A 
BRANCH  13  14
ATOM     14  C   UNL A   1      40.690  27.926  28.715  1.00  0.00     0.031 A 
ATOM     15  C   UNL A   1      41.559  27.795  29.938  1.00  0.00     0.074 A 
ATOM     16  C   UNL A   1      39.699  28.827  28.646  1.00  0.00     0.049 A 
ATOM     17  N   UNL A   1      41.480  28.400  31.092  1.00  0.00    -0.248 NA
ATOM     18  C   UNL A   1      42.722  26.894  29.816  1.00  0.00     0.031 C 
ATOM     19  C   UNL A   1      38.940  29.156  27.441  1.00  0.00     0.029 A 
ATOM     20  N   UNL A   1      39.200  29.665  29.605  1.00  0.00    -0.354 N 
ATOM     21  C   UNL A   1      42.580  27.961  31.817  1.00  0.00     0.074 A 
ATOM     22  C   UNL A   1      43.314  27.041  30.986  1.00  0.00     0.031 C 
ATOM     23  C   UNL A   1      38.056  30.124  27.739  1.00  0.00     0.029 A 
ATOM     24  C   UNL A   1      38.164  30.446  29.161  1.00  0.00     0.049 A 
ATOM     25  H   UNL A   1      39.548  29.702  30.525  1.00  0.00     0.167 HD
ATOM     26  C   UNL A   1      42.938  28.292  33.079  1.00  0.00     0.037 A 
ATOM     27  C   UNL A   1      37.382  31.294  29.852  1.00  0.00     0.037 A 
ATOM     28  C   UNL A   1      42.157  29.168  33.903  1.00  0.00     0.049 A 
ATOM     29  C   UNL A   1      37.686  31.510  31.314  1.00  0.00     0.074 A 
ATOM     30  C   UNL A   1      42.336  29.499  35.231  1.00  0.00     0.029 A 
ATOM     31  N   UNL A   1      41.020  29.837  33.464  1.00  0.00    -0.354 N 
ATOM     32  N   UNL A   1      38.681  31.038  32.030  1.00  0.00    -0.248 NA
ATOM     33  C   UNL A   1      36.763  32.367  32.065  1.00  0.00     0.031 C 
ATOM     34  C   UNL A   1      41.265  30.313  35.615  1.00  0.00     0.029 A 
ATOM     35  C   UNL A   1      40.465  30.554  34.506  1.00  0.00     0.049 A 
ATOM     36  H   UNL A   1      40.665  29.805  32.547  1.00  0.00     0.167 HD
ATOM     37  C   UNL A   1      38.523  31.562  33.305  1.00  0.00     0.074 A 
ATOM     38  C   UNL A   1      37.335  32.393  33.262  1.00  0.00     0.031 C 
ATOM     39  C   UNL A   1      39.286  31.381  34.412  1.00  0.00     0.037 A 
BRANCH  26  40
ATOM     40  C   UNL A   1      44.141  27.596  33.646  1.00  0.00     0.064 A 
ATOM     41  C   UNL A   1      44.043  26.393  34.363  1.00  0.00     0.173 A 
ATOM     42  C   UNL A   1      45.407  28.192  33.538  1.00  0.00     0.173 A 
ATOM     43  F   UNL A   1      42.851  25.800  34.529  1.00  0.00    -0.203 F 
ATOM     44  C   UNL A   1      45.161  25.837  34.984  1.00  0.00     0.198 A 
ATOM     45  C   UNL A   1      46.526  27.618  34.133  1.00  0.00     0.198 A 
ATOM     46  F   UNL A   1      45.554  29.350  32.877  1.00  0.00    -0.203 F 
ATOM     47  F   UNL A   1      45.030  24.731  35.730  1.00  0.00    -0.200 F 
ATOM     48  C   UNL A   1      46.400  26.449  34.867  1.00  0.00     0.200 A 
ATOM     49  F   UNL A   1      47.722  28.211  34.018  1.00  0.00    -0.200 F 
ATOM     50  F   UNL A   1      47.470  25.923  35.480  1.00  0.00    -0.200 F 
ENDBRANCH  26  40
BRANCH  27  51
ATOM     51  C   UNL A   1      36.216  31.935  29.189  1.00  0.00     0.064 A 
ATOM     52  C   UNL A   1      35.116  31.191  28.743  1.00  0.00     0.173 A 
ATOM     53  C   UNL A   1      36.186  33.324  28.980  1.00  0.00     0.173 A 
ATOM     54  F   UNL A   1      35.102  29.859  28.894  1.00  0.00    -0.203 F 
ATOM     55  C   UNL A   1      34.039  31.809  28.105  1.00  0.00     0.198 A 
ATOM     56  C   UNL A   1      35.097  33.944  28.372  1.00  0.00     0.198 A 
ATOM     57  F   UNL A   1      37.215  34.087  29.380  1.00  0.00    -0.203 F 
ATOM     58  F   UNL A   1      33.019  31.069  27.650  1.00  0.00    -0.200 F 
ATOM     59  C   UNL A   1      34.028  33.185  27.927  1.00  0.00     0.200 A 
ATOM     60  F   UNL A   1      35.088  35.275  28.215  1.00  0.00    -0.200 F 
ATOM     61  F   UNL A   1      32.990  33.777  27.320  1.00  0.00    -0.200 F 
ENDBRANCH  27  51
BRANCH  39  62
ATOM     62  C   UNL A   1      38.897  32.133  35.650  1.00  0.00     0.064 A 
ATOM     63  C   UNL A   1      38.198  31.520  36.699  1.00  0.00     0.173 A 
ATOM     64  C   UNL A   1      39.313  33.462  35.820  1.00  0.00     0.173 A 
ATOM     65  F   UNL A   1      37.772  30.253  36.577  1.00  0.00    -0.203 F 
ATOM     66  C   UNL A   1      37.915  32.217  37.869  1.00  0.00     0.198 A 
ATOM     67  C   UNL A   1      39.059  34.144  37.005  1.00  0.00     0.198 A 
ATOM     68  F   UNL A   1      39.996  34.087  34.850  1.00  0.00    -0.203 F 
ATOM     69  F   UNL A   1      37.212  31.626  38.845  1.00  0.00    -0.200 F 
ATOM     70  C   UNL A   1      38.355  33.524  38.026  1.00  0.00     0.200 A 
ATOM     71  F   UNL A   1      39.505  35.398  37.163  1.00  0.00    -0.200 F 
ATOM     72  F   UNL A   1      38.100  34.186  39.162  1.00  0.00    -0.200 F 
ENDBRANCH  39  62
ENDBRANCH  13  14
ENDBRANCH   6   8
ENDBRANCH   5   6
ENDBRANCH   4   5
ENDBRANCH   3   4
ENDBRANCH   2   3
ENDBRANCH   1   2
BRANCH   1  73
ATOM     73  C   UNL A   1      40.125  21.451  26.865  1.00  0.00     0.188 C 
BRANCH  73  74
ATOM     74  O   UNL A   1      39.057  21.638  25.945  1.00  0.00    -0.376 OA
BRANCH  74  75
ATOM     75  C   UNL A   1      38.352  22.866  26.085  1.00  0.00     0.202 C 
BRANCH  75  76
ATOM     76  C   UNL A   1      36.842  22.755  25.810  1.00  0.00     0.261 C 
BRANCH  76  77
ATOM     77  O   UNL A   1      36.484  22.179  24.526  1.00  0.00    -0.459 OA
BRANCH  77  78
ATOM     78  C   UNL A   1      35.376  22.683  23.912  1.00  0.00     0.365 C 
ATOM     79  O   UNL A   1      35.421  23.652  23.152  1.00  0.00    -0.245 OA
BRANCH  78  80
ATOM     80  C   UNL A   1      34.018  22.009  24.209  1.00  0.00     0.298 C 
ATOM     81  C   UNL A   1      34.137  20.535  24.609  1.00  0.00     0.115 C 
ATOM     82  N   UNL A   1      33.013  22.581  25.117  1.00  0.00    -0.317 N 
ATOM     83  C   UNL A   1      32.913  20.226  25.469  1.00  0.00     0.175 C 
ATOM     84  C   UNL A   1      32.092  21.510  25.504  1.00  0.00     0.295 C 
ATOM     85  H   UNL A   1      32.596  23.309  24.539  1.00  0.00     0.349 HD
BRANCH  82  86
ATOM     86  C   UNL A   1      33.330  23.510  26.177  1.00  0.00     0.299 C 
BRANCH  86  87
ATOM     87  C   UNL A   1      33.035  24.994  26.027  1.00  0.00     0.006 A 
ATOM     88  C   UNL A   1      31.703  25.423  26.157  1.00  0.00     0.009 A 
ATOM     89  C   UNL A   1      33.973  25.944  25.596  1.00  0.00     0.009 A 
ATOM     90  C   UNL A   1      31.324  26.730  25.829  1.00  0.00     0.001 A 
ATOM     91  C   UNL A   1      33.603  27.254  25.282  1.00  0.00     0.001 A 
ATOM     92  C   UNL A   1      32.274  27.642  25.380  1.00  0.00     0.000 A 
ENDBRANCH  86  87
ENDBRANCH  82  86
BRANCH  83  93
ATOM     93  O   UNL A   1      33.307  19.807  26.771  1.00  0.00    -0.387 OA
ATOM     94  H   UNL A   1      34.274  19.772  26.821  1.00  0.00     0.211 HD
ENDBRANCH  83  93
ENDBRANCH  78  80
ENDBRANCH  77  78
ENDBRANCH  76  77
ENDBRANCH  75  76
ENDBRANCH  74  75
ENDBRANCH  73  74
ENDBRANCH   1  73
TORSDOF 20
ENDMDL
MODEL 2
REMARK VINA RESULT:     -10.9      1.233      7.884
REMARK SMILES O=C(OCCOCCOCCOC(=O)[C@H]1C[C@@H](O)C[N@H+]1Cc1ccccc1)c1ccc(-c2c3nc(c(-c4c(F)c(F)c(F)c(F)c4F)c4ccc([nH]4)c(-c4c(F)c(F)c(F)c(F)c4F)c4nc(c(-c5c(F)c(F)c(F)c(F)c5F)c5ccc2[nH]5)C=C4)C=C3)cc1
REMARK SMILES IDX 7 1 6 2 5 3 4 4 3 5 2 6 1 7 28 8 29 9 90 10 30 11 89 12
REMARK SMILES IDX 31 13 32 14 33 15 83 16 34 17 88 18 82 19 84 20 35 21 87 22
REMARK SMILES IDX 81 23 80 24 36 26 68 27 48 28 67 29 49 30 52 31 66 32 85 33
REMARK SMILES IDX 50 34 51 35 65 37 86 38 53 39 37 40 38 41 46 42 39 43 40 44
REMARK SMILES IDX 44 45 47 46 41 47 42 48 45 49 43 50 69 51 70 52 78 53 71 54
REMARK SMILES IDX 72 55 76 56 79 57 73 58 74 59 77 60 75 61 54 62 55 63 63 64
REMARK SMILES IDX 56 65 57 66 61 67 64 68 58 69 59 70 62 71 60 72 8 73 9 74
REMARK SMILES IDX 10 75 11 76 12 77 13 78 14 79 15 80 16 81 20 82 17 83 19 84
REMARK SMILES IDX 21 86 22 87 23 88 27 89 24 90 26 91 25 92 18 93
REMARK H PARENT 84 25 52 36 20 85 18 94
REMARK Flexibility Score: inf
ROOT
ATOM      1  C   UNL A   1      41.167  20.350  26.914  1.00  0.00     0.188 C 
ENDROOT
BRANCH   1   2
ATOM      2  O   UNL A   1      42.505  20.667  26.567  1.00  0.00    -0.376 OA
BRANCH   2   3
ATOM      3  C   UNL A   1      43.027  21.882  27.080  1.00  0.00     0.202 C 
BRANCH   3   4
ATOM      4  C   UNL A   1      43.894  22.649  26.067  1.00  0.00     0.261 C 
BRANCH   4   5
ATOM      5  O   UNL A   1      43.068  23.599  25.367  1.00  0.00    -0.460 OA
BRANCH   5   6
ATOM      6  C   UNL A   1      43.584  24.844  25.220  1.00  0.00     0.338 C 
ATOM      7  O   UNL A   1      44.561  25.162  24.554  1.00  0.00    -0.246 OA
BRANCH   6   8
ATOM      8  C   UNL A   1      42.839  25.776  26.097  1.00  0.00     0.060 A 
ATOM      9  C   UNL A   1      43.362  27.057  26.304  1.00  0.00     0.016 A 
ATOM     10  C   UNL A   1      41.613  25.423  26.674  1.00  0.00     0.016 A 
ATOM     11  C   UNL A   1      42.708  27.975  27.092  1.00  0.00     0.010 A 
ATOM     12  C   UNL A   1      40.983  26.319  27.546  1.00  0.00     0.010 A 
ATOM     13  C   UNL A   1      41.573  27.571  27.791  1.00  0.00    -0.014 A 
BRANCH  13  14
ATOM     14  C   UNL A   1      41.350  28.336  29.030  1.00  0.00     0.031 A 
ATOM     15  C   UNL A   1      40.130  29.218  29.052  1.00  0.00     0.074 A 
ATOM     16  C   UNL A   1      42.014  28.019  30.152  1.00  0.00     0.049 A 
ATOM     17  N   UNL A   1      39.578  29.859  30.046  1.00  0.00    -0.248 NA
ATOM     18  C   UNL A   1      39.393  29.342  27.779  1.00  0.00     0.031 C 
ATOM     19  C   UNL A   1      43.079  27.023  30.248  1.00  0.00     0.029 A 
ATOM     20  N   UNL A   1      41.848  28.469  31.432  1.00  0.00    -0.354 N 
ATOM     21  C   UNL A   1      38.434  30.446  29.518  1.00  0.00     0.074 A 
ATOM     22  C   UNL A   1      38.364  30.093  28.123  1.00  0.00     0.031 C 
ATOM     23  C   UNL A   1      43.484  26.947  31.528  1.00  0.00     0.029 A 
ATOM     24  C   UNL A   1      42.732  27.918  32.323  1.00  0.00     0.049 A 
ATOM     25  H   UNL A   1      41.162  29.127  31.689  1.00  0.00     0.167 HD
ATOM     26  C   UNL A   1      37.526  31.225  30.148  1.00  0.00     0.037 A 
ATOM     27  C   UNL A   1      42.920  28.205  33.623  1.00  0.00     0.037 A 
ATOM     28  C   UNL A   1      37.651  31.607  31.525  1.00  0.00     0.049 A 
ATOM     29  C   UNL A   1      42.008  29.222  34.265  1.00  0.00     0.074 A 
ATOM     30  C   UNL A   1      36.874  32.480  32.258  1.00  0.00     0.029 A 
ATOM     31  N   UNL A   1      38.652  31.141  32.371  1.00  0.00    -0.354 N 
ATOM     32  N   UNL A   1      40.969  29.841  33.752  1.00  0.00    -0.248 NA
ATOM     33  C   UNL A   1      42.293  29.584  35.657  1.00  0.00     0.031 C 
ATOM     34  C   UNL A   1      37.447  32.597  33.528  1.00  0.00     0.029 A 
ATOM     35  C   UNL A   1      38.533  31.735  33.612  1.00  0.00     0.049 A 
ATOM     36  H   UNL A   1      39.341  30.484  32.122  1.00  0.00     0.167 HD
ATOM     37  C   UNL A   1      40.458  30.642  34.763  1.00  0.00     0.074 A 
ATOM     38  C   UNL A   1      41.302  30.426  35.923  1.00  0.00     0.031 C 
ATOM     39  C   UNL A   1      39.390  31.478  34.744  1.00  0.00     0.037 A 
BRANCH  26  40
ATOM     40  C   UNL A   1      36.423  31.796  29.305  1.00  0.00     0.064 A 
ATOM     41  C   UNL A   1      36.354  33.161  28.984  1.00  0.00     0.173 A 
ATOM     42  C   UNL A   1      35.371  30.970  28.880  1.00  0.00     0.173 A 
ATOM     43  F   UNL A   1      37.313  34.003  29.397  1.00  0.00    -0.203 F 
ATOM     44  C   UNL A   1      35.252  33.682  28.306  1.00  0.00     0.198 A 
ATOM     45  C   UNL A   1      34.288  31.488  28.177  1.00  0.00     0.198 A 
ATOM     46  F   UNL A   1      35.380  29.661  29.173  1.00  0.00    -0.203 F 
ATOM     47  F   UNL A   1      35.169  35.001  28.079  1.00  0.00    -0.200 F 
ATOM     48  C   UNL A   1      34.223  32.845  27.902  1.00  0.00     0.200 A 
ATOM     49  F   UNL A   1      33.296  30.677  27.787  1.00  0.00    -0.200 F 
ATOM     50  F   UNL A   1      33.156  33.350  27.266  1.00  0.00    -0.200 F 
ENDBRANCH  26  40
BRANCH  27  51
ATOM     51  C   UNL A   1      44.043  27.577  34.367  1.00  0.00     0.064 A 
ATOM     52  C   UNL A   1      45.279  28.218  34.524  1.00  0.00     0.173 A 
ATOM     53  C   UNL A   1      43.899  26.300  34.936  1.00  0.00     0.173 A 
ATOM     54  F   UNL A   1      45.479  29.427  33.981  1.00  0.00    -0.203 F 
ATOM     55  C   UNL A   1      46.328  27.604  35.210  1.00  0.00     0.198 A 
ATOM     56  C   UNL A   1      44.937  25.700  35.646  1.00  0.00     0.198 A 
ATOM     57  F   UNL A   1      42.741  25.635  34.811  1.00  0.00    -0.203 F 
ATOM     58  F   UNL A   1      47.513  28.222  35.308  1.00  0.00    -0.200 F 
ATOM     59  C   UNL A   1      46.153  26.350  35.776  1.00  0.00     0.200 A 
ATOM     60  F   UNL A   1      44.756  24.494  36.202  1.00  0.00    -0.200 F 
ATOM     61  F   UNL A   1      47.160  25.764  36.439  1.00  0.00    -0.200 F 
ENDBRANCH  27  51
BRANCH  39  62
ATOM     62  C   UNL A   1      39.037  32.178  36.022  1.00  0.00     0.064 A 
ATOM     63  C   UNL A   1      39.445  33.494  36.281  1.00  0.00     0.173 A 
ATOM     64  C   UNL A   1      38.202  31.549  36.957  1.00  0.00     0.173 A 
ATOM     65  F   UNL A   1      40.252  34.133  35.421  1.00  0.00    -0.203 F 
ATOM     66  C   UNL A   1      39.042  34.149  37.441  1.00  0.00     0.198 A 
ATOM     67  C   UNL A   1      37.773  32.219  38.097  1.00  0.00     0.198 A 
ATOM     68  F   UNL A   1      37.775  30.295  36.746  1.00  0.00    -0.203 F 
ATOM     69  F   UNL A   1      39.474  35.393  37.690  1.00  0.00    -0.200 F 
ATOM     70  C   UNL A   1      38.197  33.515  38.341  1.00  0.00     0.200 A 
ATOM     71  F   UNL A   1      36.939  31.612  38.953  1.00  0.00    -0.200 F 
ATOM     72  F   UNL A   1      37.793  34.156  39.447  1.00  0.00    -0.200 F 
ENDBRANCH  39  62
ENDBRANCH  13  14
ENDBRANCH   6   8
ENDBRANCH   5   6
ENDBRANCH   4   5
ENDBRANCH   3   4
ENDBRANCH   2   3
ENDBRANCH   1   2
BRANCH   1  73
ATOM     73  C   UNL A   1      40.210  21.521  26.796  1.00  0.00     0.188 C 
BRANCH  73  74
ATOM     74  O   UNL A   1      39.104  21.190  25.967  1.00  0.00    -0.376 OA
BRANCH  74  75
ATOM     75  C   UNL A   1      38.230  22.273  25.671  1.00  0.00     0.202 C 
BRANCH  75  76
ATOM     76  C   UNL A   1      37.162  21.944  24.613  1.00  0.00     0.261 C 
BRANCH  76  77
ATOM     77  O   UNL A   1      36.386  23.077  24.140  1.00  0.00    -0.459 OA
BRANCH  77  78
ATOM     78  C   UNL A   1      35.080  23.134  24.527  1.00  0.00     0.365 C 
ATOM     79  O   UNL A   1      34.217  23.721  23.871  1.00  0.00    -0.245 OA
BRANCH  78  80
ATOM     80  C   UNL A   1      34.691  22.443  25.853  1.00  0.00     0.298 C 
ATOM     81  C   UNL A   1      34.004  23.376  26.855  1.00  0.00     0.115 C 
ATOM     82  N   UNL A   1      33.942  21.180  25.917  1.00  0.00    -0.317 N 
ATOM     83  C   UNL A   1      33.133  22.485  27.739  1.00  0.00     0.175 C 
ATOM     84  C   UNL A   1      33.376  21.057  27.262  1.00  0.00     0.295 C 
ATOM     85  H   UNL A   1      34.664  20.494  25.699  1.00  0.00     0.349 HD
BRANCH  82  86
ATOM     86  C   UNL A   1      33.080  20.707  24.859  1.00  0.00     0.299 C 
BRANCH  86  87
ATOM     87  C   UNL A   1      33.248  19.312  24.280  1.00  0.00     0.006 A 
ATOM     88  C   UNL A   1      34.364  18.557  24.680  1.00  0.00     0.009 A 
ATOM     89  C   UNL A   1      32.464  18.790  23.240  1.00  0.00     0.009 A 
ATOM     90  C   UNL A   1      34.699  17.359  24.040  1.00  0.00     0.001 A 
ATOM     91  C   UNL A   1      32.785  17.586  22.608  1.00  0.00     0.001 A 
ATOM     92  C   UNL A   1      33.916  16.880  22.996  1.00  0.00     0.000 A 
ENDBRANCH  86  87
ENDBRANCH  82  86
BRANCH  83  93
ATOM     93  O   UNL A   1      31.763  22.859  27.634  1.00  0.00    -0.387 OA
ATOM     94  H   UNL A   1      31.230  22.300  28.219  1.00  0.00     0.211 HD
ENDBRANCH  83  93
ENDBRANCH  78  80
ENDBRANCH  77  78
ENDBRANCH  76  77
ENDBRANCH  75  76
ENDBRANCH  74  75
ENDBRANCH  73  74
ENDBRANCH   1  73
TORSDOF 20
ENDMDL
MODEL 3
REMARK VINA RESULT:     -10.8      0.899      2.545
REMARK SMILES O=C(OCCOCCOCCOC(=O)[C@H]1C[C@@H](O)C[N@H+]1Cc1ccccc1)c1ccc(-c2c3nc(c(-c4c(F)c(F)c(F)c(F)c4F)c4ccc([nH]4)c(-c4c(F)c(F)c(F)c(F)c4F)c4nc(c(-c5c(F)c(F)c(F)c(F)c5F)c5ccc2[nH]5)C=C4)C=C3)cc1
REMARK SMILES IDX 7 1 6 2 5 3 4 4 3 5 2 6 1 7 28 8 29 9 90 10 30 11 89 12
REMARK SMILES IDX 31 13 32 14 33 15 83 16 34 17 88 18 82 19 84 20 35 21 87 22
REMARK SMILES IDX 81 23 80 24 36 26 68 27 48 28 67 29 49 30 52 31 66 32 85 33
REMARK SMILES IDX 50 34 51 35 65 37 86 38 53 39 37 40 38 41 46 42 39 43 40 44
REMARK SMILES IDX 44 45 47 46 41 47 42 48 45 49 43 50 69 51 70 52 78 53 71 54
REMARK SMILES IDX 72 55 76 56 79 57 73 58 74 59 77 60 75 61 54 62 55 63 63 64
REMARK SMILES IDX 56 65 57 66 61 67 64 68 58 69 59 70 62 71 60 72 8 73 9 74
REMARK SMILES IDX 10 75 11 76 12 77 13 78 14 79 15 80 16 81 20 82 17 83 19 84
REMARK SMILES IDX 21 86 22 87 23 88 27 89 24 90 26 91 25 92 18 93
REMARK H PARENT 84 25 52 36 20 85 18 94
REMARK Flexibility Score: inf
ROOT
ATOM      1  C   UNL A   1      41.141  21.320  26.140  1.00  0.00     0.188 C 
ENDROOT
BRANCH   1   2
ATOM      2  O   UNL A   1      42.442  21.600  26.628  1.00  0.00    -0.376 OA
BRANCH   2   3
ATOM      3  C   UNL A   1      43.516  21.432  25.715  1.00  0.00     0.202 C 
BRANCH   3   4
ATOM      4  C   UNL A   1      44.344  22.711  25.509  1.00  0.00     0.261 C 
BRANCH   4   5
ATOM      5  O   UNL A   1      43.496  23.737  24.960  1.00  0.00    -0.460 OA
BRANCH   5   6
ATOM      6  C   UNL A   1      43.931  25.013  25.103  1.00  0.00     0.338 C 
ATOM      7  O   UNL A   1      45.003  25.471  24.728  1.00  0.00    -0.246 OA
BRANCH   6   8
ATOM      8  C   UNL A   1      42.941  25.769  25.904  1.00  0.00     0.060 A 
ATOM      9  C   UNL A   1      43.214  27.107  26.210  1.00  0.00     0.016 A 
ATOM     10  C   UNL A   1      41.731  25.194  26.311  1.00  0.00     0.016 A 
ATOM     11  C   UNL A   1      42.325  27.868  26.933  1.00  0.00     0.010 A 
ATOM     12  C   UNL A   1      40.859  25.934  27.120  1.00  0.00     0.010 A 
ATOM     13  C   UNL A   1      41.198  27.252  27.471  1.00  0.00    -0.014 A 
BRANCH  13  14
ATOM     14  C   UNL A   1      40.703  27.911  28.692  1.00  0.00     0.031 A 
ATOM     15  C   UNL A   1      41.577  27.784  29.912  1.00  0.00     0.074 A 
ATOM     16  C   UNL A   1      39.713  28.813  28.624  1.00  0.00     0.049 A 
ATOM     17  N   UNL A   1      41.504  28.395  31.063  1.00  0.00    -0.248 NA
ATOM     18  C   UNL A   1      42.738  26.881  29.790  1.00  0.00     0.031 C 
ATOM     19  C   UNL A   1      38.949  29.137  27.420  1.00  0.00     0.029 A 
ATOM     20  N   UNL A   1      39.219  29.656  29.580  1.00  0.00    -0.354 N 
ATOM     21  C   UNL A   1      42.607  27.959  31.786  1.00  0.00     0.074 A 
ATOM     22  C   UNL A   1      43.336  27.033  30.957  1.00  0.00     0.031 C 
ATOM     23  C   UNL A   1      38.067  30.107  27.717  1.00  0.00     0.029 A 
ATOM     24  C   UNL A   1      38.182  30.436  29.137  1.00  0.00     0.049 A 
ATOM     25  H   UNL A   1      39.571  29.697  30.498  1.00  0.00     0.167 HD
ATOM     26  C   UNL A   1      42.970  28.296  33.044  1.00  0.00     0.037 A 
ATOM     27  C   UNL A   1      37.404  31.289  29.827  1.00  0.00     0.037 A 
ATOM     28  C   UNL A   1      42.194  29.177  33.867  1.00  0.00     0.049 A 
ATOM     29  C   UNL A   1      37.715  31.511  31.286  1.00  0.00     0.074 A 
ATOM     30  C   UNL A   1      42.379  29.514  35.193  1.00  0.00     0.029 A 
ATOM     31  N   UNL A   1      41.056  29.845  33.430  1.00  0.00    -0.354 N 
ATOM     32  N   UNL A   1      38.713  31.042  32.001  1.00  0.00    -0.248 NA
ATOM     33  C   UNL A   1      36.796  32.374  32.037  1.00  0.00     0.031 C 
ATOM     34  C   UNL A   1      41.311  30.332  35.577  1.00  0.00     0.029 A 
ATOM     35  C   UNL A   1      40.506  30.569  34.470  1.00  0.00     0.049 A 
ATOM     36  H   UNL A   1      40.697  29.809  32.515  1.00  0.00     0.167 HD
ATOM     37  C   UNL A   1      38.560  31.573  33.273  1.00  0.00     0.074 A 
ATOM     38  C   UNL A   1      37.373  32.405  33.231  1.00  0.00     0.031 C 
ATOM     39  C   UNL A   1      39.329  31.397  34.378  1.00  0.00     0.037 A 
BRANCH  26  40
ATOM     40  C   UNL A   1      44.174  27.601  33.610  1.00  0.00     0.064 A 
ATOM     41  C   UNL A   1      44.086  26.370  34.279  1.00  0.00     0.173 A 
ATOM     42  C   UNL A   1      45.431  28.224  33.550  1.00  0.00     0.173 A 
ATOM     43  F   UNL A   1      42.902  25.749  34.398  1.00  0.00    -0.203 F 
ATOM     44  C   UNL A   1      45.201  25.811  34.902  1.00  0.00     0.198 A 
ATOM     45  C   UNL A   1      46.549  27.648  34.147  1.00  0.00     0.198 A 
ATOM     46  F   UNL A   1      45.569  29.408  32.936  1.00  0.00    -0.203 F 
ATOM     47  F   UNL A   1      45.077  24.676  35.603  1.00  0.00    -0.200 F 
ATOM     48  C   UNL A   1      46.431  26.450  34.833  1.00  0.00     0.200 A 
ATOM     49  F   UNL A   1      47.735  28.267  34.078  1.00  0.00    -0.200 F 
ATOM     50  F   UNL A   1      47.498  25.921  35.448  1.00  0.00    -0.200 F 
ENDBRANCH  26  40
BRANCH  27  51
ATOM     51  C   UNL A   1      36.236  31.928  29.166  1.00  0.00     0.064 A 
ATOM     52  C   UNL A   1      36.176  33.309  28.940  1.00  0.00     0.173 A 
ATOM     53  C   UNL A   1      35.138  31.155  28.749  1.00  0.00     0.173 A 
ATOM     54  F   UNL A   1      37.185  34.097  29.338  1.00  0.00    -0.203 F 
ATOM     55  C   UNL A   1      35.062  33.893  28.334  1.00  0.00     0.198 A 
ATOM     56  C   UNL A   1      34.041  31.735  28.118  1.00  0.00     0.198 A 
ATOM     57  F   UNL A   1      35.137  29.829  28.947  1.00  0.00    -0.203 F 
ATOM     58  F   UNL A   1      35.013  35.222  28.168  1.00  0.00    -0.200 F 
ATOM     59  C   UNL A   1      34.000  33.104  27.917  1.00  0.00     0.200 A 
ATOM     60  F   UNL A   1      33.024  30.965  27.706  1.00  0.00    -0.200 F 
ATOM     61  F   UNL A   1      32.934  33.666  27.331  1.00  0.00    -0.200 F 
ENDBRANCH  27  51
BRANCH  39  62
ATOM     62  C   UNL A   1      38.945  32.155  35.614  1.00  0.00     0.064 A 
ATOM     63  C   UNL A   1      38.235  31.553  36.661  1.00  0.00     0.173 A 
ATOM     64  C   UNL A   1      39.380  33.479  35.784  1.00  0.00     0.173 A 
ATOM     65  F   UNL A   1      37.792  30.292  36.539  1.00  0.00    -0.203 F 
ATOM     66  C   UNL A   1      37.957  32.256  37.829  1.00  0.00     0.198 A 
ATOM     67  C   UNL A   1      39.131  34.166  36.967  1.00  0.00     0.198 A 
ATOM     68  F   UNL A   1      40.074  34.093  34.815  1.00  0.00    -0.203 F 
ATOM     69  F   UNL A   1      37.244  31.675  38.803  1.00  0.00    -0.200 F 
ATOM     70  C   UNL A   1      38.416  33.556  37.986  1.00  0.00     0.200 A 
ATOM     71  F   UNL A   1      39.593  35.413  37.124  1.00  0.00    -0.200 F 
ATOM     72  F   UNL A   1      38.166  34.223  39.121  1.00  0.00    -0.200 F 
ENDBRANCH  39  62
ENDBRANCH  13  14
ENDBRANCH   6   8
ENDBRANCH   5   6
ENDBRANCH   4   5
ENDBRANCH   3   4
ENDBRANCH   2   3
ENDBRANCH   1   2
BRANCH   1  73
ATOM     73  C   UNL A   1      40.033  21.983  26.936  1.00  0.00     0.188 C 
BRANCH  73  74
ATOM     74  O   UNL A   1      38.967  22.383  26.085  1.00  0.00    -0.376 OA
BRANCH  74  75
ATOM     75  C   UNL A   1      38.213  23.497  26.550  1.00  0.00     0.202 C 
BRANCH  75  76
ATOM     76  C   UNL A   1      36.944  23.780  25.728  1.00  0.00     0.261 C 
BRANCH  76  77
ATOM     77  O   UNL A   1      36.907  23.169  24.410  1.00  0.00    -0.459 OA
BRANCH  77  78
ATOM     78  C   UNL A   1      35.765  23.341  23.683  1.00  0.00     0.365 C 
ATOM     79  O   UNL A   1      35.709  23.115  22.474  1.00  0.00    -0.245 OA
BRANCH  78  80
ATOM     80  C   UNL A   1      34.511  23.857  24.423  1.00  0.00     0.298 C 
ATOM     81  C   UNL A   1      34.139  25.301  24.071  1.00  0.00     0.115 C 
ATOM     82  N   UNL A   1      33.238  23.123  24.464  1.00  0.00    -0.317 N 
ATOM     83  C   UNL A   1      32.636  25.424  24.309  1.00  0.00     0.175 C 
ATOM     84  C   UNL A   1      32.184  24.068  24.841  1.00  0.00     0.295 C 
ATOM     85  H   UNL A   1      33.430  22.405  25.161  1.00  0.00     0.349 HD
BRANCH  82  86
ATOM     86  C   UNL A   1      32.844  22.151  23.472  1.00  0.00     0.299 C 
BRANCH  86  87
ATOM     87  C   UNL A   1      32.596  20.700  23.856  1.00  0.00     0.006 A 
ATOM     88  C   UNL A   1      32.763  20.333  25.203  1.00  0.00     0.009 A 
ATOM     89  C   UNL A   1      32.384  19.666  22.933  1.00  0.00     0.009 A 
ATOM     90  C   UNL A   1      32.758  18.990  25.596  1.00  0.00     0.001 A 
ATOM     91  C   UNL A   1      32.363  18.324  23.323  1.00  0.00     0.001 A 
ATOM     92  C   UNL A   1      32.569  17.985  24.653  1.00  0.00     0.000 A 
ENDBRANCH  86  87
ENDBRANCH  82  86
BRANCH  83  93
ATOM     93  O   UNL A   1      31.964  25.778  23.105  1.00  0.00    -0.387 OA
ATOM     94  H   UNL A   1      31.401  26.550  23.263  1.00  0.00     0.211 HD
ENDBRANCH  83  93
ENDBRANCH  78  80
ENDBRANCH  77  78
ENDBRANCH  76  77
ENDBRANCH  75  76
ENDBRANCH  74  75
ENDBRANCH  73  74
ENDBRANCH   1  73
TORSDOF 20
ENDMDL
