MODEL 1
REMARK VINA RESULT:     -11.0      0.000      0.000
REMARK SMILES COc1ccc(CCc2nnc(NC(=O)[C@@H]3[C@@H](C(=O)OCCOCCOCCOC(=O)c4ccc(-c5c6nc(c(-c7c(F)c(F)c(F)c(F)c7F)c7ccc([nH]7)c(-c7c(F)c(F)c(F)c(F)c7F)c7nc(c(-c8c(F)c(F)c(F)c(F)c8F)c8ccc5[nH]8)C=C7)C=C6)cc4)C3(C)C)s2)cc1
REMARK SMILES IDX 22 1 21 2 20 3 18 4 19 5 17 6 16 7 95 8 96 9 97 10 14 11
REMARK SMILES IDX 13 12 15 14 12 15 9 16 10 17 98 18 11 19 8 20 7 21 6 22 3 23
REMARK SMILES IDX 4 24 100 25 5 26 99 27 2 28 1 29 23 30 24 31 25 32 26 33
REMARK SMILES IDX 27 34 28 35 29 36 30 37 31 38 32 39 33 40 94 41 34 42 93 43
REMARK SMILES IDX 35 44 36 45 37 46 87 47 38 48 92 49 86 50 88 51 39 52 91 53
REMARK SMILES IDX 85 54 84 55 40 57 72 58 52 59 71 60 53 61 56 62 70 63 89 64
REMARK SMILES IDX 54 65 55 66 69 68 90 69 57 70 41 71 42 72 50 73 43 74 44 75
REMARK SMILES IDX 48 76 51 77 45 78 46 79 49 80 47 81 73 82 74 83 82 84 75 85
REMARK SMILES IDX 76 86 80 87 83 88 77 89 78 90 81 91 79 92 58 93 59 94 67 95
REMARK SMILES IDX 60 96 61 97 65 98 68 99 62 100 63 101 66 102 64 103
REMARK H PARENT 13 13 88 56 56 67
REMARK Flexibility Score: inf
ROOT
ATOM      1  C   UNL A   1      35.327  31.437  28.132  1.00  0.00     0.202 C 
ENDROOT
BRANCH   1   2
ATOM      2  C   UNL A   1      34.529  30.406  27.325  1.00  0.00     0.261 C 
BRANCH   2   3
ATOM      3  O   UNL A   1      33.108  30.637  27.341  1.00  0.00    -0.463 OA
BRANCH   3   4
ATOM      4  C   UNL A   1      32.360  29.617  26.842  1.00  0.00     0.310 C 
ATOM      5  O   UNL A   1      31.420  29.088  27.396  1.00  0.00    -0.252 OA
BRANCH   4   6
ATOM      6  C   UNL A   1      32.664  29.240  25.436  1.00  0.00     0.118 C 
ATOM      7  C   UNL A   1      31.852  28.087  24.873  1.00  0.00     0.100 C 
ATOM      8  C   UNL A   1      33.352  28.082  24.728  1.00  0.00    -0.009 C 
ATOM      9  C   UNL A   1      34.018  26.918  25.434  1.00  0.00     0.013 C 
ATOM     10  C   UNL A   1      33.988  28.391  23.392  1.00  0.00     0.013 C 
BRANCH   7  11
ATOM     11  C   UNL A   1      30.785  28.468  23.916  1.00  0.00     0.230 C 
ATOM     12  N   UNL A   1      30.393  27.540  22.975  1.00  0.00    -0.300 N 
ATOM     13  H   UNL A   1      29.755  27.826  22.283  1.00  0.00     0.172 HD
ATOM     14  O   UNL A   1      30.291  29.591  23.936  1.00  0.00    -0.274 OA
BRANCH  12  15
ATOM     15  C   UNL A   1      30.837  26.245  22.945  1.00  0.00     0.212 A 
ATOM     16  C   UNL A   1      32.232  24.365  22.657  1.00  0.00     0.119 A 
ATOM     17  N   UNL A   1      31.305  24.155  23.566  1.00  0.00    -0.142 NA
ATOM     18  S   UNL A   1      32.056  25.866  21.815  1.00  0.00    -0.080 S 
ATOM     19  N   UNL A   1      30.505  25.250  23.731  1.00  0.00    -0.120 NA
BRANCH  16  20
ATOM     20  C   UNL A   1      33.364  23.427  22.415  1.00  0.00     0.074 C 
BRANCH  20  21
ATOM     21  C   UNL A   1      33.548  22.395  23.537  1.00  0.00     0.043 C 
BRANCH  21  22
ATOM     22  C   UNL A   1      34.851  22.459  24.308  1.00  0.00    -0.047 A 
ATOM     23  C   UNL A   1      37.346  22.549  25.608  1.00  0.00     0.118 A 
ATOM     24  C   UNL A   1      36.738  23.726  25.184  1.00  0.00     0.046 A 
ATOM     25  C   UNL A   1      36.696  21.330  25.432  1.00  0.00     0.046 A 
ATOM     26  C   UNL A   1      35.509  23.679  24.521  1.00  0.00     0.007 A 
ATOM     27  C   UNL A   1      35.453  21.285  24.786  1.00  0.00     0.007 A 
BRANCH  23  28
ATOM     28  O   UNL A   1      38.552  22.671  26.242  1.00  0.00    -0.497 OA
ATOM     29  C   UNL A   1      39.429  21.580  25.968  1.00  0.00     0.278 C 
ENDBRANCH  23  28
ENDBRANCH  21  22
ENDBRANCH  20  21
ENDBRANCH  16  20
ENDBRANCH  12  15
ENDBRANCH   7  11
ENDBRANCH   4   6
ENDBRANCH   3   4
ENDBRANCH   2   3
ENDBRANCH   1   2
BRANCH   1  30
ATOM     30  O   UNL A   1      35.587  32.712  27.546  1.00  0.00    -0.376 OA
BRANCH  30  31
ATOM     31  C   UNL A   1      34.928  33.865  28.058  1.00  0.00     0.188 C 
BRANCH  31  32
ATOM     32  C   UNL A   1      33.501  33.732  28.613  1.00  0.00     0.188 C 
BRANCH  32  33
ATOM     33  O   UNL A   1      32.713  34.890  28.496  1.00  0.00    -0.376 OA
BRANCH  33  34
ATOM     34  C   UNL A   1      33.228  36.149  28.879  1.00  0.00     0.202 C 
BRANCH  34  35
ATOM     35  C   UNL A   1      32.976  36.783  30.259  1.00  0.00     0.261 C 
BRANCH  35  36
ATOM     36  O   UNL A   1      32.392  35.962  31.275  1.00  0.00    -0.460 OA
BRANCH  36  37
ATOM     37  C   UNL A   1      32.830  36.139  32.543  1.00  0.00     0.338 C 
ATOM     38  O   UNL A   1      32.294  36.772  33.432  1.00  0.00    -0.246 OA
BRANCH  37  39
ATOM     39  C   UNL A   1      33.996  35.249  32.723  1.00  0.00     0.060 A 
ATOM     40  C   UNL A   1      33.794  33.951  33.212  1.00  0.00     0.016 A 
ATOM     41  C   UNL A   1      35.277  35.685  32.378  1.00  0.00     0.016 A 
ATOM     42  C   UNL A   1      34.880  33.086  33.365  1.00  0.00     0.010 A 
ATOM     43  C   UNL A   1      36.365  34.828  32.554  1.00  0.00     0.010 A 
ATOM     44  C   UNL A   1      36.174  33.532  33.065  1.00  0.00    -0.014 A 
BRANCH  44  45
ATOM     45  C   UNL A   1      37.350  32.708  33.425  1.00  0.00     0.031 A 
ATOM     46  C   UNL A   1      38.083  33.017  34.697  1.00  0.00     0.074 A 
ATOM     47  C   UNL A   1      37.778  31.719  32.621  1.00  0.00     0.049 A 
ATOM     48  N   UNL A   1      39.188  32.500  35.170  1.00  0.00    -0.248 NA
ATOM     49  C   UNL A   1      37.488  34.057  35.550  1.00  0.00     0.031 C 
ATOM     50  C   UNL A   1      37.135  31.307  31.377  1.00  0.00     0.029 A 
ATOM     51  N   UNL A   1      38.873  30.899  32.728  1.00  0.00    -0.354 N 
ATOM     52  C   UNL A   1      39.420  33.152  36.373  1.00  0.00     0.074 A 
ATOM     53  C   UNL A   1      38.361  34.123  36.542  1.00  0.00     0.031 C 
ATOM     54  C   UNL A   1      37.867  30.329  30.815  1.00  0.00     0.029 A 
ATOM     55  C   UNL A   1      39.044  30.074  31.645  1.00  0.00     0.049 A 
ATOM     56  H   UNL A   1      39.478  30.903  33.505  1.00  0.00     0.167 HD
ATOM     57  C   UNL A   1      40.424  32.952  37.260  1.00  0.00     0.037 A 
ATOM     58  C   UNL A   1      40.055  29.235  31.344  1.00  0.00     0.037 A 
ATOM     59  C   UNL A   1      41.488  31.999  37.078  1.00  0.00     0.049 A 
ATOM     60  C   UNL A   1      41.208  29.087  32.304  1.00  0.00     0.074 A 
ATOM     61  C   UNL A   1      42.541  31.707  37.927  1.00  0.00     0.029 A 
ATOM     62  N   UNL A   1      41.641  31.195  35.957  1.00  0.00    -0.354 N 
ATOM     63  N   UNL A   1      41.408  29.680  33.456  1.00  0.00    -0.248 NA
ATOM     64  C   UNL A   1      42.275  28.152  31.919  1.00  0.00     0.031 C 
ATOM     65  C   UNL A   1      43.362  30.766  37.294  1.00  0.00     0.029 A 
ATOM     66  C   UNL A   1      42.792  30.431  36.077  1.00  0.00     0.049 A 
ATOM     67  H   UNL A   1      41.025  31.171  35.191  1.00  0.00     0.167 HD
ATOM     68  C   UNL A   1      42.611  29.181  33.941  1.00  0.00     0.074 A 
ATOM     69  C   UNL A   1      43.088  28.224  32.965  1.00  0.00     0.031 C 
ATOM     70  C   UNL A   1      43.260  29.490  35.091  1.00  0.00     0.037 A 
BRANCH  57  71
ATOM     71  C   UNL A   1      40.428  33.810  38.490  1.00  0.00     0.064 A 
ATOM     72  C   UNL A   1      41.174  34.997  38.559  1.00  0.00     0.173 A 
ATOM     73  C   UNL A   1      39.679  33.440  39.618  1.00  0.00     0.173 A 
ATOM     74  F   UNL A   1      41.920  35.387  37.514  1.00  0.00    -0.203 F 
ATOM     75  C   UNL A   1      41.199  35.761  39.723  1.00  0.00     0.198 A 
ATOM     76  C   UNL A   1      39.682  34.223  40.769  1.00  0.00     0.198 A 
ATOM     77  F   UNL A   1      38.946  32.317  39.604  1.00  0.00    -0.203 F 
ATOM     78  F   UNL A   1      41.967  36.858  39.786  1.00  0.00    -0.200 F 
ATOM     79  C   UNL A   1      40.451  35.376  40.825  1.00  0.00     0.200 A 
ATOM     80  F   UNL A   1      38.951  33.855  41.830  1.00  0.00    -0.200 F 
ATOM     81  F   UNL A   1      40.478  36.110  41.945  1.00  0.00    -0.200 F 
ENDBRANCH  57  71
BRANCH  58  82
ATOM     82  C   UNL A   1      40.032  28.493  30.057  1.00  0.00     0.064 A 
ATOM     83  C   UNL A   1      40.634  29.015  28.906  1.00  0.00     0.173 A 
ATOM     84  C   UNL A   1      39.410  27.239  29.958  1.00  0.00     0.173 A 
ATOM     85  F   UNL A   1      41.214  30.224  28.944  1.00  0.00    -0.203 F 
ATOM     86  C   UNL A   1      40.611  28.315  27.701  1.00  0.00     0.198 A 
ATOM     87  C   UNL A   1      39.410  26.528  28.760  1.00  0.00     0.198 A 
ATOM     88  F   UNL A   1      38.812  26.699  31.031  1.00  0.00    -0.203 F 
ATOM     89  F   UNL A   1      41.162  28.854  26.605  1.00  0.00    -0.200 F 
ATOM     90  C   UNL A   1      40.006  27.068  27.632  1.00  0.00     0.200 A 
ATOM     91  F   UNL A   1      38.832  25.320  28.700  1.00  0.00    -0.200 F 
ATOM     92  F   UNL A   1      39.991  26.391  26.475  1.00  0.00    -0.200 F 
ENDBRANCH  58  82
BRANCH  70  93
ATOM     93  C   UNL A   1      44.554  28.776  35.367  1.00  0.00     0.064 A 
ATOM     94  C   UNL A   1      44.581  27.527  36.007  1.00  0.00     0.173 A 
ATOM     95  C   UNL A   1      45.774  29.323  34.942  1.00  0.00     0.173 A 
ATOM     96  F   UNL A   1      43.444  26.969  36.446  1.00  0.00    -0.203 F 
ATOM     97  C   UNL A   1      45.786  26.863  36.228  1.00  0.00     0.198 A 
ATOM     98  C   UNL A   1      46.973  28.642  35.138  1.00  0.00     0.198 A 
ATOM     99  F   UNL A   1      45.803  30.510  34.318  1.00  0.00    -0.203 F 
ATOM    100  F   UNL A   1      45.792  25.691  36.878  1.00  0.00    -0.200 F 
ATOM    101  C   UNL A   1      46.978  27.416  35.786  1.00  0.00     0.200 A 
ATOM    102  F   UNL A   1      48.122  29.172  34.698  1.00  0.00    -0.200 F 
ATOM    103  F   UNL A   1      48.134  26.771  35.990  1.00  0.00    -0.200 F 
ENDBRANCH  70  93
ENDBRANCH  44  45
ENDBRANCH  37  39
ENDBRANCH  36  37
ENDBRANCH  35  36
ENDBRANCH  34  35
ENDBRANCH  33  34
ENDBRANCH  32  33
ENDBRANCH  31  32
ENDBRANCH  30  31
ENDBRANCH   1  30
TORSDOF 23
ENDMDL
MODEL 2
REMARK VINA RESULT:     -10.4      4.895      9.291
REMARK SMILES COc1ccc(CCc2nnc(NC(=O)[C@@H]3[C@@H](C(=O)OCCOCCOCCOC(=O)c4ccc(-c5c6nc(c(-c7c(F)c(F)c(F)c(F)c7F)c7ccc([nH]7)c(-c7c(F)c(F)c(F)c(F)c7F)c7nc(c(-c8c(F)c(F)c(F)c(F)c8F)c8ccc5[nH]8)C=C7)C=C6)cc4)C3(C)C)s2)cc1
REMARK SMILES IDX 22 1 21 2 20 3 18 4 19 5 17 6 16 7 95 8 96 9 97 10 14 11
REMARK SMILES IDX 13 12 15 14 12 15 9 16 10 17 98 18 11 19 8 20 7 21 6 22 3 23
REMARK SMILES IDX 4 24 100 25 5 26 99 27 2 28 1 29 23 30 24 31 25 32 26 33
REMARK SMILES IDX 27 34 28 35 29 36 30 37 31 38 32 39 33 40 94 41 34 42 93 43
REMARK SMILES IDX 35 44 36 45 37 46 87 47 38 48 92 49 86 50 88 51 39 52 91 53
REMARK SMILES IDX 85 54 84 55 40 57 72 58 52 59 71 60 53 61 56 62 70 63 89 64
REMARK SMILES IDX 54 65 55 66 69 68 90 69 57 70 41 71 42 72 50 73 43 74 44 75
REMARK SMILES IDX 48 76 51 77 45 78 46 79 49 80 47 81 73 82 74 83 82 84 75 85
REMARK SMILES IDX 76 86 80 87 83 88 77 89 78 90 81 91 79 92 58 93 59 94 67 95
REMARK SMILES IDX 60 96 61 97 65 98 68 99 62 100 63 101 66 102 64 103
REMARK H PARENT 13 13 88 56 56 67
REMARK Flexibility Score: inf
ROOT
ATOM      1  C   UNL A   1      34.286  32.188  28.439  1.00  0.00     0.202 C 
ENDROOT
BRANCH   1   2
ATOM      2  C   UNL A   1      33.965  30.991  27.535  1.00  0.00     0.261 C 
BRANCH   2   3
ATOM      3  O   UNL A   1      32.636  31.026  26.985  1.00  0.00    -0.463 OA
BRANCH   3   4
ATOM      4  C   UNL A   1      32.155  29.818  26.585  1.00  0.00     0.310 C 
ATOM      5  O   UNL A   1      31.368  29.128  27.198  1.00  0.00    -0.252 OA
BRANCH   4   6
ATOM      6  C   UNL A   1      32.541  29.410  25.208  1.00  0.00     0.118 C 
ATOM      7  C   UNL A   1      31.820  28.193  24.656  1.00  0.00     0.100 C 
ATOM      8  C   UNL A   1      33.322  28.268  24.575  1.00  0.00    -0.009 C 
ATOM      9  C   UNL A   1      34.020  27.170  25.352  1.00  0.00     0.013 C 
ATOM     10  C   UNL A   1      33.999  28.565  23.255  1.00  0.00     0.013 C 
BRANCH   7  11
ATOM     11  C   UNL A   1      30.776  28.478  23.641  1.00  0.00     0.230 C 
ATOM     12  N   UNL A   1      30.343  27.441  22.844  1.00  0.00    -0.300 N 
ATOM     13  H   UNL A   1      29.723  27.651  22.109  1.00  0.00     0.172 HD
ATOM     14  O   UNL A   1      30.337  29.614  23.488  1.00  0.00    -0.274 OA
BRANCH  12  15
ATOM     15  C   UNL A   1      30.723  26.136  23.011  1.00  0.00     0.212 A 
ATOM     16  C   UNL A   1      32.054  24.192  23.134  1.00  0.00     0.119 A 
ATOM     17  N   UNL A   1      30.988  24.107  23.898  1.00  0.00    -0.142 NA
ATOM     18  S   UNL A   1      32.084  25.603  22.133  1.00  0.00    -0.080 S 
ATOM     19  N   UNL A   1      30.225  25.239  23.825  1.00  0.00    -0.120 NA
BRANCH  16  20
ATOM     20  C   UNL A   1      33.164  23.198  23.169  1.00  0.00     0.074 C 
BRANCH  20  21
ATOM     21  C   UNL A   1      33.238  22.417  24.488  1.00  0.00     0.043 C 
BRANCH  21  22
ATOM     22  C   UNL A   1      33.252  20.906  24.380  1.00  0.00    -0.047 A 
ATOM     23  C   UNL A   1      33.331  18.113  24.036  1.00  0.00     0.118 A 
ATOM     24  C   UNL A   1      34.401  18.772  24.633  1.00  0.00     0.046 A 
ATOM     25  C   UNL A   1      32.201  18.830  23.653  1.00  0.00     0.046 A 
ATOM     26  C   UNL A   1      34.370  20.161  24.785  1.00  0.00     0.007 A 
ATOM     27  C   UNL A   1      32.161  20.220  23.826  1.00  0.00     0.007 A 
BRANCH  23  28
ATOM     28  O   UNL A   1      33.436  16.754  23.911  1.00  0.00    -0.497 OA
ATOM     29  C   UNL A   1      34.621  16.237  24.512  1.00  0.00     0.278 C 
ENDBRANCH  23  28
ENDBRANCH  21  22
ENDBRANCH  20  21
ENDBRANCH  16  20
ENDBRANCH  12  15
ENDBRANCH   7  11
ENDBRANCH   4   6
ENDBRANCH   3   4
ENDBRANCH   2   3
ENDBRANCH   1   2
BRANCH   1  30
ATOM     30  O   UNL A   1      35.056  33.263  27.903  1.00  0.00    -0.376 OA
BRANCH  30  31
ATOM     31  C   UNL A   1      35.360  34.385  28.724  1.00  0.00     0.188 C 
BRANCH  31  32
ATOM     32  C   UNL A   1      35.761  34.157  30.190  1.00  0.00     0.188 C 
BRANCH  32  33
ATOM     33  O   UNL A   1      34.819  34.601  31.135  1.00  0.00    -0.376 OA
BRANCH  33  34
ATOM     34  C   UNL A   1      35.032  34.384  32.515  1.00  0.00     0.202 C 
BRANCH  34  35
ATOM     35  C   UNL A   1      34.825  33.021  33.200  1.00  0.00     0.261 C 
BRANCH  35  36
ATOM     36  O   UNL A   1      35.705  31.952  32.840  1.00  0.00    -0.460 OA
BRANCH  36  37
ATOM     37  C   UNL A   1      36.871  31.854  33.519  1.00  0.00     0.338 C 
ATOM     38  O   UNL A   1      37.046  31.975  34.716  1.00  0.00    -0.246 OA
BRANCH  37  39
ATOM     39  C   UNL A   1      37.887  31.368  32.561  1.00  0.00     0.060 A 
ATOM     40  C   UNL A   1      39.029  30.719  33.049  1.00  0.00     0.016 A 
ATOM     41  C   UNL A   1      37.691  31.523  31.187  1.00  0.00     0.016 A 
ATOM     42  C   UNL A   1      39.988  30.231  32.159  1.00  0.00     0.010 A 
ATOM     43  C   UNL A   1      38.662  31.055  30.299  1.00  0.00     0.010 A 
ATOM     44  C   UNL A   1      39.822  30.424  30.781  1.00  0.00    -0.014 A 
BRANCH  44  45
ATOM     45  C   UNL A   1      40.924  30.107  29.844  1.00  0.00     0.031 A 
ATOM     46  C   UNL A   1      40.979  28.737  29.235  1.00  0.00     0.074 A 
ATOM     47  C   UNL A   1      41.876  31.012  29.560  1.00  0.00     0.049 A 
ATOM     48  N   UNL A   1      41.895  28.201  28.469  1.00  0.00    -0.248 NA
ATOM     49  C   UNL A   1      39.847  27.848  29.538  1.00  0.00     0.031 C 
ATOM     50  C   UNL A   1      41.915  32.381  30.066  1.00  0.00     0.029 A 
ATOM     51  N   UNL A   1      43.007  30.900  28.791  1.00  0.00    -0.354 N 
ATOM     52  C   UNL A   1      41.449  26.915  28.200  1.00  0.00     0.074 A 
ATOM     53  C   UNL A   1      40.201  26.739  28.910  1.00  0.00     0.031 C 
ATOM     54  C   UNL A   1      43.035  32.976  29.618  1.00  0.00     0.029 A 
ATOM     55  C   UNL A   1      43.803  32.017  28.825  1.00  0.00     0.049 A 
ATOM     56  H   UNL A   1      43.226  30.096  28.266  1.00  0.00     0.167 HD
ATOM     57  C   UNL A   1      42.028  25.967  27.423  1.00  0.00     0.037 A 
ATOM     58  C   UNL A   1      45.028  32.226  28.303  1.00  0.00     0.037 A 
ATOM     59  C   UNL A   1      43.281  26.138  26.735  1.00  0.00     0.049 A 
ATOM     60  C   UNL A   1      45.695  31.131  27.512  1.00  0.00     0.074 A 
ATOM     61  C   UNL A   1      43.942  25.247  25.910  1.00  0.00     0.029 A 
ATOM     62  N   UNL A   1      44.071  27.277  26.811  1.00  0.00    -0.354 N 
ATOM     63  N   UNL A   1      45.258  29.927  27.232  1.00  0.00    -0.248 NA
ATOM     64  C   UNL A   1      47.028  31.424  26.966  1.00  0.00     0.031 C 
ATOM     65  C   UNL A   1      45.159  25.825  25.530  1.00  0.00     0.029 A 
ATOM     66  C   UNL A   1      45.231  27.097  26.074  1.00  0.00     0.049 A 
ATOM     67  H   UNL A   1      43.842  28.090  27.314  1.00  0.00     0.167 HD
ATOM     68  C   UNL A   1      46.249  29.326  26.466  1.00  0.00     0.074 A 
ATOM     69  C   UNL A   1      47.306  30.304  26.311  1.00  0.00     0.031 C 
ATOM     70  C   UNL A   1      46.280  28.076  25.938  1.00  0.00     0.037 A 
BRANCH  57  71
ATOM     71  C   UNL A   1      41.318  24.650  27.311  1.00  0.00     0.064 A 
ATOM     72  C   UNL A   1      41.796  23.498  27.954  1.00  0.00     0.173 A 
ATOM     73  C   UNL A   1      40.146  24.538  26.548  1.00  0.00     0.173 A 
ATOM     74  F   UNL A   1      42.921  23.549  28.683  1.00  0.00    -0.203 F 
ATOM     75  C   UNL A   1      41.147  22.274  27.806  1.00  0.00     0.198 A 
ATOM     76  C   UNL A   1      39.484  23.319  26.427  1.00  0.00     0.198 A 
ATOM     77  F   UNL A   1      39.645  25.609  25.915  1.00  0.00    -0.203 F 
ATOM     78  F   UNL A   1      41.657  21.175  28.380  1.00  0.00    -0.200 F 
ATOM     79  C   UNL A   1      39.991  22.186  27.047  1.00  0.00     0.200 A 
ATOM     80  F   UNL A   1      38.360  23.238  25.702  1.00  0.00    -0.200 F 
ATOM     81  F   UNL A   1      39.370  21.008  26.903  1.00  0.00    -0.200 F 
ENDBRANCH  57  71
BRANCH  58  82
ATOM     82  C   UNL A   1      45.714  33.522  28.543  1.00  0.00     0.064 A 
ATOM     83  C   UNL A   1      45.447  34.644  27.748  1.00  0.00     0.173 A 
ATOM     84  C   UNL A   1      46.647  33.664  29.581  1.00  0.00     0.173 A 
ATOM     85  F   UNL A   1      44.586  34.548  26.724  1.00  0.00    -0.203 F 
ATOM     86  C   UNL A   1      46.093  35.858  27.977  1.00  0.00     0.198 A 
ATOM     87  C   UNL A   1      47.272  34.885  29.826  1.00  0.00     0.198 A 
ATOM     88  F   UNL A   1      46.943  32.617  30.367  1.00  0.00    -0.203 F 
ATOM     89  F   UNL A   1      45.848  36.905  27.178  1.00  0.00    -0.200 F 
ATOM     90  C   UNL A   1      46.998  35.979  29.021  1.00  0.00     0.200 A 
ATOM     91  F   UNL A   1      48.140  34.999  30.841  1.00  0.00    -0.200 F 
ATOM     92  F   UNL A   1      47.612  37.148  29.246  1.00  0.00    -0.200 F 
ENDBRANCH  58  82
BRANCH  70  93
ATOM     93  C   UNL A   1      47.490  27.696  25.133  1.00  0.00     0.064 A 
ATOM     94  C   UNL A   1      48.629  27.142  25.737  1.00  0.00     0.173 A 
ATOM     95  C   UNL A   1      47.491  27.841  23.737  1.00  0.00     0.173 A 
ATOM     96  F   UNL A   1      48.684  26.997  27.068  1.00  0.00    -0.203 F 
ATOM     97  C   UNL A   1      49.732  26.765  24.973  1.00  0.00     0.198 A 
ATOM     98  C   UNL A   1      48.583  27.435  22.974  1.00  0.00     0.198 A 
ATOM     99  F   UNL A   1      46.424  28.358  23.110  1.00  0.00    -0.203 F 
ATOM    100  F   UNL A   1      50.825  26.277  25.574  1.00  0.00    -0.200 F 
ATOM    101  C   UNL A   1      49.704  26.904  23.593  1.00  0.00     0.200 A 
ATOM    102  F   UNL A   1      48.549  27.558  21.640  1.00  0.00    -0.200 F 
ATOM    103  F   UNL A   1      50.762  26.532  22.859  1.00  0.00    -0.200 F 
ENDBRANCH  70  93
ENDBRANCH  44  45
ENDBRANCH  37  39
ENDBRANCH  36  37
ENDBRANCH  35  36
ENDBRANCH  34  35
ENDBRANCH  33  34
ENDBRANCH  32  33
ENDBRANCH  31  32
ENDBRANCH  30  31
ENDBRANCH   1  30
TORSDOF 23
ENDMDL
MODEL 3
REMARK VINA RESULT:     -10.2      1.835      2.846
REMARK SMILES COc1ccc(CCc2nnc(NC(=O)[C@@H]3[C@@H](C(=O)OCCOCCOCCOC(=O)c4ccc(-c5c6nc(c(-c7c(F)c(F)c(F)c(F)c7F)c7ccc([nH]7)c(-c7c(F)c(F)c(F)c(F)c7F)c7nc(c(-c8c(F)c(F)c(F)c(F)c8F)c8ccc5[nH]8)C=C7)C=C6)cc4)C3(C)C)s2)cc1
REMARK SMILES IDX 22 1 21 2 20 3 18 4 19 5 17 6 16 7 95 8 96 9 97 10 14 11
REMARK SMILES IDX 13 12 15 14 12 15 9 16 10 17 98 18 11 19 8 20 7 21 6 22 3 23
REMARK SMILES IDX 4 24 100 25 5 26 99 27 2 28 1 29 23 30 24 31 25 32 26 33
REMARK SMILES IDX 27 34 28 35 29 36 30 37 31 38 32 39 33 40 94 41 34 42 93 43
REMARK SMILES IDX 35 44 36 45 37 46 87 47 38 48 92 49 86 50 88 51 39 52 91 53
REMARK SMILES IDX 85 54 84 55 40 57 72 58 52 59 71 60 53 61 56 62 70 63 89 64
REMARK SMILES IDX 54 65 55 66 69 68 90 69 57 70 41 71 42 72 50 73 43 74 44 75
REMARK SMILES IDX 48 76 51 77 45 78 46 79 49 80 47 81 73 82 74 83 82 84 75 85
REMARK SMILES IDX 76 86 80 87 83 88 77 89 78 90 81 91 79 92 58 93 59 94 67 95
REMARK SMILES IDX 60 96 61 97 65 98 68 99 62 100 63 101 66 102 64 103
REMARK H PARENT 13 13 88 56 56 67
REMARK Flexibility Score: inf
ROOT
ATOM      1  C   UNL A   1      33.837  30.431  27.207  1.00  0.00     0.202 C 
ENDROOT
BRANCH   1   2
ATOM      2  C   UNL A   1      32.487  30.394  26.479  1.00  0.00     0.261 C 
BRANCH   2   3
ATOM      3  O   UNL A   1      31.651  29.292  26.875  1.00  0.00    -0.463 OA
BRANCH   3   4
ATOM      4  C   UNL A   1      31.752  28.189  26.086  1.00  0.00     0.310 C 
ATOM      5  O   UNL A   1      32.335  27.164  26.367  1.00  0.00    -0.252 OA
BRANCH   4   6
ATOM      6  C   UNL A   1      30.945  28.231  24.837  1.00  0.00     0.118 C 
ATOM      7  C   UNL A   1      31.018  26.991  23.964  1.00  0.00     0.100 C 
ATOM      8  C   UNL A   1      31.226  28.349  23.346  1.00  0.00    -0.009 C 
ATOM      9  C   UNL A   1      32.605  28.529  22.744  1.00  0.00     0.013 C 
ATOM     10  C   UNL A   1      30.138  28.975  22.503  1.00  0.00     0.013 C 
BRANCH   7  11
ATOM     11  C   UNL A   1      29.823  26.113  24.003  1.00  0.00     0.230 C 
ATOM     12  N   UNL A   1      30.017  24.749  24.010  1.00  0.00    -0.300 N 
ATOM     13  H   UNL A   1      29.225  24.169  23.940  1.00  0.00     0.172 HD
ATOM     14  O   UNL A   1      28.691  26.587  23.991  1.00  0.00    -0.274 OA
BRANCH  12  15
ATOM     15  C   UNL A   1      31.244  24.151  24.110  1.00  0.00     0.212 A 
ATOM     16  C   UNL A   1      32.973  22.690  24.776  1.00  0.00     0.119 A 
ATOM     17  N   UNL A   1      33.163  23.154  23.561  1.00  0.00    -0.142 NA
ATOM     18  S   UNL A   1      31.631  23.410  25.597  1.00  0.00    -0.080 S 
ATOM     19  N   UNL A   1      32.154  23.995  23.181  1.00  0.00    -0.120 NA
BRANCH  16  20
ATOM     20  C   UNL A   1      33.798  21.602  25.371  1.00  0.00     0.074 C 
BRANCH  20  21
ATOM     21  C   UNL A   1      34.273  20.567  24.341  1.00  0.00     0.043 C 
BRANCH  21  22
ATOM     22  C   UNL A   1      34.059  19.110  24.697  1.00  0.00    -0.047 A 
ATOM     23  C   UNL A   1      33.584  16.386  25.227  1.00  0.00     0.118 A 
ATOM     24  C   UNL A   1      34.776  16.782  24.629  1.00  0.00     0.046 A 
ATOM     25  C   UNL A   1      32.647  17.344  25.608  1.00  0.00     0.046 A 
ATOM     26  C   UNL A   1      35.003  18.132  24.348  1.00  0.00     0.007 A 
ATOM     27  C   UNL A   1      32.885  18.700  25.346  1.00  0.00     0.007 A 
BRANCH  23  28
ATOM     28  O   UNL A   1      33.426  15.048  25.463  1.00  0.00    -0.497 OA
ATOM     29  C   UNL A   1      32.068  14.691  25.715  1.00  0.00     0.278 C 
ENDBRANCH  23  28
ENDBRANCH  21  22
ENDBRANCH  20  21
ENDBRANCH  16  20
ENDBRANCH  12  15
ENDBRANCH   7  11
ENDBRANCH   4   6
ENDBRANCH   3   4
ENDBRANCH   2   3
ENDBRANCH   1   2
BRANCH   1  30
ATOM     30  O   UNL A   1      34.486  31.690  27.378  1.00  0.00    -0.376 OA
BRANCH  30  31
ATOM     31  C   UNL A   1      35.147  31.976  28.606  1.00  0.00     0.188 C 
BRANCH  31  32
ATOM     32  C   UNL A   1      34.732  33.218  29.411  1.00  0.00     0.188 C 
BRANCH  32  33
ATOM     33  O   UNL A   1      33.379  33.578  29.284  1.00  0.00    -0.376 OA
BRANCH  33  34
ATOM     34  C   UNL A   1      33.000  34.939  29.253  1.00  0.00     0.202 C 
BRANCH  34  35
ATOM     35  C   UNL A   1      33.754  36.046  30.011  1.00  0.00     0.261 C 
BRANCH  35  36
ATOM     36  O   UNL A   1      33.174  36.541  31.223  1.00  0.00    -0.460 OA
BRANCH  36  37
ATOM     37  C   UNL A   1      32.744  35.626  32.123  1.00  0.00     0.338 C 
ATOM     38  O   UNL A   1      31.596  35.325  32.385  1.00  0.00    -0.246 OA
BRANCH  37  39
ATOM     39  C   UNL A   1      33.940  34.900  32.600  1.00  0.00     0.060 A 
ATOM     40  C   UNL A   1      35.188  35.534  32.549  1.00  0.00     0.016 A 
ATOM     41  C   UNL A   1      33.819  33.612  33.127  1.00  0.00     0.016 A 
ATOM     42  C   UNL A   1      36.326  34.874  33.018  1.00  0.00     0.010 A 
ATOM     43  C   UNL A   1      34.960  32.944  33.574  1.00  0.00     0.010 A 
ATOM     44  C   UNL A   1      36.220  33.564  33.505  1.00  0.00    -0.014 A 
BRANCH  44  45
ATOM     45  C   UNL A   1      37.439  32.777  33.802  1.00  0.00     0.031 A 
ATOM     46  C   UNL A   1      38.188  33.063  35.071  1.00  0.00     0.074 A 
ATOM     47  C   UNL A   1      37.889  31.843  32.947  1.00  0.00     0.049 A 
ATOM     48  N   UNL A   1      39.325  32.574  35.496  1.00  0.00    -0.248 NA
ATOM     49  C   UNL A   1      37.570  34.039  35.982  1.00  0.00     0.031 C 
ATOM     50  C   UNL A   1      37.235  31.458  31.700  1.00  0.00     0.029 A 
ATOM     51  N   UNL A   1      39.020  31.068  32.994  1.00  0.00    -0.354 N 
ATOM     52  C   UNL A   1      39.558  33.183  36.721  1.00  0.00     0.074 A 
ATOM     53  C   UNL A   1      38.463  34.100  36.956  1.00  0.00     0.031 C 
ATOM     54  C   UNL A   1      37.994  30.537  31.080  1.00  0.00     0.029 A 
ATOM     55  C   UNL A   1      39.200  30.298  31.872  1.00  0.00     0.049 A 
ATOM     56  H   UNL A   1      39.642  31.065  33.756  1.00  0.00     0.167 HD
ATOM     57  C   UNL A   1      40.590  32.989  37.576  1.00  0.00     0.037 A 
ATOM     58  C   UNL A   1      40.238  29.518  31.512  1.00  0.00     0.037 A 
ATOM     59  C   UNL A   1      41.689  32.091  37.330  1.00  0.00     0.049 A 
ATOM     60  C   UNL A   1      41.419  29.378  32.439  1.00  0.00     0.074 A 
ATOM     61  C   UNL A   1      42.773  31.810  38.141  1.00  0.00     0.029 A 
ATOM     62  N   UNL A   1      41.849  31.344  36.171  1.00  0.00    -0.354 N 
ATOM     63  N   UNL A   1      41.621  29.929  33.611  1.00  0.00    -0.248 NA
ATOM     64  C   UNL A   1      42.515  28.508  31.990  1.00  0.00     0.031 C 
ATOM     65  C   UNL A   1      43.618  30.933  37.450  1.00  0.00     0.029 A 
ATOM     66  C   UNL A   1      43.033  30.626  36.232  1.00  0.00     0.049 A 
ATOM     67  H   UNL A   1      41.217  31.326  35.418  1.00  0.00     0.167 HD
ATOM     68  C   UNL A   1      42.855  29.463  34.048  1.00  0.00     0.074 A 
ATOM     69  C   UNL A   1      43.349  28.569  33.020  1.00  0.00     0.031 C 
ATOM     70  C   UNL A   1      43.518  29.749  35.196  1.00  0.00     0.037 A 
BRANCH  57  71
ATOM     71  C   UNL A   1      40.587  33.793  38.843  1.00  0.00     0.064 A 
ATOM     72  C   UNL A   1      39.901  33.363  39.988  1.00  0.00     0.173 A 
ATOM     73  C   UNL A   1      41.278  35.012  38.911  1.00  0.00     0.173 A 
ATOM     74  F   UNL A   1      39.211  32.212  39.970  1.00  0.00    -0.203 F 
ATOM     75  C   UNL A   1      39.875  34.142  41.143  1.00  0.00     0.198 A 
ATOM     76  C   UNL A   1      41.276  35.774  40.077  1.00  0.00     0.198 A 
ATOM     77  F   UNL A   1      41.953  35.468  37.845  1.00  0.00    -0.203 F 
ATOM     78  F   UNL A   1      39.162  33.740  42.204  1.00  0.00    -0.200 F 
ATOM     79  C   UNL A   1      40.565  35.343  41.188  1.00  0.00     0.200 A 
ATOM     80  F   UNL A   1      41.952  36.929  40.123  1.00  0.00    -0.200 F 
ATOM     81  F   UNL A   1      40.537  36.093  42.298  1.00  0.00    -0.200 F 
ENDBRANCH  57  71
BRANCH  58  82
ATOM     82  C   UNL A   1      40.216  28.831  30.194  1.00  0.00     0.064 A 
ATOM     83  C   UNL A   1      40.833  29.394  29.071  1.00  0.00     0.173 A 
ATOM     84  C   UNL A   1      39.580  27.590  30.038  1.00  0.00     0.173 A 
ATOM     85  F   UNL A   1      41.426  30.594  29.164  1.00  0.00    -0.203 F 
ATOM     86  C   UNL A   1      40.810  28.746  27.837  1.00  0.00     0.198 A 
ATOM     87  C   UNL A   1      39.581  26.930  28.811  1.00  0.00     0.198 A 
ATOM     88  F   UNL A   1      38.968  27.012  31.083  1.00  0.00    -0.203 F 
ATOM     89  F   UNL A   1      41.375  29.324  26.769  1.00  0.00    -0.200 F 
ATOM     90  C   UNL A   1      40.191  27.511  27.711  1.00  0.00     0.200 A 
ATOM     91  F   UNL A   1      38.989  25.733  28.695  1.00  0.00    -0.200 F 
ATOM     92  F   UNL A   1      40.177  26.884  26.526  1.00  0.00    -0.200 F 
ENDBRANCH  58  82
BRANCH  70  93
ATOM     93  C   UNL A   1      44.846  29.081  35.412  1.00  0.00     0.064 A 
ATOM     94  C   UNL A   1      46.048  29.692  35.018  1.00  0.00     0.173 A 
ATOM     95  C   UNL A   1      44.923  27.841  36.064  1.00  0.00     0.173 A 
ATOM     96  F   UNL A   1      46.028  30.869  34.378  1.00  0.00    -0.203 F 
ATOM     97  C   UNL A   1      47.274  29.074  35.253  1.00  0.00     0.198 A 
ATOM     98  C   UNL A   1      46.152  27.242  36.324  1.00  0.00     0.198 A 
ATOM     99  F   UNL A   1      43.806  27.219  36.468  1.00  0.00    -0.203 F 
ATOM    100  F   UNL A   1      48.406  29.656  34.832  1.00  0.00    -0.200 F 
ATOM    101  C   UNL A   1      47.326  27.855  35.913  1.00  0.00     0.200 A 
ATOM    102  F   UNL A   1      46.201  26.070  36.973  1.00  0.00    -0.200 F 
ATOM    103  F   UNL A   1      48.507  27.268  36.147  1.00  0.00    -0.200 F 
ENDBRANCH  70  93
ENDBRANCH  44  45
ENDBRANCH  37  39
ENDBRANCH  36  37
ENDBRANCH  35  36
ENDBRANCH  34  35
ENDBRANCH  33  34
ENDBRANCH  32  33
ENDBRANCH  31  32
ENDBRANCH  30  31
ENDBRANCH   1  30
TORSDOF 23
ENDMDL
