MODEL 1
REMARK VINA RESULT:     -10.4      0.000      0.000
REMARK SMILES CO[C@@H]1C[C@@H](C(=O)OCCOCCOCCOC(=O)c2ccc(-c3c4nc(c(-c5c(F)c(F)c(F)c(F)c5F)c5ccc([nH]5)c(-c5c(F)c(F)c(F)c(F)c5F)c5nc(c(-c6c(F)c(F)c(F)c(F)c6F)c6ccc3[nH]6)C=C5)C=C4)cc2)N(S(=O)(=O)/C=C/c2ccccc2)C1
REMARK SMILES IDX 12 1 11 2 10 3 9 4 8 5 6 6 7 7 5 8 3 9 4 10 95 11 83 12 2 13
REMARK SMILES IDX 1 14 84 15 85 16 86 17 87 18 88 19 89 20 90 21 94 22 91 23
REMARK SMILES IDX 93 24 92 25 13 26 14 27 15 28 16 29 17 30 18 31 19 32 20 33
REMARK SMILES IDX 21 34 82 35 22 36 81 37 23 38 24 39 25 40 75 41 26 42 80 43
REMARK SMILES IDX 74 44 76 45 27 46 79 47 73 48 72 49 28 51 60 52 40 53 59 54
REMARK SMILES IDX 41 55 44 56 58 57 77 58 42 59 43 60 57 62 78 63 45 64 29 65
REMARK SMILES IDX 30 66 38 67 31 68 32 69 36 70 39 71 33 72 34 73 37 74 35 75
REMARK SMILES IDX 61 76 62 77 70 78 63 79 64 80 68 81 71 82 65 83 66 84 69 85
REMARK SMILES IDX 67 86 46 87 47 88 55 89 48 90 49 91 53 92 56 93 50 94 51 95
REMARK SMILES IDX 54 96 52 97
REMARK H PARENT 76 50 44 61
REMARK Flexibility Score: inf
ROOT
ATOM      1  C   UNL A   1      38.921  21.944  26.143  1.00  0.00     0.188 C 
ENDROOT
BRANCH   1   2
ATOM      2  O   UNL A   1      38.591  23.333  26.169  1.00  0.00    -0.376 OA
BRANCH   2   3
ATOM      3  C   UNL A   1      37.458  23.690  25.375  1.00  0.00     0.202 C 
BRANCH   3   4
ATOM      4  C   UNL A   1      36.044  23.394  25.923  1.00  0.00     0.261 C 
BRANCH   4   5
ATOM      5  O   UNL A   1      35.185  22.728  24.983  1.00  0.00    -0.462 OA
BRANCH   5   6
ATOM      6  C   UNL A   1      34.758  23.445  23.918  1.00  0.00     0.324 C 
ATOM      7  O   UNL A   1      35.059  23.191  22.756  1.00  0.00    -0.250 OA
BRANCH   6   8
ATOM      8  C   UNL A   1      33.924  24.646  24.294  1.00  0.00     0.185 C 
ATOM      9  C   UNL A   1      33.014  26.311  25.755  1.00  0.00     0.135 C 
ATOM     10  C   UNL A   1      34.021  25.172  25.725  1.00  0.00     0.065 C 
ATOM     11  C   UNL A   1      31.958  25.960  24.691  1.00  0.00     0.135 C 
ATOM     12  N   UNL A   1      32.480  24.749  23.922  1.00  0.00    -0.181 NA
BRANCH   9  13
ATOM     13  O   UNL A   1      33.599  27.605  25.619  1.00  0.00    -0.380 OA
ATOM     14  C   UNL A   1      32.724  28.719  25.561  1.00  0.00     0.195 C 
ENDBRANCH   9  13
BRANCH  12  15
ATOM     15  S   UNL A   1      31.399  23.438  24.093  1.00  0.00     0.237 S 
ATOM     16  O   UNL A   1      31.064  23.427  25.498  1.00  0.00    -0.207 OA
ATOM     17  O   UNL A   1      30.335  23.698  23.133  1.00  0.00    -0.207 OA
BRANCH  15  18
ATOM     18  C   UNL A   1      32.079  21.904  23.723  1.00  0.00     0.123 C 
ATOM     19  C   UNL A   1      32.196  20.911  24.611  1.00  0.00     0.021 C 
BRANCH  19  20
ATOM     20  C   UNL A   1      32.776  19.629  24.184  1.00  0.00    -0.025 A 
ATOM     21  C   UNL A   1      32.155  18.887  23.171  1.00  0.00     0.008 A 
ATOM     22  C   UNL A   1      33.973  19.152  24.731  1.00  0.00     0.008 A 
ATOM     23  C   UNL A   1      32.739  17.717  22.681  1.00  0.00     0.001 A 
ATOM     24  C   UNL A   1      34.548  17.970  24.254  1.00  0.00     0.001 A 
ATOM     25  C   UNL A   1      33.938  17.259  23.222  1.00  0.00     0.000 A 
ENDBRANCH  19  20
ENDBRANCH  15  18
ENDBRANCH  12  15
ENDBRANCH   6   8
ENDBRANCH   5   6
ENDBRANCH   4   5
ENDBRANCH   3   4
ENDBRANCH   2   3
ENDBRANCH   1   2
BRANCH   1  26
ATOM     26  C   UNL A   1      40.358  21.650  26.548  1.00  0.00     0.188 C 
BRANCH  26  27
ATOM     27  O   UNL A   1      40.733  20.294  26.336  1.00  0.00    -0.376 OA
BRANCH  27  28
ATOM     28  C   UNL A   1      42.096  19.997  26.620  1.00  0.00     0.202 C 
BRANCH  28  29
ATOM     29  C   UNL A   1      42.700  18.898  25.741  1.00  0.00     0.261 C 
BRANCH  29  30
ATOM     30  O   UNL A   1      44.130  18.998  25.574  1.00  0.00    -0.460 OA
BRANCH  30  31
ATOM     31  C   UNL A   1      44.540  19.585  24.430  1.00  0.00     0.338 C 
ATOM     32  O   UNL A   1      44.515  19.110  23.291  1.00  0.00    -0.246 OA
BRANCH  31  33
ATOM     33  C   UNL A   1      45.018  20.951  24.685  1.00  0.00     0.060 A 
ATOM     34  C   UNL A   1      45.527  21.269  25.949  1.00  0.00     0.016 A 
ATOM     35  C   UNL A   1      44.818  21.955  23.734  1.00  0.00     0.016 A 
ATOM     36  C   UNL A   1      45.832  22.594  26.271  1.00  0.00     0.010 A 
ATOM     37  C   UNL A   1      45.098  23.285  24.067  1.00  0.00     0.010 A 
ATOM     38  C   UNL A   1      45.583  23.616  25.346  1.00  0.00    -0.014 A 
BRANCH  38  39
ATOM     39  C   UNL A   1      45.676  25.038  25.763  1.00  0.00     0.031 A 
ATOM     40  C   UNL A   1      47.001  25.738  25.682  1.00  0.00     0.074 A 
ATOM     41  C   UNL A   1      44.595  25.709  26.197  1.00  0.00     0.049 A 
ATOM     42  N   UNL A   1      47.339  26.940  26.080  1.00  0.00    -0.248 NA
ATOM     43  C   UNL A   1      48.096  24.980  25.060  1.00  0.00     0.031 C 
ATOM     44  C   UNL A   1      43.237  25.179  26.238  1.00  0.00     0.029 A 
ATOM     45  N   UNL A   1      44.479  26.983  26.695  1.00  0.00    -0.354 N 
ATOM     46  C   UNL A   1      48.682  27.081  25.759  1.00  0.00     0.074 A 
ATOM     47  C   UNL A   1      49.103  25.836  25.149  1.00  0.00     0.031 C 
ATOM     48  C   UNL A   1      42.423  26.112  26.760  1.00  0.00     0.029 A 
ATOM     49  C   UNL A   1      43.213  27.289  27.125  1.00  0.00     0.049 A 
ATOM     50  H   UNL A   1      45.232  27.617  26.739  1.00  0.00     0.167 HD
ATOM     51  C   UNL A   1      49.495  28.147  25.959  1.00  0.00     0.037 A 
ATOM     52  C   UNL A   1      42.750  28.379  27.768  1.00  0.00     0.037 A 
ATOM     53  C   UNL A   1      49.084  29.375  26.590  1.00  0.00     0.049 A 
ATOM     54  C   UNL A   1      43.692  29.515  28.079  1.00  0.00     0.074 A 
ATOM     55  C   UNL A   1      49.839  30.502  26.865  1.00  0.00     0.029 A 
ATOM     56  N   UNL A   1      47.803  29.629  27.059  1.00  0.00    -0.354 N 
ATOM     57  N   UNL A   1      44.967  29.639  27.792  1.00  0.00    -0.248 NA
ATOM     58  C   UNL A   1      43.133  30.662  28.809  1.00  0.00     0.031 C 
ATOM     59  C   UNL A   1      49.030  31.413  27.554  1.00  0.00     0.029 A 
ATOM     60  C   UNL A   1      47.754  30.880  27.654  1.00  0.00     0.049 A 
ATOM     61  H   UNL A   1      47.040  29.012  26.980  1.00  0.00     0.167 HD
ATOM     62  C   UNL A   1      45.355  30.877  28.287  1.00  0.00     0.074 A 
ATOM     63  C   UNL A   1      44.178  31.476  28.881  1.00  0.00     0.031 C 
ATOM     64  C   UNL A   1      46.578  31.465  28.249  1.00  0.00     0.037 A 
BRANCH  51  65
ATOM     65  C   UNL A   1      50.931  27.987  25.553  1.00  0.00     0.064 A 
ATOM     66  C   UNL A   1      51.932  27.650  26.477  1.00  0.00     0.173 A 
ATOM     67  C   UNL A   1      51.317  28.215  24.223  1.00  0.00     0.173 A 
ATOM     68  F   UNL A   1      51.619  27.435  27.764  1.00  0.00    -0.203 F 
ATOM     69  C   UNL A   1      53.271  27.600  26.095  1.00  0.00     0.198 A 
ATOM     70  C   UNL A   1      52.653  28.133  23.839  1.00  0.00     0.198 A 
ATOM     71  F   UNL A   1      50.400  28.532  23.297  1.00  0.00    -0.203 F 
ATOM     72  F   UNL A   1      54.218  27.349  27.010  1.00  0.00    -0.200 F 
ATOM     73  C   UNL A   1      53.630  27.842  24.778  1.00  0.00     0.200 A 
ATOM     74  F   UNL A   1      52.995  28.356  22.562  1.00  0.00    -0.200 F 
ATOM     75  F   UNL A   1      54.919  27.809  24.415  1.00  0.00    -0.200 F 
ENDBRANCH  51  65
BRANCH  52  76
ATOM     76  C   UNL A   1      41.329  28.426  28.201  1.00  0.00     0.064 A 
ATOM     77  C   UNL A   1      40.321  28.896  27.349  1.00  0.00     0.173 A 
ATOM     78  C   UNL A   1      40.952  27.997  29.484  1.00  0.00     0.173 A 
ATOM     79  F   UNL A   1      40.633  29.349  26.126  1.00  0.00    -0.203 F 
ATOM     80  C   UNL A   1      38.991  28.939  27.765  1.00  0.00     0.198 A 
ATOM     81  C   UNL A   1      39.619  28.014  29.888  1.00  0.00     0.198 A 
ATOM     82  F   UNL A   1      41.880  27.549  30.342  1.00  0.00    -0.203 F 
ATOM     83  F   UNL A   1      38.051  29.431  26.946  1.00  0.00    -0.200 F 
ATOM     84  C   UNL A   1      38.640  28.489  29.029  1.00  0.00     0.200 A 
ATOM     85  F   UNL A   1      39.285  27.573  31.107  1.00  0.00    -0.200 F 
ATOM     86  F   UNL A   1      37.361  28.525  29.425  1.00  0.00    -0.200 F 
ENDBRANCH  52  76
BRANCH  64  87
ATOM     87  C   UNL A   1      46.708  32.836  28.852  1.00  0.00     0.064 A 
ATOM     88  C   UNL A   1      47.094  33.021  30.189  1.00  0.00     0.173 A 
ATOM     89  C   UNL A   1      46.499  33.981  28.067  1.00  0.00     0.173 A 
ATOM     90  F   UNL A   1      47.292  31.961  30.987  1.00  0.00    -0.203 F 
ATOM     91  C   UNL A   1      47.248  34.300  30.720  1.00  0.00     0.198 A 
ATOM     92  C   UNL A   1      46.683  35.257  28.593  1.00  0.00     0.198 A 
ATOM     93  F   UNL A   1      46.135  33.862  26.782  1.00  0.00    -0.203 F 
ATOM     94  F   UNL A   1      47.578  34.452  32.010  1.00  0.00    -0.200 F 
ATOM     95  C   UNL A   1      47.051  35.416  29.921  1.00  0.00     0.200 A 
ATOM     96  F   UNL A   1      46.506  36.334  27.815  1.00  0.00    -0.200 F 
ATOM     97  F   UNL A   1      47.211  36.644  30.431  1.00  0.00    -0.200 F 
ENDBRANCH  64  87
ENDBRANCH  38  39
ENDBRANCH  31  33
ENDBRANCH  30  31
ENDBRANCH  29  30
ENDBRANCH  28  29
ENDBRANCH  27  28
ENDBRANCH  26  27
ENDBRANCH   1  26
TORSDOF 21
ENDMDL
MODEL 2
REMARK VINA RESULT:     -10.3      2.085      8.179
REMARK SMILES CO[C@@H]1C[C@@H](C(=O)OCCOCCOCCOC(=O)c2ccc(-c3c4nc(c(-c5c(F)c(F)c(F)c(F)c5F)c5ccc([nH]5)c(-c5c(F)c(F)c(F)c(F)c5F)c5nc(c(-c6c(F)c(F)c(F)c(F)c6F)c6ccc3[nH]6)C=C5)C=C4)cc2)N(S(=O)(=O)/C=C/c2ccccc2)C1
REMARK SMILES IDX 12 1 11 2 10 3 9 4 8 5 6 6 7 7 5 8 3 9 4 10 95 11 83 12 2 13
REMARK SMILES IDX 1 14 84 15 85 16 86 17 87 18 88 19 89 20 90 21 94 22 91 23
REMARK SMILES IDX 93 24 92 25 13 26 14 27 15 28 16 29 17 30 18 31 19 32 20 33
REMARK SMILES IDX 21 34 82 35 22 36 81 37 23 38 24 39 25 40 75 41 26 42 80 43
REMARK SMILES IDX 74 44 76 45 27 46 79 47 73 48 72 49 28 51 60 52 40 53 59 54
REMARK SMILES IDX 41 55 44 56 58 57 77 58 42 59 43 60 57 62 78 63 45 64 29 65
REMARK SMILES IDX 30 66 38 67 31 68 32 69 36 70 39 71 33 72 34 73 37 74 35 75
REMARK SMILES IDX 61 76 62 77 70 78 63 79 64 80 68 81 71 82 65 83 66 84 69 85
REMARK SMILES IDX 67 86 46 87 47 88 55 89 48 90 49 91 53 92 56 93 50 94 51 95
REMARK SMILES IDX 54 96 52 97
REMARK H PARENT 76 50 44 61
REMARK Flexibility Score: inf
ROOT
ATOM      1  C   UNL A   1      36.126  22.218  23.741  1.00  0.00     0.188 C 
ENDROOT
BRANCH   1   2
ATOM      2  O   UNL A   1      35.346  23.298  23.228  1.00  0.00    -0.376 OA
BRANCH   2   3
ATOM      3  C   UNL A   1      33.999  22.956  22.897  1.00  0.00     0.202 C 
BRANCH   3   4
ATOM      4  C   UNL A   1      33.313  23.687  21.721  1.00  0.00     0.261 C 
BRANCH   4   5
ATOM      5  O   UNL A   1      33.367  25.120  21.819  1.00  0.00    -0.462 OA
BRANCH   5   6
ATOM      6  C   UNL A   1      32.263  25.750  22.284  1.00  0.00     0.324 C 
ATOM      7  O   UNL A   1      31.624  26.574  21.640  1.00  0.00    -0.250 OA
BRANCH   6   8
ATOM      8  C   UNL A   1      31.923  25.397  23.713  1.00  0.00     0.185 C 
ATOM      9  C   UNL A   1      30.490  24.985  25.586  1.00  0.00     0.135 C 
ATOM     10  C   UNL A   1      30.450  25.271  24.093  1.00  0.00     0.065 C 
ATOM     11  C   UNL A   1      31.795  25.625  26.096  1.00  0.00     0.135 C 
ATOM     12  N   UNL A   1      32.584  26.076  24.869  1.00  0.00    -0.181 NA
BRANCH   9  13
ATOM     13  O   UNL A   1      30.326  23.608  25.918  1.00  0.00    -0.380 OA
ATOM     14  C   UNL A   1      31.038  23.111  27.038  1.00  0.00     0.195 C 
ENDBRANCH   9  13
BRANCH  12  15
ATOM     15  S   UNL A   1      32.825  27.767  24.918  1.00  0.00     0.237 S 
ATOM     16  O   UNL A   1      33.117  28.049  26.304  1.00  0.00    -0.207 OA
ATOM     17  O   UNL A   1      33.859  28.029  23.927  1.00  0.00    -0.207 OA
BRANCH  15  18
ATOM     18  C   UNL A   1      31.441  28.693  24.493  1.00  0.00     0.123 C 
ATOM     19  C   UNL A   1      31.233  29.197  23.272  1.00  0.00     0.021 C 
BRANCH  19  20
ATOM     20  C   UNL A   1      30.004  29.961  23.010  1.00  0.00    -0.025 A 
ATOM     21  C   UNL A   1      29.244  29.684  21.866  1.00  0.00     0.008 A 
ATOM     22  C   UNL A   1      29.542  30.929  23.908  1.00  0.00     0.008 A 
ATOM     23  C   UNL A   1      28.023  30.326  21.646  1.00  0.00     0.001 A 
ATOM     24  C   UNL A   1      28.330  31.588  23.677  1.00  0.00     0.001 A 
ATOM     25  C   UNL A   1      27.565  31.278  22.554  1.00  0.00     0.000 A 
ENDBRANCH  19  20
ENDBRANCH  15  18
ENDBRANCH  12  15
ENDBRANCH   6   8
ENDBRANCH   5   6
ENDBRANCH   4   5
ENDBRANCH   3   4
ENDBRANCH   2   3
ENDBRANCH   1   2
BRANCH   1  26
ATOM     26  C   UNL A   1      36.954  22.589  24.963  1.00  0.00     0.188 C 
BRANCH  26  27
ATOM     27  O   UNL A   1      37.493  21.458  25.638  1.00  0.00    -0.376 OA
BRANCH  27  28
ATOM     28  C   UNL A   1      38.911  21.453  25.759  1.00  0.00     0.202 C 
BRANCH  28  29
ATOM     29  C   UNL A   1      39.517  20.074  26.032  1.00  0.00     0.261 C 
BRANCH  29  30
ATOM     30  O   UNL A   1      40.724  20.106  26.822  1.00  0.00    -0.460 OA
BRANCH  30  31
ATOM     31  C   UNL A   1      41.876  20.062  26.121  1.00  0.00     0.338 C 
ATOM     32  O   UNL A   1      42.271  19.155  25.381  1.00  0.00    -0.246 OA
BRANCH  31  33
ATOM     33  C   UNL A   1      42.652  21.295  26.309  1.00  0.00     0.060 A 
ATOM     34  C   UNL A   1      43.275  21.527  27.541  1.00  0.00     0.016 A 
ATOM     35  C   UNL A   1      42.632  22.294  25.333  1.00  0.00     0.016 A 
ATOM     36  C   UNL A   1      43.875  22.761  27.804  1.00  0.00     0.010 A 
ATOM     37  C   UNL A   1      43.210  23.539  25.608  1.00  0.00     0.010 A 
ATOM     38  C   UNL A   1      43.812  23.788  26.854  1.00  0.00    -0.014 A 
BRANCH  38  39
ATOM     39  C   UNL A   1      44.231  25.166  27.218  1.00  0.00     0.031 A 
ATOM     40  C   UNL A   1      43.205  26.127  27.745  1.00  0.00     0.074 A 
ATOM     41  C   UNL A   1      45.510  25.560  27.095  1.00  0.00     0.049 A 
ATOM     42  N   UNL A   1      43.320  27.399  28.035  1.00  0.00    -0.248 NA
ATOM     43  C   UNL A   1      41.865  25.572  27.988  1.00  0.00     0.031 C 
ATOM     44  C   UNL A   1      46.618  24.705  26.683  1.00  0.00     0.029 A 
ATOM     45  N   UNL A   1      46.085  26.791  27.297  1.00  0.00    -0.354 N 
ATOM     46  C   UNL A   1      42.071  27.798  28.490  1.00  0.00     0.074 A 
ATOM     47  C   UNL A   1      41.208  26.636  28.422  1.00  0.00     0.031 C 
ATOM     48  C   UNL A   1      47.740  25.443  26.638  1.00  0.00     0.029 A 
ATOM     49  C   UNL A   1      47.419  26.829  26.979  1.00  0.00     0.049 A 
ATOM     50  H   UNL A   1      45.589  27.570  27.638  1.00  0.00     0.167 HD
ATOM     51  C   UNL A   1      41.675  29.021  28.919  1.00  0.00     0.037 A 
ATOM     52  C   UNL A   1      48.275  27.869  26.936  1.00  0.00     0.037 A 
ATOM     53  C   UNL A   1      42.526  30.183  28.960  1.00  0.00     0.049 A 
ATOM     54  C   UNL A   1      47.792  29.247  27.315  1.00  0.00     0.074 A 
ATOM     55  C   UNL A   1      42.212  31.473  29.350  1.00  0.00     0.029 A 
ATOM     56  N   UNL A   1      43.861  30.195  28.581  1.00  0.00    -0.354 N 
ATOM     57  N   UNL A   1      46.605  29.626  27.726  1.00  0.00    -0.248 NA
ATOM     58  C   UNL A   1      48.766  30.343  27.218  1.00  0.00     0.031 C 
ATOM     59  C   UNL A   1      43.340  32.277  29.150  1.00  0.00     0.029 A 
ATOM     60  C   UNL A   1      44.376  31.477  28.693  1.00  0.00     0.049 A 
ATOM     61  H   UNL A   1      44.369  29.408  28.277  1.00  0.00     0.167 HD
ATOM     62  C   UNL A   1      46.694  30.993  27.954  1.00  0.00     0.074 A 
ATOM     63  C   UNL A   1      48.056  31.378  27.649  1.00  0.00     0.031 C 
ATOM     64  C   UNL A   1      45.733  31.851  28.380  1.00  0.00     0.037 A 
BRANCH  51  65
ATOM     65  C   UNL A   1      40.231  29.167  29.303  1.00  0.00     0.064 A 
ATOM     66  C   UNL A   1      39.813  29.141  30.642  1.00  0.00     0.173 A 
ATOM     67  C   UNL A   1      39.248  29.295  28.311  1.00  0.00     0.173 A 
ATOM     68  F   UNL A   1      40.711  29.007  31.629  1.00  0.00    -0.203 F 
ATOM     69  C   UNL A   1      38.459  29.185  30.970  1.00  0.00     0.198 A 
ATOM     70  C   UNL A   1      37.897  29.369  28.644  1.00  0.00     0.198 A 
ATOM     71  F   UNL A   1      39.593  29.333  27.015  1.00  0.00    -0.203 F 
ATOM     72  F   UNL A   1      38.077  29.083  32.251  1.00  0.00    -0.200 F 
ATOM     73  C   UNL A   1      37.503  29.298  29.972  1.00  0.00     0.200 A 
ATOM     74  F   UNL A   1      36.977  29.491  27.677  1.00  0.00    -0.200 F 
ATOM     75  F   UNL A   1      36.201  29.323  30.286  1.00  0.00    -0.200 F 
ENDBRANCH  51  65
BRANCH  52  76
ATOM     76  C   UNL A   1      49.670  27.650  26.473  1.00  0.00     0.064 A 
ATOM     77  C   UNL A   1      49.987  27.588  25.110  1.00  0.00     0.173 A 
ATOM     78  C   UNL A   1      50.719  27.500  27.394  1.00  0.00     0.173 A 
ATOM     79  F   UNL A   1      49.016  27.691  24.190  1.00  0.00    -0.203 F 
ATOM     80  C   UNL A   1      51.298  27.379  24.685  1.00  0.00     0.198 A 
ATOM     81  C   UNL A   1      52.033  27.320  26.968  1.00  0.00     0.198 A 
ATOM     82  F   UNL A   1      50.468  27.540  28.710  1.00  0.00    -0.203 F 
ATOM     83  F   UNL A   1      51.569  27.282  23.376  1.00  0.00    -0.200 F 
ATOM     84  C   UNL A   1      52.321  27.255  25.613  1.00  0.00     0.200 A 
ATOM     85  F   UNL A   1      53.018  27.206  27.869  1.00  0.00    -0.200 F 
ATOM     86  F   UNL A   1      53.581  27.061  25.204  1.00  0.00    -0.200 F 
ENDBRANCH  52  76
BRANCH  64  87
ATOM     87  C   UNL A   1      46.119  33.293  28.561  1.00  0.00     0.064 A 
ATOM     88  C   UNL A   1      46.651  33.768  29.770  1.00  0.00     0.173 A 
ATOM     89  C   UNL A   1      46.007  34.198  27.496  1.00  0.00     0.173 A 
ATOM     90  F   UNL A   1      46.766  32.948  30.826  1.00  0.00    -0.203 F 
ATOM     91  C   UNL A   1      47.040  35.099  29.909  1.00  0.00     0.198 A 
ATOM     92  C   UNL A   1      46.424  35.520  27.628  1.00  0.00     0.198 A 
ATOM     93  F   UNL A   1      45.511  33.796  26.316  1.00  0.00    -0.203 F 
ATOM     94  F   UNL A   1      47.509  35.540  31.084  1.00  0.00    -0.200 F 
ATOM     95  C   UNL A   1      46.935  35.971  28.837  1.00  0.00     0.200 A 
ATOM     96  F   UNL A   1      46.335  36.358  26.586  1.00  0.00    -0.200 F 
ATOM     97  F   UNL A   1      47.320  37.248  28.968  1.00  0.00    -0.200 F 
ENDBRANCH  64  87
ENDBRANCH  38  39
ENDBRANCH  31  33
ENDBRANCH  30  31
ENDBRANCH  29  30
ENDBRANCH  28  29
ENDBRANCH  27  28
ENDBRANCH  26  27
ENDBRANCH   1  26
TORSDOF 21
ENDMDL
MODEL 3
REMARK VINA RESULT:      -9.7      9.768     16.321
REMARK SMILES CO[C@@H]1C[C@@H](C(=O)OCCOCCOCCOC(=O)c2ccc(-c3c4nc(c(-c5c(F)c(F)c(F)c(F)c5F)c5ccc([nH]5)c(-c5c(F)c(F)c(F)c(F)c5F)c5nc(c(-c6c(F)c(F)c(F)c(F)c6F)c6ccc3[nH]6)C=C5)C=C4)cc2)N(S(=O)(=O)/C=C/c2ccccc2)C1
REMARK SMILES IDX 12 1 11 2 10 3 9 4 8 5 6 6 7 7 5 8 3 9 4 10 95 11 83 12 2 13
REMARK SMILES IDX 1 14 84 15 85 16 86 17 87 18 88 19 89 20 90 21 94 22 91 23
REMARK SMILES IDX 93 24 92 25 13 26 14 27 15 28 16 29 17 30 18 31 19 32 20 33
REMARK SMILES IDX 21 34 82 35 22 36 81 37 23 38 24 39 25 40 75 41 26 42 80 43
REMARK SMILES IDX 74 44 76 45 27 46 79 47 73 48 72 49 28 51 60 52 40 53 59 54
REMARK SMILES IDX 41 55 44 56 58 57 77 58 42 59 43 60 57 62 78 63 45 64 29 65
REMARK SMILES IDX 30 66 38 67 31 68 32 69 36 70 39 71 33 72 34 73 37 74 35 75
REMARK SMILES IDX 61 76 62 77 70 78 63 79 64 80 68 81 71 82 65 83 66 84 69 85
REMARK SMILES IDX 67 86 46 87 47 88 55 89 48 90 49 91 53 92 56 93 50 94 51 95
REMARK SMILES IDX 54 96 52 97
REMARK H PARENT 76 50 44 61
REMARK Flexibility Score: inf
ROOT
ATOM      1  C   UNL A   1      44.520  41.778  24.614  1.00  0.00     0.188 C 
ENDROOT
BRANCH   1   2
ATOM      2  O   UNL A   1      43.656  42.424  23.680  1.00  0.00    -0.376 OA
BRANCH   2   3
ATOM      3  C   UNL A   1      44.328  43.121  22.629  1.00  0.00     0.202 C 
BRANCH   3   4
ATOM      4  C   UNL A   1      45.708  42.608  22.161  1.00  0.00     0.261 C 
BRANCH   4   5
ATOM      5  O   UNL A   1      46.510  43.608  21.513  1.00  0.00    -0.462 OA
BRANCH   5   6
ATOM      6  C   UNL A   1      46.646  43.519  20.170  1.00  0.00     0.324 C 
ATOM      7  O   UNL A   1      45.736  43.209  19.409  1.00  0.00    -0.250 OA
BRANCH   6   8
ATOM      8  C   UNL A   1      48.055  43.769  19.687  1.00  0.00     0.185 C 
ATOM      9  C   UNL A   1      50.435  43.953  19.876  1.00  0.00     0.135 C 
ATOM     10  C   UNL A   1      49.203  43.543  20.669  1.00  0.00     0.065 C 
ATOM     11  C   UNL A   1      49.941  44.988  18.848  1.00  0.00     0.135 C 
ATOM     12  N   UNL A   1      48.417  44.997  18.916  1.00  0.00    -0.181 NA
BRANCH   9  13
ATOM     13  O   UNL A   1      51.162  42.857  19.325  1.00  0.00    -0.380 OA
ATOM     14  C   UNL A   1      51.974  43.109  18.192  1.00  0.00     0.195 C 
ENDBRANCH   9  13
BRANCH  12  15
ATOM     15  S   UNL A   1      47.862  46.550  19.363  1.00  0.00     0.237 S 
ATOM     16  O   UNL A   1      47.715  46.481  20.799  1.00  0.00    -0.207 OA
ATOM     17  O   UNL A   1      48.844  47.475  18.814  1.00  0.00    -0.207 OA
BRANCH  15  18
ATOM     18  C   UNL A   1      46.326  46.968  18.717  1.00  0.00     0.123 C 
ATOM     19  C   UNL A   1      45.775  46.360  17.660  1.00  0.00     0.021 C 
BRANCH  19  20
ATOM     20  C   UNL A   1      44.445  46.784  17.199  1.00  0.00    -0.025 A 
ATOM     21  C   UNL A   1      43.362  45.901  17.295  1.00  0.00     0.008 A 
ATOM     22  C   UNL A   1      44.220  48.076  16.712  1.00  0.00     0.008 A 
ATOM     23  C   UNL A   1      42.071  46.313  16.955  1.00  0.00     0.001 A 
ATOM     24  C   UNL A   1      42.931  48.483  16.352  1.00  0.00     0.001 A 
ATOM     25  C   UNL A   1      41.855  47.606  16.485  1.00  0.00     0.000 A 
ENDBRANCH  19  20
ENDBRANCH  15  18
ENDBRANCH  12  15
ENDBRANCH   6   8
ENDBRANCH   5   6
ENDBRANCH   4   5
ENDBRANCH   3   4
ENDBRANCH   2   3
ENDBRANCH   1   2
BRANCH   1  26
ATOM     26  C   UNL A   1      43.886  41.555  25.980  1.00  0.00     0.188 C 
BRANCH  26  27
ATOM     27  O   UNL A   1      43.655  40.181  26.271  1.00  0.00    -0.376 OA
BRANCH  27  28
ATOM     28  C   UNL A   1      43.015  39.932  27.518  1.00  0.00     0.202 C 
BRANCH  28  29
ATOM     29  C   UNL A   1      43.583  38.740  28.292  1.00  0.00     0.261 C 
BRANCH  29  30
ATOM     30  O   UNL A   1      44.720  38.115  27.660  1.00  0.00    -0.460 OA
BRANCH  30  31
ATOM     31  C   UNL A   1      45.563  37.469  28.493  1.00  0.00     0.338 C 
ATOM     32  O   UNL A   1      46.322  37.967  29.329  1.00  0.00    -0.246 OA
BRANCH  31  33
ATOM     33  C   UNL A   1      45.456  36.014  28.320  1.00  0.00     0.060 A 
ATOM     34  C   UNL A   1      44.769  35.508  27.210  1.00  0.00     0.016 A 
ATOM     35  C   UNL A   1      45.891  35.152  29.330  1.00  0.00     0.016 A 
ATOM     36  C   UNL A   1      44.508  34.140  27.108  1.00  0.00     0.010 A 
ATOM     37  C   UNL A   1      45.605  33.785  29.240  1.00  0.00     0.010 A 
ATOM     38  C   UNL A   1      44.890  33.274  28.142  1.00  0.00    -0.014 A 
BRANCH  38  39
ATOM     39  C   UNL A   1      44.407  31.870  28.154  1.00  0.00     0.031 A 
ATOM     40  C   UNL A   1      45.192  30.821  27.421  1.00  0.00     0.074 A 
ATOM     41  C   UNL A   1      43.292  31.523  28.819  1.00  0.00     0.049 A 
ATOM     42  N   UNL A   1      44.912  29.557  27.216  1.00  0.00    -0.248 NA
ATOM     43  C   UNL A   1      46.473  31.255  26.847  1.00  0.00     0.031 C 
ATOM     44  C   UNL A   1      42.490  32.420  29.643  1.00  0.00     0.029 A 
ATOM     45  N   UNL A   1      42.639  30.316  28.893  1.00  0.00    -0.354 N 
ATOM     46  C   UNL A   1      45.979  29.048  26.488  1.00  0.00     0.074 A 
ATOM     47  C   UNL A   1      46.903  30.143  26.272  1.00  0.00     0.031 C 
ATOM     48  C   UNL A   1      41.434  31.741  30.122  1.00  0.00     0.029 A 
ATOM     49  C   UNL A   1      41.468  30.373  29.606  1.00  0.00     0.049 A 
ATOM     50  H   UNL A   1      42.979  29.491  28.477  1.00  0.00     0.167 HD
ATOM     51  C   UNL A   1      46.170  27.786  26.033  1.00  0.00     0.037 A 
ATOM     52  C   UNL A   1      40.515  29.437  29.791  1.00  0.00     0.037 A 
ATOM     53  C   UNL A   1      45.238  26.703  26.224  1.00  0.00     0.049 A 
ATOM     54  C   UNL A   1      40.692  28.065  29.189  1.00  0.00     0.074 A 
ATOM     55  C   UNL A   1      45.325  25.396  25.777  1.00  0.00     0.029 A 
ATOM     56  N   UNL A   1      44.035  26.811  26.908  1.00  0.00    -0.354 N 
ATOM     57  N   UNL A   1      41.693  27.591  28.484  1.00  0.00    -0.248 NA
ATOM     58  C   UNL A   1      39.604  27.100  29.402  1.00  0.00     0.031 C 
ATOM     59  C   UNL A   1      44.149  24.730  26.140  1.00  0.00     0.029 A 
ATOM     60  C   UNL A   1      43.354  25.604  26.865  1.00  0.00     0.049 A 
ATOM     61  H   UNL A   1      43.713  27.625  27.358  1.00  0.00     0.167 HD
ATOM     62  C   UNL A   1      41.365  26.274  28.188  1.00  0.00     0.074 A 
ATOM     63  C   UNL A   1      40.079  26.017  28.801  1.00  0.00     0.031 C 
ATOM     64  C   UNL A   1      42.070  25.360  27.474  1.00  0.00     0.037 A 
BRANCH  51  65
ATOM     65  C   UNL A   1      47.407  27.540  25.219  1.00  0.00     0.064 A 
ATOM     66  C   UNL A   1      47.441  27.759  23.834  1.00  0.00     0.173 A 
ATOM     67  C   UNL A   1      48.565  27.039  25.832  1.00  0.00     0.173 A 
ATOM     68  F   UNL A   1      46.356  28.225  23.196  1.00  0.00    -0.203 F 
ATOM     69  C   UNL A   1      48.570  27.435  23.085  1.00  0.00     0.198 A 
ATOM     70  C   UNL A   1      49.703  26.746  25.085  1.00  0.00     0.198 A 
ATOM     71  F   UNL A   1      48.590  26.819  27.155  1.00  0.00    -0.203 F 
ATOM     72  F   UNL A   1      48.555  27.583  21.752  1.00  0.00    -0.200 F 
ATOM     73  C   UNL A   1      49.699  26.929  23.710  1.00  0.00     0.200 A 
ATOM     74  F   UNL A   1      50.797  26.267  25.694  1.00  0.00    -0.200 F 
ATOM     75  F   UNL A   1      50.780  26.602  22.988  1.00  0.00    -0.200 F 
ENDBRANCH  51  65
BRANCH  52  76
ATOM     76  C   UNL A   1      39.285  29.785  30.549  1.00  0.00     0.064 A 
ATOM     77  C   UNL A   1      39.195  29.576  31.931  1.00  0.00     0.173 A 
ATOM     78  C   UNL A   1      38.171  30.338  29.898  1.00  0.00     0.173 A 
ATOM     79  F   UNL A   1      40.219  29.019  32.594  1.00  0.00    -0.203 F 
ATOM     80  C   UNL A   1      38.036  29.903  32.633  1.00  0.00     0.198 A 
ATOM     81  C   UNL A   1      37.023  30.690  30.606  1.00  0.00     0.198 A 
ATOM     82  F   UNL A   1      38.201  30.546  28.574  1.00  0.00    -0.203 F 
ATOM     83  F   UNL A   1      37.959  29.656  33.948  1.00  0.00    -0.200 F 
ATOM     84  C   UNL A   1      36.955  30.468  31.972  1.00  0.00     0.200 A 
ATOM     85  F   UNL A   1      35.985  31.240  29.963  1.00  0.00    -0.200 F 
ATOM     86  F   UNL A   1      35.845  30.787  32.649  1.00  0.00    -0.200 F 
ENDBRANCH  52  76
BRANCH  64  87
ATOM     87  C   UNL A   1      41.477  23.987  27.327  1.00  0.00     0.064 A 
ATOM     88  C   UNL A   1      40.314  23.761  26.574  1.00  0.00     0.173 A 
ATOM     89  C   UNL A   1      42.111  22.873  27.899  1.00  0.00     0.173 A 
ATOM     90  F   UNL A   1      39.660  24.792  26.018  1.00  0.00    -0.203 F 
ATOM     91  C   UNL A   1      39.800  22.476  26.416  1.00  0.00     0.198 A 
ATOM     92  C   UNL A   1      41.612  21.587  27.714  1.00  0.00     0.198 A 
ATOM     93  F   UNL A   1      43.230  23.031  28.623  1.00  0.00    -0.203 F 
ATOM     94  F   UNL A   1      38.666  22.289  25.726  1.00  0.00    -0.200 F 
ATOM     95  C   UNL A   1      40.453  21.389  26.978  1.00  0.00     0.200 A 
ATOM     96  F   UNL A   1      42.252  20.537  28.246  1.00  0.00    -0.200 F 
ATOM     97  F   UNL A   1      39.964  20.153  26.815  1.00  0.00    -0.200 F 
ENDBRANCH  64  87
ENDBRANCH  38  39
ENDBRANCH  31  33
ENDBRANCH  30  31
ENDBRANCH  29  30
ENDBRANCH  28  29
ENDBRANCH  27  28
ENDBRANCH  26  27
ENDBRANCH   1  26
TORSDOF 21
ENDMDL
