MODEL 1
REMARK VINA RESULT:     -12.4      0.000      0.000
REMARK SMILES CC1=C(C)C[C@@H](C(=O)OCCOCCOCCOC(=O)c2ccc(-c3c4nc(c(-c5c(F)c(F)c(F)c(F)c5F)c5ccc([nH]5)c(-c5c(F)c(F)c(F)c(F)c5F)c5nc(c(-c6c(F)c(F)c(F)c(F)c6F)c6ccc3[nH]6)C=C5)C=C4)cc2)[C@@H](C(=O)N2CCN(c3cccc(C(F)(F)F)c3)CC2)C1
REMARK SMILES IDX 13 1 12 2 11 3 10 4 9 5 7 6 8 7 6 8 1 9 2 10 3 11 103 12
REMARK SMILES IDX 4 13 5 14 84 15 85 16 86 17 87 18 88 19 102 20 89 21 101 22
REMARK SMILES IDX 90 23 91 24 92 25 100 26 93 27 95 28 94 29 96 30 97 31 98 32
REMARK SMILES IDX 99 33 14 34 15 35 16 36 17 37 18 38 19 39 20 40 21 41 22 42
REMARK SMILES IDX 83 43 23 44 82 45 24 46 25 47 26 48 76 49 27 50 81 51 75 52
REMARK SMILES IDX 77 53 28 54 80 55 74 56 73 57 29 59 61 60 41 61 60 62 42 63
REMARK SMILES IDX 45 64 59 65 78 66 43 67 44 68 58 70 79 71 46 72 30 73 31 74
REMARK SMILES IDX 39 75 32 76 33 77 37 78 40 79 34 80 35 81 38 82 36 83 62 84
REMARK SMILES IDX 63 85 71 86 64 87 65 88 69 89 72 90 66 91 67 92 70 93 68 94
REMARK SMILES IDX 47 95 48 96 56 97 49 98 50 99 54 100 57 101 51 102 52 103
REMARK SMILES IDX 55 104 53 105
REMARK H PARENT 77 58 45 69
REMARK Flexibility Score: inf
ROOT
ATOM      1  C   UNL A   1      35.116  31.648  28.181  1.00  0.00     0.188 C 
ENDROOT
BRANCH   1   2
ATOM      2  O   UNL A   1      34.244  30.922  27.314  1.00  0.00    -0.376 OA
BRANCH   2   3
ATOM      3  C   UNL A   1      34.414  29.519  27.186  1.00  0.00     0.202 C 
BRANCH   3   4
ATOM      4  C   UNL A   1      33.354  28.819  26.319  1.00  0.00     0.261 C 
BRANCH   4   5
ATOM      5  O   UNL A   1      33.155  29.330  24.978  1.00  0.00    -0.463 OA
BRANCH   5   6
ATOM      6  C   UNL A   1      31.882  29.654  24.668  1.00  0.00     0.310 C 
ATOM      7  O   UNL A   1      31.167  30.367  25.374  1.00  0.00    -0.252 OA
BRANCH   6   8
ATOM      8  C   UNL A   1      31.258  28.947  23.473  1.00  0.00     0.116 C 
ATOM      9  C   UNL A   1      26.903  28.433  23.504  1.00  0.00     0.039 C 
ATOM     10  C   UNL A   1      28.356  28.702  23.222  1.00  0.00    -0.074 C 
ATOM     11  C   UNL A   1      28.932  29.915  23.113  1.00  0.00    -0.073 C 
ATOM     12  C   UNL A   1      29.177  27.457  22.982  1.00  0.00     0.045 C 
ATOM     13  C   UNL A   1      28.239  31.242  23.246  1.00  0.00     0.039 C 
ATOM     14  C   UNL A   1      30.394  30.000  22.760  1.00  0.00     0.046 C 
ATOM     15  C   UNL A   1      30.663  27.520  23.421  1.00  0.00     0.097 C 
BRANCH  15  16
ATOM     16  C   UNL A   1      30.777  26.566  24.612  1.00  0.00     0.227 C 
ATOM     17  O   UNL A   1      30.280  26.869  25.697  1.00  0.00    -0.275 OA
ATOM     18  N   UNL A   1      31.266  25.265  24.379  1.00  0.00    -0.339 N 
ATOM     19  C   UNL A   1      31.067  24.295  25.471  1.00  0.00     0.141 C 
ATOM     20  C   UNL A   1      32.370  24.963  23.446  1.00  0.00     0.141 C 
ATOM     21  C   UNL A   1      31.255  22.824  25.064  1.00  0.00     0.138 C 
ATOM     22  C   UNL A   1      32.718  23.471  23.197  1.00  0.00     0.138 C 
ATOM     23  N   UNL A   1      32.556  22.672  24.409  1.00  0.00    -0.368 N 
BRANCH  23  24
ATOM     24  C   UNL A   1      33.284  21.509  24.593  1.00  0.00     0.037 A 
ATOM     25  C   UNL A   1      34.632  21.513  24.968  1.00  0.00     0.026 A 
ATOM     26  C   UNL A   1      32.702  20.268  24.296  1.00  0.00     0.039 A 
ATOM     27  C   UNL A   1      35.383  20.333  25.003  1.00  0.00     0.003 A 
ATOM     28  C   UNL A   1      33.455  19.080  24.256  1.00  0.00     0.058 A 
ATOM     29  C   UNL A   1      34.804  19.124  24.629  1.00  0.00     0.013 A 
BRANCH  28  30
ATOM     30  C   UNL A   1      32.863  17.781  23.771  1.00  0.00     0.416 C 
ATOM     31  F   UNL A   1      32.200  17.913  22.587  1.00  0.00    -0.166 F 
ATOM     32  F   UNL A   1      33.816  16.829  23.554  1.00  0.00    -0.166 F 
ATOM     33  F   UNL A   1      31.977  17.209  24.630  1.00  0.00    -0.166 F 
ENDBRANCH  28  30
ENDBRANCH  23  24
ENDBRANCH  15  16
ENDBRANCH   6   8
ENDBRANCH   5   6
ENDBRANCH   4   5
ENDBRANCH   3   4
ENDBRANCH   2   3
ENDBRANCH   1   2
BRANCH   1  34
ATOM     34  C   UNL A   1      35.208  33.173  28.053  1.00  0.00     0.188 C 
BRANCH  34  35
ATOM     35  O   UNL A   1      34.464  33.847  29.064  1.00  0.00    -0.376 OA
BRANCH  35  36
ATOM     36  C   UNL A   1      34.170  35.207  28.762  1.00  0.00     0.202 C 
BRANCH  36  37
ATOM     37  C   UNL A   1      32.860  35.632  29.423  1.00  0.00     0.261 C 
BRANCH  37  38
ATOM     38  O   UNL A   1      33.082  36.511  30.546  1.00  0.00    -0.460 OA
BRANCH  38  39
ATOM     39  C   UNL A   1      32.647  36.030  31.725  1.00  0.00     0.338 C 
ATOM     40  O   UNL A   1      31.530  36.165  32.200  1.00  0.00    -0.246 OA
BRANCH  39  41
ATOM     41  C   UNL A   1      33.721  35.262  32.377  1.00  0.00     0.060 A 
ATOM     42  C   UNL A   1      35.027  35.755  32.411  1.00  0.00     0.016 A 
ATOM     43  C   UNL A   1      33.451  33.976  32.838  1.00  0.00     0.016 A 
ATOM     44  C   UNL A   1      36.079  34.942  32.833  1.00  0.00     0.010 A 
ATOM     45  C   UNL A   1      34.495  33.182  33.313  1.00  0.00     0.010 A 
ATOM     46  C   UNL A   1      35.823  33.647  33.295  1.00  0.00    -0.014 A 
BRANCH  46  47
ATOM     47  C   UNL A   1      36.913  32.752  33.759  1.00  0.00     0.031 A 
ATOM     48  C   UNL A   1      37.560  32.994  35.091  1.00  0.00     0.074 A 
ATOM     49  C   UNL A   1      37.370  31.768  32.963  1.00  0.00     0.049 A 
ATOM     50  N   UNL A   1      38.706  32.559  35.549  1.00  0.00    -0.248 NA
ATOM     51  C   UNL A   1      36.817  33.846  36.032  1.00  0.00     0.031 C 
ATOM     52  C   UNL A   1      36.792  31.375  31.679  1.00  0.00     0.029 A 
ATOM     53  N   UNL A   1      38.459  30.943  33.107  1.00  0.00    -0.354 N 
ATOM     54  C   UNL A   1      38.852  33.131  36.805  1.00  0.00     0.074 A 
ATOM     55  C   UNL A   1      37.665  33.926  37.049  1.00  0.00     0.031 C 
ATOM     56  C   UNL A   1      37.541  30.402  31.140  1.00  0.00     0.029 A 
ATOM     57  C   UNL A   1      38.697  30.167  31.998  1.00  0.00     0.049 A 
ATOM     58  H   UNL A   1      39.012  30.909  33.921  1.00  0.00     0.167 HD
ATOM     59  C   UNL A   1      39.894  33.015  37.662  1.00  0.00     0.037 A 
ATOM     60  C   UNL A   1      39.764  29.413  31.670  1.00  0.00     0.037 A 
ATOM     61  C   UNL A   1      41.055  32.197  37.423  1.00  0.00     0.049 A 
ATOM     62  C   UNL A   1      40.937  29.346  32.606  1.00  0.00     0.074 A 
ATOM     63  C   UNL A   1      42.157  31.999  38.236  1.00  0.00     0.029 A 
ATOM     64  N   UNL A   1      41.260  31.438  36.280  1.00  0.00    -0.354 N 
ATOM     65  N   UNL A   1      41.104  29.935  33.765  1.00  0.00    -0.248 NA
ATOM     66  C   UNL A   1      42.080  28.527  32.177  1.00  0.00     0.031 C 
ATOM     67  C   UNL A   1      43.045  31.147  37.570  1.00  0.00     0.029 A 
ATOM     68  C   UNL A   1      42.479  30.783  36.359  1.00  0.00     0.049 A 
ATOM     69  H   UNL A   1      40.632  31.373  35.524  1.00  0.00     0.167 HD
ATOM     70  C   UNL A   1      42.364  29.555  34.207  1.00  0.00     0.074 A 
ATOM     71  C   UNL A   1      42.912  28.671  33.199  1.00  0.00     0.031 C 
ATOM     72  C   UNL A   1      43.010  29.911  35.344  1.00  0.00     0.037 A 
BRANCH  59  73
ATOM     73  C   UNL A   1      39.853  33.833  38.918  1.00  0.00     0.064 A 
ATOM     74  C   UNL A   1      39.288  33.347  40.105  1.00  0.00     0.173 A 
ATOM     75  C   UNL A   1      40.422  35.117  38.937  1.00  0.00     0.173 A 
ATOM     76  F   UNL A   1      38.720  32.133  40.133  1.00  0.00    -0.203 F 
ATOM     77  C   UNL A   1      39.278  34.124  41.261  1.00  0.00     0.198 A 
ATOM     78  C   UNL A   1      40.430  35.881  40.100  1.00  0.00     0.198 A 
ATOM     79  F   UNL A   1      40.978  35.626  37.827  1.00  0.00    -0.203 F 
ATOM     80  F   UNL A   1      38.701  33.655  42.376  1.00  0.00    -0.200 F 
ATOM     81  C   UNL A   1      39.854  35.386  41.259  1.00  0.00     0.200 A 
ATOM     82  F   UNL A   1      40.995  37.096  40.098  1.00  0.00    -0.200 F 
ATOM     83  F   UNL A   1      39.848  36.129  42.375  1.00  0.00    -0.200 F 
ENDBRANCH  59  73
BRANCH  60  84
ATOM     84  C   UNL A   1      39.794  28.726  30.355  1.00  0.00     0.064 A 
ATOM     85  C   UNL A   1      40.346  29.348  29.228  1.00  0.00     0.173 A 
ATOM     86  C   UNL A   1      39.291  27.424  30.204  1.00  0.00     0.173 A 
ATOM     87  F   UNL A   1      40.812  30.603  29.319  1.00  0.00    -0.203 F 
ATOM     88  C   UNL A   1      40.392  28.695  27.998  1.00  0.00     0.198 A 
ATOM     89  C   UNL A   1      39.363  26.762  28.982  1.00  0.00     0.198 A 
ATOM     90  F   UNL A   1      38.751  26.788  31.254  1.00  0.00    -0.203 F 
ATOM     91  F   UNL A   1      40.896  29.324  26.927  1.00  0.00    -0.200 F 
ATOM     92  C   UNL A   1      39.909  27.400  27.878  1.00  0.00     0.200 A 
ATOM     93  F   UNL A   1      38.906  25.507  28.874  1.00  0.00    -0.200 F 
ATOM     94  F   UNL A   1      39.965  26.768  26.698  1.00  0.00    -0.200 F 
ENDBRANCH  60  84
BRANCH  72  95
ATOM     95  C   UNL A   1      44.370  29.324  35.568  1.00  0.00     0.064 A 
ATOM     96  C   UNL A   1      44.537  28.092  36.217  1.00  0.00     0.173 A 
ATOM     97  C   UNL A   1      45.516  29.985  35.103  1.00  0.00     0.173 A 
ATOM     98  F   UNL A   1      43.471  27.432  36.697  1.00  0.00    -0.203 F 
ATOM     99  C   UNL A   1      45.806  27.552  36.408  1.00  0.00     0.198 A 
ATOM    100  C   UNL A   1      46.781  29.431  35.275  1.00  0.00     0.198 A 
ATOM    101  F   UNL A   1      45.407  31.165  34.474  1.00  0.00    -0.203 F 
ATOM    102  F   UNL A   1      45.947  26.392  37.064  1.00  0.00    -0.200 F 
ATOM    103  C   UNL A   1      46.926  28.218  35.931  1.00  0.00     0.200 A 
ATOM    104  F   UNL A   1      47.861  30.073  34.808  1.00  0.00    -0.200 F 
ATOM    105  F   UNL A   1      48.146  27.695  36.113  1.00  0.00    -0.200 F 
ENDBRANCH  72  95
ENDBRANCH  46  47
ENDBRANCH  39  41
ENDBRANCH  38  39
ENDBRANCH  37  38
ENDBRANCH  36  37
ENDBRANCH  35  36
ENDBRANCH  34  35
ENDBRANCH   1  34
TORSDOF 20
ENDMDL
MODEL 2
REMARK VINA RESULT:     -11.9      7.080     12.728
REMARK SMILES CC1=C(C)C[C@@H](C(=O)OCCOCCOCCOC(=O)c2ccc(-c3c4nc(c(-c5c(F)c(F)c(F)c(F)c5F)c5ccc([nH]5)c(-c5c(F)c(F)c(F)c(F)c5F)c5nc(c(-c6c(F)c(F)c(F)c(F)c6F)c6ccc3[nH]6)C=C5)C=C4)cc2)[C@@H](C(=O)N2CCN(c3cccc(C(F)(F)F)c3)CC2)C1
REMARK SMILES IDX 13 1 12 2 11 3 10 4 9 5 7 6 8 7 6 8 1 9 2 10 3 11 103 12
REMARK SMILES IDX 4 13 5 14 84 15 85 16 86 17 87 18 88 19 102 20 89 21 101 22
REMARK SMILES IDX 90 23 91 24 92 25 100 26 93 27 95 28 94 29 96 30 97 31 98 32
REMARK SMILES IDX 99 33 14 34 15 35 16 36 17 37 18 38 19 39 20 40 21 41 22 42
REMARK SMILES IDX 83 43 23 44 82 45 24 46 25 47 26 48 76 49 27 50 81 51 75 52
REMARK SMILES IDX 77 53 28 54 80 55 74 56 73 57 29 59 61 60 41 61 60 62 42 63
REMARK SMILES IDX 45 64 59 65 78 66 43 67 44 68 58 70 79 71 46 72 30 73 31 74
REMARK SMILES IDX 39 75 32 76 33 77 37 78 40 79 34 80 35 81 38 82 36 83 62 84
REMARK SMILES IDX 63 85 71 86 64 87 65 88 69 89 72 90 66 91 67 92 70 93 68 94
REMARK SMILES IDX 47 95 48 96 56 97 49 98 50 99 54 100 57 101 51 102 52 103
REMARK SMILES IDX 55 104 53 105
REMARK H PARENT 77 58 45 69
REMARK Flexibility Score: inf
ROOT
ATOM      1  C   UNL A   1      39.703  21.560  26.652  1.00  0.00     0.188 C 
ENDROOT
BRANCH   1   2
ATOM      2  O   UNL A   1      38.602  21.889  25.804  1.00  0.00    -0.376 OA
BRANCH   2   3
ATOM      3  C   UNL A   1      38.142  20.924  24.870  1.00  0.00     0.202 C 
BRANCH   3   4
ATOM      4  C   UNL A   1      36.751  20.344  25.177  1.00  0.00     0.261 C 
BRANCH   4   5
ATOM      5  O   UNL A   1      35.603  21.140  24.787  1.00  0.00    -0.463 OA
BRANCH   5   6
ATOM      6  C   UNL A   1      34.708  21.377  25.768  1.00  0.00     0.310 C 
ATOM      7  O   UNL A   1      35.015  21.773  26.893  1.00  0.00    -0.252 OA
BRANCH   6   8
ATOM      8  C   UNL A   1      33.268  20.956  25.507  1.00  0.00     0.116 C 
ATOM      9  C   UNL A   1      32.519  18.477  21.968  1.00  0.00     0.039 C 
ATOM     10  C   UNL A   1      32.610  19.133  23.318  1.00  0.00    -0.074 C 
ATOM     11  C   UNL A   1      33.308  18.676  24.376  1.00  0.00    -0.073 C 
ATOM     12  C   UNL A   1      31.766  20.377  23.458  1.00  0.00     0.045 C 
ATOM     13  C   UNL A   1      34.131  17.419  24.422  1.00  0.00     0.039 C 
ATOM     14  C   UNL A   1      33.236  19.428  25.680  1.00  0.00     0.046 C 
ATOM     15  C   UNL A   1      32.312  21.474  24.407  1.00  0.00     0.097 C 
BRANCH  15  16
ATOM     16  C   UNL A   1      32.705  22.642  23.498  1.00  0.00     0.227 C 
ATOM     17  O   UNL A   1      33.514  22.471  22.586  1.00  0.00    -0.275 OA
ATOM     18  N   UNL A   1      31.966  23.839  23.595  1.00  0.00    -0.339 N 
ATOM     19  C   UNL A   1      32.165  24.811  22.505  1.00  0.00     0.141 C 
ATOM     20  C   UNL A   1      31.483  24.399  24.873  1.00  0.00     0.141 C 
ATOM     21  C   UNL A   1      31.095  25.913  22.425  1.00  0.00     0.138 C 
ATOM     22  C   UNL A   1      30.576  25.657  24.814  1.00  0.00     0.138 C 
ATOM     23  N   UNL A   1      30.974  26.557  23.735  1.00  0.00    -0.368 N 
BRANCH  23  24
ATOM     24  C   UNL A   1      30.709  27.912  23.810  1.00  0.00     0.037 A 
ATOM     25  C   UNL A   1      31.461  28.787  24.602  1.00  0.00     0.026 A 
ATOM     26  C   UNL A   1      29.584  28.440  23.160  1.00  0.00     0.039 A 
ATOM     27  C   UNL A   1      31.084  30.123  24.775  1.00  0.00     0.003 A 
ATOM     28  C   UNL A   1      29.145  29.760  23.377  1.00  0.00     0.058 A 
ATOM     29  C   UNL A   1      29.919  30.603  24.183  1.00  0.00     0.013 A 
BRANCH  28  30
ATOM     30  C   UNL A   1      27.843  30.266  22.812  1.00  0.00     0.416 C 
ATOM     31  F   UNL A   1      27.959  30.696  21.522  1.00  0.00    -0.166 F 
ATOM     32  F   UNL A   1      26.880  29.299  22.791  1.00  0.00    -0.166 F 
ATOM     33  F   UNL A   1      27.293  31.302  23.500  1.00  0.00    -0.166 F 
ENDBRANCH  28  30
ENDBRANCH  23  24
ENDBRANCH  15  16
ENDBRANCH   6   8
ENDBRANCH   5   6
ENDBRANCH   4   5
ENDBRANCH   3   4
ENDBRANCH   2   3
ENDBRANCH   1   2
BRANCH   1  34
ATOM     34  C   UNL A   1      41.133  21.687  26.114  1.00  0.00     0.188 C 
BRANCH  34  35
ATOM     35  O   UNL A   1      42.091  21.076  26.974  1.00  0.00    -0.376 OA
BRANCH  35  36
ATOM     36  C   UNL A   1      42.007  19.656  27.025  1.00  0.00     0.202 C 
BRANCH  36  37
ATOM     37  C   UNL A   1      42.504  19.042  25.717  1.00  0.00     0.261 C 
BRANCH  37  38
ATOM     38  O   UNL A   1      43.942  18.912  25.693  1.00  0.00    -0.460 OA
BRANCH  38  39
ATOM     39  C   UNL A   1      44.529  19.422  24.595  1.00  0.00     0.338 C 
ATOM     40  O   UNL A   1      44.738  18.838  23.543  1.00  0.00    -0.246 OA
BRANCH  39  41
ATOM     41  C   UNL A   1      44.871  20.836  24.822  1.00  0.00     0.060 A 
ATOM     42  C   UNL A   1      45.375  21.256  26.056  1.00  0.00     0.016 A 
ATOM     43  C   UNL A   1      44.557  21.775  23.844  1.00  0.00     0.016 A 
ATOM     44  C   UNL A   1      45.496  22.615  26.345  1.00  0.00     0.010 A 
ATOM     45  C   UNL A   1      44.731  23.133  24.112  1.00  0.00     0.010 A 
ATOM     46  C   UNL A   1      45.181  23.569  25.372  1.00  0.00    -0.014 A 
BRANCH  46  47
ATOM     47  C   UNL A   1      45.301  25.025  25.636  1.00  0.00     0.031 A 
ATOM     48  C   UNL A   1      46.636  25.699  25.501  1.00  0.00     0.074 A 
ATOM     49  C   UNL A   1      44.237  25.730  26.062  1.00  0.00     0.049 A 
ATOM     50  N   UNL A   1      47.036  26.851  25.975  1.00  0.00    -0.248 NA
ATOM     51  C   UNL A   1      47.658  24.973  24.731  1.00  0.00     0.031 C 
ATOM     52  C   UNL A   1      42.871  25.223  26.171  1.00  0.00     0.029 A 
ATOM     53  N   UNL A   1      44.154  27.022  26.523  1.00  0.00    -0.354 N 
ATOM     54  C   UNL A   1      48.372  26.963  25.616  1.00  0.00     0.074 A 
ATOM     55  C   UNL A   1      48.709  25.773  24.861  1.00  0.00     0.031 C 
ATOM     56  C   UNL A   1      42.087  26.182  26.686  1.00  0.00     0.029 A 
ATOM     57  C   UNL A   1      42.914  27.335  27.024  1.00  0.00     0.049 A 
ATOM     58  H   UNL A   1      44.905  27.658  26.496  1.00  0.00     0.167 HD
ATOM     59  C   UNL A   1      49.238  27.962  25.910  1.00  0.00     0.037 A 
ATOM     60  C   UNL A   1      42.505  28.396  27.746  1.00  0.00     0.037 A 
ATOM     61  C   UNL A   1      48.884  29.156  26.634  1.00  0.00     0.049 A 
ATOM     62  C   UNL A   1      43.494  29.464  28.117  1.00  0.00     0.074 A 
ATOM     63  C   UNL A   1      49.684  30.235  26.968  1.00  0.00     0.029 A 
ATOM     64  N   UNL A   1      47.619  29.427  27.134  1.00  0.00    -0.354 N 
ATOM     65  N   UNL A   1      44.771  29.542  27.831  1.00  0.00    -0.248 NA
ATOM     66  C   UNL A   1      42.990  30.581  28.928  1.00  0.00     0.031 C 
ATOM     67  C   UNL A   1      48.911  31.142  27.701  1.00  0.00     0.029 A 
ATOM     68  C   UNL A   1      47.620  30.647  27.790  1.00  0.00     0.049 A 
ATOM     69  H   UNL A   1      46.835  28.838  27.038  1.00  0.00     0.167 HD
ATOM     70  C   UNL A   1      45.222  30.715  28.420  1.00  0.00     0.074 A 
ATOM     71  C   UNL A   1      44.077  31.326  29.066  1.00  0.00     0.031 C 
ATOM     72  C   UNL A   1      46.473  31.237  28.430  1.00  0.00     0.037 A 
BRANCH  59  73
ATOM     73  C   UNL A   1      50.667  27.785  25.495  1.00  0.00     0.064 A 
ATOM     74  C   UNL A   1      51.102  28.047  24.189  1.00  0.00     0.173 A 
ATOM     75  C   UNL A   1      51.625  27.376  26.438  1.00  0.00     0.173 A 
ATOM     76  F   UNL A   1      50.223  28.426  23.250  1.00  0.00    -0.203 F 
ATOM     77  C   UNL A   1      52.440  27.889  23.836  1.00  0.00     0.198 A 
ATOM     78  C   UNL A   1      52.965  27.241  26.088  1.00  0.00     0.198 A 
ATOM     79  F   UNL A   1      51.260  27.117  27.703  1.00  0.00    -0.203 F 
ATOM     80  F   UNL A   1      52.829  28.110  22.572  1.00  0.00    -0.200 F 
ATOM     81  C   UNL A   1      53.370  27.492  24.786  1.00  0.00     0.200 A 
ATOM     82  F   UNL A   1      53.863  26.867  27.009  1.00  0.00    -0.200 F 
ATOM     83  F   UNL A   1      54.658  27.347  24.444  1.00  0.00    -0.200 F 
ENDBRANCH  59  73
BRANCH  60  84
ATOM     84  C   UNL A   1      41.103  28.450  28.232  1.00  0.00     0.064 A 
ATOM     85  C   UNL A   1      40.756  27.952  29.494  1.00  0.00     0.173 A 
ATOM     86  C   UNL A   1      40.086  29.022  27.451  1.00  0.00     0.173 A 
ATOM     87  F   UNL A   1      41.689  27.371  30.263  1.00  0.00    -0.203 F 
ATOM     88  C   UNL A   1      39.444  28.021  29.956  1.00  0.00     0.198 A 
ATOM     89  C   UNL A   1      38.781  29.116  27.925  1.00  0.00     0.198 A 
ATOM     90  F   UNL A   1      40.369  29.511  26.234  1.00  0.00    -0.203 F 
ATOM     91  F   UNL A   1      39.131  27.508  31.154  1.00  0.00    -0.200 F 
ATOM     92  C   UNL A   1      38.459  28.611  29.176  1.00  0.00     0.200 A 
ATOM     93  F   UNL A   1      37.836  29.697  27.173  1.00  0.00    -0.200 F 
ATOM     94  F   UNL A   1      37.200  28.688  29.628  1.00  0.00    -0.200 F 
ENDBRANCH  60  84
BRANCH  72  95
ATOM     95  C   UNL A   1      46.662  32.543  29.140  1.00  0.00     0.064 A 
ATOM     96  C   UNL A   1      46.475  33.766  28.481  1.00  0.00     0.173 A 
ATOM     97  C   UNL A   1      47.004  32.570  30.500  1.00  0.00     0.173 A 
ATOM     98  F   UNL A   1      46.166  33.790  27.175  1.00  0.00    -0.203 F 
ATOM     99  C   UNL A   1      46.642  34.973  29.155  1.00  0.00     0.198 A 
ATOM    100  C   UNL A   1      47.148  33.778  31.176  1.00  0.00     0.198 A 
ATOM    101  F   UNL A   1      47.191  31.426  31.173  1.00  0.00    -0.203 F 
ATOM    102  F   UNL A   1      46.497  36.132  28.499  1.00  0.00    -0.200 F 
ATOM    103  C   UNL A   1      46.972  34.978  30.503  1.00  0.00     0.200 A 
ATOM    104  F   UNL A   1      47.460  33.781  32.480  1.00  0.00    -0.200 F 
ATOM    105  F   UNL A   1      47.130  36.140  31.152  1.00  0.00    -0.200 F 
ENDBRANCH  72  95
ENDBRANCH  46  47
ENDBRANCH  39  41
ENDBRANCH  38  39
ENDBRANCH  37  38
ENDBRANCH  36  37
ENDBRANCH  35  36
ENDBRANCH  34  35
ENDBRANCH   1  34
TORSDOF 20
ENDMDL
MODEL 3
REMARK VINA RESULT:     -11.9      3.108      8.919
REMARK SMILES CC1=C(C)C[C@@H](C(=O)OCCOCCOCCOC(=O)c2ccc(-c3c4nc(c(-c5c(F)c(F)c(F)c(F)c5F)c5ccc([nH]5)c(-c5c(F)c(F)c(F)c(F)c5F)c5nc(c(-c6c(F)c(F)c(F)c(F)c6F)c6ccc3[nH]6)C=C5)C=C4)cc2)[C@@H](C(=O)N2CCN(c3cccc(C(F)(F)F)c3)CC2)C1
REMARK SMILES IDX 13 1 12 2 11 3 10 4 9 5 7 6 8 7 6 8 1 9 2 10 3 11 103 12
REMARK SMILES IDX 4 13 5 14 84 15 85 16 86 17 87 18 88 19 102 20 89 21 101 22
REMARK SMILES IDX 90 23 91 24 92 25 100 26 93 27 95 28 94 29 96 30 97 31 98 32
REMARK SMILES IDX 99 33 14 34 15 35 16 36 17 37 18 38 19 39 20 40 21 41 22 42
REMARK SMILES IDX 83 43 23 44 82 45 24 46 25 47 26 48 76 49 27 50 81 51 75 52
REMARK SMILES IDX 77 53 28 54 80 55 74 56 73 57 29 59 61 60 41 61 60 62 42 63
REMARK SMILES IDX 45 64 59 65 78 66 43 67 44 68 58 70 79 71 46 72 30 73 31 74
REMARK SMILES IDX 39 75 32 76 33 77 37 78 40 79 34 80 35 81 38 82 36 83 62 84
REMARK SMILES IDX 63 85 71 86 64 87 65 88 69 89 72 90 66 91 67 92 70 93 68 94
REMARK SMILES IDX 47 95 48 96 56 97 49 98 50 99 54 100 57 101 51 102 52 103
REMARK SMILES IDX 55 104 53 105
REMARK H PARENT 77 58 45 69
REMARK Flexibility Score: inf
ROOT
ATOM      1  C   UNL A   1      31.833  28.193  27.606  1.00  0.00     0.188 C 
ENDROOT
BRANCH   1   2
ATOM      2  O   UNL A   1      30.935  27.243  27.032  1.00  0.00    -0.376 OA
BRANCH   2   3
ATOM      3  C   UNL A   1      31.459  26.037  26.496  1.00  0.00     0.202 C 
BRANCH   3   4
ATOM      4  C   UNL A   1      30.429  24.909  26.322  1.00  0.00     0.261 C 
BRANCH   4   5
ATOM      5  O   UNL A   1      30.496  24.138  25.096  1.00  0.00    -0.463 OA
BRANCH   5   6
ATOM      6  C   UNL A   1      31.484  23.220  25.047  1.00  0.00     0.310 C 
ATOM      7  O   UNL A   1      31.901  22.612  26.033  1.00  0.00    -0.252 OA
BRANCH   6   8
ATOM      8  C   UNL A   1      32.230  23.076  23.728  1.00  0.00     0.116 C 
ATOM      9  C   UNL A   1      36.550  22.352  23.942  1.00  0.00     0.039 C 
ATOM     10  C   UNL A   1      35.069  22.383  23.678  1.00  0.00    -0.074 C 
ATOM     11  C   UNL A   1      34.170  21.470  24.093  1.00  0.00    -0.073 C 
ATOM     12  C   UNL A   1      34.624  23.531  22.804  1.00  0.00     0.045 C 
ATOM     13  C   UNL A   1      34.465  20.236  24.899  1.00  0.00     0.039 C 
ATOM     14  C   UNL A   1      32.730  21.623  23.680  1.00  0.00     0.046 C 
ATOM     15  C   UNL A   1      33.202  24.086  23.072  1.00  0.00     0.097 C 
BRANCH  15  16
ATOM     16  C   UNL A   1      33.413  25.483  23.661  1.00  0.00     0.227 C 
ATOM     17  O   UNL A   1      34.384  25.709  24.383  1.00  0.00    -0.275 OA
ATOM     18  N   UNL A   1      32.603  26.535  23.188  1.00  0.00    -0.339 N 
ATOM     19  C   UNL A   1      33.041  27.897  23.540  1.00  0.00     0.141 C 
ATOM     20  C   UNL A   1      31.167  26.383  22.878  1.00  0.00     0.141 C 
ATOM     21  C   UNL A   1      32.383  29.017  22.717  1.00  0.00     0.138 C 
ATOM     22  C   UNL A   1      30.432  27.596  22.247  1.00  0.00     0.138 C 
ATOM     23  N   UNL A   1      30.927  28.862  22.780  1.00  0.00    -0.368 N 
BRANCH  23  24
ATOM     24  C   UNL A   1      30.120  29.985  22.801  1.00  0.00     0.037 A 
ATOM     25  C   UNL A   1      29.662  30.564  23.989  1.00  0.00     0.026 A 
ATOM     26  C   UNL A   1      29.641  30.523  21.597  1.00  0.00     0.039 A 
ATOM     27  C   UNL A   1      28.730  31.608  23.981  1.00  0.00     0.003 A 
ATOM     28  C   UNL A   1      28.650  31.522  21.567  1.00  0.00     0.058 A 
ATOM     29  C   UNL A   1      28.209  32.072  22.776  1.00  0.00     0.013 A 
BRANCH  28  30
ATOM     30  C   UNL A   1      28.017  31.973  20.275  1.00  0.00     0.416 C 
ATOM     31  F   UNL A   1      27.292  30.989  19.670  1.00  0.00    -0.166 F 
ATOM     32  F   UNL A   1      27.148  33.008  20.460  1.00  0.00    -0.166 F 
ATOM     33  F   UNL A   1      28.899  32.412  19.337  1.00  0.00    -0.166 F 
ENDBRANCH  28  30
ENDBRANCH  23  24
ENDBRANCH  15  16
ENDBRANCH   6   8
ENDBRANCH   5   6
ENDBRANCH   4   5
ENDBRANCH   3   4
ENDBRANCH   2   3
ENDBRANCH   1   2
BRANCH   1  34
ATOM     34  C   UNL A   1      32.399  29.318  26.732  1.00  0.00     0.188 C 
BRANCH  34  35
ATOM     35  O   UNL A   1      31.867  30.594  27.079  1.00  0.00    -0.376 OA
BRANCH  35  36
ATOM     36  C   UNL A   1      32.840  31.630  27.155  1.00  0.00     0.202 C 
BRANCH  36  37
ATOM     37  C   UNL A   1      32.168  32.980  27.401  1.00  0.00     0.261 C 
BRANCH  37  38
ATOM     38  O   UNL A   1      33.133  34.028  27.640  1.00  0.00    -0.460 OA
BRANCH  38  39
ATOM     39  C   UNL A   1      33.310  34.337  28.937  1.00  0.00     0.338 C 
ATOM     40  O   UNL A   1      32.565  35.005  29.636  1.00  0.00    -0.246 OA
BRANCH  39  41
ATOM     41  C   UNL A   1      34.549  33.714  29.434  1.00  0.00     0.060 A 
ATOM     42  C   UNL A   1      34.501  32.720  30.415  1.00  0.00     0.016 A 
ATOM     43  C   UNL A   1      35.777  34.222  29.018  1.00  0.00     0.016 A 
ATOM     44  C   UNL A   1      35.670  32.284  31.037  1.00  0.00     0.010 A 
ATOM     45  C   UNL A   1      36.951  33.745  29.601  1.00  0.00     0.010 A 
ATOM     46  C   UNL A   1      36.910  32.788  30.632  1.00  0.00    -0.014 A 
BRANCH  46  47
ATOM     47  C   UNL A   1      38.179  32.347  31.264  1.00  0.00     0.031 A 
ATOM     48  C   UNL A   1      38.971  31.231  30.645  1.00  0.00     0.074 A 
ATOM     49  C   UNL A   1      38.587  32.892  32.424  1.00  0.00     0.049 A 
ATOM     50  N   UNL A   1      39.906  30.484  31.174  1.00  0.00    -0.248 NA
ATOM     51  C   UNL A   1      38.663  30.912  29.243  1.00  0.00     0.031 C 
ATOM     52  C   UNL A   1      37.958  34.026  33.098  1.00  0.00     0.029 A 
ATOM     53  N   UNL A   1      39.615  32.532  33.262  1.00  0.00    -0.354 N 
ATOM     54  C   UNL A   1      40.256  29.568  30.193  1.00  0.00     0.074 A 
ATOM     55  C   UNL A   1      39.451  29.868  29.026  1.00  0.00     0.031 C 
ATOM     56  C   UNL A   1      38.595  34.258  34.255  1.00  0.00     0.029 A 
ATOM     57  C   UNL A   1      39.617  33.234  34.443  1.00  0.00     0.049 A 
ATOM     58  H   UNL A   1      40.282  31.843  33.040  1.00  0.00     0.167 HD
ATOM     59  C   UNL A   1      41.155  28.558  30.272  1.00  0.00     0.037 A 
ATOM     60  C   UNL A   1      40.308  33.029  35.581  1.00  0.00     0.037 A 
ATOM     61  C   UNL A   1      41.973  28.288  31.427  1.00  0.00     0.049 A 
ATOM     62  C   UNL A   1      41.254  31.867  35.672  1.00  0.00     0.074 A 
ATOM     63  C   UNL A   1      42.926  27.300  31.601  1.00  0.00     0.029 A 
ATOM     64  N   UNL A   1      41.935  29.018  32.606  1.00  0.00    -0.354 N 
ATOM     65  N   UNL A   1      41.542  30.963  34.768  1.00  0.00    -0.248 NA
ATOM     66  C   UNL A   1      41.956  31.683  36.951  1.00  0.00     0.031 C 
ATOM     67  C   UNL A   1      43.439  27.409  32.899  1.00  0.00     0.029 A 
ATOM     68  C   UNL A   1      42.834  28.490  33.519  1.00  0.00     0.049 A 
ATOM     69  H   UNL A   1      41.353  29.795  32.771  1.00  0.00     0.167 HD
ATOM     70  C   UNL A   1      42.459  30.107  35.362  1.00  0.00     0.074 A 
ATOM     71  C   UNL A   1      42.695  30.611  36.700  1.00  0.00     0.031 C 
ATOM     72  C   UNL A   1      43.050  29.002  34.847  1.00  0.00     0.037 A 
BRANCH  59  73
ATOM     73  C   UNL A   1      41.265  27.634  29.097  1.00  0.00     0.064 A 
ATOM     74  C   UNL A   1      42.283  27.760  28.143  1.00  0.00     0.173 A 
ATOM     75  C   UNL A   1      40.349  26.580  28.946  1.00  0.00     0.173 A 
ATOM     76  F   UNL A   1      43.173  28.759  28.236  1.00  0.00    -0.203 F 
ATOM     77  C   UNL A   1      42.370  26.877  27.070  1.00  0.00     0.198 A 
ATOM     78  C   UNL A   1      40.452  25.685  27.885  1.00  0.00     0.198 A 
ATOM     79  F   UNL A   1      39.358  26.414  29.836  1.00  0.00    -0.203 F 
ATOM     80  F   UNL A   1      43.330  27.037  26.148  1.00  0.00    -0.200 F 
ATOM     81  C   UNL A   1      41.459  25.838  26.945  1.00  0.00     0.200 A 
ATOM     82  F   UNL A   1      39.576  24.677  27.772  1.00  0.00    -0.200 F 
ATOM     83  F   UNL A   1      41.549  24.986  25.914  1.00  0.00    -0.200 F 
ENDBRANCH  59  73
BRANCH  60  84
ATOM     84  C   UNL A   1      40.061  33.909  36.752  1.00  0.00     0.064 A 
ATOM     85  C   UNL A   1      40.754  35.116  36.906  1.00  0.00     0.173 A 
ATOM     86  C   UNL A   1      39.111  33.569  37.727  1.00  0.00     0.173 A 
ATOM     87  F   UNL A   1      41.692  35.468  36.014  1.00  0.00    -0.203 F 
ATOM     88  C   UNL A   1      40.508  35.950  37.995  1.00  0.00     0.198 A 
ATOM     89  C   UNL A   1      38.846  34.416  38.799  1.00  0.00     0.198 A 
ATOM     90  F   UNL A   1      38.424  32.421  37.623  1.00  0.00    -0.203 F 
ATOM     91  F   UNL A   1      41.207  37.084  38.138  1.00  0.00    -0.200 F 
ATOM     92  C   UNL A   1      39.548  35.604  38.935  1.00  0.00     0.200 A 
ATOM     93  F   UNL A   1      37.909  34.083  39.698  1.00  0.00    -0.200 F 
ATOM     94  F   UNL A   1      39.303  36.413  39.975  1.00  0.00    -0.200 F 
ENDBRANCH  60  84
BRANCH  72  95
ATOM     95  C   UNL A   1      44.026  28.278  35.725  1.00  0.00     0.064 A 
ATOM     96  C   UNL A   1      45.360  28.695  35.834  1.00  0.00     0.173 A 
ATOM     97  C   UNL A   1      43.615  27.175  36.487  1.00  0.00     0.173 A 
ATOM     98  F   UNL A   1      45.804  29.734  35.109  1.00  0.00    -0.203 F 
ATOM     99  C   UNL A   1      46.253  28.021  36.663  1.00  0.00     0.198 A 
ATOM    100  C   UNL A   1      44.505  26.517  37.331  1.00  0.00     0.198 A 
ATOM    101  F   UNL A   1      42.348  26.740  36.417  1.00  0.00    -0.203 F 
ATOM    102  F   UNL A   1      47.534  28.412  36.724  1.00  0.00    -0.200 F 
ATOM    103  C   UNL A   1      45.824  26.937  37.415  1.00  0.00     0.200 A 
ATOM    104  F   UNL A   1      44.086  25.475  38.062  1.00  0.00    -0.200 F 
ATOM    105  F   UNL A   1      46.684  26.292  38.214  1.00  0.00    -0.200 F 
ENDBRANCH  72  95
ENDBRANCH  46  47
ENDBRANCH  39  41
ENDBRANCH  38  39
ENDBRANCH  37  38
ENDBRANCH  36  37
ENDBRANCH  35  36
ENDBRANCH  34  35
ENDBRANCH   1  34
TORSDOF 20
ENDMDL
