MODEL 1
REMARK VINA RESULT:     -10.3      0.000      0.000
REMARK SMILES COCCC(=O)N1Cc2ccccc2C[C@H]1C(=O)OCCOCCOCCOC(=O)c1ccc(-c2c3nc(c(-c4c(F)c(F)c(F)c(F)c4F)c4ccc([nH]4)c(-c4c(F)c(F)c(F)c(F)c4F)c4nc(c(-c5c(F)c(F)c(F)c(F)c5F)c5ccc2[nH]5)C=C4)C=C3)cc1
REMARK SMILES IDX 23 1 22 2 21 3 20 4 19 5 17 6 18 7 16 8 7 9 8 10 9 11 15 12
REMARK SMILES IDX 10 13 14 14 11 15 13 16 12 17 5 18 6 19 4 20 3 21 2 22 1 23
REMARK SMILES IDX 24 24 25 25 26 26 27 27 28 28 29 29 30 30 31 31 32 32 93 33
REMARK SMILES IDX 33 34 92 35 34 36 35 37 36 38 86 39 37 40 91 41 85 42 87 43
REMARK SMILES IDX 38 44 90 45 84 46 83 47 39 49 71 50 51 51 70 52 52 53 55 54
REMARK SMILES IDX 69 55 88 56 53 57 54 58 68 60 89 61 56 62 40 63 41 64 49 65
REMARK SMILES IDX 42 66 43 67 47 68 50 69 44 70 45 71 48 72 46 73 72 74 73 75
REMARK SMILES IDX 81 76 74 77 75 78 79 79 82 80 76 81 77 82 80 83 78 84 57 85
REMARK SMILES IDX 58 86 66 87 59 88 60 89 64 90 67 91 61 92 62 93 65 94 63 95
REMARK H PARENT 87 48 55 59
REMARK Flexibility Score: inf
ROOT
ATOM      1  C   UNL A   1      31.045  28.864  23.180  1.00  0.00     0.188 C 
ENDROOT
BRANCH   1   2
ATOM      2  O   UNL A   1      30.042  27.903  23.486  1.00  0.00    -0.376 OA
BRANCH   2   3
ATOM      3  C   UNL A   1      30.441  26.549  23.671  1.00  0.00     0.202 C 
BRANCH   3   4
ATOM      4  C   UNL A   1      30.195  25.947  25.062  1.00  0.00     0.261 C 
BRANCH   4   5
ATOM      5  O   UNL A   1      31.370  25.803  25.916  1.00  0.00    -0.462 OA
BRANCH   5   6
ATOM      6  C   UNL A   1      31.661  24.518  26.258  1.00  0.00     0.329 C 
ATOM      7  O   UNL A   1      31.159  23.964  27.238  1.00  0.00    -0.250 OA
BRANCH   6   8
ATOM      8  C   UNL A   1      32.806  23.817  25.479  1.00  0.00     0.199 C 
ATOM      9  N   UNL A   1      32.826  23.275  24.064  1.00  0.00    -0.324 N 
ATOM     10  C   UNL A   1      33.964  23.687  23.237  1.00  0.00     0.156 C 
ATOM     11  C   UNL A   1      35.242  23.453  24.005  1.00  0.00    -0.025 A 
ATOM     12  C   UNL A   1      34.055  24.712  25.769  1.00  0.00     0.073 C 
ATOM     13  C   UNL A   1      36.294  22.667  23.539  1.00  0.00     0.006 A 
ATOM     14  C   UNL A   1      35.294  23.998  25.298  1.00  0.00    -0.040 A 
ATOM     15  C   UNL A   1      37.405  22.450  24.354  1.00  0.00     0.000 A 
ATOM     16  C   UNL A   1      36.410  23.793  26.107  1.00  0.00     0.004 A 
ATOM     17  C   UNL A   1      37.466  23.017  25.631  1.00  0.00     0.000 A 
BRANCH   9  18
ATOM     18  C   UNL A   1      32.437  21.948  23.810  1.00  0.00     0.225 C 
ATOM     19  O   UNL A   1      31.808  21.600  22.808  1.00  0.00    -0.275 OA
BRANCH  18  20
ATOM     20  C   UNL A   1      32.702  20.947  24.884  1.00  0.00     0.128 C 
BRANCH  20  21
ATOM     21  C   UNL A   1      32.545  19.517  24.413  1.00  0.00     0.169 C 
BRANCH  21  22
ATOM     22  O   UNL A   1      33.792  18.864  24.232  1.00  0.00    -0.384 OA
ATOM     23  C   UNL A   1      33.611  17.567  23.664  1.00  0.00     0.194 C 
ENDBRANCH  21  22
ENDBRANCH  20  21
ENDBRANCH  18  20
ENDBRANCH   9  18
ENDBRANCH   6   8
ENDBRANCH   5   6
ENDBRANCH   4   5
ENDBRANCH   3   4
ENDBRANCH   2   3
ENDBRANCH   1   2
BRANCH   1  24
ATOM     24  C   UNL A   1      32.385  28.717  23.892  1.00  0.00     0.188 C 
BRANCH  24  25
ATOM     25  O   UNL A   1      32.662  29.690  24.897  1.00  0.00    -0.376 OA
BRANCH  25  26
ATOM     26  C   UNL A   1      31.776  29.547  26.023  1.00  0.00     0.202 C 
BRANCH  26  27
ATOM     27  C   UNL A   1      32.530  29.065  27.261  1.00  0.00     0.261 C 
BRANCH  27  28
ATOM     28  O   UNL A   1      33.949  29.271  27.138  1.00  0.00    -0.460 OA
BRANCH  28  29
ATOM     29  C   UNL A   1      34.502  30.322  27.794  1.00  0.00     0.338 C 
ATOM     30  O   UNL A   1      33.961  31.357  28.101  1.00  0.00    -0.246 OA
BRANCH  29  31
ATOM     31  C   UNL A   1      35.886  29.937  28.192  1.00  0.00     0.060 A 
ATOM     32  C   UNL A   1      36.922  30.085  27.262  1.00  0.00     0.016 A 
ATOM     33  C   UNL A   1      36.178  29.493  29.489  1.00  0.00     0.016 A 
ATOM     34  C   UNL A   1      38.250  29.863  27.649  1.00  0.00     0.010 A 
ATOM     35  C   UNL A   1      37.500  29.219  29.859  1.00  0.00     0.010 A 
ATOM     36  C   UNL A   1      38.546  29.408  28.944  1.00  0.00    -0.014 A 
BRANCH  36  37
ATOM     37  C   UNL A   1      39.910  28.904  29.252  1.00  0.00     0.031 A 
ATOM     38  C   UNL A   1      40.792  29.773  30.105  1.00  0.00     0.074 A 
ATOM     39  C   UNL A   1      40.367  27.720  28.803  1.00  0.00     0.049 A 
ATOM     40  N   UNL A   1      42.006  29.559  30.542  1.00  0.00    -0.248 NA
ATOM     41  C   UNL A   1      40.214  31.058  30.533  1.00  0.00     0.031 C 
ATOM     42  C   UNL A   1      39.612  26.763  27.999  1.00  0.00     0.029 A 
ATOM     43  N   UNL A   1      41.597  27.124  28.965  1.00  0.00    -0.354 N 
ATOM     44  C   UNL A   1      42.320  30.661  31.324  1.00  0.00     0.074 A 
ATOM     45  C   UNL A   1      41.187  31.559  31.275  1.00  0.00     0.031 C 
ATOM     46  C   UNL A   1      40.399  25.705  27.726  1.00  0.00     0.029 A 
ATOM     47  C   UNL A   1      41.722  25.919  28.316  1.00  0.00     0.049 A 
ATOM     48  H   UNL A   1      42.322  27.525  29.498  1.00  0.00     0.167 HD
ATOM     49  C   UNL A   1      43.450  30.910  32.025  1.00  0.00     0.037 A 
ATOM     50  C   UNL A   1      42.788  25.098  28.203  1.00  0.00     0.037 A 
ATOM     51  C   UNL A   1      44.612  30.066  32.015  1.00  0.00     0.049 A 
ATOM     52  C   UNL A   1      44.088  25.466  28.884  1.00  0.00     0.074 A 
ATOM     53  C   UNL A   1      45.821  30.255  32.658  1.00  0.00     0.029 A 
ATOM     54  N   UNL A   1      44.717  28.882  31.299  1.00  0.00    -0.354 N 
ATOM     55  N   UNL A   1      44.360  26.486  29.662  1.00  0.00    -0.248 NA
ATOM     56  C   UNL A   1      45.230  24.562  28.673  1.00  0.00     0.031 C 
ATOM     57  C   UNL A   1      46.680  29.218  32.284  1.00  0.00     0.029 A 
ATOM     58  C   UNL A   1      45.984  28.346  31.462  1.00  0.00     0.049 A 
ATOM     59  H   UNL A   1      43.999  28.484  30.756  1.00  0.00     0.167 HD
ATOM     60  C   UNL A   1      45.683  26.324  30.061  1.00  0.00     0.074 A 
ATOM     61  C   UNL A   1      46.157  25.103  29.450  1.00  0.00     0.031 C 
ATOM     62  C   UNL A   1      46.437  27.116  30.864  1.00  0.00     0.037 A 
BRANCH  49  63
ATOM     63  C   UNL A   1      43.485  32.178  32.824  1.00  0.00     0.064 A 
ATOM     64  C   UNL A   1      43.069  32.209  34.164  1.00  0.00     0.173 A 
ATOM     65  C   UNL A   1      43.928  33.374  32.243  1.00  0.00     0.173 A 
ATOM     66  F   UNL A   1      42.614  31.094  34.756  1.00  0.00    -0.203 F 
ATOM     67  C   UNL A   1      43.067  33.399  34.885  1.00  0.00     0.198 A 
ATOM     68  C   UNL A   1      43.953  34.556  32.976  1.00  0.00     0.198 A 
ATOM     69  F   UNL A   1      44.329  33.398  30.964  1.00  0.00    -0.203 F 
ATOM     70  F   UNL A   1      42.612  33.417  36.145  1.00  0.00    -0.200 F 
ATOM     71  C   UNL A   1      43.515  34.570  34.292  1.00  0.00     0.200 A 
ATOM     72  F   UNL A   1      44.392  35.687  32.405  1.00  0.00    -0.200 F 
ATOM     73  F   UNL A   1      43.512  35.717  34.986  1.00  0.00    -0.200 F 
ENDBRANCH  49  63
BRANCH  50  74
ATOM     74  C   UNL A   1      42.704  23.845  27.397  1.00  0.00     0.064 A 
ATOM     75  C   UNL A   1      42.312  22.630  27.982  1.00  0.00     0.173 A 
ATOM     76  C   UNL A   1      43.092  23.818  26.049  1.00  0.00     0.173 A 
ATOM     77  F   UNL A   1      41.967  22.591  29.278  1.00  0.00    -0.203 F 
ATOM     78  C   UNL A   1      42.343  21.437  27.260  1.00  0.00     0.198 A 
ATOM     79  C   UNL A   1      43.091  22.629  25.320  1.00  0.00     0.198 A 
ATOM     80  F   UNL A   1      43.488  24.946  25.442  1.00  0.00    -0.203 F 
ATOM     81  F   UNL A   1      42.032  20.282  27.865  1.00  0.00    -0.200 F 
ATOM     82  C   UNL A   1      42.729  21.438  25.929  1.00  0.00     0.200 A 
ATOM     83  F   UNL A   1      43.462  22.636  24.032  1.00  0.00    -0.200 F 
ATOM     84  F   UNL A   1      42.769  20.290  25.240  1.00  0.00    -0.200 F 
ENDBRANCH  50  74
BRANCH  62  85
ATOM     85  C   UNL A   1      47.838  26.668  31.180  1.00  0.00     0.064 A 
ATOM     86  C   UNL A   1      48.120  25.811  32.253  1.00  0.00     0.173 A 
ATOM     87  C   UNL A   1      48.905  27.053  30.352  1.00  0.00     0.173 A 
ATOM     88  F   UNL A   1      47.140  25.420  33.081  1.00  0.00    -0.203 F 
ATOM     89  C   UNL A   1      49.420  25.376  32.501  1.00  0.00     0.198 A 
ATOM     90  C   UNL A   1      50.197  26.589  30.583  1.00  0.00     0.198 A 
ATOM     91  F   UNL A   1      48.690  27.864  29.306  1.00  0.00    -0.203 F 
ATOM     92  F   UNL A   1      49.673  24.593  33.558  1.00  0.00    -0.200 F 
ATOM     93  C   UNL A   1      50.455  25.757  31.660  1.00  0.00     0.200 A 
ATOM     94  F   UNL A   1      51.191  26.944  29.757  1.00  0.00    -0.200 F 
ATOM     95  F   UNL A   1      51.703  25.325  31.891  1.00  0.00    -0.200 F 
ENDBRANCH  62  85
ENDBRANCH  36  37
ENDBRANCH  29  31
ENDBRANCH  28  29
ENDBRANCH  27  28
ENDBRANCH  26  27
ENDBRANCH  25  26
ENDBRANCH  24  25
ENDBRANCH   1  24
TORSDOF 21
ENDMDL
MODEL 2
REMARK VINA RESULT:     -10.3      3.009      4.342
REMARK SMILES COCCC(=O)N1Cc2ccccc2C[C@H]1C(=O)OCCOCCOCCOC(=O)c1ccc(-c2c3nc(c(-c4c(F)c(F)c(F)c(F)c4F)c4ccc([nH]4)c(-c4c(F)c(F)c(F)c(F)c4F)c4nc(c(-c5c(F)c(F)c(F)c(F)c5F)c5ccc2[nH]5)C=C4)C=C3)cc1
REMARK SMILES IDX 23 1 22 2 21 3 20 4 19 5 17 6 18 7 16 8 7 9 8 10 9 11 15 12
REMARK SMILES IDX 10 13 14 14 11 15 13 16 12 17 5 18 6 19 4 20 3 21 2 22 1 23
REMARK SMILES IDX 24 24 25 25 26 26 27 27 28 28 29 29 30 30 31 31 32 32 93 33
REMARK SMILES IDX 33 34 92 35 34 36 35 37 36 38 86 39 37 40 91 41 85 42 87 43
REMARK SMILES IDX 38 44 90 45 84 46 83 47 39 49 71 50 51 51 70 52 52 53 55 54
REMARK SMILES IDX 69 55 88 56 53 57 54 58 68 60 89 61 56 62 40 63 41 64 49 65
REMARK SMILES IDX 42 66 43 67 47 68 50 69 44 70 45 71 48 72 46 73 72 74 73 75
REMARK SMILES IDX 81 76 74 77 75 78 79 79 82 80 76 81 77 82 80 83 78 84 57 85
REMARK SMILES IDX 58 86 66 87 59 88 60 89 64 90 67 91 61 92 62 93 65 94 63 95
REMARK H PARENT 87 48 55 59
REMARK Flexibility Score: inf
ROOT
ATOM      1  C   UNL A   1      31.793  28.622  26.318  1.00  0.00     0.188 C 
ENDROOT
BRANCH   1   2
ATOM      2  O   UNL A   1      31.306  28.977  25.030  1.00  0.00    -0.376 OA
BRANCH   2   3
ATOM      3  C   UNL A   1      30.613  27.987  24.276  1.00  0.00     0.202 C 
BRANCH   3   4
ATOM      4  C   UNL A   1      31.443  26.790  23.791  1.00  0.00     0.261 C 
BRANCH   4   5
ATOM      5  O   UNL A   1      30.898  25.469  24.086  1.00  0.00    -0.462 OA
BRANCH   5   6
ATOM      6  C   UNL A   1      31.564  24.790  25.060  1.00  0.00     0.329 C 
ATOM      7  O   UNL A   1      31.313  24.937  26.258  1.00  0.00    -0.250 OA
BRANCH   6   8
ATOM      8  C   UNL A   1      32.799  23.955  24.628  1.00  0.00     0.199 C 
ATOM      9  N   UNL A   1      33.057  23.202  23.338  1.00  0.00    -0.324 N 
ATOM     10  C   UNL A   1      34.349  23.459  22.695  1.00  0.00     0.156 C 
ATOM     11  C   UNL A   1      35.446  23.320  23.721  1.00  0.00    -0.025 A 
ATOM     12  C   UNL A   1      34.014  24.857  25.019  1.00  0.00     0.073 C 
ATOM     13  C   UNL A   1      36.528  22.450  23.587  1.00  0.00     0.006 A 
ATOM     14  C   UNL A   1      35.282  24.055  24.906  1.00  0.00    -0.040 A 
ATOM     15  C   UNL A   1      37.454  22.338  24.624  1.00  0.00     0.000 A 
ATOM     16  C   UNL A   1      36.215  23.953  25.936  1.00  0.00     0.004 A 
ATOM     17  C   UNL A   1      37.302  23.093  25.791  1.00  0.00     0.000 A 
BRANCH   9  18
ATOM     18  C   UNL A   1      32.658  21.861  23.211  1.00  0.00     0.225 C 
ATOM     19  O   UNL A   1      31.760  21.483  22.454  1.00  0.00    -0.275 OA
BRANCH  18  20
ATOM     20  C   UNL A   1      33.283  20.876  24.142  1.00  0.00     0.128 C 
BRANCH  20  21
ATOM     21  C   UNL A   1      32.324  20.364  25.195  1.00  0.00     0.169 C 
BRANCH  21  22
ATOM     22  O   UNL A   1      32.489  18.978  25.453  1.00  0.00    -0.384 OA
ATOM     23  C   UNL A   1      32.457  18.226  24.240  1.00  0.00     0.194 C 
ENDBRANCH  21  22
ENDBRANCH  20  21
ENDBRANCH  18  20
ENDBRANCH   9  18
ENDBRANCH   6   8
ENDBRANCH   5   6
ENDBRANCH   4   5
ENDBRANCH   3   4
ENDBRANCH   2   3
ENDBRANCH   1   2
BRANCH   1  24
ATOM     24  C   UNL A   1      32.192  29.764  27.246  1.00  0.00     0.188 C 
BRANCH  24  25
ATOM     25  O   UNL A   1      32.497  31.002  26.609  1.00  0.00    -0.376 OA
BRANCH  25  26
ATOM     26  C   UNL A   1      31.511  32.006  26.912  1.00  0.00     0.202 C 
BRANCH  26  27
ATOM     27  C   UNL A   1      32.136  33.399  26.954  1.00  0.00     0.261 C 
BRANCH  27  28
ATOM     28  O   UNL A   1      32.405  33.825  28.303  1.00  0.00    -0.460 OA
BRANCH  28  29
ATOM     29  C   UNL A   1      33.458  34.654  28.514  1.00  0.00     0.338 C 
ATOM     30  O   UNL A   1      33.462  35.859  28.446  1.00  0.00    -0.246 OA
BRANCH  29  31
ATOM     31  C   UNL A   1      34.609  33.825  28.973  1.00  0.00     0.060 A 
ATOM     32  C   UNL A   1      34.351  32.614  29.625  1.00  0.00     0.016 A 
ATOM     33  C   UNL A   1      35.933  34.202  28.711  1.00  0.00     0.016 A 
ATOM     34  C   UNL A   1      35.406  31.750  29.945  1.00  0.00     0.010 A 
ATOM     35  C   UNL A   1      36.991  33.363  29.079  1.00  0.00     0.010 A 
ATOM     36  C   UNL A   1      36.735  32.128  29.694  1.00  0.00    -0.014 A 
BRANCH  36  37
ATOM     37  C   UNL A   1      37.848  31.345  30.292  1.00  0.00     0.031 A 
ATOM     38  C   UNL A   1      38.199  31.628  31.726  1.00  0.00     0.074 A 
ATOM     39  C   UNL A   1      38.534  30.413  29.604  1.00  0.00     0.049 A 
ATOM     40  N   UNL A   1      39.103  31.073  32.491  1.00  0.00    -0.248 NA
ATOM     41  C   UNL A   1      37.409  32.679  32.390  1.00  0.00     0.031 C 
ATOM     42  C   UNL A   1      38.281  30.012  28.223  1.00  0.00     0.029 A 
ATOM     43  N   UNL A   1      39.600  29.631  29.990  1.00  0.00    -0.354 N 
ATOM     44  C   UNL A   1      38.963  31.678  33.732  1.00  0.00     0.074 A 
ATOM     45  C   UNL A   1      37.914  32.666  33.612  1.00  0.00     0.031 C 
ATOM     46  C   UNL A   1      39.175  29.067  27.872  1.00  0.00     0.029 A 
ATOM     47  C   UNL A   1      40.079  28.813  28.994  1.00  0.00     0.049 A 
ATOM     48  H   UNL A   1      39.983  29.655  30.897  1.00  0.00     0.167 HD
ATOM     49  C   UNL A   1      39.643  31.435  34.876  1.00  0.00     0.037 A 
ATOM     50  C   UNL A   1      41.135  27.971  28.993  1.00  0.00     0.037 A 
ATOM     51  C   UNL A   1      40.741  30.515  34.986  1.00  0.00     0.049 A 
ATOM     52  C   UNL A   1      41.968  27.819  30.247  1.00  0.00     0.074 A 
ATOM     53  C   UNL A   1      41.522  30.233  36.091  1.00  0.00     0.029 A 
ATOM     54  N   UNL A   1      41.231  29.748  33.939  1.00  0.00    -0.354 N 
ATOM     55  N   UNL A   1      41.798  28.359  31.430  1.00  0.00    -0.248 NA
ATOM     56  C   UNL A   1      43.142  26.935  30.163  1.00  0.00     0.031 C 
ATOM     57  C   UNL A   1      42.524  29.340  35.699  1.00  0.00     0.029 A 
ATOM     58  C   UNL A   1      42.325  29.014  34.367  1.00  0.00     0.049 A 
ATOM     59  H   UNL A   1      40.858  29.729  33.029  1.00  0.00     0.167 HD
ATOM     60  C   UNL A   1      42.812  27.850  32.235  1.00  0.00     0.074 A 
ATOM     61  C   UNL A   1      43.588  26.950  31.411  1.00  0.00     0.031 C 
ATOM     62  C   UNL A   1      43.076  28.104  33.542  1.00  0.00     0.037 A 
BRANCH  49  63
ATOM     63  C   UNL A   1      39.236  32.222  36.085  1.00  0.00     0.064 A 
ATOM     64  C   UNL A   1      39.786  33.485  36.354  1.00  0.00     0.173 A 
ATOM     65  C   UNL A   1      38.295  31.706  36.987  1.00  0.00     0.173 A 
ATOM     66  F   UNL A   1      40.707  34.010  35.533  1.00  0.00    -0.203 F 
ATOM     67  C   UNL A   1      39.430  34.189  37.500  1.00  0.00     0.198 A 
ATOM     68  C   UNL A   1      37.920  32.426  38.117  1.00  0.00     0.198 A 
ATOM     69  F   UNL A   1      37.746  30.501  36.777  1.00  0.00    -0.203 F 
ATOM     70  F   UNL A   1      40.010  35.367  37.769  1.00  0.00    -0.200 F 
ATOM     71  C   UNL A   1      38.493  33.662  38.377  1.00  0.00     0.200 A 
ATOM     72  F   UNL A   1      37.010  31.920  38.960  1.00  0.00    -0.200 F 
ATOM     73  F   UNL A   1      38.153  34.341  39.482  1.00  0.00    -0.200 F 
ENDBRANCH  49  63
BRANCH  50  74
ATOM     74  C   UNL A   1      41.500  27.209  27.765  1.00  0.00     0.064 A 
ATOM     75  C   UNL A   1      41.007  25.913  27.540  1.00  0.00     0.173 A 
ATOM     76  C   UNL A   1      42.414  27.723  26.832  1.00  0.00     0.173 A 
ATOM     77  F   UNL A   1      40.160  25.358  28.419  1.00  0.00    -0.203 F 
ATOM     78  C   UNL A   1      41.437  25.154  26.451  1.00  0.00     0.198 A 
ATOM     79  C   UNL A   1      42.817  26.975  25.726  1.00  0.00     0.198 A 
ATOM     80  F   UNL A   1      42.928  28.950  27.002  1.00  0.00    -0.203 F 
ATOM     81  F   UNL A   1      41.004  23.895  26.303  1.00  0.00    -0.200 F 
ATOM     82  C   UNL A   1      42.339  25.687  25.543  1.00  0.00     0.200 A 
ATOM     83  F   UNL A   1      43.687  27.496  24.849  1.00  0.00    -0.200 F 
ATOM     84  F   UNL A   1      42.760  24.954  24.505  1.00  0.00    -0.200 F 
ENDBRANCH  50  74
BRANCH  62  85
ATOM     85  C   UNL A   1      44.216  27.364  34.186  1.00  0.00     0.064 A 
ATOM     86  C   UNL A   1      45.501  27.918  34.285  1.00  0.00     0.173 A 
ATOM     87  C   UNL A   1      43.999  26.107  34.773  1.00  0.00     0.173 A 
ATOM     88  F   UNL A   1      45.766  29.111  33.733  1.00  0.00    -0.203 F 
ATOM     89  C   UNL A   1      46.531  27.230  34.924  1.00  0.00     0.198 A 
ATOM     90  C   UNL A   1      45.021  25.438  35.441  1.00  0.00     0.198 A 
ATOM     91  F   UNL A   1      42.786  25.536  34.718  1.00  0.00    -0.203 F 
ATOM     92  F   UNL A   1      47.761  27.759  34.966  1.00  0.00    -0.200 F 
ATOM     93  C   UNL A   1      46.287  25.997  35.509  1.00  0.00     0.200 A 
ATOM     94  F   UNL A   1      44.778  24.256  36.022  1.00  0.00    -0.200 F 
ATOM     95  F   UNL A   1      47.276  25.344  36.137  1.00  0.00    -0.200 F 
ENDBRANCH  62  85
ENDBRANCH  36  37
ENDBRANCH  29  31
ENDBRANCH  28  29
ENDBRANCH  27  28
ENDBRANCH  26  27
ENDBRANCH  25  26
ENDBRANCH  24  25
ENDBRANCH   1  24
TORSDOF 21
ENDMDL
MODEL 3
REMARK VINA RESULT:     -10.0      4.017      9.096
REMARK SMILES COCCC(=O)N1Cc2ccccc2C[C@H]1C(=O)OCCOCCOCCOC(=O)c1ccc(-c2c3nc(c(-c4c(F)c(F)c(F)c(F)c4F)c4ccc([nH]4)c(-c4c(F)c(F)c(F)c(F)c4F)c4nc(c(-c5c(F)c(F)c(F)c(F)c5F)c5ccc2[nH]5)C=C4)C=C3)cc1
REMARK SMILES IDX 23 1 22 2 21 3 20 4 19 5 17 6 18 7 16 8 7 9 8 10 9 11 15 12
REMARK SMILES IDX 10 13 14 14 11 15 13 16 12 17 5 18 6 19 4 20 3 21 2 22 1 23
REMARK SMILES IDX 24 24 25 25 26 26 27 27 28 28 29 29 30 30 31 31 32 32 93 33
REMARK SMILES IDX 33 34 92 35 34 36 35 37 36 38 86 39 37 40 91 41 85 42 87 43
REMARK SMILES IDX 38 44 90 45 84 46 83 47 39 49 71 50 51 51 70 52 52 53 55 54
REMARK SMILES IDX 69 55 88 56 53 57 54 58 68 60 89 61 56 62 40 63 41 64 49 65
REMARK SMILES IDX 42 66 43 67 47 68 50 69 44 70 45 71 48 72 46 73 72 74 73 75
REMARK SMILES IDX 81 76 74 77 75 78 79 79 82 80 76 81 77 82 80 83 78 84 57 85
REMARK SMILES IDX 58 86 66 87 59 88 60 89 64 90 67 91 61 92 62 93 65 94 63 95
REMARK H PARENT 87 48 55 59
REMARK Flexibility Score: inf
ROOT
ATOM      1  C   UNL A   1      40.193  21.809  26.215  1.00  0.00     0.188 C 
ENDROOT
BRANCH   1   2
ATOM      2  O   UNL A   1      38.785  21.971  26.328  1.00  0.00    -0.376 OA
BRANCH   2   3
ATOM      3  C   UNL A   1      37.976  21.642  25.204  1.00  0.00     0.202 C 
BRANCH   3   4
ATOM      4  C   UNL A   1      37.094  22.767  24.643  1.00  0.00     0.261 C 
BRANCH   4   5
ATOM      5  O   UNL A   1      35.656  22.617  24.842  1.00  0.00    -0.462 OA
BRANCH   5   6
ATOM      6  C   UNL A   1      34.891  23.296  23.944  1.00  0.00     0.329 C 
ATOM      7  O   UNL A   1      35.150  23.319  22.739  1.00  0.00    -0.250 OA
BRANCH   6   8
ATOM      8  C   UNL A   1      33.771  24.210  24.509  1.00  0.00     0.199 C 
ATOM      9  N   UNL A   1      32.602  23.868  25.411  1.00  0.00    -0.324 N 
ATOM     10  C   UNL A   1      32.419  24.735  26.578  1.00  0.00     0.156 C 
ATOM     11  C   UNL A   1      32.452  26.175  26.133  1.00  0.00    -0.025 A 
ATOM     12  C   UNL A   1      34.544  25.468  25.024  1.00  0.00     0.073 C 
ATOM     13  C   UNL A   1      31.425  27.086  26.374  1.00  0.00     0.006 A 
ATOM     14  C   UNL A   1      33.555  26.556  25.351  1.00  0.00    -0.040 A 
ATOM     15  C   UNL A   1      31.515  28.379  25.857  1.00  0.00     0.000 A 
ATOM     16  C   UNL A   1      33.652  27.851  24.847  1.00  0.00     0.004 A 
ATOM     17  C   UNL A   1      32.629  28.762  25.103  1.00  0.00     0.000 A 
BRANCH   9  18
ATOM     18  C   UNL A   1      31.377  23.459  24.855  1.00  0.00     0.225 C 
ATOM     19  O   UNL A   1      30.632  22.629  25.379  1.00  0.00    -0.275 OA
BRANCH  18  20
ATOM     20  C   UNL A   1      31.043  23.979  23.496  1.00  0.00     0.128 C 
BRANCH  20  21
ATOM     21  C   UNL A   1      30.169  25.214  23.532  1.00  0.00     0.169 C 
BRANCH  21  22
ATOM     22  O   UNL A   1      30.793  26.338  22.931  1.00  0.00    -0.384 OA
ATOM     23  C   UNL A   1      31.810  25.929  22.017  1.00  0.00     0.194 C 
ENDBRANCH  21  22
ENDBRANCH  20  21
ENDBRANCH  18  20
ENDBRANCH   9  18
ENDBRANCH   6   8
ENDBRANCH   5   6
ENDBRANCH   4   5
ENDBRANCH   3   4
ENDBRANCH   2   3
ENDBRANCH   1   2
BRANCH   1  24
ATOM     24  C   UNL A   1      40.829  20.686  27.028  1.00  0.00     0.188 C 
BRANCH  24  25
ATOM     25  O   UNL A   1      42.252  20.709  27.107  1.00  0.00    -0.376 OA
BRANCH  25  26
ATOM     26  C   UNL A   1      42.853  20.200  25.902  1.00  0.00     0.202 C 
BRANCH  26  27
ATOM     27  C   UNL A   1      43.815  21.218  25.293  1.00  0.00     0.261 C 
BRANCH  27  28
ATOM     28  O   UNL A   1      43.982  22.371  26.138  1.00  0.00    -0.460 OA
BRANCH  28  29
ATOM     29  C   UNL A   1      43.888  23.599  25.572  1.00  0.00     0.338 C 
ATOM     30  O   UNL A   1      44.017  23.876  24.404  1.00  0.00    -0.246 OA
BRANCH  29  31
ATOM     31  C   UNL A   1      43.469  24.561  26.631  1.00  0.00     0.060 A 
ATOM     32  C   UNL A   1      42.637  24.110  27.663  1.00  0.00     0.016 A 
ATOM     33  C   UNL A   1      43.938  25.882  26.648  1.00  0.00     0.016 A 
ATOM     34  C   UNL A   1      42.339  24.950  28.743  1.00  0.00     0.010 A 
ATOM     35  C   UNL A   1      43.595  26.738  27.700  1.00  0.00     0.010 A 
ATOM     36  C   UNL A   1      42.798  26.277  28.759  1.00  0.00    -0.014 A 
BRANCH  36  37
ATOM     37  C   UNL A   1      42.244  27.235  29.751  1.00  0.00     0.031 A 
ATOM     38  C   UNL A   1      42.955  27.353  31.071  1.00  0.00     0.074 A 
ATOM     39  C   UNL A   1      41.152  27.984  29.508  1.00  0.00     0.049 A 
ATOM     40  N   UNL A   1      42.698  28.127  32.093  1.00  0.00    -0.248 NA
ATOM     41  C   UNL A   1      44.126  26.480  31.254  1.00  0.00     0.031 C 
ATOM     42  C   UNL A   1      40.386  27.998  28.264  1.00  0.00     0.029 A 
ATOM     43  N   UNL A   1      40.495  28.884  30.316  1.00  0.00    -0.354 N 
ATOM     44  C   UNL A   1      43.695  27.863  33.020  1.00  0.00     0.074 A 
ATOM     45  C   UNL A   1      44.541  26.833  32.459  1.00  0.00     0.031 C 
ATOM     46  C   UNL A   1      39.355  28.856  28.396  1.00  0.00     0.029 A 
ATOM     47  C   UNL A   1      39.374  29.434  29.741  1.00  0.00     0.049 A 
ATOM     48  H   UNL A   1      40.802  29.115  31.223  1.00  0.00     0.167 HD
ATOM     49  C   UNL A   1      43.896  28.425  34.234  1.00  0.00     0.037 A 
ATOM     50  C   UNL A   1      38.464  30.290  30.253  1.00  0.00     0.037 A 
ATOM     51  C   UNL A   1      43.017  29.388  34.836  1.00  0.00     0.049 A 
ATOM     52  C   UNL A   1      38.635  30.801  31.667  1.00  0.00     0.074 A 
ATOM     53  C   UNL A   1      43.111  29.983  36.081  1.00  0.00     0.029 A 
ATOM     54  N   UNL A   1      41.861  29.875  34.244  1.00  0.00    -0.354 N 
ATOM     55  N   UNL A   1      39.608  30.583  32.519  1.00  0.00    -0.248 NA
ATOM     56  C   UNL A   1      37.578  31.682  32.190  1.00  0.00     0.031 C 
ATOM     57  C   UNL A   1      41.981  30.785  36.267  1.00  0.00     0.029 A 
ATOM     58  C   UNL A   1      41.217  30.742  35.111  1.00  0.00     0.049 A 
ATOM     59  H   UNL A   1      41.545  29.639  33.342  1.00  0.00     0.167 HD
ATOM     60  C   UNL A   1      39.301  31.328  33.654  1.00  0.00     0.074 A 
ATOM     61  C   UNL A   1      38.058  32.013  33.380  1.00  0.00     0.031 C 
ATOM     62  C   UNL A   1      39.990  31.435  34.818  1.00  0.00     0.037 A 
BRANCH  49  63
ATOM     63  C   UNL A   1      45.098  27.965  35.002  1.00  0.00     0.064 A 
ATOM     64  C   UNL A   1      46.333  28.623  34.888  1.00  0.00     0.173 A 
ATOM     65  C   UNL A   1      45.020  26.853  35.851  1.00  0.00     0.173 A 
ATOM     66  F   UNL A   1      46.464  29.678  34.069  1.00  0.00    -0.203 F 
ATOM     67  C   UNL A   1      47.453  28.164  35.574  1.00  0.00     0.198 A 
ATOM     68  C   UNL A   1      46.134  26.415  36.558  1.00  0.00     0.198 A 
ATOM     69  F   UNL A   1      43.864  26.187  35.989  1.00  0.00    -0.203 F 
ATOM     70  F   UNL A   1      48.636  28.772  35.406  1.00  0.00    -0.200 F 
ATOM     71  C   UNL A   1      47.352  27.064  36.413  1.00  0.00     0.200 A 
ATOM     72  F   UNL A   1      46.034  25.357  37.375  1.00  0.00    -0.200 F 
ATOM     73  F   UNL A   1      48.431  26.622  37.073  1.00  0.00    -0.200 F 
ENDBRANCH  49  63
BRANCH  50  74
ATOM     74  C   UNL A   1      37.284  30.720  29.449  1.00  0.00     0.064 A 
ATOM     75  C   UNL A   1      36.238  29.829  29.160  1.00  0.00     0.173 A 
ATOM     76  C   UNL A   1      37.215  32.002  28.884  1.00  0.00     0.173 A 
ATOM     77  F   UNL A   1      36.271  28.578  29.643  1.00  0.00    -0.203 F 
ATOM     78  C   UNL A   1      35.190  30.193  28.313  1.00  0.00     0.198 A 
ATOM     79  C   UNL A   1      36.150  32.376  28.065  1.00  0.00     0.198 A 
ATOM     80  F   UNL A   1      38.192  32.891  29.115  1.00  0.00    -0.203 F 
ATOM     81  F   UNL A   1      34.244  29.298  27.999  1.00  0.00    -0.200 F 
ATOM     82  C   UNL A   1      35.146  31.468  27.770  1.00  0.00     0.200 A 
ATOM     83  F   UNL A   1      36.110  33.610  27.543  1.00  0.00    -0.200 F 
ATOM     84  F   UNL A   1      34.145  31.813  26.948  1.00  0.00    -0.200 F 
ENDBRANCH  50  74
BRANCH  62  85
ATOM     85  C   UNL A   1      39.452  32.367  35.870  1.00  0.00     0.064 A 
ATOM     86  C   UNL A   1      38.493  31.955  36.806  1.00  0.00     0.173 A 
ATOM     87  C   UNL A   1      39.957  33.673  35.980  1.00  0.00     0.173 A 
ATOM     88  F   UNL A   1      37.970  30.722  36.741  1.00  0.00    -0.203 F 
ATOM     89  C   UNL A   1      38.040  32.824  37.798  1.00  0.00     0.198 A 
ATOM     90  C   UNL A   1      39.527  34.526  36.993  1.00  0.00     0.198 A 
ATOM     91  F   UNL A   1      40.884  34.114  35.118  1.00  0.00    -0.203 F 
ATOM     92  F   UNL A   1      37.090  32.424  38.653  1.00  0.00    -0.200 F 
ATOM     93  C   UNL A   1      38.565  34.104  37.896  1.00  0.00     0.200 A 
ATOM     94  F   UNL A   1      40.051  35.755  37.097  1.00  0.00    -0.200 F 
ATOM     95  F   UNL A   1      38.139  34.932  38.860  1.00  0.00    -0.200 F 
ENDBRANCH  62  85
ENDBRANCH  36  37
ENDBRANCH  29  31
ENDBRANCH  28  29
ENDBRANCH  27  28
ENDBRANCH  26  27
ENDBRANCH  25  26
ENDBRANCH  24  25
ENDBRANCH   1  24
TORSDOF 21
ENDMDL
