MODEL 1
REMARK VINA RESULT:     -12.1      0.000      0.000
REMARK SMILES O=C(OCCOCCOCCOC(=O)[C@H]1CC=CC[C@@H]1C(=O)N[C@@H]1CCCN(c2ccccc2F)C1=O)c1ccc(-c2c3nc(c(-c4c(F)c(F)c(F)c(F)c4F)c4ccc([nH]4)c(-c4c(F)c(F)c(F)c(F)c4F)c4nc(c(-c5c(F)c(F)c(F)c(F)c5F)c5ccc2[nH]5)C=C4)C=C3)cc1
REMARK SMILES IDX 8 1 7 2 6 3 5 4 4 5 3 6 2 7 1 8 38 9 39 10 100 11 40 12
REMARK SMILES IDX 99 13 41 14 42 15 43 16 93 17 44 18 98 19 92 20 94 21 45 22
REMARK SMILES IDX 97 23 91 24 90 25 46 27 78 28 58 29 77 30 59 31 62 32 76 33
REMARK SMILES IDX 95 34 60 35 61 36 75 38 96 39 63 40 47 41 48 42 56 43 49 44
REMARK SMILES IDX 50 45 54 46 57 47 51 48 52 49 55 50 53 51 79 52 80 53 88 54
REMARK SMILES IDX 81 55 82 56 86 57 89 58 83 59 84 60 87 61 85 62 64 63 65 64
REMARK SMILES IDX 73 65 66 66 67 67 71 68 74 69 68 70 69 71 72 72 70 73 9 74
REMARK SMILES IDX 10 75 11 76 12 77 13 78 14 79 15 80 16 81 20 82 17 83 19 84
REMARK SMILES IDX 18 85 21 86 22 87 23 88 24 90 25 91 36 92 26 93 28 94 37 95
REMARK SMILES IDX 27 96 29 97 30 98 34 99 31 100 33 101 35 102 32 103
REMARK H PARENT 94 26 62 37 23 89
REMARK Flexibility Score: inf
ROOT
ATOM      1  C   UNL A   1      34.392  32.591  29.181  1.00  0.00     0.188 C 
ENDROOT
BRANCH   1   2
ATOM      2  C   UNL A   1      35.107  33.913  28.888  1.00  0.00     0.188 C 
BRANCH   2   3
ATOM      3  O   UNL A   1      34.271  34.828  28.164  1.00  0.00    -0.376 OA
BRANCH   3   4
ATOM      4  C   UNL A   1      33.112  35.236  28.902  1.00  0.00     0.202 C 
BRANCH   4   5
ATOM      5  C   UNL A   1      33.243  36.604  29.585  1.00  0.00     0.261 C 
BRANCH   5   6
ATOM      6  O   UNL A   1      32.468  36.687  30.791  1.00  0.00    -0.460 OA
BRANCH   6   7
ATOM      7  C   UNL A   1      32.894  36.442  32.052  1.00  0.00     0.338 C 
ATOM      8  O   UNL A   1      32.484  37.153  32.969  1.00  0.00    -0.246 OA
BRANCH   7   9
ATOM      9  C   UNL A   1      33.781  35.297  32.414  1.00  0.00     0.060 A 
ATOM     10  C   UNL A   1      33.372  34.019  32.817  1.00  0.00     0.016 A 
ATOM     11  C   UNL A   1      35.152  35.523  32.266  1.00  0.00     0.016 A 
ATOM     12  C   UNL A   1      34.297  33.023  33.163  1.00  0.00     0.010 A 
ATOM     13  C   UNL A   1      36.070  34.520  32.567  1.00  0.00     0.010 A 
ATOM     14  C   UNL A   1      35.661  33.270  33.055  1.00  0.00    -0.014 A 
BRANCH  14  15
ATOM     15  C   UNL A   1      36.702  32.323  33.554  1.00  0.00     0.031 A 
ATOM     16  C   UNL A   1      37.348  32.673  34.863  1.00  0.00     0.074 A 
ATOM     17  C   UNL A   1      37.175  31.328  32.778  1.00  0.00     0.049 A 
ATOM     18  N   UNL A   1      38.540  32.385  35.308  1.00  0.00    -0.248 NA
ATOM     19  C   UNL A   1      36.598  33.611  35.714  1.00  0.00     0.031 C 
ATOM     20  C   UNL A   1      36.671  31.037  31.448  1.00  0.00     0.029 A 
ATOM     21  N   UNL A   1      38.228  30.453  32.920  1.00  0.00    -0.354 N 
ATOM     22  C   UNL A   1      38.748  33.221  36.395  1.00  0.00     0.074 A 
ATOM     23  C   UNL A   1      37.538  34.000  36.562  1.00  0.00     0.031 C 
ATOM     24  C   UNL A   1      37.411  30.086  30.863  1.00  0.00     0.029 A 
ATOM     25  C   UNL A   1      38.513  29.763  31.755  1.00  0.00     0.049 A 
ATOM     26  H   UNL A   1      38.724  30.331  33.762  1.00  0.00     0.167 HD
ATOM     27  C   UNL A   1      39.871  33.343  37.147  1.00  0.00     0.037 A 
ATOM     28  C   UNL A   1      39.610  29.073  31.383  1.00  0.00     0.037 A 
ATOM     29  C   UNL A   1      40.999  32.461  37.006  1.00  0.00     0.049 A 
ATOM     30  C   UNL A   1      40.803  29.136  32.301  1.00  0.00     0.074 A 
ATOM     31  C   UNL A   1      41.914  32.022  37.939  1.00  0.00     0.029 A 
ATOM     32  N   UNL A   1      41.417  31.930  35.802  1.00  0.00    -0.354 N 
ATOM     33  N   UNL A   1      40.969  29.855  33.390  1.00  0.00    -0.248 NA
ATOM     34  C   UNL A   1      41.986  28.370  31.903  1.00  0.00     0.031 C 
ATOM     35  C   UNL A   1      42.780  31.117  37.293  1.00  0.00     0.029 A 
ATOM     36  C   UNL A   1      42.384  30.969  35.968  1.00  0.00     0.049 A 
ATOM     37  H   UNL A   1      41.063  32.209  34.927  1.00  0.00     0.167 HD
ATOM     38  C   UNL A   1      42.273  29.648  33.813  1.00  0.00     0.074 A 
ATOM     39  C   UNL A   1      42.859  28.732  32.840  1.00  0.00     0.031 C 
ATOM     40  C   UNL A   1      42.919  30.123  34.914  1.00  0.00     0.037 A 
BRANCH  27  41
ATOM     41  C   UNL A   1      39.881  34.385  38.221  1.00  0.00     0.064 A 
ATOM     42  C   UNL A   1      40.558  35.597  38.023  1.00  0.00     0.173 A 
ATOM     43  C   UNL A   1      39.205  34.205  39.437  1.00  0.00     0.173 A 
ATOM     44  F   UNL A   1      41.206  35.830  36.871  1.00  0.00    -0.203 F 
ATOM     45  C   UNL A   1      40.548  36.590  39.000  1.00  0.00     0.198 A 
ATOM     46  C   UNL A   1      39.164  35.214  40.395  1.00  0.00     0.198 A 
ATOM     47  F   UNL A   1      38.524  33.072  39.670  1.00  0.00    -0.203 F 
ATOM     48  F   UNL A   1      41.204  37.740  38.791  1.00  0.00    -0.200 F 
ATOM     49  C   UNL A   1      39.841  36.402  40.178  1.00  0.00     0.200 A 
ATOM     50  F   UNL A   1      38.442  35.044  41.511  1.00  0.00    -0.200 F 
ATOM     51  F   UNL A   1      39.800  37.374  41.101  1.00  0.00    -0.200 F 
ENDBRANCH  27  41
BRANCH  28  52
ATOM     52  C   UNL A   1      39.670  28.464  30.017  1.00  0.00     0.064 A 
ATOM     53  C   UNL A   1      39.256  27.142  29.785  1.00  0.00     0.173 A 
ATOM     54  C   UNL A   1      40.244  29.147  28.936  1.00  0.00     0.173 A 
ATOM     55  F   UNL A   1      38.647  26.460  30.759  1.00  0.00    -0.203 F 
ATOM     56  C   UNL A   1      39.456  26.512  28.554  1.00  0.00     0.198 A 
ATOM     57  C   UNL A   1      40.420  28.527  27.694  1.00  0.00     0.198 A 
ATOM     58  F   UNL A   1      40.630  30.423  29.080  1.00  0.00    -0.203 F 
ATOM     59  F   UNL A   1      39.074  25.238  28.379  1.00  0.00    -0.200 F 
ATOM     60  C   UNL A   1      40.043  27.205  27.509  1.00  0.00     0.200 A 
ATOM     61  F   UNL A   1      40.956  29.211  26.673  1.00  0.00    -0.200 F 
ATOM     62  F   UNL A   1      40.228  26.608  26.323  1.00  0.00    -0.200 F 
ENDBRANCH  28  52
BRANCH  40  63
ATOM     63  C   UNL A   1      44.260  29.532  35.189  1.00  0.00     0.064 A 
ATOM     64  C   UNL A   1      45.389  30.228  34.735  1.00  0.00     0.173 A 
ATOM     65  C   UNL A   1      44.432  28.270  35.763  1.00  0.00     0.173 A 
ATOM     66  F   UNL A   1      45.255  31.450  34.196  1.00  0.00    -0.203 F 
ATOM     67  C   UNL A   1      46.645  29.644  34.769  1.00  0.00     0.198 A 
ATOM     68  C   UNL A   1      45.701  27.702  35.830  1.00  0.00     0.198 A 
ATOM     69  F   UNL A   1      43.380  27.594  36.250  1.00  0.00    -0.203 F 
ATOM     70  F   UNL A   1      47.694  30.293  34.247  1.00  0.00    -0.200 F 
ATOM     71  C   UNL A   1      46.799  28.378  35.311  1.00  0.00     0.200 A 
ATOM     72  F   UNL A   1      45.864  26.490  36.380  1.00  0.00    -0.200 F 
ATOM     73  F   UNL A   1      48.010  27.804  35.323  1.00  0.00    -0.200 F 
ENDBRANCH  40  63
ENDBRANCH  14  15
ENDBRANCH   7   9
ENDBRANCH   6   7
ENDBRANCH   5   6
ENDBRANCH   4   5
ENDBRANCH   3   4
ENDBRANCH   2   3
ENDBRANCH   1   2
BRANCH   1  74
ATOM     74  O   UNL A   1      34.019  31.825  28.035  1.00  0.00    -0.376 OA
BRANCH  74  75
ATOM     75  C   UNL A   1      34.925  30.814  27.599  1.00  0.00     0.202 C 
BRANCH  75  76
ATOM     76  C   UNL A   1      34.375  29.384  27.556  1.00  0.00     0.261 C 
BRANCH  76  77
ATOM     77  O   UNL A   1      33.326  29.218  26.587  1.00  0.00    -0.463 OA
BRANCH  77  78
ATOM     78  C   UNL A   1      33.210  27.982  26.005  1.00  0.00     0.310 C 
ATOM     79  O   UNL A   1      34.119  27.187  25.915  1.00  0.00    -0.252 OA
BRANCH  78  80
ATOM     80  C   UNL A   1      31.755  27.696  25.555  1.00  0.00     0.115 C 
ATOM     81  C   UNL A   1      31.159  28.941  24.899  1.00  0.00     0.043 C 
ATOM     82  C   UNL A   1      31.759  26.487  24.601  1.00  0.00     0.097 C 
ATOM     83  C   UNL A   1      31.706  29.210  23.532  1.00  0.00    -0.030 C 
ATOM     84  C   UNL A   1      32.386  26.826  23.220  1.00  0.00     0.041 C 
ATOM     85  C   UNL A   1      32.260  28.253  22.781  1.00  0.00    -0.030 C 
BRANCH  82  86
ATOM     86  C   UNL A   1      30.593  25.511  24.399  1.00  0.00     0.224 C 
ATOM     87  O   UNL A   1      29.580  25.960  23.829  1.00  0.00    -0.275 OA
ATOM     88  N   UNL A   1      30.478  24.208  24.690  1.00  0.00    -0.344 N 
ATOM     89  H   UNL A   1      29.657  23.840  24.292  1.00  0.00     0.164 HD
BRANCH  88  90
ATOM     90  C   UNL A   1      31.202  23.161  25.419  1.00  0.00     0.172 C 
ATOM     91  C   UNL A   1      31.459  23.627  26.842  1.00  0.00     0.037 C 
ATOM     92  C   UNL A   1      32.524  22.848  24.671  1.00  0.00     0.249 C 
ATOM     93  C   UNL A   1      32.321  22.605  27.551  1.00  0.00     0.025 C 
ATOM     94  N   UNL A   1      33.636  22.446  25.450  1.00  0.00    -0.308 N 
ATOM     95  O   UNL A   1      32.481  22.821  23.438  1.00  0.00    -0.272 OA
ATOM     96  C   UNL A   1      33.685  22.580  26.902  1.00  0.00     0.126 C 
BRANCH  94  97
ATOM     97  C   UNL A   1      34.801  21.916  24.802  1.00  0.00     0.080 A 
ATOM     98  C   UNL A   1      35.736  22.785  24.218  1.00  0.00     0.029 A 
ATOM     99  C   UNL A   1      35.150  20.573  24.951  1.00  0.00     0.146 A 
ATOM    100  C   UNL A   1      37.070  22.415  24.181  1.00  0.00     0.002 A 
ATOM    101  C   UNL A   1      36.464  20.189  24.897  1.00  0.00     0.041 A 
ATOM    102  F   UNL A   1      34.219  19.641  25.184  1.00  0.00    -0.205 F 
ATOM    103  C   UNL A   1      37.408  21.162  24.659  1.00  0.00     0.003 A 
ENDBRANCH  94  97
ENDBRANCH  88  90
ENDBRANCH  82  86
ENDBRANCH  78  80
ENDBRANCH  77  78
ENDBRANCH  76  77
ENDBRANCH  75  76
ENDBRANCH  74  75
ENDBRANCH   1  74
TORSDOF 20
ENDMDL
MODEL 2
REMARK VINA RESULT:     -12.0      1.212      1.753
REMARK SMILES O=C(OCCOCCOCCOC(=O)[C@H]1CC=CC[C@@H]1C(=O)N[C@@H]1CCCN(c2ccccc2F)C1=O)c1ccc(-c2c3nc(c(-c4c(F)c(F)c(F)c(F)c4F)c4ccc([nH]4)c(-c4c(F)c(F)c(F)c(F)c4F)c4nc(c(-c5c(F)c(F)c(F)c(F)c5F)c5ccc2[nH]5)C=C4)C=C3)cc1
REMARK SMILES IDX 8 1 7 2 6 3 5 4 4 5 3 6 2 7 1 8 38 9 39 10 100 11 40 12
REMARK SMILES IDX 99 13 41 14 42 15 43 16 93 17 44 18 98 19 92 20 94 21 45 22
REMARK SMILES IDX 97 23 91 24 90 25 46 27 78 28 58 29 77 30 59 31 62 32 76 33
REMARK SMILES IDX 95 34 60 35 61 36 75 38 96 39 63 40 47 41 48 42 56 43 49 44
REMARK SMILES IDX 50 45 54 46 57 47 51 48 52 49 55 50 53 51 79 52 80 53 88 54
REMARK SMILES IDX 81 55 82 56 86 57 89 58 83 59 84 60 87 61 85 62 64 63 65 64
REMARK SMILES IDX 73 65 66 66 67 67 71 68 74 69 68 70 69 71 72 72 70 73 9 74
REMARK SMILES IDX 10 75 11 76 12 77 13 78 14 79 15 80 16 81 20 82 17 83 19 84
REMARK SMILES IDX 18 85 21 86 22 87 23 88 24 90 25 91 36 92 26 93 28 94 37 95
REMARK SMILES IDX 27 96 29 97 30 98 34 99 31 100 33 101 35 102 32 103
REMARK H PARENT 94 26 62 37 23 89
REMARK Flexibility Score: inf
ROOT
ATOM      1  C   UNL A   1      35.366  32.040  28.104  1.00  0.00     0.188 C 
ENDROOT
BRANCH   1   2
ATOM      2  C   UNL A   1      34.816  32.997  29.163  1.00  0.00     0.188 C 
BRANCH   2   3
ATOM      3  O   UNL A   1      33.669  33.721  28.692  1.00  0.00    -0.376 OA
BRANCH   3   4
ATOM      4  C   UNL A   1      33.947  35.098  28.414  1.00  0.00     0.202 C 
BRANCH   4   5
ATOM      5  C   UNL A   1      33.015  36.091  29.120  1.00  0.00     0.261 C 
BRANCH   5   6
ATOM      6  O   UNL A   1      32.425  35.536  30.305  1.00  0.00    -0.460 OA
BRANCH   6   7
ATOM      7  C   UNL A   1      32.859  35.682  31.579  1.00  0.00     0.338 C 
ATOM      8  O   UNL A   1      32.239  36.424  32.340  1.00  0.00    -0.246 OA
BRANCH   7   9
ATOM      9  C   UNL A   1      34.016  34.927  32.146  1.00  0.00     0.060 A 
ATOM     10  C   UNL A   1      35.358  35.327  32.139  1.00  0.00     0.016 A 
ATOM     11  C   UNL A   1      33.697  33.736  32.803  1.00  0.00     0.016 A 
ATOM     12  C   UNL A   1      36.372  34.521  32.678  1.00  0.00     0.010 A 
ATOM     13  C   UNL A   1      34.699  32.956  33.377  1.00  0.00     0.010 A 
ATOM     14  C   UNL A   1      36.051  33.316  33.292  1.00  0.00    -0.014 A 
BRANCH  14  15
ATOM     15  C   UNL A   1      37.081  32.332  33.743  1.00  0.00     0.031 A 
ATOM     16  C   UNL A   1      37.770  32.639  35.041  1.00  0.00     0.074 A 
ATOM     17  C   UNL A   1      37.508  31.344  32.934  1.00  0.00     0.049 A 
ATOM     18  N   UNL A   1      38.965  32.311  35.448  1.00  0.00    -0.248 NA
ATOM     19  C   UNL A   1      37.065  33.576  35.931  1.00  0.00     0.031 C 
ATOM     20  C   UNL A   1      36.962  31.094  31.612  1.00  0.00     0.029 A 
ATOM     21  N   UNL A   1      38.542  30.440  33.030  1.00  0.00    -0.354 N 
ATOM     22  C   UNL A   1      39.222  33.118  36.547  1.00  0.00     0.074 A 
ATOM     23  C   UNL A   1      38.037  33.923  36.762  1.00  0.00     0.031 C 
ATOM     24  C   UNL A   1      37.662  30.138  30.988  1.00  0.00     0.029 A 
ATOM     25  C   UNL A   1      38.779  29.768  31.843  1.00  0.00     0.049 A 
ATOM     26  H   UNL A   1      39.057  30.287  33.855  1.00  0.00     0.167 HD
ATOM     27  C   UNL A   1      40.367  33.196  37.271  1.00  0.00     0.037 A 
ATOM     28  C   UNL A   1      39.847  29.059  31.427  1.00  0.00     0.037 A 
ATOM     29  C   UNL A   1      41.469  32.290  37.081  1.00  0.00     0.049 A 
ATOM     30  C   UNL A   1      41.066  29.073  32.314  1.00  0.00     0.074 A 
ATOM     31  C   UNL A   1      42.397  31.809  37.979  1.00  0.00     0.029 A 
ATOM     32  N   UNL A   1      41.842  31.776  35.855  1.00  0.00    -0.354 N 
ATOM     33  N   UNL A   1      41.278  29.764  33.413  1.00  0.00    -0.248 NA
ATOM     34  C   UNL A   1      42.218  28.287  31.869  1.00  0.00     0.031 C 
ATOM     35  C   UNL A   1      43.222  30.897  37.292  1.00  0.00     0.029 A 
ATOM     36  C   UNL A   1      42.788  30.788  35.975  1.00  0.00     0.049 A 
ATOM     37  H   UNL A   1      41.472  32.081  34.996  1.00  0.00     0.167 HD
ATOM     38  C   UNL A   1      42.587  29.516  33.797  1.00  0.00     0.074 A 
ATOM     39  C   UNL A   1      43.124  28.608  32.789  1.00  0.00     0.031 C 
ATOM     40  C   UNL A   1      43.274  29.951  34.890  1.00  0.00     0.037 A 
BRANCH  27  41
ATOM     41  C   UNL A   1      40.432  34.215  38.365  1.00  0.00     0.064 A 
ATOM     42  C   UNL A   1      41.019  35.466  38.131  1.00  0.00     0.173 A 
ATOM     43  C   UNL A   1      39.896  33.971  39.639  1.00  0.00     0.173 A 
ATOM     44  F   UNL A   1      41.531  35.760  36.927  1.00  0.00    -0.203 F 
ATOM     45  C   UNL A   1      41.056  36.437  39.131  1.00  0.00     0.198 A 
ATOM     46  C   UNL A   1      39.900  34.955  40.622  1.00  0.00     0.198 A 
ATOM     47  F   UNL A   1      39.305  32.797  39.910  1.00  0.00    -0.203 F 
ATOM     48  F   UNL A   1      41.624  37.626  38.888  1.00  0.00    -0.200 F 
ATOM     49  C   UNL A   1      40.486  36.185  40.370  1.00  0.00     0.200 A 
ATOM     50  F   UNL A   1      39.307  34.722  41.801  1.00  0.00    -0.200 F 
ATOM     51  F   UNL A   1      40.487  37.133  41.318  1.00  0.00    -0.200 F 
ENDBRANCH  27  41
BRANCH  28  52
ATOM     52  C   UNL A   1      39.857  28.479  30.048  1.00  0.00     0.064 A 
ATOM     53  C   UNL A   1      39.337  27.201  29.788  1.00  0.00     0.173 A 
ATOM     54  C   UNL A   1      40.482  29.138  28.980  1.00  0.00     0.173 A 
ATOM     55  F   UNL A   1      38.675  26.549  30.748  1.00  0.00    -0.203 F 
ATOM     56  C   UNL A   1      39.483  26.584  28.542  1.00  0.00     0.198 A 
ATOM     57  C   UNL A   1      40.606  28.534  27.724  1.00  0.00     0.198 A 
ATOM     58  F   UNL A   1      40.971  30.375  29.153  1.00  0.00    -0.203 F 
ATOM     59  F   UNL A   1      38.999  25.350  28.339  1.00  0.00    -0.200 F 
ATOM     60  C   UNL A   1      40.123  27.252  27.511  1.00  0.00     0.200 A 
ATOM     61  F   UNL A   1      41.194  29.196  26.718  1.00  0.00    -0.200 F 
ATOM     62  F   UNL A   1      40.258  26.669  26.311  1.00  0.00    -0.200 F 
ENDBRANCH  28  52
BRANCH  40  63
ATOM     63  C   UNL A   1      44.606  29.322  35.116  1.00  0.00     0.064 A 
ATOM     64  C   UNL A   1      45.741  30.005  34.656  1.00  0.00     0.173 A 
ATOM     65  C   UNL A   1      44.762  28.040  35.648  1.00  0.00     0.173 A 
ATOM     66  F   UNL A   1      45.624  31.245  34.157  1.00  0.00    -0.203 F 
ATOM     67  C   UNL A   1      46.983  29.392  34.645  1.00  0.00     0.198 A 
ATOM     68  C   UNL A   1      46.018  27.441  35.670  1.00  0.00     0.198 A 
ATOM     69  F   UNL A   1      43.705  27.374  36.139  1.00  0.00    -0.203 F 
ATOM     70  F   UNL A   1      48.035  30.032  34.118  1.00  0.00    -0.200 F 
ATOM     71  C   UNL A   1      47.120  28.107  35.145  1.00  0.00     0.200 A 
ATOM     72  F   UNL A   1      46.164  26.210  36.179  1.00  0.00    -0.200 F 
ATOM     73  F   UNL A   1      48.317  27.505  35.113  1.00  0.00    -0.200 F 
ENDBRANCH  40  63
ENDBRANCH  14  15
ENDBRANCH   7   9
ENDBRANCH   6   7
ENDBRANCH   5   6
ENDBRANCH   4   5
ENDBRANCH   3   4
ENDBRANCH   2   3
ENDBRANCH   1   2
BRANCH   1  74
ATOM     74  O   UNL A   1      35.124  30.652  28.341  1.00  0.00    -0.376 OA
BRANCH  74  75
ATOM     75  C   UNL A   1      34.637  29.875  27.250  1.00  0.00     0.202 C 
BRANCH  75  76
ATOM     76  C   UNL A   1      33.300  30.319  26.646  1.00  0.00     0.261 C 
BRANCH  76  77
ATOM     77  O   UNL A   1      32.488  29.214  26.215  1.00  0.00    -0.463 OA
BRANCH  77  78
ATOM     78  C   UNL A   1      32.708  28.739  24.948  1.00  0.00     0.310 C 
ATOM     79  O   UNL A   1      32.687  29.428  23.952  1.00  0.00    -0.252 OA
BRANCH  78  80
ATOM     80  C   UNL A   1      33.071  27.232  24.956  1.00  0.00     0.115 C 
ATOM     81  C   UNL A   1      32.298  26.517  26.064  1.00  0.00     0.043 C 
ATOM     82  C   UNL A   1      32.769  26.641  23.566  1.00  0.00     0.097 C 
ATOM     83  C   UNL A   1      30.846  26.336  25.751  1.00  0.00    -0.030 C 
ATOM     84  C   UNL A   1      31.244  26.529  23.291  1.00  0.00     0.041 C 
ATOM     85  C   UNL A   1      30.376  26.345  24.499  1.00  0.00    -0.030 C 
BRANCH  82  86
ATOM     86  C   UNL A   1      33.484  25.438  22.939  1.00  0.00     0.224 C 
ATOM     87  O   UNL A   1      33.861  25.564  21.758  1.00  0.00    -0.275 OA
ATOM     88  N   UNL A   1      33.830  24.253  23.460  1.00  0.00    -0.344 N 
ATOM     89  H   UNL A   1      34.414  23.763  22.837  1.00  0.00     0.164 HD
BRANCH  88  90
ATOM     90  C   UNL A   1      33.608  23.462  24.675  1.00  0.00     0.172 C 
ATOM     91  C   UNL A   1      34.699  23.774  25.684  1.00  0.00     0.037 C 
ATOM     92  C   UNL A   1      33.587  21.957  24.300  1.00  0.00     0.249 C 
ATOM     93  C   UNL A   1      34.546  22.861  26.881  1.00  0.00     0.025 C 
ATOM     94  N   UNL A   1      34.064  21.037  25.265  1.00  0.00    -0.308 N 
ATOM     95  O   UNL A   1      33.017  21.646  23.250  1.00  0.00    -0.272 OA
ATOM     96  C   UNL A   1      34.816  21.439  26.449  1.00  0.00     0.126 C 
BRANCH  94  97
ATOM     97  C   UNL A   1      33.847  19.632  25.072  1.00  0.00     0.080 A 
ATOM     98  C   UNL A   1      32.544  19.112  25.113  1.00  0.00     0.029 A 
ATOM     99  C   UNL A   1      34.872  18.810  24.604  1.00  0.00     0.146 A 
ATOM    100  C   UNL A   1      32.235  18.002  24.344  1.00  0.00     0.002 A 
ATOM    101  C   UNL A   1      34.582  17.698  23.858  1.00  0.00     0.041 A 
ATOM    102  F   UNL A   1      36.155  19.106  24.839  1.00  0.00    -0.205 F 
ATOM    103  C   UNL A   1      33.256  17.410  23.623  1.00  0.00     0.003 A 
ENDBRANCH  94  97
ENDBRANCH  88  90
ENDBRANCH  82  86
ENDBRANCH  78  80
ENDBRANCH  77  78
ENDBRANCH  76  77
ENDBRANCH  75  76
ENDBRANCH  74  75
ENDBRANCH   1  74
TORSDOF 20
ENDMDL
MODEL 3
REMARK VINA RESULT:     -11.9      6.396     12.372
REMARK SMILES O=C(OCCOCCOCCOC(=O)[C@H]1CC=CC[C@@H]1C(=O)N[C@@H]1CCCN(c2ccccc2F)C1=O)c1ccc(-c2c3nc(c(-c4c(F)c(F)c(F)c(F)c4F)c4ccc([nH]4)c(-c4c(F)c(F)c(F)c(F)c4F)c4nc(c(-c5c(F)c(F)c(F)c(F)c5F)c5ccc2[nH]5)C=C4)C=C3)cc1
REMARK SMILES IDX 8 1 7 2 6 3 5 4 4 5 3 6 2 7 1 8 38 9 39 10 100 11 40 12
REMARK SMILES IDX 99 13 41 14 42 15 43 16 93 17 44 18 98 19 92 20 94 21 45 22
REMARK SMILES IDX 97 23 91 24 90 25 46 27 78 28 58 29 77 30 59 31 62 32 76 33
REMARK SMILES IDX 95 34 60 35 61 36 75 38 96 39 63 40 47 41 48 42 56 43 49 44
REMARK SMILES IDX 50 45 54 46 57 47 51 48 52 49 55 50 53 51 79 52 80 53 88 54
REMARK SMILES IDX 81 55 82 56 86 57 89 58 83 59 84 60 87 61 85 62 64 63 65 64
REMARK SMILES IDX 73 65 66 66 67 67 71 68 74 69 68 70 69 71 72 72 70 73 9 74
REMARK SMILES IDX 10 75 11 76 12 77 13 78 14 79 15 80 16 81 20 82 17 83 19 84
REMARK SMILES IDX 18 85 21 86 22 87 23 88 24 90 25 91 36 92 26 93 28 94 37 95
REMARK SMILES IDX 27 96 29 97 30 98 34 99 31 100 33 101 35 102 32 103
REMARK H PARENT 94 26 62 37 23 89
REMARK Flexibility Score: inf
ROOT
ATOM      1  C   UNL A   1      39.663  21.012  26.042  1.00  0.00     0.188 C 
ENDROOT
BRANCH   1   2
ATOM      2  C   UNL A   1      41.114  20.893  26.512  1.00  0.00     0.188 C 
BRANCH   2   3
ATOM      3  O   UNL A   1      41.313  19.753  27.362  1.00  0.00    -0.376 OA
BRANCH   3   4
ATOM      4  C   UNL A   1      42.560  19.087  27.127  1.00  0.00     0.202 C 
BRANCH   4   5
ATOM      5  C   UNL A   1      42.840  18.761  25.655  1.00  0.00     0.261 C 
BRANCH   5   6
ATOM      6  O   UNL A   1      44.234  18.528  25.404  1.00  0.00    -0.460 OA
BRANCH   6   7
ATOM      7  C   UNL A   1      45.113  19.380  24.827  1.00  0.00     0.338 C 
ATOM      8  O   UNL A   1      46.051  18.921  24.177  1.00  0.00    -0.246 OA
BRANCH   7   9
ATOM      9  C   UNL A   1      44.967  20.866  24.869  1.00  0.00     0.060 A 
ATOM     10  C   UNL A   1      44.549  21.693  23.819  1.00  0.00     0.016 A 
ATOM     11  C   UNL A   1      45.217  21.464  26.107  1.00  0.00     0.016 A 
ATOM     12  C   UNL A   1      44.476  23.087  23.961  1.00  0.00     0.010 A 
ATOM     13  C   UNL A   1      45.101  22.844  26.261  1.00  0.00     0.010 A 
ATOM     14  C   UNL A   1      44.767  23.679  25.185  1.00  0.00    -0.014 A 
BRANCH  14  15
ATOM     15  C   UNL A   1      44.868  25.157  25.371  1.00  0.00     0.031 A 
ATOM     16  C   UNL A   1      46.245  25.747  25.277  1.00  0.00     0.074 A 
ATOM     17  C   UNL A   1      43.817  25.884  25.799  1.00  0.00     0.049 A 
ATOM     18  N   UNL A   1      46.734  26.817  25.840  1.00  0.00    -0.248 NA
ATOM     19  C   UNL A   1      47.245  24.925  24.576  1.00  0.00     0.031 C 
ATOM     20  C   UNL A   1      42.497  25.327  26.034  1.00  0.00     0.029 A 
ATOM     21  N   UNL A   1      43.692  27.190  26.213  1.00  0.00    -0.354 N 
ATOM     22  C   UNL A   1      48.111  26.718  25.704  1.00  0.00     0.074 A 
ATOM     23  C   UNL A   1      48.373  25.498  24.969  1.00  0.00     0.031 C 
ATOM     24  C   UNL A   1      41.689  26.247  26.578  1.00  0.00     0.029 A 
ATOM     25  C   UNL A   1      42.474  27.447  26.817  1.00  0.00     0.049 A 
ATOM     26  H   UNL A   1      44.394  27.870  26.091  1.00  0.00     0.167 HD
ATOM     27  C   UNL A   1      49.057  27.559  26.194  1.00  0.00     0.037 A 
ATOM     28  C   UNL A   1      42.077  28.464  27.610  1.00  0.00     0.037 A 
ATOM     29  C   UNL A   1      48.732  28.814  26.817  1.00  0.00     0.049 A 
ATOM     30  C   UNL A   1      43.134  29.447  28.042  1.00  0.00     0.074 A 
ATOM     31  C   UNL A   1      49.429  30.003  26.852  1.00  0.00     0.029 A 
ATOM     32  N   UNL A   1      47.614  29.020  27.601  1.00  0.00    -0.354 N 
ATOM     33  N   UNL A   1      44.433  29.409  27.832  1.00  0.00    -0.248 NA
ATOM     34  C   UNL A   1      42.697  30.561  28.887  1.00  0.00     0.031 C 
ATOM     35  C   UNL A   1      48.636  30.942  27.540  1.00  0.00     0.029 A 
ATOM     36  C   UNL A   1      47.433  30.347  27.906  1.00  0.00     0.049 A 
ATOM     37  H   UNL A   1      47.017  28.300  27.905  1.00  0.00     0.167 HD
ATOM     38  C   UNL A   1      44.983  30.479  28.522  1.00  0.00     0.074 A 
ATOM     39  C   UNL A   1      43.859  31.144  29.172  1.00  0.00     0.031 C 
ATOM     40  C   UNL A   1      46.275  30.905  28.585  1.00  0.00     0.037 A 
BRANCH  27  41
ATOM     41  C   UNL A   1      50.492  27.188  25.990  1.00  0.00     0.064 A 
ATOM     42  C   UNL A   1      51.223  26.592  27.027  1.00  0.00     0.173 A 
ATOM     43  C   UNL A   1      51.145  27.397  24.765  1.00  0.00     0.173 A 
ATOM     44  F   UNL A   1      50.643  26.353  28.213  1.00  0.00    -0.203 F 
ATOM     45  C   UNL A   1      52.550  26.210  26.840  1.00  0.00     0.198 A 
ATOM     46  C   UNL A   1      52.458  26.979  24.569  1.00  0.00     0.198 A 
ATOM     47  F   UNL A   1      50.486  27.945  23.733  1.00  0.00    -0.203 F 
ATOM     48  F   UNL A   1      53.232  25.645  27.846  1.00  0.00    -0.200 F 
ATOM     49  C   UNL A   1      53.162  26.393  25.608  1.00  0.00     0.200 A 
ATOM     50  F   UNL A   1      53.028  27.117  23.364  1.00  0.00    -0.200 F 
ATOM     51  F   UNL A   1      54.426  25.990  25.417  1.00  0.00    -0.200 F 
ENDBRANCH  27  41
BRANCH  28  52
ATOM     52  C   UNL A   1      40.694  28.459  28.181  1.00  0.00     0.064 A 
ATOM     53  C   UNL A   1      39.616  29.037  27.493  1.00  0.00     0.173 A 
ATOM     54  C   UNL A   1      40.437  27.976  29.472  1.00  0.00     0.173 A 
ATOM     55  F   UNL A   1      39.783  29.459  26.237  1.00  0.00    -0.203 F 
ATOM     56  C   UNL A   1      38.357  29.180  28.083  1.00  0.00     0.198 A 
ATOM     57  C   UNL A   1      39.171  28.093  30.054  1.00  0.00     0.198 A 
ATOM     58  F   UNL A   1      41.416  27.381  30.170  1.00  0.00    -0.203 F 
ATOM     59  F   UNL A   1      37.358  29.765  27.405  1.00  0.00    -0.200 F 
ATOM     60  C   UNL A   1      38.136  28.711  29.367  1.00  0.00     0.200 A 
ATOM     61  F   UNL A   1      38.950  27.607  31.283  1.00  0.00    -0.200 F 
ATOM     62  F   UNL A   1      36.928  28.838  29.934  1.00  0.00    -0.200 F 
ENDBRANCH  28  52
BRANCH  40  63
ATOM     63  C   UNL A   1      46.496  32.222  29.246  1.00  0.00     0.064 A 
ATOM     64  C   UNL A   1      46.881  32.223  30.595  1.00  0.00     0.173 A 
ATOM     65  C   UNL A   1      46.219  33.442  28.625  1.00  0.00     0.173 A 
ATOM     66  F   UNL A   1      47.171  31.067  31.213  1.00  0.00    -0.203 F 
ATOM     67  C   UNL A   1      46.902  33.398  31.327  1.00  0.00     0.198 A 
ATOM     68  C   UNL A   1      46.277  34.626  29.355  1.00  0.00     0.198 A 
ATOM     69  F   UNL A   1      45.892  33.484  27.324  1.00  0.00    -0.203 F 
ATOM     70  F   UNL A   1      47.185  33.361  32.636  1.00  0.00    -0.200 F 
ATOM     71  C   UNL A   1      46.593  34.599  30.708  1.00  0.00     0.200 A 
ATOM     72  F   UNL A   1      46.009  35.795  28.756  1.00  0.00    -0.200 F 
ATOM     73  F   UNL A   1      46.591  35.733  31.422  1.00  0.00    -0.200 F 
ENDBRANCH  40  63
ENDBRANCH  14  15
ENDBRANCH   7   9
ENDBRANCH   6   7
ENDBRANCH   5   6
ENDBRANCH   4   5
ENDBRANCH   3   4
ENDBRANCH   2   3
ENDBRANCH   1   2
BRANCH   1  74
ATOM     74  O   UNL A   1      38.984  22.205  26.433  1.00  0.00    -0.376 OA
BRANCH  74  75
ATOM     75  C   UNL A   1      37.941  22.676  25.582  1.00  0.00     0.202 C 
BRANCH  75  76
ATOM     76  C   UNL A   1      37.178  21.607  24.792  1.00  0.00     0.261 C 
BRANCH  76  77
ATOM     77  O   UNL A   1      35.938  22.092  24.249  1.00  0.00    -0.463 OA
BRANCH  77  78
ATOM     78  C   UNL A   1      34.786  21.674  24.863  1.00  0.00     0.310 C 
ATOM     79  O   UNL A   1      34.757  20.904  25.797  1.00  0.00    -0.252 OA
BRANCH  78  80
ATOM     80  C   UNL A   1      33.536  22.373  24.271  1.00  0.00     0.115 C 
ATOM     81  C   UNL A   1      32.462  22.517  25.349  1.00  0.00     0.043 C 
ATOM     82  C   UNL A   1      33.957  23.735  23.690  1.00  0.00     0.097 C 
ATOM     83  C   UNL A   1      32.777  23.572  26.363  1.00  0.00    -0.030 C 
ATOM     84  C   UNL A   1      34.317  24.764  24.797  1.00  0.00     0.041 C 
ATOM     85  C   UNL A   1      33.616  24.581  26.109  1.00  0.00    -0.030 C 
BRANCH  82  86
ATOM     86  C   UNL A   1      33.257  24.463  22.535  1.00  0.00     0.224 C 
ATOM     87  O   UNL A   1      33.685  24.235  21.388  1.00  0.00    -0.275 OA
ATOM     88  N   UNL A   1      32.202  25.290  22.530  1.00  0.00    -0.344 N 
ATOM     89  H   UNL A   1      31.908  25.463  21.606  1.00  0.00     0.164 HD
BRANCH  88  90
ATOM     90  C   UNL A   1      31.351  26.016  23.478  1.00  0.00     0.172 C 
ATOM     91  C   UNL A   1      30.106  25.196  23.765  1.00  0.00     0.037 C 
ATOM     92  C   UNL A   1      30.998  27.403  22.879  1.00  0.00     0.249 C 
ATOM     93  C   UNL A   1      29.168  26.003  24.636  1.00  0.00     0.025 C 
ATOM     94  N   UNL A   1      29.740  27.959  23.215  1.00  0.00    -0.308 N 
ATOM     95  O   UNL A   1      31.893  28.000  22.273  1.00  0.00    -0.272 OA
ATOM     96  C   UNL A   1      28.672  27.193  23.848  1.00  0.00     0.126 C 
BRANCH  94  97
ATOM     97  C   UNL A   1      29.461  29.328  22.892  1.00  0.00     0.080 A 
ATOM     98  C   UNL A   1      28.701  29.640  21.753  1.00  0.00     0.029 A 
ATOM     99  C   UNL A   1      29.719  30.344  23.813  1.00  0.00     0.146 A 
ATOM    100  C   UNL A   1      27.908  30.775  21.761  1.00  0.00     0.002 A 
ATOM    101  C   UNL A   1      28.956  31.482  23.820  1.00  0.00     0.041 A 
ATOM    102  F   UNL A   1      30.687  30.216  24.727  1.00  0.00    -0.205 F 
ATOM    103  C   UNL A   1      27.963  31.596  22.873  1.00  0.00     0.003 A 
ENDBRANCH  94  97
ENDBRANCH  88  90
ENDBRANCH  82  86
ENDBRANCH  78  80
ENDBRANCH  77  78
ENDBRANCH  76  77
ENDBRANCH  75  76
ENDBRANCH  74  75
ENDBRANCH   1  74
TORSDOF 20
ENDMDL
