MODEL 1
REMARK VINA RESULT:     -12.9      0.000      0.000
REMARK SMILES O=C(OCCOCCOCCOC(=O)c1ccc(-c2c3nc(c(-c4c(F)c(F)c(F)c(F)c4F)c4ccc([nH]4)c(-c4c(F)c(F)c(F)c(F)c4F)c4nc(c(-c5c(F)c(F)c(F)c(F)c5F)c5ccc2[nH]5)C=C4)C=C3)cc1)C1=Cc2cc(Cl)ccc2O[C@@H]1C(F)(F)F
REMARK SMILES IDX 8 1 7 2 6 3 5 4 4 5 3 6 2 7 1 8 78 9 79 10 88 11 80 12 87 13
REMARK SMILES IDX 81 14 86 15 82 16 85 17 83 18 84 19 89 20 90 21 91 22 92 23
REMARK SMILES IDX 9 24 10 25 11 26 12 27 13 28 14 29 15 30 16 31 77 32 17 33
REMARK SMILES IDX 76 34 18 35 19 36 20 37 70 38 21 39 75 40 69 41 71 42 22 43
REMARK SMILES IDX 74 44 68 45 67 46 23 48 55 49 35 50 54 51 36 52 39 53 53 54
REMARK SMILES IDX 72 55 37 56 38 57 52 59 73 60 40 61 24 62 25 63 33 64 26 65
REMARK SMILES IDX 27 66 31 67 34 68 28 69 29 70 32 71 30 72 56 73 57 74 65 75
REMARK SMILES IDX 58 76 59 77 63 78 66 79 60 80 61 81 64 82 62 83 41 84 42 85
REMARK SMILES IDX 50 86 43 87 44 88 48 89 51 90 45 91 46 92 49 93 47 94
REMARK H PARENT 71 47 39 58
REMARK Flexibility Score: inf
ROOT
ATOM      1  C   UNL A   1      40.297  21.418  27.135  1.00  0.00     0.188 C 
ENDROOT
BRANCH   1   2
ATOM      2  C   UNL A   1      39.261  21.808  26.064  1.00  0.00     0.188 C 
BRANCH   2   3
ATOM      3  O   UNL A   1      38.439  20.802  25.372  1.00  0.00    -0.376 OA
BRANCH   3   4
ATOM      4  C   UNL A   1      36.790  20.841  25.014  1.00  0.00     0.202 C 
BRANCH   4   5
ATOM      5  C   UNL A   1      35.250  21.914  26.125  1.00  0.00     0.261 C 
BRANCH   5   6
ATOM      6  O   UNL A   1      35.012  23.437  26.086  1.00  0.00    -0.460 OA
BRANCH   6   7
ATOM      7  C   UNL A   1      34.267  23.819  25.039  1.00  0.00     0.338 C 
ATOM      8  O   UNL A   1      34.605  24.074  23.910  1.00  0.00    -0.246 OA
BRANCH   7   9
ATOM      9  C   UNL A   1      33.150  24.288  25.828  1.00  0.00     0.087 C 
ATOM     10  C   UNL A   1      33.172  25.728  26.118  1.00  0.00     0.027 C 
ATOM     11  C   UNL A   1      31.819  23.382  24.762  1.00  0.00     0.316 C 
ATOM     12  C   UNL A   1      32.082  26.923  25.316  1.00  0.00     0.019 A 
ATOM     13  O   UNL A   1      30.740  24.659  23.774  1.00  0.00    -0.475 OA
ATOM     14  C   UNL A   1      32.193  28.250  25.619  1.00  0.00     0.032 A 
ATOM     15  C   UNL A   1      30.912  26.442  24.132  1.00  0.00     0.128 A 
ATOM     16  C   UNL A   1      31.276  29.083  24.951  1.00  0.00     0.041 A 
ATOM     17  C   UNL A   1      30.059  27.320  23.528  1.00  0.00     0.048 A 
ATOM     18  Cl  UNL A   1      31.347  30.775  25.336  1.00  0.00    -0.084 Cl
ATOM     19  C   UNL A   1      30.270  28.649  23.981  1.00  0.00     0.024 A 
BRANCH  11  20
ATOM     20  C   UNL A   1      31.404  22.262  25.889  1.00  0.00     0.430 C 
ATOM     21  F   UNL A   1      30.134  21.890  26.050  1.00  0.00    -0.167 F 
ATOM     22  F   UNL A   1      32.121  21.129  25.692  1.00  0.00    -0.167 F 
ATOM     23  F   UNL A   1      31.761  22.692  27.140  1.00  0.00    -0.167 F 
ENDBRANCH  11  20
ENDBRANCH   7   9
ENDBRANCH   6   7
ENDBRANCH   5   6
ENDBRANCH   4   5
ENDBRANCH   3   4
ENDBRANCH   2   3
ENDBRANCH   1   2
BRANCH   1  24
ATOM     24  O   UNL A   1      41.291  20.475  26.817  1.00  0.00    -0.376 OA
BRANCH  24  25
ATOM     25  C   UNL A   1      42.630  20.956  26.809  1.00  0.00     0.202 C 
BRANCH  25  26
ATOM     26  C   UNL A   1      43.194  21.502  25.488  1.00  0.00     0.261 C 
BRANCH  26  27
ATOM     27  O   UNL A   1      42.603  22.759  25.093  1.00  0.00    -0.460 OA
BRANCH  27  28
ATOM     28  C   UNL A   1      43.402  23.855  25.086  1.00  0.00     0.338 C 
ATOM     29  O   UNL A   1      44.414  24.034  24.432  1.00  0.00    -0.246 OA
BRANCH  28  30
ATOM     30  C   UNL A   1      42.788  24.903  25.927  1.00  0.00     0.060 A 
ATOM     31  C   UNL A   1      43.069  26.255  25.672  1.00  0.00     0.016 A 
ATOM     32  C   UNL A   1      41.959  24.540  26.987  1.00  0.00     0.016 A 
ATOM     33  C   UNL A   1      42.491  27.254  26.462  1.00  0.00     0.010 A 
ATOM     34  C   UNL A   1      41.427  25.532  27.808  1.00  0.00     0.010 A 
ATOM     35  C   UNL A   1      41.703  26.889  27.560  1.00  0.00    -0.014 A 
BRANCH  35  36
ATOM     36  C   UNL A   1      41.390  27.869  28.626  1.00  0.00     0.031 A 
ATOM     37  C   UNL A   1      42.192  27.784  29.891  1.00  0.00     0.074 A 
ATOM     38  C   UNL A   1      40.363  28.727  28.524  1.00  0.00     0.049 A 
ATOM     39  N   UNL A   1      42.004  28.369  31.043  1.00  0.00    -0.248 NA
ATOM     40  C   UNL A   1      43.359  26.887  29.849  1.00  0.00     0.031 C 
ATOM     41  C   UNL A   1      39.534  28.918  27.338  1.00  0.00     0.029 A 
ATOM     42  N   UNL A   1      39.817  29.571  29.462  1.00  0.00    -0.354 N 
ATOM     43  C   UNL A   1      43.014  27.892  31.869  1.00  0.00     0.074 A 
ATOM     44  C   UNL A   1      43.794  26.954  31.094  1.00  0.00     0.031 C 
ATOM     45  C   UNL A   1      38.557  29.794  27.629  1.00  0.00     0.029 A 
ATOM     46  C   UNL A   1      38.667  30.187  29.035  1.00  0.00     0.049 A 
ATOM     47  H   UNL A   1      40.213  29.718  30.351  1.00  0.00     0.167 HD
ATOM     48  C   UNL A   1      43.259  28.203  33.163  1.00  0.00     0.037 A 
ATOM     49  C   UNL A   1      37.785  30.943  29.720  1.00  0.00     0.037 A 
ATOM     50  C   UNL A   1      42.447  29.104  33.934  1.00  0.00     0.049 A 
ATOM     51  C   UNL A   1      38.031  31.227  31.183  1.00  0.00     0.074 A 
ATOM     52  C   UNL A   1      42.613  29.508  35.246  1.00  0.00     0.029 A 
ATOM     53  N   UNL A   1      41.295  29.721  33.465  1.00  0.00    -0.354 N 
ATOM     54  N   UNL A   1      39.006  30.807  31.955  1.00  0.00    -0.248 NA
ATOM     55  C   UNL A   1      37.056  32.087  31.869  1.00  0.00     0.031 C 
ATOM     56  C   UNL A   1      41.517  30.303  35.596  1.00  0.00     0.029 A 
ATOM     57  C   UNL A   1      40.717  30.472  34.475  1.00  0.00     0.049 A 
ATOM     58  H   UNL A   1      40.941  29.636  32.551  1.00  0.00     0.167 HD
ATOM     59  C   UNL A   1      38.784  31.379  33.203  1.00  0.00     0.074 A 
ATOM     60  C   UNL A   1      37.578  32.173  33.085  1.00  0.00     0.031 C 
ATOM     61  C   UNL A   1      39.519  31.265  34.338  1.00  0.00     0.037 A 
BRANCH  48  62
ATOM     62  C   UNL A   1      44.407  27.496  33.827  1.00  0.00     0.064 A 
ATOM     63  C   UNL A   1      44.246  26.265  34.486  1.00  0.00     0.173 A 
ATOM     64  C   UNL A   1      45.684  28.080  33.840  1.00  0.00     0.173 A 
ATOM     65  F   UNL A   1      43.044  25.670  34.520  1.00  0.00    -0.203 F 
ATOM     66  C   UNL A   1      45.301  25.680  35.181  1.00  0.00     0.198 A 
ATOM     67  C   UNL A   1      46.747  27.469  34.497  1.00  0.00     0.198 A 
ATOM     68  F   UNL A   1      45.898  29.252  33.224  1.00  0.00    -0.203 F 
ATOM     69  F   UNL A   1      45.098  24.553  35.877  1.00  0.00    -0.200 F 
ATOM     70  C   UNL A   1      46.551  26.280  35.183  1.00  0.00     0.200 A 
ATOM     71  F   UNL A   1      47.958  28.043  34.485  1.00  0.00    -0.200 F 
ATOM     72  F   UNL A   1      47.563  25.720  35.859  1.00  0.00    -0.200 F 
ENDBRANCH  48  62
BRANCH  49  73
ATOM     73  C   UNL A   1      36.577  31.466  29.027  1.00  0.00     0.064 A 
ATOM     74  C   UNL A   1      35.493  30.629  28.727  1.00  0.00     0.173 A 
ATOM     75  C   UNL A   1      36.470  32.820  28.675  1.00  0.00     0.173 A 
ATOM     76  F   UNL A   1      35.559  29.321  29.015  1.00  0.00    -0.203 F 
ATOM     77  C   UNL A   1      34.350  31.125  28.102  1.00  0.00     0.198 A 
ATOM     78  C   UNL A   1      35.315  33.321  28.076  1.00  0.00     0.198 A 
ATOM     79  F   UNL A   1      37.480  33.664  28.931  1.00  0.00    -0.203 F 
ATOM     80  F   UNL A   1      33.343  30.295  27.796  1.00  0.00    -0.200 F 
ATOM     81  C   UNL A   1      34.258  32.472  27.787  1.00  0.00     0.200 A 
ATOM     82  F   UNL A   1      35.226  34.626  27.783  1.00  0.00    -0.200 F 
ATOM     83  F   UNL A   1      33.152  32.952  27.200  1.00  0.00    -0.200 F 
ENDBRANCH  49  73
BRANCH  61  84
ATOM     84  C   UNL A   1      39.088  32.061  35.540  1.00  0.00     0.064 A 
ATOM     85  C   UNL A   1      38.325  31.499  36.574  1.00  0.00     0.173 A 
ATOM     86  C   UNL A   1      39.528  33.385  35.695  1.00  0.00     0.173 A 
ATOM     87  F   UNL A   1      37.871  30.241  36.472  1.00  0.00    -0.203 F 
ATOM     88  C   UNL A   1      38.008  32.239  37.711  1.00  0.00     0.198 A 
ATOM     89  C   UNL A   1      39.240  34.109  36.848  1.00  0.00     0.198 A 
ATOM     90  F   UNL A   1      40.269  33.968  34.741  1.00  0.00    -0.203 F 
ATOM     91  F   UNL A   1      37.247  31.695  38.672  1.00  0.00    -0.200 F 
ATOM     92  C   UNL A   1      38.476  33.537  37.854  1.00  0.00     0.200 A 
ATOM     93  F   UNL A   1      39.713  35.355  36.992  1.00  0.00    -0.200 F 
ATOM     94  F   UNL A   1      38.188  34.238  38.959  1.00  0.00    -0.200 F 
ENDBRANCH  61  84
ENDBRANCH  35  36
ENDBRANCH  28  30
ENDBRANCH  27  28
ENDBRANCH  26  27
ENDBRANCH  25  26
ENDBRANCH  24  25
ENDBRANCH   1  24
TORSDOF 18
ENDMDL
MODEL 2
REMARK VINA RESULT:     -12.8      3.311      8.792
REMARK SMILES O=C(OCCOCCOCCOC(=O)c1ccc(-c2c3nc(c(-c4c(F)c(F)c(F)c(F)c4F)c4ccc([nH]4)c(-c4c(F)c(F)c(F)c(F)c4F)c4nc(c(-c5c(F)c(F)c(F)c(F)c5F)c5ccc2[nH]5)C=C4)C=C3)cc1)C1=Cc2cc(Cl)ccc2O[C@@H]1C(F)(F)F
REMARK SMILES IDX 8 1 7 2 6 3 5 4 4 5 3 6 2 7 1 8 78 9 79 10 88 11 80 12 87 13
REMARK SMILES IDX 81 14 86 15 82 16 85 17 83 18 84 19 89 20 90 21 91 22 92 23
REMARK SMILES IDX 9 24 10 25 11 26 12 27 13 28 14 29 15 30 16 31 77 32 17 33
REMARK SMILES IDX 76 34 18 35 19 36 20 37 70 38 21 39 75 40 69 41 71 42 22 43
REMARK SMILES IDX 74 44 68 45 67 46 23 48 55 49 35 50 54 51 36 52 39 53 53 54
REMARK SMILES IDX 72 55 37 56 38 57 52 59 73 60 40 61 24 62 25 63 33 64 26 65
REMARK SMILES IDX 27 66 31 67 34 68 28 69 29 70 32 71 30 72 56 73 57 74 65 75
REMARK SMILES IDX 58 76 59 77 63 78 66 79 60 80 61 81 64 82 62 83 41 84 42 85
REMARK SMILES IDX 50 86 43 87 44 88 48 89 51 90 45 91 46 92 49 93 47 94
REMARK H PARENT 71 47 39 58
REMARK Flexibility Score: inf
ROOT
ATOM      1  C   UNL A   1      31.938  29.878  25.665  1.00  0.00     0.188 C 
ENDROOT
BRANCH   1   2
ATOM      2  C   UNL A   1      33.230  29.302  25.057  1.00  0.00     0.188 C 
BRANCH   2   3
ATOM      3  O   UNL A   1      33.459  29.271  23.602  1.00  0.00    -0.376 OA
BRANCH   3   4
ATOM      4  C   UNL A   1      33.407  27.955  22.546  1.00  0.00     0.202 C 
BRANCH   4   5
ATOM      5  C   UNL A   1      31.634  26.809  21.996  1.00  0.00     0.261 C 
BRANCH   5   6
ATOM      6  O   UNL A   1      31.365  25.338  22.370  1.00  0.00    -0.460 OA
BRANCH   6   7
ATOM      7  C   UNL A   1      32.485  24.602  22.418  1.00  0.00     0.338 C 
ATOM      8  O   UNL A   1      33.269  24.343  21.539  1.00  0.00    -0.246 OA
BRANCH   7   9
ATOM      9  C   UNL A   1      32.125  23.880  23.616  1.00  0.00     0.087 C 
ATOM     10  C   UNL A   1      31.798  22.464  23.400  1.00  0.00     0.027 C 
ATOM     11  C   UNL A   1      33.620  24.538  24.646  1.00  0.00     0.316 C 
ATOM     12  C   UNL A   1      32.893  21.107  23.866  1.00  0.00     0.019 A 
ATOM     13  O   UNL A   1      34.882  23.111  25.020  1.00  0.00    -0.475 OA
ATOM     14  C   UNL A   1      32.527  19.818  23.596  1.00  0.00     0.032 A 
ATOM     15  C   UNL A   1      34.428  21.387  24.618  1.00  0.00     0.128 A 
ATOM     16  C   UNL A   1      33.448  18.845  24.026  1.00  0.00     0.041 A 
ATOM     17  C   UNL A   1      35.265  20.380  25.003  1.00  0.00     0.048 A 
ATOM     18  Cl  UNL A   1      33.006  17.188  23.745  1.00  0.00    -0.084 Cl
ATOM     19  C   UNL A   1      34.724  19.104  24.693  1.00  0.00     0.024 A 
BRANCH  11  20
ATOM     20  C   UNL A   1      32.749  25.499  25.653  1.00  0.00     0.430 C 
ATOM     21  F   UNL A   1      31.969  26.468  25.174  1.00  0.00    -0.167 F 
ATOM     22  F   UNL A   1      31.969  24.731  26.454  1.00  0.00    -0.167 F 
ATOM     23  F   UNL A   1      33.582  26.167  26.511  1.00  0.00    -0.167 F 
ENDBRANCH  11  20
ENDBRANCH   7   9
ENDBRANCH   6   7
ENDBRANCH   5   6
ENDBRANCH   4   5
ENDBRANCH   3   4
ENDBRANCH   2   3
ENDBRANCH   1   2
BRANCH   1  24
ATOM     24  O   UNL A   1      32.029  30.817  26.708  1.00  0.00    -0.376 OA
BRANCH  24  25
ATOM     25  C   UNL A   1      31.343  32.048  26.503  1.00  0.00     0.202 C 
BRANCH  25  26
ATOM     26  C   UNL A   1      32.054  33.347  26.909  1.00  0.00     0.261 C 
BRANCH  26  27
ATOM     27  O   UNL A   1      33.004  33.166  27.982  1.00  0.00    -0.460 OA
BRANCH  27  28
ATOM     28  C   UNL A   1      34.202  33.793  27.874  1.00  0.00     0.338 C 
ATOM     29  O   UNL A   1      34.409  34.955  27.572  1.00  0.00    -0.246 OA
BRANCH  28  30
ATOM     30  C   UNL A   1      35.269  32.868  28.307  1.00  0.00     0.060 A 
ATOM     31  C   UNL A   1      34.981  31.504  28.483  1.00  0.00     0.016 A 
ATOM     32  C   UNL A   1      36.547  33.360  28.568  1.00  0.00     0.016 A 
ATOM     33  C   UNL A   1      35.985  30.621  28.891  1.00  0.00     0.010 A 
ATOM     34  C   UNL A   1      37.533  32.490  29.028  1.00  0.00     0.010 A 
ATOM     35  C   UNL A   1      37.253  31.123  29.208  1.00  0.00    -0.014 A 
BRANCH  35  36
ATOM     36  C   UNL A   1      38.215  30.312  29.989  1.00  0.00     0.031 A 
ATOM     37  C   UNL A   1      38.405  30.679  31.431  1.00  0.00     0.074 A 
ATOM     38  C   UNL A   1      38.973  29.362  29.420  1.00  0.00     0.049 A 
ATOM     39  N   UNL A   1      39.310  30.282  32.285  1.00  0.00    -0.248 NA
ATOM     40  C   UNL A   1      37.447  31.656  31.975  1.00  0.00     0.031 C 
ATOM     41  C   UNL A   1      38.857  28.903  28.039  1.00  0.00     0.029 A 
ATOM     42  N   UNL A   1      40.026  28.644  29.933  1.00  0.00    -0.354 N 
ATOM     43  C   UNL A   1      39.045  30.978  33.457  1.00  0.00     0.074 A 
ATOM     44  C   UNL A   1      37.912  31.837  33.198  1.00  0.00     0.031 C 
ATOM     45  C   UNL A   1      39.830  28.005  27.800  1.00  0.00     0.029 A 
ATOM     46  C   UNL A   1      40.661  27.866  28.997  1.00  0.00     0.049 A 
ATOM     47  H   UNL A   1      40.297  28.684  30.878  1.00  0.00     0.167 HD
ATOM     48  C   UNL A   1      39.697  30.912  34.641  1.00  0.00     0.037 A 
ATOM     49  C   UNL A   1      41.807  27.160  29.091  1.00  0.00     0.037 A 
ATOM     50  C   UNL A   1      40.850  30.085  34.871  1.00  0.00     0.049 A 
ATOM     51  C   UNL A   1      42.565  27.150  30.396  1.00  0.00     0.074 A 
ATOM     52  C   UNL A   1      41.578  29.924  36.035  1.00  0.00     0.029 A 
ATOM     53  N   UNL A   1      41.459  29.299  33.901  1.00  0.00    -0.354 N 
ATOM     54  N   UNL A   1      42.294  27.777  31.517  1.00  0.00    -0.248 NA
ATOM     55  C   UNL A   1      43.787  26.334  30.451  1.00  0.00     0.031 C 
ATOM     56  C   UNL A   1      42.675  29.105  35.748  1.00  0.00     0.029 A 
ATOM     57  C   UNL A   1      42.580  28.680  34.431  1.00  0.00     0.049 A 
ATOM     58  H   UNL A   1      41.143  29.198  32.975  1.00  0.00     0.167 HD
ATOM     59  C   UNL A   1      43.286  27.406  32.417  1.00  0.00     0.074 A 
ATOM     60  C   UNL A   1      44.169  26.501  31.711  1.00  0.00     0.031 C 
ATOM     61  C   UNL A   1      43.444  27.773  33.714  1.00  0.00     0.037 A 
BRANCH  48  62
ATOM     62  C   UNL A   1      39.212  31.819  35.737  1.00  0.00     0.064 A 
ATOM     63  C   UNL A   1      39.695  33.129  35.890  1.00  0.00     0.173 A 
ATOM     64  C   UNL A   1      38.277  31.355  36.675  1.00  0.00     0.173 A 
ATOM     65  F   UNL A   1      40.602  33.619  35.032  1.00  0.00    -0.203 F 
ATOM     66  C   UNL A   1      39.308  33.915  36.973  1.00  0.00     0.198 A 
ATOM     67  C   UNL A   1      37.858  32.159  37.731  1.00  0.00     0.198 A 
ATOM     68  F   UNL A   1      37.779  30.114  36.578  1.00  0.00    -0.203 F 
ATOM     69  F   UNL A   1      39.851  35.127  37.146  1.00  0.00    -0.200 F 
ATOM     70  C   UNL A   1      38.387  33.431  37.889  1.00  0.00     0.200 A 
ATOM     71  F   UNL A   1      36.957  31.695  38.607  1.00  0.00    -0.200 F 
ATOM     72  F   UNL A   1      38.021  34.184  38.935  1.00  0.00    -0.200 F 
ENDBRANCH  48  62
BRANCH  49  73
ATOM     73  C   UNL A   1      42.311  26.424  27.901  1.00  0.00     0.064 A 
ATOM     74  C   UNL A   1      41.886  25.118  27.621  1.00  0.00     0.173 A 
ATOM     75  C   UNL A   1      43.208  27.022  27.002  1.00  0.00     0.173 A 
ATOM     76  F   UNL A   1      41.053  24.491  28.465  1.00  0.00    -0.203 F 
ATOM     77  C   UNL A   1      42.338  24.438  26.491  1.00  0.00     0.198 A 
ATOM     78  C   UNL A   1      43.637  26.353  25.858  1.00  0.00     0.198 A 
ATOM     79  F   UNL A   1      43.654  28.267  27.225  1.00  0.00    -0.203 F 
ATOM     80  F   UNL A   1      41.941  23.178  26.266  1.00  0.00    -0.200 F 
ATOM     81  C   UNL A   1      43.204  25.061  25.604  1.00  0.00     0.200 A 
ATOM     82  F   UNL A   1      44.466  26.962  24.998  1.00  0.00    -0.200 F 
ATOM     83  F   UNL A   1      43.626  24.413  24.509  1.00  0.00    -0.200 F 
ENDBRANCH  49  73
BRANCH  61  84
ATOM     84  C   UNL A   1      44.576  27.156  34.490  1.00  0.00     0.064 A 
ATOM     85  C   UNL A   1      44.494  25.866  35.033  1.00  0.00     0.173 A 
ATOM     86  C   UNL A   1      45.796  27.841  34.609  1.00  0.00     0.173 A 
ATOM     87  F   UNL A   1      43.349  25.172  34.956  1.00  0.00    -0.203 F 
ATOM     88  C   UNL A   1      45.587  25.291  35.678  1.00  0.00     0.198 A 
ATOM     89  C   UNL A   1      46.897  27.250  35.222  1.00  0.00     0.198 A 
ATOM     90  F   UNL A   1      45.932  29.074  34.099  1.00  0.00    -0.203 F 
ATOM     91  F   UNL A   1      45.476  24.071  36.223  1.00  0.00    -0.200 F 
ATOM     92  C   UNL A   1      46.790  25.977  35.761  1.00  0.00     0.200 A 
ATOM     93  F   UNL A   1      48.063  27.907  35.279  1.00  0.00    -0.200 F 
ATOM     94  F   UNL A   1      47.846  25.412  36.361  1.00  0.00    -0.200 F 
ENDBRANCH  61  84
ENDBRANCH  35  36
ENDBRANCH  28  30
ENDBRANCH  27  28
ENDBRANCH  26  27
ENDBRANCH  25  26
ENDBRANCH  24  25
ENDBRANCH   1  24
TORSDOF 18
ENDMDL
MODEL 3
REMARK VINA RESULT:     -12.8      1.000      1.959
REMARK SMILES O=C(OCCOCCOCCOC(=O)c1ccc(-c2c3nc(c(-c4c(F)c(F)c(F)c(F)c4F)c4ccc([nH]4)c(-c4c(F)c(F)c(F)c(F)c4F)c4nc(c(-c5c(F)c(F)c(F)c(F)c5F)c5ccc2[nH]5)C=C4)C=C3)cc1)C1=Cc2cc(Cl)ccc2O[C@@H]1C(F)(F)F
REMARK SMILES IDX 8 1 7 2 6 3 5 4 4 5 3 6 2 7 1 8 78 9 79 10 88 11 80 12 87 13
REMARK SMILES IDX 81 14 86 15 82 16 85 17 83 18 84 19 89 20 90 21 91 22 92 23
REMARK SMILES IDX 9 24 10 25 11 26 12 27 13 28 14 29 15 30 16 31 77 32 17 33
REMARK SMILES IDX 76 34 18 35 19 36 20 37 70 38 21 39 75 40 69 41 71 42 22 43
REMARK SMILES IDX 74 44 68 45 67 46 23 48 55 49 35 50 54 51 36 52 39 53 53 54
REMARK SMILES IDX 72 55 37 56 38 57 52 59 73 60 40 61 24 62 25 63 33 64 26 65
REMARK SMILES IDX 27 66 31 67 34 68 28 69 29 70 32 71 30 72 56 73 57 74 65 75
REMARK SMILES IDX 58 76 59 77 63 78 66 79 60 80 61 81 64 82 62 83 41 84 42 85
REMARK SMILES IDX 50 86 43 87 44 88 48 89 51 90 45 91 46 92 49 93 47 94
REMARK H PARENT 71 47 39 58
REMARK Flexibility Score: inf
ROOT
ATOM      1  C   UNL A   1      39.990  21.603  26.755  1.00  0.00     0.188 C 
ENDROOT
BRANCH   1   2
ATOM      2  C   UNL A   1      38.755  21.744  25.845  1.00  0.00     0.188 C 
BRANCH   2   3
ATOM      3  O   UNL A   1      38.160  20.587  25.156  1.00  0.00    -0.376 OA
BRANCH   3   4
ATOM      4  C   UNL A   1      36.533  20.169  24.993  1.00  0.00     0.202 C 
BRANCH   4   5
ATOM      5  C   UNL A   1      34.834  21.212  25.880  1.00  0.00     0.261 C 
BRANCH   5   6
ATOM      6  O   UNL A   1      34.814  22.695  26.303  1.00  0.00    -0.460 OA
BRANCH   6   7
ATOM      7  C   UNL A   1      35.093  23.527  25.290  1.00  0.00     0.338 C 
ATOM      8  O   UNL A   1      36.132  24.075  25.014  1.00  0.00    -0.246 OA
BRANCH   7   9
ATOM      9  C   UNL A   1      33.721  23.902  25.036  1.00  0.00     0.087 C 
ATOM     10  C   UNL A   1      33.291  25.132  25.712  1.00  0.00     0.027 C 
ATOM     11  C   UNL A   1      33.850  23.662  23.124  1.00  0.00     0.316 C 
ATOM     12  C   UNL A   1      33.044  26.704  24.859  1.00  0.00     0.019 A 
ATOM     13  O   UNL A   1      33.739  25.369  22.206  1.00  0.00    -0.475 OA
ATOM     14  C   UNL A   1      32.676  27.811  25.570  1.00  0.00     0.032 A 
ATOM     15  C   UNL A   1      33.297  26.868  23.153  1.00  0.00     0.128 A 
ATOM     16  C   UNL A   1      32.490  28.971  24.796  1.00  0.00     0.041 A 
ATOM     17  C   UNL A   1      33.095  28.036  22.478  1.00  0.00     0.048 A 
ATOM     18  Cl  UNL A   1      31.978  30.395  25.649  1.00  0.00    -0.084 Cl
ATOM     19  C   UNL A   1      32.675  29.076  23.348  1.00  0.00     0.024 A 
BRANCH  11  20
ATOM     20  C   UNL A   1      32.898  22.326  23.037  1.00  0.00     0.430 C 
ATOM     21  F   UNL A   1      33.306  21.159  23.534  1.00  0.00    -0.167 F 
ATOM     22  F   UNL A   1      31.692  22.589  23.597  1.00  0.00    -0.167 F 
ATOM     23  F   UNL A   1      32.621  22.025  21.729  1.00  0.00    -0.167 F 
ENDBRANCH  11  20
ENDBRANCH   7   9
ENDBRANCH   6   7
ENDBRANCH   5   6
ENDBRANCH   4   5
ENDBRANCH   3   4
ENDBRANCH   2   3
ENDBRANCH   1   2
BRANCH   1  24
ATOM     24  O   UNL A   1      40.877  20.531  26.547  1.00  0.00    -0.376 OA
BRANCH  24  25
ATOM     25  C   UNL A   1      42.263  20.844  26.620  1.00  0.00     0.202 C 
BRANCH  25  26
ATOM     26  C   UNL A   1      42.960  21.343  25.346  1.00  0.00     0.261 C 
BRANCH  26  27
ATOM     27  O   UNL A   1      42.661  22.722  25.037  1.00  0.00    -0.460 OA
BRANCH  27  28
ATOM     28  C   UNL A   1      43.615  23.648  25.304  1.00  0.00     0.338 C 
ATOM     29  O   UNL A   1      44.758  23.682  24.884  1.00  0.00    -0.246 OA
BRANCH  28  30
ATOM     30  C   UNL A   1      43.020  24.729  26.117  1.00  0.00     0.060 A 
ATOM     31  C   UNL A   1      43.386  26.064  25.877  1.00  0.00     0.016 A 
ATOM     32  C   UNL A   1      42.125  24.414  27.138  1.00  0.00     0.016 A 
ATOM     33  C   UNL A   1      42.828  27.094  26.639  1.00  0.00     0.010 A 
ATOM     34  C   UNL A   1      41.611  25.435  27.934  1.00  0.00     0.010 A 
ATOM     35  C   UNL A   1      41.972  26.775  27.700  1.00  0.00    -0.014 A 
BRANCH  35  36
ATOM     36  C   UNL A   1      41.663  27.772  28.751  1.00  0.00     0.031 A 
ATOM     37  C   UNL A   1      42.474  27.710  30.012  1.00  0.00     0.074 A 
ATOM     38  C   UNL A   1      40.634  28.626  28.641  1.00  0.00     0.049 A 
ATOM     39  N   UNL A   1      42.293  28.314  31.156  1.00  0.00    -0.248 NA
ATOM     40  C   UNL A   1      43.642  26.814  29.978  1.00  0.00     0.031 C 
ATOM     41  C   UNL A   1      39.798  28.796  27.457  1.00  0.00     0.029 A 
ATOM     42  N   UNL A   1      40.094  29.485  29.568  1.00  0.00    -0.354 N 
ATOM     43  C   UNL A   1      43.308  27.853  31.983  1.00  0.00     0.074 A 
ATOM     44  C   UNL A   1      44.085  26.903  31.219  1.00  0.00     0.031 C 
ATOM     45  C   UNL A   1      38.821  29.676  27.740  1.00  0.00     0.029 A 
ATOM     46  C   UNL A   1      38.940  30.092  29.138  1.00  0.00     0.049 A 
ATOM     47  H   UNL A   1      40.495  29.648  30.452  1.00  0.00     0.167 HD
ATOM     48  C   UNL A   1      43.561  28.186  33.270  1.00  0.00     0.037 A 
ATOM     49  C   UNL A   1      38.061  30.859  29.816  1.00  0.00     0.037 A 
ATOM     50  C   UNL A   1      42.753  29.099  34.030  1.00  0.00     0.049 A 
ATOM     51  C   UNL A   1      38.316  31.168  31.272  1.00  0.00     0.074 A 
ATOM     52  C   UNL A   1      42.927  29.525  35.334  1.00  0.00     0.029 A 
ATOM     53  N   UNL A   1      41.596  29.706  33.558  1.00  0.00    -0.354 N 
ATOM     54  N   UNL A   1      39.296  30.763  32.045  1.00  0.00    -0.248 NA
ATOM     55  C   UNL A   1      37.344  32.038  31.949  1.00  0.00     0.031 C 
ATOM     56  C   UNL A   1      41.832  30.324  35.677  1.00  0.00     0.029 A 
ATOM     57  C   UNL A   1      41.024  30.474  34.559  1.00  0.00     0.049 A 
ATOM     58  H   UNL A   1      41.237  29.605  32.648  1.00  0.00     0.167 HD
ATOM     59  C   UNL A   1      39.081  31.355  33.284  1.00  0.00     0.074 A 
ATOM     60  C   UNL A   1      37.873  32.145  33.161  1.00  0.00     0.031 C 
ATOM     61  C   UNL A   1      39.824  31.262  34.416  1.00  0.00     0.037 A 
BRANCH  48  62
ATOM     62  C   UNL A   1      44.715  27.492  33.938  1.00  0.00     0.064 A 
ATOM     63  C   UNL A   1      46.016  28.023  33.922  1.00  0.00     0.173 A 
ATOM     64  C   UNL A   1      44.524  26.254  34.573  1.00  0.00     0.173 A 
ATOM     65  F   UNL A   1      46.259  29.194  33.315  1.00  0.00    -0.203 F 
ATOM     66  C   UNL A   1      47.087  27.314  34.459  1.00  0.00     0.198 A 
ATOM     67  C   UNL A   1      45.590  25.570  35.148  1.00  0.00     0.198 A 
ATOM     68  F   UNL A   1      43.304  25.701  34.623  1.00  0.00    -0.203 F 
ATOM     69  F   UNL A   1      48.331  27.800  34.349  1.00  0.00    -0.200 F 
ATOM     70  C   UNL A   1      46.873  26.090  35.074  1.00  0.00     0.200 A 
ATOM     71  F   UNL A   1      45.378  24.395  35.755  1.00  0.00    -0.200 F 
ATOM     72  F   UNL A   1      47.905  25.405  35.583  1.00  0.00    -0.200 F 
ENDBRANCH  48  62
BRANCH  49  73
ATOM     73  C   UNL A   1      36.848  31.368  29.121  1.00  0.00     0.064 A 
ATOM     74  C   UNL A   1      35.753  30.530  28.865  1.00  0.00     0.173 A 
ATOM     75  C   UNL A   1      36.746  32.710  28.725  1.00  0.00     0.173 A 
ATOM     76  F   UNL A   1      35.813  29.232  29.196  1.00  0.00    -0.203 F 
ATOM     77  C   UNL A   1      34.606  31.014  28.238  1.00  0.00     0.198 A 
ATOM     78  C   UNL A   1      35.588  33.200  28.125  1.00  0.00     0.198 A 
ATOM     79  F   UNL A   1      37.766  33.553  28.939  1.00  0.00    -0.203 F 
ATOM     80  F   UNL A   1      33.588  30.183  27.974  1.00  0.00    -0.200 F 
ATOM     81  C   UNL A   1      34.520  32.351  27.879  1.00  0.00     0.200 A 
ATOM     82  F   UNL A   1      35.505  34.495  27.790  1.00  0.00    -0.200 F 
ATOM     83  F   UNL A   1      33.410  32.819  27.292  1.00  0.00    -0.200 F 
ENDBRANCH  49  73
BRANCH  61  84
ATOM     84  C   UNL A   1      39.399  32.077  35.607  1.00  0.00     0.064 A 
ATOM     85  C   UNL A   1      39.781  33.417  35.771  1.00  0.00     0.173 A 
ATOM     86  C   UNL A   1      38.519  31.526  36.553  1.00  0.00     0.173 A 
ATOM     87  F   UNL A   1      40.627  33.989  34.902  1.00  0.00    -0.203 F 
ATOM     88  C   UNL A   1      39.307  34.169  36.844  1.00  0.00     0.198 A 
ATOM     89  C   UNL A   1      38.020  32.291  37.603  1.00  0.00     0.198 A 
ATOM     90  F   UNL A   1      38.114  30.253  36.439  1.00  0.00    -0.203 F 
ATOM     91  F   UNL A   1      39.713  35.437  37.002  1.00  0.00    -0.200 F 
ATOM     92  C   UNL A   1      38.418  33.611  37.751  1.00  0.00     0.200 A 
ATOM     93  F   UNL A   1      37.144  31.755  38.464  1.00  0.00    -0.200 F 
ATOM     94  F   UNL A   1      37.947  34.344  38.768  1.00  0.00    -0.200 F 
ENDBRANCH  61  84
ENDBRANCH  35  36
ENDBRANCH  28  30
ENDBRANCH  27  28
ENDBRANCH  26  27
ENDBRANCH  25  26
ENDBRANCH  24  25
ENDBRANCH   1  24
TORSDOF 18
ENDMDL
