MODEL 1
REMARK VINA RESULT:     -11.0      0.000      0.000
REMARK SMILES Cc1nn(C)c(C)c1CNC(=O)N[C@H]1CC[C@@H](C(=O)OCCOCCOCCOC(=O)c2ccc(-c3c4nc(c(-c5c(F)c(F)c(F)c(F)c5F)c5ccc([nH]5)c(-c5c(F)c(F)c(F)c(F)c5F)c5nc(c(-c6c(F)c(F)c(F)c(F)c6F)c6ccc3[nH]6)C=C5)C=C4)cc2)C1
REMARK SMILES IDX 24 1 23 2 22 3 21 4 20 5 18 6 19 7 17 8 14 9 15 10 95 11
REMARK SMILES IDX 16 12 13 13 10 14 11 15 12 17 9 19 8 20 1 21 2 22 3 23 4 24
REMARK SMILES IDX 6 25 5 26 7 27 25 28 26 29 27 30 28 31 29 32 30 33 31 34
REMARK SMILES IDX 32 35 33 36 94 37 34 38 93 39 35 40 36 41 37 42 87 43 38 44
REMARK SMILES IDX 92 45 86 46 88 47 39 48 91 49 85 50 84 51 40 53 72 54 52 55
REMARK SMILES IDX 71 56 53 57 56 58 70 59 89 60 54 61 55 62 69 64 90 65 57 66
REMARK SMILES IDX 41 67 42 68 50 69 43 70 44 71 48 72 51 73 45 74 46 75 49 76
REMARK SMILES IDX 47 77 73 78 74 79 82 80 75 81 76 82 80 83 83 84 77 85 78 86
REMARK SMILES IDX 81 87 79 88 58 89 59 90 67 91 60 92 61 93 65 94 68 95 62 96
REMARK SMILES IDX 63 97 66 98 64 99
REMARK H PARENT 10 16 13 18 88 52 56 63
REMARK Flexibility Score: inf
ROOT
ATOM      1  C   UNL A   1      35.523  33.295  28.013  1.00  0.00     0.188 C 
ENDROOT
BRANCH   1   2
ATOM      2  O   UNL A   1      35.082  32.082  27.425  1.00  0.00    -0.376 OA
BRANCH   2   3
ATOM      3  C   UNL A   1      34.013  31.359  28.033  1.00  0.00     0.202 C 
BRANCH   3   4
ATOM      4  C   UNL A   1      33.000  30.589  27.165  1.00  0.00     0.261 C 
BRANCH   4   5
ATOM      5  O   UNL A   1      33.588  29.769  26.134  1.00  0.00    -0.463 OA
BRANCH   5   6
ATOM      6  C   UNL A   1      32.856  28.707  25.712  1.00  0.00     0.309 C 
ATOM      7  O   UNL A   1      31.820  28.323  26.241  1.00  0.00    -0.252 OA
BRANCH   6   8
ATOM      8  C   UNL A   1      33.376  28.102  24.412  1.00  0.00     0.101 C 
ATOM      9  C   UNL A   1      32.714  25.785  24.180  1.00  0.00     0.084 C 
ATOM     10  C   UNL A   1      31.848  26.589  23.216  1.00  0.00     0.026 C 
ATOM     11  C   UNL A   1      33.914  26.673  24.426  1.00  0.00     0.040 C 
ATOM     12  C   UNL A   1      32.268  28.055  23.358  1.00  0.00     0.017 C 
BRANCH   9  13
ATOM     13  N   UNL A   1      32.033  25.506  25.433  1.00  0.00    -0.335 N 
ATOM     14  N   UNL A   1      32.002  23.157  25.613  1.00  0.00    -0.334 N 
ATOM     15  C   UNL A   1      31.752  24.377  26.093  1.00  0.00     0.315 C 
ATOM     16  H   UNL A   1      31.845  22.443  26.273  1.00  0.00     0.165 HD
ATOM     17  O   UNL A   1      31.265  24.475  27.221  1.00  0.00    -0.249 OA
ATOM     18  H   UNL A   1      31.712  26.316  25.891  1.00  0.00     0.165 HD
BRANCH  14  19
ATOM     19  C   UNL A   1      32.451  22.659  24.340  1.00  0.00     0.157 C 
BRANCH  19  20
ATOM     20  C   UNL A   1      33.715  21.867  24.462  1.00  0.00     0.015 A 
ATOM     21  C   UNL A   1      32.620  19.533  24.960  1.00  0.00     0.069 C 
ATOM     22  C   UNL A   1      33.753  20.474  24.775  1.00  0.00     0.065 A 
ATOM     23  N   UNL A   1      35.001  20.021  24.908  1.00  0.00    -0.178 NA
ATOM     24  N   UNL A   1      35.769  21.094  24.672  1.00  0.00    -0.272 N 
ATOM     25  C   UNL A   1      35.056  22.204  24.285  1.00  0.00     0.040 A 
ATOM     26  C   UNL A   1      37.194  20.963  24.873  1.00  0.00     0.174 C 
ATOM     27  C   UNL A   1      35.739  23.443  23.825  1.00  0.00     0.067 C 
ENDBRANCH  19  20
ENDBRANCH  14  19
ENDBRANCH   9  13
ENDBRANCH   6   8
ENDBRANCH   5   6
ENDBRANCH   4   5
ENDBRANCH   3   4
ENDBRANCH   2   3
ENDBRANCH   1   2
BRANCH   1  28
ATOM     28  C   UNL A   1      34.499  34.231  28.665  1.00  0.00     0.188 C 
BRANCH  28  29
ATOM     29  O   UNL A   1      34.510  35.555  28.195  1.00  0.00    -0.376 OA
BRANCH  29  30
ATOM     30  C   UNL A   1      33.605  36.488  28.771  1.00  0.00     0.202 C 
BRANCH  30  31
ATOM     31  C   UNL A   1      32.563  36.105  29.849  1.00  0.00     0.261 C 
BRANCH  31  32
ATOM     32  O   UNL A   1      32.548  36.847  31.078  1.00  0.00    -0.460 OA
BRANCH  32  33
ATOM     33  C   UNL A   1      32.411  36.150  32.230  1.00  0.00     0.338 C 
ATOM     34  O   UNL A   1      31.416  36.085  32.938  1.00  0.00    -0.246 OA
BRANCH  33  35
ATOM     35  C   UNL A   1      33.588  35.260  32.363  1.00  0.00     0.060 A 
ATOM     36  C   UNL A   1      33.401  33.941  32.810  1.00  0.00     0.016 A 
ATOM     37  C   UNL A   1      34.865  35.712  32.028  1.00  0.00     0.016 A 
ATOM     38  C   UNL A   1      34.491  33.077  32.935  1.00  0.00     0.010 A 
ATOM     39  C   UNL A   1      35.960  34.856  32.186  1.00  0.00     0.010 A 
ATOM     40  C   UNL A   1      35.782  33.543  32.664  1.00  0.00    -0.014 A 
BRANCH  40  41
ATOM     41  C   UNL A   1      36.966  32.739  33.059  1.00  0.00     0.031 A 
ATOM     42  C   UNL A   1      37.628  33.046  34.374  1.00  0.00     0.074 A 
ATOM     43  C   UNL A   1      37.449  31.758  32.275  1.00  0.00     0.049 A 
ATOM     44  N   UNL A   1      38.728  32.560  34.889  1.00  0.00    -0.248 NA
ATOM     45  C   UNL A   1      36.955  34.045  35.220  1.00  0.00     0.031 C 
ATOM     46  C   UNL A   1      36.869  31.324  31.007  1.00  0.00     0.029 A 
ATOM     47  N   UNL A   1      38.557  30.961  32.432  1.00  0.00    -0.354 N 
ATOM     48  C   UNL A   1      38.885  33.202  36.111  1.00  0.00     0.074 A 
ATOM     49  C   UNL A   1      37.786  34.132  36.248  1.00  0.00     0.031 C 
ATOM     50  C   UNL A   1      37.639  30.350  30.489  1.00  0.00     0.029 A 
ATOM     51  C   UNL A   1      38.784  30.122  31.368  1.00  0.00     0.049 A 
ATOM     52  H   UNL A   1      39.132  30.988  33.230  1.00  0.00     0.167 HD
ATOM     53  C   UNL A   1      39.858  33.029  37.037  1.00  0.00     0.037 A 
ATOM     54  C   UNL A   1      39.817  29.291  31.123  1.00  0.00     0.037 A 
ATOM     55  C   UNL A   1      40.955  32.109  36.896  1.00  0.00     0.049 A 
ATOM     56  C   UNL A   1      40.940  29.184  32.127  1.00  0.00     0.074 A 
ATOM     57  C   UNL A   1      41.986  31.852  37.783  1.00  0.00     0.029 A 
ATOM     58  N   UNL A   1      41.170  31.300  35.789  1.00  0.00    -0.354 N 
ATOM     59  N   UNL A   1      41.076  29.780  33.287  1.00  0.00    -0.248 NA
ATOM     60  C   UNL A   1      42.053  28.285  31.786  1.00  0.00     0.031 C 
ATOM     61  C   UNL A   1      42.858  30.935  37.187  1.00  0.00     0.029 A 
ATOM     62  C   UNL A   1      42.334  30.566  35.959  1.00  0.00     0.049 A 
ATOM     63  H   UNL A   1      40.584  31.254  35.000  1.00  0.00     0.167 HD
ATOM     64  C   UNL A   1      42.265  29.303  33.827  1.00  0.00     0.074 A 
ATOM     65  C   UNL A   1      42.807  28.359  32.872  1.00  0.00     0.031 C 
ATOM     66  C   UNL A   1      42.856  29.618  35.007  1.00  0.00     0.037 A 
BRANCH  53  67
ATOM     67  C   UNL A   1      39.795  33.876  38.274  1.00  0.00     0.064 A 
ATOM     68  C   UNL A   1      40.485  35.094  38.373  1.00  0.00     0.173 A 
ATOM     69  C   UNL A   1      39.011  33.478  39.367  1.00  0.00     0.173 A 
ATOM     70  F   UNL A   1      41.263  35.514  37.363  1.00  0.00    -0.203 F 
ATOM     71  C   UNL A   1      40.412  35.867  39.529  1.00  0.00     0.198 A 
ATOM     72  C   UNL A   1      38.913  34.270  40.508  1.00  0.00     0.198 A 
ATOM     73  F   UNL A   1      38.328  32.323  39.325  1.00  0.00    -0.203 F 
ATOM     74  F   UNL A   1      41.121  37.001  39.620  1.00  0.00    -0.200 F 
ATOM     75  C   UNL A   1      39.621  35.459  40.591  1.00  0.00     0.200 A 
ATOM     76  F   UNL A   1      38.136  33.880  41.528  1.00  0.00    -0.200 F 
ATOM     77  F   UNL A   1      39.544  36.210  41.699  1.00  0.00    -0.200 F 
ENDBRANCH  53  67
BRANCH  54  78
ATOM     78  C   UNL A   1      39.858  28.499  29.863  1.00  0.00     0.064 A 
ATOM     79  C   UNL A   1      39.303  27.213  29.799  1.00  0.00     0.173 A 
ATOM     80  C   UNL A   1      40.482  28.995  28.708  1.00  0.00     0.173 A 
ATOM     81  F   UNL A   1      38.722  26.680  30.885  1.00  0.00    -0.203 F 
ATOM     82  C   UNL A   1      39.390  26.446  28.638  1.00  0.00     0.198 A 
ATOM     83  C   UNL A   1      40.539  28.240  27.538  1.00  0.00     0.198 A 
ATOM     84  F   UNL A   1      41.036  30.216  28.716  1.00  0.00    -0.203 F 
ATOM     85  F   UNL A   1      38.901  25.198  28.625  1.00  0.00    -0.200 F 
ATOM     86  C   UNL A   1      40.002  26.963  27.507  1.00  0.00     0.200 A 
ATOM     87  F   UNL A   1      41.124  28.748  26.445  1.00  0.00    -0.200 F 
ATOM     88  F   UNL A   1      40.085  26.225  26.391  1.00  0.00    -0.200 F 
ENDBRANCH  54  78
BRANCH  66  89
ATOM     89  C   UNL A   1      44.127  28.900  35.364  1.00  0.00     0.064 A 
ATOM     90  C   UNL A   1      44.122  27.684  36.064  1.00  0.00     0.173 A 
ATOM     91  C   UNL A   1      45.369  29.412  34.954  1.00  0.00     0.173 A 
ATOM     92  F   UNL A   1      42.965  27.155  36.490  1.00  0.00    -0.203 F 
ATOM     93  C   UNL A   1      45.312  27.025  36.366  1.00  0.00     0.198 A 
ATOM     94  C   UNL A   1      46.553  28.733  35.225  1.00  0.00     0.198 A 
ATOM     95  F   UNL A   1      45.432  30.567  34.272  1.00  0.00    -0.203 F 
ATOM     96  F   UNL A   1      45.286  25.892  37.081  1.00  0.00    -0.200 F 
ATOM     97  C   UNL A   1      46.525  27.546  35.939  1.00  0.00     0.200 A 
ATOM     98  F   UNL A   1      47.721  29.228  34.796  1.00  0.00    -0.200 F 
ATOM     99  F   UNL A   1      47.667  26.904  36.220  1.00  0.00    -0.200 F 
ENDBRANCH  66  89
ENDBRANCH  40  41
ENDBRANCH  33  35
ENDBRANCH  32  33
ENDBRANCH  31  32
ENDBRANCH  30  31
ENDBRANCH  29  30
ENDBRANCH  28  29
ENDBRANCH   1  28
TORSDOF 20
ENDMDL
MODEL 2
REMARK VINA RESULT:     -10.8      0.974      2.026
REMARK SMILES Cc1nn(C)c(C)c1CNC(=O)N[C@H]1CC[C@@H](C(=O)OCCOCCOCCOC(=O)c2ccc(-c3c4nc(c(-c5c(F)c(F)c(F)c(F)c5F)c5ccc([nH]5)c(-c5c(F)c(F)c(F)c(F)c5F)c5nc(c(-c6c(F)c(F)c(F)c(F)c6F)c6ccc3[nH]6)C=C5)C=C4)cc2)C1
REMARK SMILES IDX 24 1 23 2 22 3 21 4 20 5 18 6 19 7 17 8 14 9 15 10 95 11
REMARK SMILES IDX 16 12 13 13 10 14 11 15 12 17 9 19 8 20 1 21 2 22 3 23 4 24
REMARK SMILES IDX 6 25 5 26 7 27 25 28 26 29 27 30 28 31 29 32 30 33 31 34
REMARK SMILES IDX 32 35 33 36 94 37 34 38 93 39 35 40 36 41 37 42 87 43 38 44
REMARK SMILES IDX 92 45 86 46 88 47 39 48 91 49 85 50 84 51 40 53 72 54 52 55
REMARK SMILES IDX 71 56 53 57 56 58 70 59 89 60 54 61 55 62 69 64 90 65 57 66
REMARK SMILES IDX 41 67 42 68 50 69 43 70 44 71 48 72 51 73 45 74 46 75 49 76
REMARK SMILES IDX 47 77 73 78 74 79 82 80 75 81 76 82 80 83 83 84 77 85 78 86
REMARK SMILES IDX 81 87 79 88 58 89 59 90 67 91 60 92 61 93 65 94 68 95 62 96
REMARK SMILES IDX 63 97 66 98 64 99
REMARK H PARENT 10 16 13 18 88 52 56 63
REMARK Flexibility Score: inf
ROOT
ATOM      1  C   UNL A   1      35.542  33.193  28.006  1.00  0.00     0.188 C 
ENDROOT
BRANCH   1   2
ATOM      2  O   UNL A   1      34.908  32.120  27.328  1.00  0.00    -0.376 OA
BRANCH   2   3
ATOM      3  C   UNL A   1      33.890  31.375  27.994  1.00  0.00     0.202 C 
BRANCH   3   4
ATOM      4  C   UNL A   1      33.048  30.342  27.222  1.00  0.00     0.261 C 
BRANCH   4   5
ATOM      5  O   UNL A   1      33.804  29.481  26.345  1.00  0.00    -0.463 OA
BRANCH   5   6
ATOM      6  C   UNL A   1      33.191  29.090  25.200  1.00  0.00     0.309 C 
ATOM      7  O   UNL A   1      32.125  29.541  24.794  1.00  0.00    -0.252 OA
BRANCH   6   8
ATOM      8  C   UNL A   1      34.027  28.117  24.376  1.00  0.00     0.101 C 
ATOM      9  C   UNL A   1      32.642  26.463  23.276  1.00  0.00     0.084 C 
ATOM     10  C   UNL A   1      33.099  27.441  22.199  1.00  0.00     0.026 C 
ATOM     11  C   UNL A   1      33.657  26.635  24.385  1.00  0.00     0.040 C 
ATOM     12  C   UNL A   1      33.978  28.487  22.892  1.00  0.00     0.017 C 
BRANCH   9  13
ATOM     13  N   UNL A   1      31.309  26.765  23.767  1.00  0.00    -0.335 N 
ATOM     14  N   UNL A   1      30.277  24.671  24.093  1.00  0.00    -0.334 N 
ATOM     15  C   UNL A   1      30.284  26.004  24.168  1.00  0.00     0.315 C 
ATOM     16  H   UNL A   1      29.500  24.264  24.538  1.00  0.00     0.165 HD
ATOM     17  O   UNL A   1      29.306  26.568  24.663  1.00  0.00    -0.249 OA
ATOM     18  H   UNL A   1      31.120  27.730  23.816  1.00  0.00     0.165 HD
BRANCH  14  19
ATOM     19  C   UNL A   1      31.162  23.702  23.501  1.00  0.00     0.157 C 
BRANCH  19  20
ATOM     20  C   UNL A   1      32.160  23.179  24.487  1.00  0.00     0.015 A 
ATOM     21  C   UNL A   1      34.239  23.122  22.883  1.00  0.00     0.069 C 
ATOM     22  C   UNL A   1      33.523  22.899  24.165  1.00  0.00     0.065 A 
ATOM     23  N   UNL A   1      34.185  22.366  25.192  1.00  0.00    -0.178 NA
ATOM     24  N   UNL A   1      33.276  22.310  26.177  1.00  0.00    -0.272 N 
ATOM     25  C   UNL A   1      32.074  22.891  25.848  1.00  0.00     0.040 A 
ATOM     26  C   UNL A   1      33.649  21.646  27.405  1.00  0.00     0.174 C 
ATOM     27  C   UNL A   1      30.998  23.072  26.858  1.00  0.00     0.067 C 
ENDBRANCH  19  20
ENDBRANCH  14  19
ENDBRANCH   9  13
ENDBRANCH   6   8
ENDBRANCH   5   6
ENDBRANCH   4   5
ENDBRANCH   3   4
ENDBRANCH   2   3
ENDBRANCH   1   2
BRANCH   1  28
ATOM     28  C   UNL A   1      34.685  34.206  28.775  1.00  0.00     0.188 C 
BRANCH  28  29
ATOM     29  O   UNL A   1      34.402  35.398  28.087  1.00  0.00    -0.376 OA
BRANCH  29  30
ATOM     30  C   UNL A   1      33.646  36.402  28.751  1.00  0.00     0.202 C 
BRANCH  30  31
ATOM     31  C   UNL A   1      32.540  36.086  29.787  1.00  0.00     0.261 C 
BRANCH  31  32
ATOM     32  O   UNL A   1      32.524  36.829  31.015  1.00  0.00    -0.460 OA
BRANCH  32  33
ATOM     33  C   UNL A   1      32.373  36.133  32.167  1.00  0.00     0.338 C 
ATOM     34  O   UNL A   1      31.362  36.055  32.853  1.00  0.00    -0.246 OA
BRANCH  33  35
ATOM     35  C   UNL A   1      33.560  35.263  32.329  1.00  0.00     0.060 A 
ATOM     36  C   UNL A   1      33.379  33.922  32.706  1.00  0.00     0.016 A 
ATOM     37  C   UNL A   1      34.843  35.756  32.090  1.00  0.00     0.016 A 
ATOM     38  C   UNL A   1      34.479  33.076  32.858  1.00  0.00     0.010 A 
ATOM     39  C   UNL A   1      35.947  34.917  32.274  1.00  0.00     0.010 A 
ATOM     40  C   UNL A   1      35.773  33.581  32.683  1.00  0.00    -0.014 A 
BRANCH  40  41
ATOM     41  C   UNL A   1      36.951  32.784  33.111  1.00  0.00     0.031 A 
ATOM     42  C   UNL A   1      37.581  33.104  34.439  1.00  0.00     0.074 A 
ATOM     43  C   UNL A   1      37.456  31.801  32.345  1.00  0.00     0.049 A 
ATOM     44  N   UNL A   1      38.671  32.627  34.983  1.00  0.00    -0.248 NA
ATOM     45  C   UNL A   1      36.884  34.106  35.262  1.00  0.00     0.031 C 
ATOM     46  C   UNL A   1      36.908  31.356  31.067  1.00  0.00     0.029 A 
ATOM     47  N   UNL A   1      38.564  31.010  32.533  1.00  0.00    -0.354 N 
ATOM     48  C   UNL A   1      38.796  33.277  36.204  1.00  0.00     0.074 A 
ATOM     49  C   UNL A   1      37.690  34.203  36.308  1.00  0.00     0.031 C 
ATOM     50  C   UNL A   1      37.694  30.381  30.574  1.00  0.00     0.029 A 
ATOM     51  C   UNL A   1      38.819  30.165  31.481  1.00  0.00     0.049 A 
ATOM     52  H   UNL A   1      39.120  31.045  33.344  1.00  0.00     0.167 HD
ATOM     53  C   UNL A   1      39.748  33.114  37.153  1.00  0.00     0.037 A 
ATOM     54  C   UNL A   1      39.861  29.336  31.265  1.00  0.00     0.037 A 
ATOM     55  C   UNL A   1      40.852  32.199  37.044  1.00  0.00     0.049 A 
ATOM     56  C   UNL A   1      40.960  29.241  32.297  1.00  0.00     0.074 A 
ATOM     57  C   UNL A   1      41.863  31.953  37.956  1.00  0.00     0.029 A 
ATOM     58  N   UNL A   1      41.096  31.383  35.948  1.00  0.00    -0.354 N 
ATOM     59  N   UNL A   1      41.068  29.846  33.455  1.00  0.00    -0.248 NA
ATOM     60  C   UNL A   1      42.085  28.345  31.987  1.00  0.00     0.031 C 
ATOM     61  C   UNL A   1      42.752  31.035  37.387  1.00  0.00     0.029 A 
ATOM     62  C   UNL A   1      42.259  30.656  36.150  1.00  0.00     0.049 A 
ATOM     63  H   UNL A   1      40.529  31.330  35.145  1.00  0.00     0.167 HD
ATOM     64  C   UNL A   1      42.246  29.378  34.026  1.00  0.00     0.074 A 
ATOM     65  C   UNL A   1      42.813  28.430  33.090  1.00  0.00     0.031 C 
ATOM     66  C   UNL A   1      42.807  29.704  35.217  1.00  0.00     0.037 A 
BRANCH  53  67
ATOM     67  C   UNL A   1      39.653  33.970  38.383  1.00  0.00     0.064 A 
ATOM     68  C   UNL A   1      38.905  33.576  39.503  1.00  0.00     0.173 A 
ATOM     69  C   UNL A   1      40.343  35.190  38.452  1.00  0.00     0.173 A 
ATOM     70  F   UNL A   1      38.212  32.427  39.483  1.00  0.00    -0.203 F 
ATOM     71  C   UNL A   1      38.832  34.383  40.635  1.00  0.00     0.198 A 
ATOM     72  C   UNL A   1      40.296  35.978  39.599  1.00  0.00     0.198 A 
ATOM     73  F   UNL A   1      41.075  35.613  37.411  1.00  0.00    -0.203 F 
ATOM     74  F   UNL A   1      38.071  34.010  41.674  1.00  0.00    -0.200 F 
ATOM     75  C   UNL A   1      39.533  35.578  40.686  1.00  0.00     0.200 A 
ATOM     76  F   UNL A   1      40.985  37.126  39.651  1.00  0.00    -0.200 F 
ATOM     77  F   UNL A   1      39.468  36.349  41.781  1.00  0.00    -0.200 F 
ENDBRANCH  53  67
BRANCH  54  78
ATOM     78  C   UNL A   1      39.935  28.537  30.012  1.00  0.00     0.064 A 
ATOM     79  C   UNL A   1      40.539  29.057  28.858  1.00  0.00     0.173 A 
ATOM     80  C   UNL A   1      39.375  27.253  29.930  1.00  0.00     0.173 A 
ATOM     81  F   UNL A   1      41.062  30.293  28.875  1.00  0.00    -0.203 F 
ATOM     82  C   UNL A   1      40.559  28.334  27.666  1.00  0.00     0.198 A 
ATOM     83  C   UNL A   1      39.425  26.518  28.747  1.00  0.00     0.198 A 
ATOM     84  F   UNL A   1      38.779  26.711  31.002  1.00  0.00    -0.203 F 
ATOM     85  F   UNL A   1      41.092  28.880  26.564  1.00  0.00    -0.200 F 
ATOM     86  C   UNL A   1      40.008  27.063  27.613  1.00  0.00     0.200 A 
ATOM     87  F   UNL A   1      38.900  25.287  28.704  1.00  0.00    -0.200 F 
ATOM     88  F   UNL A   1      40.028  26.368  26.467  1.00  0.00    -0.200 F 
ENDBRANCH  54  78
BRANCH  66  89
ATOM     89  C   UNL A   1      44.073  28.993  35.609  1.00  0.00     0.064 A 
ATOM     90  C   UNL A   1      44.056  27.783  36.317  1.00  0.00     0.173 A 
ATOM     91  C   UNL A   1      45.321  29.509  35.223  1.00  0.00     0.173 A 
ATOM     92  F   UNL A   1      42.893  27.252  36.720  1.00  0.00    -0.203 F 
ATOM     93  C   UNL A   1      45.242  27.131  36.651  1.00  0.00     0.198 A 
ATOM     94  C   UNL A   1      46.502  28.836  35.527  1.00  0.00     0.198 A 
ATOM     95  F   UNL A   1      45.396  30.658  34.535  1.00  0.00    -0.203 F 
ATOM     96  F   UNL A   1      45.204  26.003  37.373  1.00  0.00    -0.200 F 
ATOM     97  C   UNL A   1      46.462  27.654  36.248  1.00  0.00     0.200 A 
ATOM     98  F   UNL A   1      47.678  29.334  35.121  1.00  0.00    -0.200 F 
ATOM     99  F   UNL A   1      47.601  27.019  36.561  1.00  0.00    -0.200 F 
ENDBRANCH  66  89
ENDBRANCH  40  41
ENDBRANCH  33  35
ENDBRANCH  32  33
ENDBRANCH  31  32
ENDBRANCH  30  31
ENDBRANCH  29  30
ENDBRANCH  28  29
ENDBRANCH   1  28
TORSDOF 20
ENDMDL
MODEL 3
REMARK VINA RESULT:     -10.6      3.598      9.125
REMARK SMILES Cc1nn(C)c(C)c1CNC(=O)N[C@H]1CC[C@@H](C(=O)OCCOCCOCCOC(=O)c2ccc(-c3c4nc(c(-c5c(F)c(F)c(F)c(F)c5F)c5ccc([nH]5)c(-c5c(F)c(F)c(F)c(F)c5F)c5nc(c(-c6c(F)c(F)c(F)c(F)c6F)c6ccc3[nH]6)C=C5)C=C4)cc2)C1
REMARK SMILES IDX 24 1 23 2 22 3 21 4 20 5 18 6 19 7 17 8 14 9 15 10 95 11
REMARK SMILES IDX 16 12 13 13 10 14 11 15 12 17 9 19 8 20 1 21 2 22 3 23 4 24
REMARK SMILES IDX 6 25 5 26 7 27 25 28 26 29 27 30 28 31 29 32 30 33 31 34
REMARK SMILES IDX 32 35 33 36 94 37 34 38 93 39 35 40 36 41 37 42 87 43 38 44
REMARK SMILES IDX 92 45 86 46 88 47 39 48 91 49 85 50 84 51 40 53 72 54 52 55
REMARK SMILES IDX 71 56 53 57 56 58 70 59 89 60 54 61 55 62 69 64 90 65 57 66
REMARK SMILES IDX 41 67 42 68 50 69 43 70 44 71 48 72 51 73 45 74 46 75 49 76
REMARK SMILES IDX 47 77 73 78 74 79 82 80 75 81 76 82 80 83 83 84 77 85 78 86
REMARK SMILES IDX 81 87 79 88 58 89 59 90 67 91 60 92 61 93 65 94 68 95 62 96
REMARK SMILES IDX 63 97 66 98 64 99
REMARK H PARENT 10 16 13 18 88 52 56 63
REMARK Flexibility Score: inf
ROOT
ATOM      1  C   UNL A   1      39.677  21.318  26.120  1.00  0.00     0.188 C 
ENDROOT
BRANCH   1   2
ATOM      2  O   UNL A   1      38.611  22.250  26.200  1.00  0.00    -0.376 OA
BRANCH   2   3
ATOM      3  C   UNL A   1      37.574  22.212  25.222  1.00  0.00     0.202 C 
BRANCH   3   4
ATOM      4  C   UNL A   1      36.168  21.705  25.596  1.00  0.00     0.261 C 
BRANCH   4   5
ATOM      5  O   UNL A   1      35.428  21.117  24.507  1.00  0.00    -0.463 OA
BRANCH   5   6
ATOM      6  C   UNL A   1      34.076  21.213  24.569  1.00  0.00     0.309 C 
ATOM      7  O   UNL A   1      33.396  20.849  25.521  1.00  0.00    -0.252 OA
BRANCH   6   8
ATOM      8  C   UNL A   1      33.474  21.954  23.379  1.00  0.00     0.101 C 
ATOM      9  C   UNL A   1      32.043  23.771  24.093  1.00  0.00     0.084 C 
ATOM     10  C   UNL A   1      33.328  24.404  23.570  1.00  0.00     0.026 C 
ATOM     11  C   UNL A   1      32.016  22.403  23.449  1.00  0.00     0.040 C 
ATOM     12  C   UNL A   1      34.235  23.256  23.115  1.00  0.00     0.017 C 
BRANCH   9  13
ATOM     13  N   UNL A   1      32.038  23.644  25.540  1.00  0.00    -0.335 N 
ATOM     14  N   UNL A   1      30.359  25.118  26.289  1.00  0.00    -0.334 N 
ATOM     15  C   UNL A   1      31.289  24.185  26.507  1.00  0.00     0.315 C 
ATOM     16  H   UNL A   1      29.820  25.320  27.088  1.00  0.00     0.165 HD
ATOM     17  O   UNL A   1      31.447  23.773  27.658  1.00  0.00    -0.249 OA
ATOM     18  H   UNL A   1      32.730  23.032  25.880  1.00  0.00     0.165 HD
BRANCH  14  19
ATOM     19  C   UNL A   1      29.975  25.893  25.138  1.00  0.00     0.157 C 
BRANCH  19  20
ATOM     20  C   UNL A   1      30.863  27.081  24.941  1.00  0.00     0.015 A 
ATOM     21  C   UNL A   1      30.712  27.201  22.322  1.00  0.00     0.069 C 
ATOM     22  C   UNL A   1      31.199  27.619  23.661  1.00  0.00     0.065 A 
ATOM     23  N   UNL A   1      32.071  28.624  23.749  1.00  0.00    -0.178 NA
ATOM     24  N   UNL A   1      32.293  28.754  25.066  1.00  0.00    -0.272 N 
ATOM     25  C   UNL A   1      31.508  27.931  25.838  1.00  0.00     0.040 A 
ATOM     26  C   UNL A   1      33.312  29.687  25.491  1.00  0.00     0.174 C 
ATOM     27  C   UNL A   1      31.492  28.043  27.321  1.00  0.00     0.067 C 
ENDBRANCH  19  20
ENDBRANCH  14  19
ENDBRANCH   9  13
ENDBRANCH   6   8
ENDBRANCH   5   6
ENDBRANCH   4   5
ENDBRANCH   3   4
ENDBRANCH   2   3
ENDBRANCH   1   2
BRANCH   1  28
ATOM     28  C   UNL A   1      41.118  21.805  26.315  1.00  0.00     0.188 C 
BRANCH  28  29
ATOM     29  O   UNL A   1      42.112  20.980  25.762  1.00  0.00    -0.376 OA
BRANCH  29  30
ATOM     30  C   UNL A   1      43.425  21.503  25.617  1.00  0.00     0.202 C 
BRANCH  30  31
ATOM     31  C   UNL A   1      43.799  22.580  24.570  1.00  0.00     0.261 C 
BRANCH  31  32
ATOM     32  O   UNL A   1      43.559  23.958  24.895  1.00  0.00    -0.460 OA
BRANCH  32  33
ATOM     33  C   UNL A   1      44.626  24.715  25.245  1.00  0.00     0.338 C 
ATOM     34  O   UNL A   1      45.648  24.893  24.595  1.00  0.00    -0.246 OA
BRANCH  33  35
ATOM     35  C   UNL A   1      44.247  25.507  26.437  1.00  0.00     0.060 A 
ATOM     36  C   UNL A   1      43.368  24.947  27.380  1.00  0.00     0.016 A 
ATOM     37  C   UNL A   1      44.771  26.784  26.640  1.00  0.00     0.016 A 
ATOM     38  C   UNL A   1      43.002  25.667  28.518  1.00  0.00     0.010 A 
ATOM     39  C   UNL A   1      44.377  27.518  27.764  1.00  0.00     0.010 A 
ATOM     40  C   UNL A   1      43.472  26.974  28.695  1.00  0.00    -0.014 A 
BRANCH  40  41
ATOM     41  C   UNL A   1      42.877  27.847  29.738  1.00  0.00     0.031 A 
ATOM     42  C   UNL A   1      43.558  27.921  31.077  1.00  0.00     0.074 A 
ATOM     43  C   UNL A   1      41.759  28.560  29.512  1.00  0.00     0.049 A 
ATOM     44  N   UNL A   1      43.180  28.524  32.175  1.00  0.00    -0.248 NA
ATOM     45  C   UNL A   1      44.842  27.210  31.191  1.00  0.00     0.031 C 
ATOM     46  C   UNL A   1      41.035  28.620  28.246  1.00  0.00     0.029 A 
ATOM     47  N   UNL A   1      41.029  29.359  30.358  1.00  0.00    -0.354 N 
ATOM     48  C   UNL A   1      44.171  28.255  33.111  1.00  0.00     0.074 A 
ATOM     49  C   UNL A   1      45.152  27.412  32.462  1.00  0.00     0.031 C 
ATOM     50  C   UNL A   1      39.950  29.400  28.402  1.00  0.00     0.029 A 
ATOM     51  C   UNL A   1      39.883  29.859  29.789  1.00  0.00     0.049 A 
ATOM     52  H   UNL A   1      41.301  29.555  31.284  1.00  0.00     0.167 HD
ATOM     53  C   UNL A   1      44.257  28.677  34.395  1.00  0.00     0.037 A 
ATOM     54  C   UNL A   1      38.883  30.577  30.338  1.00  0.00     0.037 A 
ATOM     55  C   UNL A   1      43.276  29.509  35.041  1.00  0.00     0.049 A 
ATOM     56  C   UNL A   1      38.954  30.956  31.798  1.00  0.00     0.074 A 
ATOM     57  C   UNL A   1      43.278  29.998  36.335  1.00  0.00     0.029 A 
ATOM     58  N   UNL A   1      42.112  29.968  34.441  1.00  0.00    -0.354 N 
ATOM     59  N   UNL A   1      39.899  30.713  32.674  1.00  0.00    -0.248 NA
ATOM     60  C   UNL A   1      37.816  31.711  32.344  1.00  0.00     0.031 C 
ATOM     61  C   UNL A   1      42.086  30.701  36.538  1.00  0.00     0.029 A 
ATOM     62  C   UNL A   1      41.374  30.709  35.350  1.00  0.00     0.049 A 
ATOM     63  H   UNL A   1      41.849  29.791  33.509  1.00  0.00     0.167 HD
ATOM     64  C   UNL A   1      39.488  31.314  33.859  1.00  0.00     0.074 A 
ATOM     65  C   UNL A   1      38.213  31.942  33.586  1.00  0.00     0.031 C 
ATOM     66  C   UNL A   1      40.112  31.343  35.064  1.00  0.00     0.037 A 
BRANCH  53  67
ATOM     67  C   UNL A   1      45.439  28.217  35.197  1.00  0.00     0.064 A 
ATOM     68  C   UNL A   1      46.628  28.960  35.257  1.00  0.00     0.173 A 
ATOM     69  C   UNL A   1      45.372  27.029  35.941  1.00  0.00     0.173 A 
ATOM     70  F   UNL A   1      46.751  30.095  34.552  1.00  0.00    -0.203 F 
ATOM     71  C   UNL A   1      47.712  28.518  36.010  1.00  0.00     0.198 A 
ATOM     72  C   UNL A   1      46.445  26.607  36.720  1.00  0.00     0.198 A 
ATOM     73  F   UNL A   1      44.258  26.281  35.922  1.00  0.00    -0.203 F 
ATOM     74  F   UNL A   1      48.855  29.218  36.011  1.00  0.00    -0.200 F 
ATOM     75  C   UNL A   1      47.618  27.347  36.747  1.00  0.00     0.200 A 
ATOM     76  F   UNL A   1      46.347  25.482  37.442  1.00  0.00    -0.200 F 
ATOM     77  F   UNL A   1      48.660  26.928  37.478  1.00  0.00    -0.200 F 
ENDBRANCH  53  67
BRANCH  54  78
ATOM     78  C   UNL A   1      37.709  30.977  29.514  1.00  0.00     0.064 A 
ATOM     79  C   UNL A   1      37.566  32.293  29.051  1.00  0.00     0.173 A 
ATOM     80  C   UNL A   1      36.690  30.064  29.202  1.00  0.00     0.173 A 
ATOM     81  F   UNL A   1      38.497  33.212  29.349  1.00  0.00    -0.203 F 
ATOM     82  C   UNL A   1      36.441  32.685  28.328  1.00  0.00     0.198 A 
ATOM     83  C   UNL A   1      35.582  30.450  28.451  1.00  0.00     0.198 A 
ATOM     84  F   UNL A   1      36.773  28.795  29.626  1.00  0.00    -0.203 F 
ATOM     85  F   UNL A   1      36.304  33.963  27.949  1.00  0.00    -0.200 F 
ATOM     86  C   UNL A   1      35.452  31.762  28.023  1.00  0.00     0.200 A 
ATOM     87  F   UNL A   1      34.634  29.551  28.150  1.00  0.00    -0.200 F 
ATOM     88  F   UNL A   1      34.370  32.139  27.328  1.00  0.00    -0.200 F 
ENDBRANCH  54  78
BRANCH  66  89
ATOM     89  C   UNL A   1      39.455  32.122  36.169  1.00  0.00     0.064 A 
ATOM     90  C   UNL A   1      38.455  31.564  36.979  1.00  0.00     0.173 A 
ATOM     91  C   UNL A   1      39.871  33.434  36.453  1.00  0.00     0.173 A 
ATOM     92  F   UNL A   1      38.012  30.320  36.744  1.00  0.00    -0.203 F 
ATOM     93  C   UNL A   1      37.875  32.299  38.011  1.00  0.00     0.198 A 
ATOM     94  C   UNL A   1      39.314  34.152  37.508  1.00  0.00     0.198 A 
ATOM     95  F   UNL A   1      40.831  34.014  35.717  1.00  0.00    -0.203 F 
ATOM     96  F   UNL A   1      36.885  31.763  38.738  1.00  0.00    -0.200 F 
ATOM     97  C   UNL A   1      38.311  33.588  38.280  1.00  0.00     0.200 A 
ATOM     98  F   UNL A   1      39.750  35.389  37.777  1.00  0.00    -0.200 F 
ATOM     99  F   UNL A   1      37.760  34.288  39.281  1.00  0.00    -0.200 F 
ENDBRANCH  66  89
ENDBRANCH  40  41
ENDBRANCH  33  35
ENDBRANCH  32  33
ENDBRANCH  31  32
ENDBRANCH  30  31
ENDBRANCH  29  30
ENDBRANCH  28  29
ENDBRANCH   1  28
TORSDOF 20
ENDMDL
